
*** ChampSim Multicore Out-of-Order Simulator ***

Warmup Instructions: 1000000
Prefetch Warmup Instructions: 10000000
Simulation Instructions: 250000000
Stat Printing Period: 1000000
Number of CPUs: 1
LLC sets: 2048
LLC ways: 16
Off-chip DRAM Size: 32768 MB Channels: 2 Width: 64-bit Data Rate: 1024 MT/s

CPU 0 runs /scratch/cluster/cmolder/ML-DPC/ChampSimTraces/spec06/429.mcf-s1.trace.gz
Read seed: 622
Heartbeat CPU 0 instructions: 1000001 cycles: 460158 heartbeat IPC: 2.17317 cumulative IPC: 2.17317 (Simulation time: 0 hr 0 min 3 sec) 

Warmup complete CPU 0 instructions: 1000001 cycles: 460158 (Simulation time: 0 hr 0 min 3 sec) 

Heartbeat CPU 0 instructions: 2000000 cycles: 14565878 heartbeat IPC: 0.0708932 cumulative IPC: 0.0708932 (Simulation time: 0 hr 0 min 10 sec) 
Heartbeat CPU 0 instructions: 3000000 cycles: 24717494 heartbeat IPC: 0.0985065 cumulative IPC: 0.0824492 (Simulation time: 0 hr 0 min 15 sec) 
Heartbeat CPU 0 instructions: 4000000 cycles: 37753378 heartbeat IPC: 0.0767113 cumulative IPC: 0.0804435 (Simulation time: 0 hr 0 min 21 sec) 
Heartbeat CPU 0 instructions: 5000002 cycles: 48922254 heartbeat IPC: 0.0895347 cumulative IPC: 0.0825388 (Simulation time: 0 hr 0 min 26 sec) 
Heartbeat CPU 0 instructions: 6000003 cycles: 60789496 heartbeat IPC: 0.0842657 cumulative IPC: 0.0828784 (Simulation time: 0 hr 0 min 31 sec) 
Heartbeat CPU 0 instructions: 7000000 cycles: 77031400 heartbeat IPC: 0.061569 cumulative IPC: 0.0783584 (Simulation time: 0 hr 0 min 38 sec) 
Heartbeat CPU 0 instructions: 8000000 cycles: 90389579 heartbeat IPC: 0.0748605 cumulative IPC: 0.0778388 (Simulation time: 0 hr 0 min 44 sec) 
Heartbeat CPU 0 instructions: 9000000 cycles: 104211580 heartbeat IPC: 0.0723484 cumulative IPC: 0.0771074 (Simulation time: 0 hr 0 min 50 sec) 
Heartbeat CPU 0 instructions: 10000001 cycles: 116683487 heartbeat IPC: 0.0801803 cumulative IPC: 0.0774371 (Simulation time: 0 hr 0 min 56 sec) 

Warmup complete CPU 0 instructions: 10000001 cycles: 116683487 (Simulation time: 0 hr 0 min 56 sec) 

Heartbeat CPU 0 instructions: 11000000 cycles: 128076088 heartbeat IPC: 0.0877762 cumulative IPC: 0.0877762 (Simulation time: 0 hr 1 min 1 sec) 
Heartbeat CPU 0 instructions: 12000000 cycles: 139595436 heartbeat IPC: 0.0868105 cumulative IPC: 0.0872907 (Simulation time: 0 hr 1 min 7 sec) 
Heartbeat CPU 0 instructions: 13000002 cycles: 152624451 heartbeat IPC: 0.0767519 cumulative IPC: 0.0834702 (Simulation time: 0 hr 1 min 14 sec) 
Heartbeat CPU 0 instructions: 14000000 cycles: 164781311 heartbeat IPC: 0.0822579 cumulative IPC: 0.0831638 (Simulation time: 0 hr 1 min 19 sec) 
Heartbeat CPU 0 instructions: 15000000 cycles: 176591057 heartbeat IPC: 0.0846758 cumulative IPC: 0.0834619 (Simulation time: 0 hr 1 min 25 sec) 
Heartbeat CPU 0 instructions: 16000002 cycles: 187505100 heartbeat IPC: 0.0916253 cumulative IPC: 0.0847199 (Simulation time: 0 hr 1 min 30 sec) 
Heartbeat CPU 0 instructions: 17000001 cycles: 199266556 heartbeat IPC: 0.0850234 cumulative IPC: 0.0847631 (Simulation time: 0 hr 1 min 36 sec) 
Heartbeat CPU 0 instructions: 18000000 cycles: 210409134 heartbeat IPC: 0.0897457 cumulative IPC: 0.0853555 (Simulation time: 0 hr 1 min 41 sec) 
Heartbeat CPU 0 instructions: 19000002 cycles: 221623568 heartbeat IPC: 0.089171 cumulative IPC: 0.0857632 (Simulation time: 0 hr 1 min 46 sec) 
Heartbeat CPU 0 instructions: 20000000 cycles: 232663139 heartbeat IPC: 0.090583 cumulative IPC: 0.086222 (Simulation time: 0 hr 1 min 52 sec) 
Heartbeat CPU 0 instructions: 21000000 cycles: 243449411 heartbeat IPC: 0.0927104 cumulative IPC: 0.0867741 (Simulation time: 0 hr 1 min 57 sec) 
Heartbeat CPU 0 instructions: 22000000 cycles: 254249017 heartbeat IPC: 0.092596 cumulative IPC: 0.0872311 (Simulation time: 0 hr 2 min 2 sec) 
Heartbeat CPU 0 instructions: 23000000 cycles: 265586724 heartbeat IPC: 0.0882013 cumulative IPC: 0.087305 (Simulation time: 0 hr 2 min 8 sec) 
Heartbeat CPU 0 instructions: 24000001 cycles: 276892436 heartbeat IPC: 0.088451 cumulative IPC: 0.0873859 (Simulation time: 0 hr 2 min 13 sec) 
Heartbeat CPU 0 instructions: 25000000 cycles: 288900726 heartbeat IPC: 0.0832757 cumulative IPC: 0.0870993 (Simulation time: 0 hr 2 min 19 sec) 
Heartbeat CPU 0 instructions: 26000000 cycles: 300962515 heartbeat IPC: 0.0829064 cumulative IPC: 0.0868248 (Simulation time: 0 hr 2 min 24 sec) 
Heartbeat CPU 0 instructions: 27000000 cycles: 313940544 heartbeat IPC: 0.0770533 cumulative IPC: 0.086182 (Simulation time: 0 hr 2 min 30 sec) 
Heartbeat CPU 0 instructions: 28000000 cycles: 326642650 heartbeat IPC: 0.0787271 cumulative IPC: 0.085731 (Simulation time: 0 hr 2 min 36 sec) 
Heartbeat CPU 0 instructions: 29000001 cycles: 338516927 heartbeat IPC: 0.0842157 cumulative IPC: 0.0856498 (Simulation time: 0 hr 2 min 42 sec) 
Heartbeat CPU 0 instructions: 30000001 cycles: 350525752 heartbeat IPC: 0.0832721 cumulative IPC: 0.0855277 (Simulation time: 0 hr 2 min 47 sec) 
Heartbeat CPU 0 instructions: 31000001 cycles: 361884888 heartbeat IPC: 0.0880349 cumulative IPC: 0.0856439 (Simulation time: 0 hr 2 min 53 sec) 
Heartbeat CPU 0 instructions: 32000000 cycles: 373999521 heartbeat IPC: 0.0825447 cumulative IPC: 0.085498 (Simulation time: 0 hr 2 min 58 sec) 
Heartbeat CPU 0 instructions: 33000000 cycles: 385921939 heartbeat IPC: 0.0838756 cumulative IPC: 0.0854261 (Simulation time: 0 hr 3 min 4 sec) 
Heartbeat CPU 0 instructions: 34000000 cycles: 397561367 heartbeat IPC: 0.0859149 cumulative IPC: 0.0854464 (Simulation time: 0 hr 3 min 9 sec) 
Heartbeat CPU 0 instructions: 35000001 cycles: 409687506 heartbeat IPC: 0.0824666 cumulative IPC: 0.0853231 (Simulation time: 0 hr 3 min 15 sec) 
Heartbeat CPU 0 instructions: 36000002 cycles: 422504012 heartbeat IPC: 0.0780245 cumulative IPC: 0.0850172 (Simulation time: 0 hr 3 min 23 sec) 
Heartbeat CPU 0 instructions: 37000000 cycles: 434788203 heartbeat IPC: 0.0814053 cumulative IPC: 0.0848777 (Simulation time: 0 hr 3 min 29 sec) 
Heartbeat CPU 0 instructions: 38000000 cycles: 446412790 heartbeat IPC: 0.0860246 cumulative IPC: 0.0849181 (Simulation time: 0 hr 3 min 34 sec) 
Heartbeat CPU 0 instructions: 39000000 cycles: 458557150 heartbeat IPC: 0.0823428 cumulative IPC: 0.0848267 (Simulation time: 0 hr 3 min 40 sec) 
Heartbeat CPU 0 instructions: 40000000 cycles: 470079193 heartbeat IPC: 0.0867902 cumulative IPC: 0.0848907 (Simulation time: 0 hr 3 min 46 sec) 
Heartbeat CPU 0 instructions: 41000001 cycles: 481461927 heartbeat IPC: 0.0878524 cumulative IPC: 0.0849831 (Simulation time: 0 hr 3 min 51 sec) 
Heartbeat CPU 0 instructions: 42000000 cycles: 493323700 heartbeat IPC: 0.0843043 cumulative IPC: 0.0849617 (Simulation time: 0 hr 3 min 57 sec) 
Heartbeat CPU 0 instructions: 43000001 cycles: 504630360 heartbeat IPC: 0.0884435 cumulative IPC: 0.0850632 (Simulation time: 0 hr 4 min 2 sec) 
Heartbeat CPU 0 instructions: 44000000 cycles: 516194419 heartbeat IPC: 0.0864747 cumulative IPC: 0.085104 (Simulation time: 0 hr 4 min 8 sec) 
Heartbeat CPU 0 instructions: 45000001 cycles: 527742950 heartbeat IPC: 0.0865912 cumulative IPC: 0.0851458 (Simulation time: 0 hr 4 min 13 sec) 
Heartbeat CPU 0 instructions: 46000000 cycles: 539203615 heartbeat IPC: 0.0872549 cumulative IPC: 0.085203 (Simulation time: 0 hr 4 min 19 sec) 
Heartbeat CPU 0 instructions: 47000000 cycles: 550034105 heartbeat IPC: 0.0923319 cumulative IPC: 0.0853812 (Simulation time: 0 hr 4 min 24 sec) 
Heartbeat CPU 0 instructions: 48000002 cycles: 561180775 heartbeat IPC: 0.0897131 cumulative IPC: 0.0854898 (Simulation time: 0 hr 4 min 29 sec) 
Heartbeat CPU 0 instructions: 49000000 cycles: 572829479 heartbeat IPC: 0.0858463 cumulative IPC: 0.0854989 (Simulation time: 0 hr 4 min 35 sec) 
Heartbeat CPU 0 instructions: 50000000 cycles: 584820645 heartbeat IPC: 0.0833947 cumulative IPC: 0.085445 (Simulation time: 0 hr 4 min 41 sec) 
Heartbeat CPU 0 instructions: 51000000 cycles: 597493332 heartbeat IPC: 0.0789099 cumulative IPC: 0.0852728 (Simulation time: 0 hr 4 min 47 sec) 
Heartbeat CPU 0 instructions: 52000000 cycles: 609265944 heartbeat IPC: 0.0849429 cumulative IPC: 0.0852649 (Simulation time: 0 hr 4 min 52 sec) 
Heartbeat CPU 0 instructions: 53000000 cycles: 621207438 heartbeat IPC: 0.0837416 cumulative IPC: 0.0852289 (Simulation time: 0 hr 4 min 58 sec) 
Heartbeat CPU 0 instructions: 54000001 cycles: 633476609 heartbeat IPC: 0.0815052 cumulative IPC: 0.0851405 (Simulation time: 0 hr 5 min 4 sec) 
Heartbeat CPU 0 instructions: 55000000 cycles: 645203417 heartbeat IPC: 0.0852746 cumulative IPC: 0.0851434 (Simulation time: 0 hr 5 min 9 sec) 
Heartbeat CPU 0 instructions: 56000001 cycles: 657320016 heartbeat IPC: 0.0825315 cumulative IPC: 0.0850849 (Simulation time: 0 hr 5 min 15 sec) 
Heartbeat CPU 0 instructions: 57000000 cycles: 668995897 heartbeat IPC: 0.0856466 cumulative IPC: 0.0850968 (Simulation time: 0 hr 5 min 20 sec) 
Heartbeat CPU 0 instructions: 58000001 cycles: 680143629 heartbeat IPC: 0.0897044 cumulative IPC: 0.0851879 (Simulation time: 0 hr 5 min 26 sec) 
Heartbeat CPU 0 instructions: 59000003 cycles: 691578685 heartbeat IPC: 0.0874506 cumulative IPC: 0.0852329 (Simulation time: 0 hr 5 min 32 sec) 
Heartbeat CPU 0 instructions: 60000000 cycles: 702871239 heartbeat IPC: 0.0885537 cumulative IPC: 0.0852969 (Simulation time: 0 hr 5 min 38 sec) 
Heartbeat CPU 0 instructions: 61000002 cycles: 714668872 heartbeat IPC: 0.0847629 cumulative IPC: 0.0852864 (Simulation time: 0 hr 5 min 43 sec) 
Heartbeat CPU 0 instructions: 62000001 cycles: 723750661 heartbeat IPC: 0.11011 cumulative IPC: 0.0856577 (Simulation time: 0 hr 5 min 48 sec) 
Heartbeat CPU 0 instructions: 63000000 cycles: 734768542 heartbeat IPC: 0.0907615 cumulative IPC: 0.0857487 (Simulation time: 0 hr 5 min 53 sec) 
Heartbeat CPU 0 instructions: 64000000 cycles: 746651544 heartbeat IPC: 0.0841538 cumulative IPC: 0.0857186 (Simulation time: 0 hr 5 min 59 sec) 
Heartbeat CPU 0 instructions: 65000001 cycles: 757730783 heartbeat IPC: 0.090259 cumulative IPC: 0.0857971 (Simulation time: 0 hr 6 min 5 sec) 
Heartbeat CPU 0 instructions: 66000000 cycles: 768965628 heartbeat IPC: 0.0890087 cumulative IPC: 0.0858524 (Simulation time: 0 hr 6 min 10 sec) 
Heartbeat CPU 0 instructions: 67000001 cycles: 780250304 heartbeat IPC: 0.0886158 cumulative IPC: 0.0858994 (Simulation time: 0 hr 6 min 15 sec) 
Heartbeat CPU 0 instructions: 68000002 cycles: 792231367 heartbeat IPC: 0.0834651 cumulative IPC: 0.0858562 (Simulation time: 0 hr 6 min 21 sec) 
Heartbeat CPU 0 instructions: 69000000 cycles: 803660195 heartbeat IPC: 0.0874979 cumulative IPC: 0.0858836 (Simulation time: 0 hr 6 min 26 sec) 
Heartbeat CPU 0 instructions: 70000000 cycles: 814748377 heartbeat IPC: 0.0901861 cumulative IPC: 0.0859519 (Simulation time: 0 hr 6 min 32 sec) 
Heartbeat CPU 0 instructions: 71000000 cycles: 826508463 heartbeat IPC: 0.0850334 cumulative IPC: 0.0859367 (Simulation time: 0 hr 6 min 38 sec) 
Heartbeat CPU 0 instructions: 72000001 cycles: 838008246 heartbeat IPC: 0.0869583 cumulative IPC: 0.085953 (Simulation time: 0 hr 6 min 43 sec) 
Heartbeat CPU 0 instructions: 73000000 cycles: 849429673 heartbeat IPC: 0.0875546 cumulative IPC: 0.0859779 (Simulation time: 0 hr 6 min 49 sec) 
Heartbeat CPU 0 instructions: 74000000 cycles: 860665092 heartbeat IPC: 0.0890042 cumulative IPC: 0.0860236 (Simulation time: 0 hr 6 min 54 sec) 
Heartbeat CPU 0 instructions: 75000000 cycles: 871957665 heartbeat IPC: 0.0885538 cumulative IPC: 0.0860615 (Simulation time: 0 hr 7 min 0 sec) 
Heartbeat CPU 0 instructions: 76000000 cycles: 883090171 heartbeat IPC: 0.089827 cumulative IPC: 0.0861162 (Simulation time: 0 hr 7 min 5 sec) 
Heartbeat CPU 0 instructions: 77000000 cycles: 895803098 heartbeat IPC: 0.0786601 cumulative IPC: 0.0859945 (Simulation time: 0 hr 7 min 12 sec) 
Heartbeat CPU 0 instructions: 78000000 cycles: 908259951 heartbeat IPC: 0.0802771 cumulative IPC: 0.0859045 (Simulation time: 0 hr 7 min 18 sec) 
Heartbeat CPU 0 instructions: 79000001 cycles: 919477549 heartbeat IPC: 0.0891457 cumulative IPC: 0.0859498 (Simulation time: 0 hr 7 min 24 sec) 
Heartbeat CPU 0 instructions: 80000000 cycles: 930599089 heartbeat IPC: 0.0899155 cumulative IPC: 0.086004 (Simulation time: 0 hr 7 min 30 sec) 
Heartbeat CPU 0 instructions: 81000001 cycles: 942180488 heartbeat IPC: 0.0863454 cumulative IPC: 0.0860088 (Simulation time: 0 hr 7 min 35 sec) 
Heartbeat CPU 0 instructions: 82000002 cycles: 951990217 heartbeat IPC: 0.10194 cumulative IPC: 0.0861959 (Simulation time: 0 hr 7 min 40 sec) 
Heartbeat CPU 0 instructions: 83000000 cycles: 961109397 heartbeat IPC: 0.109659 cumulative IPC: 0.0864493 (Simulation time: 0 hr 7 min 45 sec) 
Heartbeat CPU 0 instructions: 84000000 cycles: 970419762 heartbeat IPC: 0.107407 cumulative IPC: 0.0866778 (Simulation time: 0 hr 7 min 50 sec) 
Heartbeat CPU 0 instructions: 85000000 cycles: 980338030 heartbeat IPC: 0.100824 cumulative IPC: 0.0868403 (Simulation time: 0 hr 7 min 56 sec) 
Heartbeat CPU 0 instructions: 86000002 cycles: 989595302 heartbeat IPC: 0.108023 cumulative IPC: 0.0870649 (Simulation time: 0 hr 8 min 0 sec) 
Heartbeat CPU 0 instructions: 87000002 cycles: 1000771253 heartbeat IPC: 0.0894778 cumulative IPC: 0.0870954 (Simulation time: 0 hr 8 min 7 sec) 
Heartbeat CPU 0 instructions: 88000000 cycles: 1012560878 heartbeat IPC: 0.0848202 cumulative IPC: 0.0870655 (Simulation time: 0 hr 8 min 14 sec) 
Heartbeat CPU 0 instructions: 89000002 cycles: 1022133933 heartbeat IPC: 0.10446 cumulative IPC: 0.0872494 (Simulation time: 0 hr 8 min 19 sec) 
Heartbeat CPU 0 instructions: 90000000 cycles: 1029843237 heartbeat IPC: 0.129713 cumulative IPC: 0.0876079 (Simulation time: 0 hr 8 min 23 sec) 
Heartbeat CPU 0 instructions: 91000000 cycles: 1041177318 heartbeat IPC: 0.0882295 cumulative IPC: 0.0876155 (Simulation time: 0 hr 8 min 29 sec) 
Heartbeat CPU 0 instructions: 92000000 cycles: 1050249102 heartbeat IPC: 0.110232 cumulative IPC: 0.0878353 (Simulation time: 0 hr 8 min 34 sec) 
Heartbeat CPU 0 instructions: 93000000 cycles: 1061925757 heartbeat IPC: 0.085641 cumulative IPC: 0.0878082 (Simulation time: 0 hr 8 min 40 sec) 
Heartbeat CPU 0 instructions: 94000000 cycles: 1073649987 heartbeat IPC: 0.0852934 cumulative IPC: 0.0877774 (Simulation time: 0 hr 8 min 46 sec) 
Heartbeat CPU 0 instructions: 95000001 cycles: 1085216413 heartbeat IPC: 0.0864572 cumulative IPC: 0.0877616 (Simulation time: 0 hr 8 min 51 sec) 
Heartbeat CPU 0 instructions: 96000000 cycles: 1097454352 heartbeat IPC: 0.081713 cumulative IPC: 0.0876861 (Simulation time: 0 hr 8 min 56 sec) 
Heartbeat CPU 0 instructions: 97000001 cycles: 1108923909 heartbeat IPC: 0.0871874 cumulative IPC: 0.0876804 (Simulation time: 0 hr 9 min 2 sec) 
Heartbeat CPU 0 instructions: 98000000 cycles: 1120447678 heartbeat IPC: 0.0867771 cumulative IPC: 0.08767 (Simulation time: 0 hr 9 min 7 sec) 
Heartbeat CPU 0 instructions: 99000000 cycles: 1131552795 heartbeat IPC: 0.0900486 cumulative IPC: 0.087696 (Simulation time: 0 hr 9 min 13 sec) 
Heartbeat CPU 0 instructions: 100000002 cycles: 1142598203 heartbeat IPC: 0.0905355 cumulative IPC: 0.0877266 (Simulation time: 0 hr 9 min 18 sec) 
Heartbeat CPU 0 instructions: 101000002 cycles: 1154133486 heartbeat IPC: 0.0866905 cumulative IPC: 0.0877151 (Simulation time: 0 hr 9 min 24 sec) 
Heartbeat CPU 0 instructions: 102000000 cycles: 1165406953 heartbeat IPC: 0.0887037 cumulative IPC: 0.0877257 (Simulation time: 0 hr 9 min 29 sec) 
Heartbeat CPU 0 instructions: 103000000 cycles: 1177336771 heartbeat IPC: 0.0838236 cumulative IPC: 0.0876818 (Simulation time: 0 hr 9 min 35 sec) 
Heartbeat CPU 0 instructions: 104000000 cycles: 1189269818 heartbeat IPC: 0.0838009 cumulative IPC: 0.0876386 (Simulation time: 0 hr 9 min 41 sec) 
Heartbeat CPU 0 instructions: 105000001 cycles: 1201012606 heartbeat IPC: 0.0851587 cumulative IPC: 0.0876118 (Simulation time: 0 hr 9 min 46 sec) 
Heartbeat CPU 0 instructions: 106000000 cycles: 1212721130 heartbeat IPC: 0.0854078 cumulative IPC: 0.0875882 (Simulation time: 0 hr 9 min 52 sec) 
Heartbeat CPU 0 instructions: 107000000 cycles: 1223808357 heartbeat IPC: 0.0901939 cumulative IPC: 0.0876143 (Simulation time: 0 hr 9 min 57 sec) 
Heartbeat CPU 0 instructions: 108000000 cycles: 1235400118 heartbeat IPC: 0.0862682 cumulative IPC: 0.0876004 (Simulation time: 0 hr 10 min 3 sec) 
Heartbeat CPU 0 instructions: 109000000 cycles: 1246703749 heartbeat IPC: 0.0884672 cumulative IPC: 0.087609 (Simulation time: 0 hr 10 min 8 sec) 
Heartbeat CPU 0 instructions: 110000000 cycles: 1258495942 heartbeat IPC: 0.0848019 cumulative IPC: 0.0875801 (Simulation time: 0 hr 10 min 14 sec) 
Heartbeat CPU 0 instructions: 111000000 cycles: 1270192211 heartbeat IPC: 0.0854973 cumulative IPC: 0.0875589 (Simulation time: 0 hr 10 min 20 sec) 
Heartbeat CPU 0 instructions: 112000002 cycles: 1281503214 heartbeat IPC: 0.0884097 cumulative IPC: 0.0875672 (Simulation time: 0 hr 10 min 25 sec) 
Heartbeat CPU 0 instructions: 113000002 cycles: 1292784955 heartbeat IPC: 0.0886388 cumulative IPC: 0.0875775 (Simulation time: 0 hr 10 min 31 sec) 
Heartbeat CPU 0 instructions: 114000001 cycles: 1303953337 heartbeat IPC: 0.0895384 cumulative IPC: 0.0875959 (Simulation time: 0 hr 10 min 36 sec) 
Heartbeat CPU 0 instructions: 115000000 cycles: 1315383549 heartbeat IPC: 0.0874874 cumulative IPC: 0.0875949 (Simulation time: 0 hr 10 min 42 sec) 
Heartbeat CPU 0 instructions: 116000002 cycles: 1326460389 heartbeat IPC: 0.0902786 cumulative IPC: 0.0876195 (Simulation time: 0 hr 10 min 47 sec) 
Heartbeat CPU 0 instructions: 117000000 cycles: 1338644221 heartbeat IPC: 0.0820758 cumulative IPC: 0.0875642 (Simulation time: 0 hr 10 min 53 sec) 
Heartbeat CPU 0 instructions: 118000000 cycles: 1350021144 heartbeat IPC: 0.0878972 cumulative IPC: 0.0875673 (Simulation time: 0 hr 10 min 59 sec) 
Heartbeat CPU 0 instructions: 119000001 cycles: 1361613133 heartbeat IPC: 0.0862666 cumulative IPC: 0.0875551 (Simulation time: 0 hr 11 min 4 sec) 
Heartbeat CPU 0 instructions: 120000000 cycles: 1372684782 heartbeat IPC: 0.0903207 cumulative IPC: 0.0875795 (Simulation time: 0 hr 11 min 10 sec) 
Heartbeat CPU 0 instructions: 121000000 cycles: 1383603005 heartbeat IPC: 0.09159 cumulative IPC: 0.0876141 (Simulation time: 0 hr 11 min 15 sec) 
Heartbeat CPU 0 instructions: 122000002 cycles: 1394931842 heartbeat IPC: 0.0882705 cumulative IPC: 0.0876199 (Simulation time: 0 hr 11 min 21 sec) 
Heartbeat CPU 0 instructions: 123000000 cycles: 1406401158 heartbeat IPC: 0.087189 cumulative IPC: 0.0876161 (Simulation time: 0 hr 11 min 27 sec) 
Heartbeat CPU 0 instructions: 124000001 cycles: 1419271193 heartbeat IPC: 0.0776999 cumulative IPC: 0.0875181 (Simulation time: 0 hr 11 min 33 sec) 
Heartbeat CPU 0 instructions: 125000001 cycles: 1430729570 heartbeat IPC: 0.0872724 cumulative IPC: 0.087516 (Simulation time: 0 hr 11 min 39 sec) 
Heartbeat CPU 0 instructions: 126000000 cycles: 1442549969 heartbeat IPC: 0.0845994 cumulative IPC: 0.08749 (Simulation time: 0 hr 11 min 44 sec) 
Heartbeat CPU 0 instructions: 127000001 cycles: 1454009730 heartbeat IPC: 0.0872619 cumulative IPC: 0.087488 (Simulation time: 0 hr 11 min 50 sec) 
Heartbeat CPU 0 instructions: 128000000 cycles: 1465950837 heartbeat IPC: 0.0837442 cumulative IPC: 0.0874549 (Simulation time: 0 hr 11 min 56 sec) 
Heartbeat CPU 0 instructions: 129000002 cycles: 1477918793 heartbeat IPC: 0.0835566 cumulative IPC: 0.0874206 (Simulation time: 0 hr 12 min 1 sec) 
Heartbeat CPU 0 instructions: 130000000 cycles: 1489749954 heartbeat IPC: 0.0845224 cumulative IPC: 0.0873956 (Simulation time: 0 hr 12 min 7 sec) 
Heartbeat CPU 0 instructions: 131000000 cycles: 1501833534 heartbeat IPC: 0.0827569 cumulative IPC: 0.0873552 (Simulation time: 0 hr 12 min 12 sec) 
Heartbeat CPU 0 instructions: 132000000 cycles: 1513075732 heartbeat IPC: 0.0889506 cumulative IPC: 0.087368 (Simulation time: 0 hr 12 min 18 sec) 
Heartbeat CPU 0 instructions: 133000000 cycles: 1524641976 heartbeat IPC: 0.0864585 cumulative IPC: 0.0873605 (Simulation time: 0 hr 12 min 24 sec) 
Heartbeat CPU 0 instructions: 134000000 cycles: 1536589411 heartbeat IPC: 0.0837 cumulative IPC: 0.0873297 (Simulation time: 0 hr 12 min 29 sec) 
Heartbeat CPU 0 instructions: 135000000 cycles: 1547583696 heartbeat IPC: 0.0909563 cumulative IPC: 0.0873576 (Simulation time: 0 hr 12 min 35 sec) 
Heartbeat CPU 0 instructions: 136000001 cycles: 1558480980 heartbeat IPC: 0.0917661 cumulative IPC: 0.0873909 (Simulation time: 0 hr 12 min 41 sec) 
Heartbeat CPU 0 instructions: 137000001 cycles: 1570468712 heartbeat IPC: 0.0834186 cumulative IPC: 0.0873582 (Simulation time: 0 hr 12 min 47 sec) 
Heartbeat CPU 0 instructions: 138000001 cycles: 1581979537 heartbeat IPC: 0.0868747 cumulative IPC: 0.0873544 (Simulation time: 0 hr 12 min 53 sec) 
Heartbeat CPU 0 instructions: 139000002 cycles: 1593493767 heartbeat IPC: 0.0868491 cumulative IPC: 0.0873504 (Simulation time: 0 hr 12 min 59 sec) 
Heartbeat CPU 0 instructions: 140000000 cycles: 1605247162 heartbeat IPC: 0.0850816 cumulative IPC: 0.0873325 (Simulation time: 0 hr 13 min 5 sec) 
Heartbeat CPU 0 instructions: 141000003 cycles: 1618071732 heartbeat IPC: 0.0779756 cumulative IPC: 0.0872526 (Simulation time: 0 hr 13 min 12 sec) 
Heartbeat CPU 0 instructions: 142000000 cycles: 1630203272 heartbeat IPC: 0.0824295 cumulative IPC: 0.0872139 (Simulation time: 0 hr 13 min 19 sec) 
Heartbeat CPU 0 instructions: 143000000 cycles: 1641735412 heartbeat IPC: 0.0867142 cumulative IPC: 0.0872101 (Simulation time: 0 hr 13 min 25 sec) 
Heartbeat CPU 0 instructions: 144000000 cycles: 1652738877 heartbeat IPC: 0.0908805 cumulative IPC: 0.0872364 (Simulation time: 0 hr 13 min 30 sec) 
Heartbeat CPU 0 instructions: 145000000 cycles: 1664138636 heartbeat IPC: 0.0877212 cumulative IPC: 0.08724 (Simulation time: 0 hr 13 min 36 sec) 
Heartbeat CPU 0 instructions: 146000003 cycles: 1675367606 heartbeat IPC: 0.0890556 cumulative IPC: 0.0872531 (Simulation time: 0 hr 13 min 42 sec) 
Heartbeat CPU 0 instructions: 147000002 cycles: 1685438311 heartbeat IPC: 0.0992978 cumulative IPC: 0.0873304 (Simulation time: 0 hr 13 min 48 sec) 
Heartbeat CPU 0 instructions: 148000002 cycles: 1695756043 heartbeat IPC: 0.0969205 cumulative IPC: 0.0873931 (Simulation time: 0 hr 13 min 53 sec) 
Heartbeat CPU 0 instructions: 149000000 cycles: 1705682022 heartbeat IPC: 0.100746 cumulative IPC: 0.0874765 (Simulation time: 0 hr 13 min 58 sec) 
Heartbeat CPU 0 instructions: 150000003 cycles: 1716808699 heartbeat IPC: 0.0898744 cumulative IPC: 0.0874932 (Simulation time: 0 hr 14 min 4 sec) 
Heartbeat CPU 0 instructions: 151000001 cycles: 1727955030 heartbeat IPC: 0.0897154 cumulative IPC: 0.0875085 (Simulation time: 0 hr 14 min 10 sec) 
Heartbeat CPU 0 instructions: 152000002 cycles: 1739237022 heartbeat IPC: 0.0886369 cumulative IPC: 0.0875164 (Simulation time: 0 hr 14 min 15 sec) 
Heartbeat CPU 0 instructions: 153000002 cycles: 1750333230 heartbeat IPC: 0.0901209 cumulative IPC: 0.0875341 (Simulation time: 0 hr 14 min 21 sec) 
Heartbeat CPU 0 instructions: 154000000 cycles: 1761619936 heartbeat IPC: 0.0885996 cumulative IPC: 0.0875414 (Simulation time: 0 hr 14 min 26 sec) 
Heartbeat CPU 0 instructions: 155000002 cycles: 1773162113 heartbeat IPC: 0.0866389 cumulative IPC: 0.0875351 (Simulation time: 0 hr 14 min 32 sec) 
Heartbeat CPU 0 instructions: 156000003 cycles: 1784764784 heartbeat IPC: 0.0861871 cumulative IPC: 0.0875257 (Simulation time: 0 hr 14 min 38 sec) 
Heartbeat CPU 0 instructions: 157000000 cycles: 1796679765 heartbeat IPC: 0.0839277 cumulative IPC: 0.0875002 (Simulation time: 0 hr 14 min 44 sec) 
Heartbeat CPU 0 instructions: 158000001 cycles: 1808235142 heartbeat IPC: 0.0865399 cumulative IPC: 0.0874936 (Simulation time: 0 hr 14 min 49 sec) 
Heartbeat CPU 0 instructions: 159000000 cycles: 1819288638 heartbeat IPC: 0.090469 cumulative IPC: 0.0875129 (Simulation time: 0 hr 14 min 55 sec) 
Heartbeat CPU 0 instructions: 160000000 cycles: 1830833125 heartbeat IPC: 0.0866214 cumulative IPC: 0.0875069 (Simulation time: 0 hr 15 min 0 sec) 
Heartbeat CPU 0 instructions: 161000000 cycles: 1842319032 heartbeat IPC: 0.0870632 cumulative IPC: 0.087504 (Simulation time: 0 hr 15 min 6 sec) 
Heartbeat CPU 0 instructions: 162000000 cycles: 1853149290 heartbeat IPC: 0.0923339 cumulative IPC: 0.0875341 (Simulation time: 0 hr 15 min 11 sec) 
Heartbeat CPU 0 instructions: 163000003 cycles: 1864305012 heartbeat IPC: 0.0896404 cumulative IPC: 0.0875476 (Simulation time: 0 hr 15 min 17 sec) 
Heartbeat CPU 0 instructions: 164000002 cycles: 1876200750 heartbeat IPC: 0.0840636 cumulative IPC: 0.087524 (Simulation time: 0 hr 15 min 23 sec) 
Heartbeat CPU 0 instructions: 165000000 cycles: 1887225943 heartbeat IPC: 0.0907012 cumulative IPC: 0.0875438 (Simulation time: 0 hr 15 min 28 sec) 
Heartbeat CPU 0 instructions: 166000001 cycles: 1898758263 heartbeat IPC: 0.0867129 cumulative IPC: 0.0875384 (Simulation time: 0 hr 15 min 34 sec) 
Heartbeat CPU 0 instructions: 167000000 cycles: 1909769007 heartbeat IPC: 0.0908203 cumulative IPC: 0.0875586 (Simulation time: 0 hr 15 min 39 sec) 
Heartbeat CPU 0 instructions: 168000000 cycles: 1920725922 heartbeat IPC: 0.0912666 cumulative IPC: 0.0875811 (Simulation time: 0 hr 15 min 44 sec) 
Heartbeat CPU 0 instructions: 169000000 cycles: 1932310792 heartbeat IPC: 0.0863195 cumulative IPC: 0.087573 (Simulation time: 0 hr 15 min 50 sec) 
Heartbeat CPU 0 instructions: 170000000 cycles: 1944156090 heartbeat IPC: 0.0844217 cumulative IPC: 0.0875526 (Simulation time: 0 hr 15 min 56 sec) 
Heartbeat CPU 0 instructions: 171000001 cycles: 1955114329 heartbeat IPC: 0.0912556 cumulative IPC: 0.0875747 (Simulation time: 0 hr 16 min 1 sec) 
Heartbeat CPU 0 instructions: 172000000 cycles: 1966139594 heartbeat IPC: 0.0907007 cumulative IPC: 0.0875933 (Simulation time: 0 hr 16 min 7 sec) 
Heartbeat CPU 0 instructions: 173000000 cycles: 1978204503 heartbeat IPC: 0.082885 cumulative IPC: 0.0875628 (Simulation time: 0 hr 16 min 13 sec) 
Heartbeat CPU 0 instructions: 174000001 cycles: 1990143601 heartbeat IPC: 0.0837585 cumulative IPC: 0.0875386 (Simulation time: 0 hr 16 min 19 sec) 
Heartbeat CPU 0 instructions: 175000002 cycles: 2001838794 heartbeat IPC: 0.0855053 cumulative IPC: 0.0875259 (Simulation time: 0 hr 16 min 24 sec) 
Heartbeat CPU 0 instructions: 176000000 cycles: 2012306786 heartbeat IPC: 0.0955291 cumulative IPC: 0.0875701 (Simulation time: 0 hr 16 min 30 sec) 
Heartbeat CPU 0 instructions: 177000000 cycles: 2024324470 heartbeat IPC: 0.0832107 cumulative IPC: 0.0875427 (Simulation time: 0 hr 16 min 36 sec) 
Heartbeat CPU 0 instructions: 178000000 cycles: 2036682589 heartbeat IPC: 0.0809185 cumulative IPC: 0.0875 (Simulation time: 0 hr 16 min 43 sec) 
Heartbeat CPU 0 instructions: 179000000 cycles: 2048708549 heartbeat IPC: 0.0831534 cumulative IPC: 0.087473 (Simulation time: 0 hr 16 min 49 sec) 
Heartbeat CPU 0 instructions: 180000001 cycles: 2060012747 heartbeat IPC: 0.0884628 cumulative IPC: 0.0874787 (Simulation time: 0 hr 16 min 54 sec) 
Heartbeat CPU 0 instructions: 181000000 cycles: 2071785085 heartbeat IPC: 0.0849448 cumulative IPC: 0.0874635 (Simulation time: 0 hr 17 min 0 sec) 
Heartbeat CPU 0 instructions: 182000000 cycles: 2083725702 heartbeat IPC: 0.0837478 cumulative IPC: 0.0874409 (Simulation time: 0 hr 17 min 5 sec) 
Heartbeat CPU 0 instructions: 183000001 cycles: 2095370185 heartbeat IPC: 0.0858777 cumulative IPC: 0.0874317 (Simulation time: 0 hr 17 min 11 sec) 
Heartbeat CPU 0 instructions: 184000000 cycles: 2107511025 heartbeat IPC: 0.0823665 cumulative IPC: 0.0874008 (Simulation time: 0 hr 17 min 17 sec) 
Heartbeat CPU 0 instructions: 185000000 cycles: 2118561458 heartbeat IPC: 0.0904942 cumulative IPC: 0.0874179 (Simulation time: 0 hr 17 min 22 sec) 
Heartbeat CPU 0 instructions: 186000000 cycles: 2130351093 heartbeat IPC: 0.0848203 cumulative IPC: 0.0874027 (Simulation time: 0 hr 17 min 28 sec) 
Heartbeat CPU 0 instructions: 187000000 cycles: 2141427367 heartbeat IPC: 0.0902831 cumulative IPC: 0.0874185 (Simulation time: 0 hr 17 min 33 sec) 
Heartbeat CPU 0 instructions: 188000002 cycles: 2153079394 heartbeat IPC: 0.0858222 cumulative IPC: 0.0874093 (Simulation time: 0 hr 17 min 39 sec) 
Heartbeat CPU 0 instructions: 189000001 cycles: 2164573751 heartbeat IPC: 0.0869991 cumulative IPC: 0.087407 (Simulation time: 0 hr 17 min 44 sec) 
Heartbeat CPU 0 instructions: 190000003 cycles: 2175995364 heartbeat IPC: 0.0875535 cumulative IPC: 0.0874078 (Simulation time: 0 hr 17 min 50 sec) 
Heartbeat CPU 0 instructions: 191000002 cycles: 2186910868 heartbeat IPC: 0.0916127 cumulative IPC: 0.08743 (Simulation time: 0 hr 17 min 55 sec) 
Heartbeat CPU 0 instructions: 192000002 cycles: 2198670587 heartbeat IPC: 0.085036 cumulative IPC: 0.0874165 (Simulation time: 0 hr 18 min 1 sec) 
Heartbeat CPU 0 instructions: 193000000 cycles: 2210211561 heartbeat IPC: 0.0866476 cumulative IPC: 0.0874123 (Simulation time: 0 hr 18 min 6 sec) 
Heartbeat CPU 0 instructions: 194000001 cycles: 2221379925 heartbeat IPC: 0.0895387 cumulative IPC: 0.0874235 (Simulation time: 0 hr 18 min 12 sec) 
Heartbeat CPU 0 instructions: 195000000 cycles: 2233742323 heartbeat IPC: 0.0808904 cumulative IPC: 0.0873854 (Simulation time: 0 hr 18 min 18 sec) 
Heartbeat CPU 0 instructions: 196000002 cycles: 2245151851 heartbeat IPC: 0.0876462 cumulative IPC: 0.0873868 (Simulation time: 0 hr 18 min 23 sec) 
Heartbeat CPU 0 instructions: 197000002 cycles: 2257010840 heartbeat IPC: 0.0843242 cumulative IPC: 0.0873698 (Simulation time: 0 hr 18 min 29 sec) 
Heartbeat CPU 0 instructions: 198000000 cycles: 2269285668 heartbeat IPC: 0.0814674 cumulative IPC: 0.0873362 (Simulation time: 0 hr 18 min 35 sec) 
Heartbeat CPU 0 instructions: 199000001 cycles: 2280955263 heartbeat IPC: 0.0856929 cumulative IPC: 0.0873273 (Simulation time: 0 hr 18 min 40 sec) 
Heartbeat CPU 0 instructions: 200000000 cycles: 2292481836 heartbeat IPC: 0.086756 cumulative IPC: 0.0873243 (Simulation time: 0 hr 18 min 46 sec) 
Heartbeat CPU 0 instructions: 201000001 cycles: 2303867780 heartbeat IPC: 0.0878277 cumulative IPC: 0.0873269 (Simulation time: 0 hr 18 min 51 sec) 
Heartbeat CPU 0 instructions: 202000000 cycles: 2314914385 heartbeat IPC: 0.0905255 cumulative IPC: 0.087343 (Simulation time: 0 hr 18 min 57 sec) 
Heartbeat CPU 0 instructions: 203000001 cycles: 2326695077 heartbeat IPC: 0.0848847 cumulative IPC: 0.0873299 (Simulation time: 0 hr 19 min 2 sec) 
Heartbeat CPU 0 instructions: 204000000 cycles: 2338544606 heartbeat IPC: 0.0843915 cumulative IPC: 0.0873142 (Simulation time: 0 hr 19 min 8 sec) 
Heartbeat CPU 0 instructions: 205000000 cycles: 2351096336 heartbeat IPC: 0.0796703 cumulative IPC: 0.0872713 (Simulation time: 0 hr 19 min 14 sec) 
Heartbeat CPU 0 instructions: 206000000 cycles: 2363515254 heartbeat IPC: 0.0805223 cumulative IPC: 0.0872339 (Simulation time: 0 hr 19 min 19 sec) 
Heartbeat CPU 0 instructions: 207000001 cycles: 2375252860 heartbeat IPC: 0.0851963 cumulative IPC: 0.0872234 (Simulation time: 0 hr 19 min 25 sec) 
Heartbeat CPU 0 instructions: 208000000 cycles: 2386835962 heartbeat IPC: 0.0863326 cumulative IPC: 0.0872188 (Simulation time: 0 hr 19 min 31 sec) 
Heartbeat CPU 0 instructions: 209000000 cycles: 2398522794 heartbeat IPC: 0.0855664 cumulative IPC: 0.0872103 (Simulation time: 0 hr 19 min 37 sec) 
Heartbeat CPU 0 instructions: 210000001 cycles: 2410046116 heartbeat IPC: 0.0867806 cumulative IPC: 0.0872082 (Simulation time: 0 hr 19 min 42 sec) 
Heartbeat CPU 0 instructions: 211000000 cycles: 2421386280 heartbeat IPC: 0.0881821 cumulative IPC: 0.087213 (Simulation time: 0 hr 19 min 48 sec) 
Heartbeat CPU 0 instructions: 212000000 cycles: 2432641090 heartbeat IPC: 0.0888509 cumulative IPC: 0.0872209 (Simulation time: 0 hr 19 min 54 sec) 
Heartbeat CPU 0 instructions: 213000000 cycles: 2443862625 heartbeat IPC: 0.0891144 cumulative IPC: 0.0872301 (Simulation time: 0 hr 19 min 59 sec) 
Heartbeat CPU 0 instructions: 214000000 cycles: 2455446484 heartbeat IPC: 0.086327 cumulative IPC: 0.0872256 (Simulation time: 0 hr 20 min 5 sec) 
Heartbeat CPU 0 instructions: 215000002 cycles: 2466984138 heartbeat IPC: 0.0866729 cumulative IPC: 0.0872229 (Simulation time: 0 hr 20 min 11 sec) 
Heartbeat CPU 0 instructions: 216000002 cycles: 2478137051 heartbeat IPC: 0.0896627 cumulative IPC: 0.0872344 (Simulation time: 0 hr 20 min 16 sec) 
Heartbeat CPU 0 instructions: 217000000 cycles: 2489454310 heartbeat IPC: 0.0883604 cumulative IPC: 0.0872398 (Simulation time: 0 hr 20 min 22 sec) 
Heartbeat CPU 0 instructions: 218000001 cycles: 2501092354 heartbeat IPC: 0.0859252 cumulative IPC: 0.0872334 (Simulation time: 0 hr 20 min 28 sec) 
Heartbeat CPU 0 instructions: 219000000 cycles: 2512534728 heartbeat IPC: 0.0873944 cumulative IPC: 0.0872341 (Simulation time: 0 hr 20 min 33 sec) 
Heartbeat CPU 0 instructions: 220000000 cycles: 2524627694 heartbeat IPC: 0.0826927 cumulative IPC: 0.0872113 (Simulation time: 0 hr 20 min 39 sec) 
Heartbeat CPU 0 instructions: 221000000 cycles: 2535647368 heartbeat IPC: 0.0907468 cumulative IPC: 0.0872274 (Simulation time: 0 hr 20 min 44 sec) 
Heartbeat CPU 0 instructions: 222000000 cycles: 2546755375 heartbeat IPC: 0.0900251 cumulative IPC: 0.0872402 (Simulation time: 0 hr 20 min 50 sec) 
Heartbeat CPU 0 instructions: 223000001 cycles: 2557364563 heartbeat IPC: 0.094258 cumulative IPC: 0.0872707 (Simulation time: 0 hr 20 min 55 sec) 
Heartbeat CPU 0 instructions: 224000002 cycles: 2569076101 heartbeat IPC: 0.085386 cumulative IPC: 0.0872617 (Simulation time: 0 hr 21 min 0 sec) 
Heartbeat CPU 0 instructions: 225000000 cycles: 2580521301 heartbeat IPC: 0.0873727 cumulative IPC: 0.0872622 (Simulation time: 0 hr 21 min 5 sec) 
Heartbeat CPU 0 instructions: 226000000 cycles: 2592302519 heartbeat IPC: 0.0848809 cumulative IPC: 0.0872509 (Simulation time: 0 hr 21 min 11 sec) 
Heartbeat CPU 0 instructions: 227000002 cycles: 2604046171 heartbeat IPC: 0.0851526 cumulative IPC: 0.087241 (Simulation time: 0 hr 21 min 17 sec) 
Heartbeat CPU 0 instructions: 228000000 cycles: 2615300286 heartbeat IPC: 0.0888562 cumulative IPC: 0.0872483 (Simulation time: 0 hr 21 min 22 sec) 
Heartbeat CPU 0 instructions: 229000001 cycles: 2626835476 heartbeat IPC: 0.0866913 cumulative IPC: 0.0872457 (Simulation time: 0 hr 21 min 28 sec) 
Heartbeat CPU 0 instructions: 230000001 cycles: 2638265304 heartbeat IPC: 0.0874904 cumulative IPC: 0.0872468 (Simulation time: 0 hr 21 min 34 sec) 
Heartbeat CPU 0 instructions: 231000000 cycles: 2649503784 heartbeat IPC: 0.0889799 cumulative IPC: 0.0872545 (Simulation time: 0 hr 21 min 39 sec) 
Heartbeat CPU 0 instructions: 232000000 cycles: 2660803751 heartbeat IPC: 0.0884958 cumulative IPC: 0.08726 (Simulation time: 0 hr 21 min 44 sec) 
Heartbeat CPU 0 instructions: 233000000 cycles: 2672666781 heartbeat IPC: 0.0842955 cumulative IPC: 0.0872463 (Simulation time: 0 hr 21 min 50 sec) 
Heartbeat CPU 0 instructions: 234000002 cycles: 2684280662 heartbeat IPC: 0.086104 cumulative IPC: 0.0872411 (Simulation time: 0 hr 21 min 56 sec) 
Heartbeat CPU 0 instructions: 235000001 cycles: 2695871694 heartbeat IPC: 0.0862735 cumulative IPC: 0.0872368 (Simulation time: 0 hr 22 min 1 sec) 
Heartbeat CPU 0 instructions: 236000002 cycles: 2707750293 heartbeat IPC: 0.0841851 cumulative IPC: 0.0872228 (Simulation time: 0 hr 22 min 7 sec) 
Heartbeat CPU 0 instructions: 237000003 cycles: 2719312502 heartbeat IPC: 0.0864887 cumulative IPC: 0.0872195 (Simulation time: 0 hr 22 min 12 sec) 
Heartbeat CPU 0 instructions: 238000002 cycles: 2730430452 heartbeat IPC: 0.0899445 cumulative IPC: 0.0872311 (Simulation time: 0 hr 22 min 18 sec) 
Heartbeat CPU 0 instructions: 239000003 cycles: 2742676685 heartbeat IPC: 0.0816578 cumulative IPC: 0.0872051 (Simulation time: 0 hr 22 min 23 sec) 
Heartbeat CPU 0 instructions: 240000000 cycles: 2754750633 heartbeat IPC: 0.0828227 cumulative IPC: 0.087185 (Simulation time: 0 hr 22 min 29 sec) 
Heartbeat CPU 0 instructions: 241000000 cycles: 2766679617 heartbeat IPC: 0.0838294 cumulative IPC: 0.0871699 (Simulation time: 0 hr 22 min 34 sec) 
Heartbeat CPU 0 instructions: 242000000 cycles: 2778236591 heartbeat IPC: 0.0865278 cumulative IPC: 0.0871672 (Simulation time: 0 hr 22 min 40 sec) 
Heartbeat CPU 0 instructions: 243000000 cycles: 2789565822 heartbeat IPC: 0.0882672 cumulative IPC: 0.0871718 (Simulation time: 0 hr 22 min 47 sec) 
Heartbeat CPU 0 instructions: 244000002 cycles: 2801419989 heartbeat IPC: 0.0843587 cumulative IPC: 0.0871594 (Simulation time: 0 hr 22 min 52 sec) 
Heartbeat CPU 0 instructions: 245000000 cycles: 2812780625 heartbeat IPC: 0.0880231 cumulative IPC: 0.087163 (Simulation time: 0 hr 22 min 57 sec) 
Heartbeat CPU 0 instructions: 246000002 cycles: 2824686379 heartbeat IPC: 0.0839932 cumulative IPC: 0.0871491 (Simulation time: 0 hr 23 min 3 sec) 
Heartbeat CPU 0 instructions: 247000001 cycles: 2836788678 heartbeat IPC: 0.0826288 cumulative IPC: 0.087129 (Simulation time: 0 hr 23 min 8 sec) 
Heartbeat CPU 0 instructions: 248000000 cycles: 2847630572 heartbeat IPC: 0.0922347 cumulative IPC: 0.0871493 (Simulation time: 0 hr 23 min 13 sec) 
Heartbeat CPU 0 instructions: 249000000 cycles: 2858858990 heartbeat IPC: 0.0890597 cumulative IPC: 0.0871571 (Simulation time: 0 hr 23 min 19 sec) 
Heartbeat CPU 0 instructions: 250000001 cycles: 2870450682 heartbeat IPC: 0.0862688 cumulative IPC: 0.0871533 (Simulation time: 0 hr 23 min 24 sec) 
Heartbeat CPU 0 instructions: 251000002 cycles: 2882269700 heartbeat IPC: 0.0846095 cumulative IPC: 0.0871425 (Simulation time: 0 hr 23 min 29 sec) 
Heartbeat CPU 0 instructions: 252000002 cycles: 2894074901 heartbeat IPC: 0.0847084 cumulative IPC: 0.0871321 (Simulation time: 0 hr 23 min 35 sec) 
Heartbeat CPU 0 instructions: 253000000 cycles: 2905552158 heartbeat IPC: 0.0871287 cumulative IPC: 0.0871321 (Simulation time: 0 hr 23 min 40 sec) 
Heartbeat CPU 0 instructions: 254000000 cycles: 2916696111 heartbeat IPC: 0.0897348 cumulative IPC: 0.0871425 (Simulation time: 0 hr 23 min 45 sec) 
Heartbeat CPU 0 instructions: 255000002 cycles: 2928028490 heartbeat IPC: 0.0882429 cumulative IPC: 0.0871469 (Simulation time: 0 hr 23 min 50 sec) 
Heartbeat CPU 0 instructions: 256000000 cycles: 2939223341 heartbeat IPC: 0.0893266 cumulative IPC: 0.0871555 (Simulation time: 0 hr 23 min 56 sec) 
Heartbeat CPU 0 instructions: 257000001 cycles: 2949598898 heartbeat IPC: 0.0963805 cumulative IPC: 0.0871893 (Simulation time: 0 hr 24 min 1 sec) 
Heartbeat CPU 0 instructions: 258000001 cycles: 2961270351 heartbeat IPC: 0.0856791 cumulative IPC: 0.0871831 (Simulation time: 0 hr 24 min 6 sec) 
Heartbeat CPU 0 instructions: 259000001 cycles: 2972836669 heartbeat IPC: 0.0864579 cumulative IPC: 0.0871802 (Simulation time: 0 hr 24 min 11 sec) 
Heartbeat CPU 0 instructions: 260000000 cycles: 2984330255 heartbeat IPC: 0.087005 cumulative IPC: 0.0871795 (Simulation time: 0 hr 24 min 17 sec) 
Finished CPU 0 instructions: 250000000 cycles: 2867646769 cumulative IPC: 0.0871795 (Simulation time: 0 hr 24 min 17 sec) 

ChampSim completed all CPUs

Region of Interest Statistics

CPU 0 cumulative IPC: 0.0871795 instructions: 250000000 cycles: 2867646769
L1D TOTAL     ACCESS:   51619246  HIT:    7477127  MISS:   44142119
L1D LOAD      ACCESS:   50706903  HIT:    6610798  MISS:   44096105
L1D RFO       ACCESS:     912343  HIT:     866329  MISS:      46014
L1D PREFETCH  ACCESS:          0  HIT:          0  MISS:          0
L1D WRITEBACK ACCESS:          0  HIT:          0  MISS:          0
L1D PREFETCH  REQUESTED:          0  ISSUED:          0  USEFUL:          0  USELESS:          0
L1D AVERAGE MISS LATENCY: 123.557 cycles
L1I TOTAL     ACCESS:   50339849  HIT:   50339849  MISS:          0
L1I LOAD      ACCESS:   50339849  HIT:   50339849  MISS:          0
L1I RFO       ACCESS:          0  HIT:          0  MISS:          0
L1I PREFETCH  ACCESS:          0  HIT:          0  MISS:          0
L1I WRITEBACK ACCESS:          0  HIT:          0  MISS:          0
L1I PREFETCH  REQUESTED:          0  ISSUED:          0  USEFUL:          0  USELESS:          0
L1I AVERAGE MISS LATENCY: -nan cycles
L2C TOTAL     ACCESS:   44634490  HIT:   13240688  MISS:   31393802
L2C LOAD      ACCESS:   44096090  HIT:   12735479  MISS:   31360611
L2C RFO       ACCESS:      46013  HIT:      12826  MISS:      33187
L2C PREFETCH  ACCESS:          0  HIT:          0  MISS:          0
L2C WRITEBACK ACCESS:     492387  HIT:     492383  MISS:          4
L2C PREFETCH  REQUESTED:          0  ISSUED:          0  USEFUL:          0  USELESS:          0
L2C AVERAGE MISS LATENCY: 152.968 cycles
LLC TOTAL     ACCESS:   47172152  HIT:   24160147  MISS:   23012005
LLC LOAD      ACCESS:   31360609  HIT:   11003480  MISS:   20357129
LLC RFO       ACCESS:      33187  HIT:      11091  MISS:      22096
LLC PREFETCH  ACCESS:   15360807  HIT:   12729870  MISS:    2630937
LLC WRITEBACK ACCESS:     417549  HIT:     415706  MISS:       1843
LLC PREFETCH  REQUESTED:   15475564  ISSUED:   15464400  USEFUL:    1266460  USELESS:    1362996
LLC AVERAGE MISS LATENCY: 193.222 cycles
Major fault: 0 Minor fault: 265666
performance stats:
mapping cache size: 16550959
divergence: 15400059

DRAM Statistics
 CHANNEL 0
 RQ ROW_BUFFER_HIT:    6160569  ROW_BUFFER_MISS:    5353386
 DBUS_CONGESTED:    9029116
 WQ ROW_BUFFER_HIT:     113611  ROW_BUFFER_MISS:      77836  FULL:          0

 CHANNEL 1
 RQ ROW_BUFFER_HIT:    6156065  ROW_BUFFER_MISS:    5340081
 DBUS_CONGESTED:    9029116
 WQ ROW_BUFFER_HIT:     115641  ROW_BUFFER_MISS:      77661  FULL:          0

 AVG_CONGESTED_CYCLE: 17

CPU 0 Branch Prediction Accuracy: 93.2561% MPKI: 20.7729 Average ROB Occupancy at Mispredict: 29.0357

Branch types
NOT_BRANCH: 172993010 69.1972%
BRANCH_DIRECT_JUMP: 321376 0.12855%
BRANCH_INDIRECT: 0 0%
BRANCH_CONDITIONAL: 76676869 30.6707%
BRANCH_DIRECT_CALL: 4362 0.0017448%
BRANCH_INDIRECT_CALL: 0 0%
BRANCH_RETURN: 4362 0.0017448%
BRANCH_OTHER: 0 0%


gzip: stdout: Broken pipe
