
*** ChampSim Multicore Out-of-Order Simulator ***

Warmup Instructions: 1000000
Prefetch Warmup Instructions: 10000000
Simulation Instructions: 250000000
Stat Printing Period: 1000000
Number of CPUs: 1
LLC sets: 2048
LLC ways: 16
Off-chip DRAM Size: 32768 MB Channels: 2 Width: 64-bit Data Rate: 1024 MT/s

CPU 0 runs /scratch/cluster/cmolder/ML-DPC/ChampSimTraces/spec06/429.mcf-s0.trace.gz
Read seed: 629
Heartbeat CPU 0 instructions: 1000000 cycles: 475031 heartbeat IPC: 2.10513 cumulative IPC: 2.10513 (Simulation time: 0 hr 0 min 3 sec) 

Warmup complete CPU 0 instructions: 1000003 cycles: 475032 (Simulation time: 0 hr 0 min 3 sec) 

Heartbeat CPU 0 instructions: 2000000 cycles: 14583686 heartbeat IPC: 0.0708785 cumulative IPC: 0.0708783 (Simulation time: 0 hr 0 min 10 sec) 
Heartbeat CPU 0 instructions: 3000000 cycles: 29181604 heartbeat IPC: 0.0685029 cumulative IPC: 0.0696703 (Simulation time: 0 hr 0 min 16 sec) 
Heartbeat CPU 0 instructions: 4000000 cycles: 42610730 heartbeat IPC: 0.074465 cumulative IPC: 0.0711985 (Simulation time: 0 hr 0 min 22 sec) 
Heartbeat CPU 0 instructions: 5000000 cycles: 54750505 heartbeat IPC: 0.0823739 cumulative IPC: 0.0736981 (Simulation time: 0 hr 0 min 28 sec) 
Heartbeat CPU 0 instructions: 6000002 cycles: 67626617 heartbeat IPC: 0.0776633 cumulative IPC: 0.0744584 (Simulation time: 0 hr 0 min 34 sec) 
Heartbeat CPU 0 instructions: 7000002 cycles: 80613774 heartbeat IPC: 0.0769991 cumulative IPC: 0.0748701 (Simulation time: 0 hr 0 min 40 sec) 
Heartbeat CPU 0 instructions: 8000000 cycles: 93927962 heartbeat IPC: 0.0751077 cumulative IPC: 0.074904 (Simulation time: 0 hr 0 min 46 sec) 
Heartbeat CPU 0 instructions: 9000001 cycles: 109345928 heartbeat IPC: 0.0648595 cumulative IPC: 0.0734815 (Simulation time: 0 hr 0 min 53 sec) 
Heartbeat CPU 0 instructions: 10000002 cycles: 128354236 heartbeat IPC: 0.0526086 cumulative IPC: 0.0703789 (Simulation time: 0 hr 1 min 3 sec) 

Warmup complete CPU 0 instructions: 10000002 cycles: 128354236 (Simulation time: 0 hr 1 min 3 sec) 

Heartbeat CPU 0 instructions: 11000000 cycles: 142105892 heartbeat IPC: 0.0727184 cumulative IPC: 0.0727184 (Simulation time: 0 hr 1 min 9 sec) 
Heartbeat CPU 0 instructions: 12000002 cycles: 153345989 heartbeat IPC: 0.0889674 cumulative IPC: 0.0800264 (Simulation time: 0 hr 1 min 15 sec) 
Heartbeat CPU 0 instructions: 13000002 cycles: 165354333 heartbeat IPC: 0.0832754 cumulative IPC: 0.0810809 (Simulation time: 0 hr 1 min 20 sec) 
Heartbeat CPU 0 instructions: 14000000 cycles: 175959303 heartbeat IPC: 0.0942952 cumulative IPC: 0.0840246 (Simulation time: 0 hr 1 min 25 sec) 
Heartbeat CPU 0 instructions: 15000001 cycles: 187300098 heartbeat IPC: 0.0881773 cumulative IPC: 0.0848236 (Simulation time: 0 hr 1 min 31 sec) 
Heartbeat CPU 0 instructions: 16000001 cycles: 199986772 heartbeat IPC: 0.0788229 cumulative IPC: 0.0837608 (Simulation time: 0 hr 1 min 38 sec) 
Heartbeat CPU 0 instructions: 17000000 cycles: 213231938 heartbeat IPC: 0.0754992 cumulative IPC: 0.0824716 (Simulation time: 0 hr 1 min 44 sec) 
Heartbeat CPU 0 instructions: 18000002 cycles: 225458551 heartbeat IPC: 0.081789 cumulative IPC: 0.0823856 (Simulation time: 0 hr 1 min 50 sec) 
Heartbeat CPU 0 instructions: 19000002 cycles: 238523714 heartbeat IPC: 0.0765394 cumulative IPC: 0.0816923 (Simulation time: 0 hr 1 min 56 sec) 
Heartbeat CPU 0 instructions: 20000000 cycles: 251065711 heartbeat IPC: 0.079732 cumulative IPC: 0.081492 (Simulation time: 0 hr 2 min 2 sec) 
Heartbeat CPU 0 instructions: 21000001 cycles: 263851243 heartbeat IPC: 0.0782135 cumulative IPC: 0.0811826 (Simulation time: 0 hr 2 min 8 sec) 
Heartbeat CPU 0 instructions: 22000000 cycles: 276721913 heartbeat IPC: 0.077696 cumulative IPC: 0.0808801 (Simulation time: 0 hr 2 min 14 sec) 
Heartbeat CPU 0 instructions: 23000000 cycles: 289093557 heartbeat IPC: 0.08083 cumulative IPC: 0.0808763 (Simulation time: 0 hr 2 min 19 sec) 
Heartbeat CPU 0 instructions: 24000001 cycles: 302612135 heartbeat IPC: 0.0739724 cumulative IPC: 0.0803407 (Simulation time: 0 hr 2 min 27 sec) 
Heartbeat CPU 0 instructions: 25000001 cycles: 314660745 heartbeat IPC: 0.0829971 cumulative IPC: 0.0805125 (Simulation time: 0 hr 2 min 32 sec) 
Heartbeat CPU 0 instructions: 26000001 cycles: 323846858 heartbeat IPC: 0.10886 cumulative IPC: 0.0818445 (Simulation time: 0 hr 2 min 37 sec) 
Heartbeat CPU 0 instructions: 27000000 cycles: 333207717 heartbeat IPC: 0.106828 cumulative IPC: 0.0829861 (Simulation time: 0 hr 2 min 42 sec) 
Heartbeat CPU 0 instructions: 28000001 cycles: 345165225 heartbeat IPC: 0.0836295 cumulative IPC: 0.0830216 (Simulation time: 0 hr 2 min 49 sec) 
Heartbeat CPU 0 instructions: 29000000 cycles: 355481011 heartbeat IPC: 0.0969387 cumulative IPC: 0.0836537 (Simulation time: 0 hr 2 min 55 sec) 
Heartbeat CPU 0 instructions: 30000001 cycles: 363914419 heartbeat IPC: 0.118576 cumulative IPC: 0.084904 (Simulation time: 0 hr 2 min 59 sec) 
Heartbeat CPU 0 instructions: 31000000 cycles: 372648561 heartbeat IPC: 0.114493 cumulative IPC: 0.0859619 (Simulation time: 0 hr 3 min 5 sec) 
Heartbeat CPU 0 instructions: 32000001 cycles: 384700814 heartbeat IPC: 0.0829721 cumulative IPC: 0.0858213 (Simulation time: 0 hr 3 min 12 sec) 
Heartbeat CPU 0 instructions: 33000000 cycles: 394442417 heartbeat IPC: 0.102652 cumulative IPC: 0.0864375 (Simulation time: 0 hr 3 min 17 sec) 
Heartbeat CPU 0 instructions: 34000001 cycles: 404125969 heartbeat IPC: 0.103268 cumulative IPC: 0.0870285 (Simulation time: 0 hr 3 min 22 sec) 
Heartbeat CPU 0 instructions: 35000000 cycles: 414057466 heartbeat IPC: 0.10069 cumulative IPC: 0.0875034 (Simulation time: 0 hr 3 min 27 sec) 
Heartbeat CPU 0 instructions: 36000001 cycles: 426748073 heartbeat IPC: 0.0787985 cumulative IPC: 0.0871332 (Simulation time: 0 hr 3 min 34 sec) 
Heartbeat CPU 0 instructions: 37000002 cycles: 437970948 heartbeat IPC: 0.0891038 cumulative IPC: 0.0872046 (Simulation time: 0 hr 3 min 40 sec) 
Heartbeat CPU 0 instructions: 38000000 cycles: 447979498 heartbeat IPC: 0.0999144 cumulative IPC: 0.0876026 (Simulation time: 0 hr 3 min 45 sec) 
Heartbeat CPU 0 instructions: 39000000 cycles: 456108321 heartbeat IPC: 0.123019 cumulative IPC: 0.088481 (Simulation time: 0 hr 3 min 50 sec) 
Heartbeat CPU 0 instructions: 40000003 cycles: 467826279 heartbeat IPC: 0.0853394 cumulative IPC: 0.0883725 (Simulation time: 0 hr 3 min 57 sec) 
Heartbeat CPU 0 instructions: 41000000 cycles: 477896009 heartbeat IPC: 0.0993072 cumulative IPC: 0.0886875 (Simulation time: 0 hr 4 min 2 sec) 
Heartbeat CPU 0 instructions: 42000001 cycles: 485810227 heartbeat IPC: 0.126355 cumulative IPC: 0.0895215 (Simulation time: 0 hr 4 min 7 sec) 
Heartbeat CPU 0 instructions: 43000002 cycles: 495092145 heartbeat IPC: 0.107736 cumulative IPC: 0.0899825 (Simulation time: 0 hr 4 min 12 sec) 
Heartbeat CPU 0 instructions: 44000000 cycles: 505712460 heartbeat IPC: 0.094159 cumulative IPC: 0.0901001 (Simulation time: 0 hr 4 min 18 sec) 
Heartbeat CPU 0 instructions: 45000001 cycles: 513207978 heartbeat IPC: 0.133413 cumulative IPC: 0.0909436 (Simulation time: 0 hr 4 min 23 sec) 
Heartbeat CPU 0 instructions: 46000003 cycles: 522168543 heartbeat IPC: 0.1116 cumulative IPC: 0.0914136 (Simulation time: 0 hr 4 min 28 sec) 
Heartbeat CPU 0 instructions: 47000000 cycles: 533093986 heartbeat IPC: 0.0915292 cumulative IPC: 0.0914168 (Simulation time: 0 hr 4 min 34 sec) 
Heartbeat CPU 0 instructions: 48000002 cycles: 541261451 heartbeat IPC: 0.122437 cumulative IPC: 0.0920304 (Simulation time: 0 hr 4 min 39 sec) 
Heartbeat CPU 0 instructions: 49000000 cycles: 550172242 heartbeat IPC: 0.112223 cumulative IPC: 0.0924569 (Simulation time: 0 hr 4 min 44 sec) 
Heartbeat CPU 0 instructions: 50000002 cycles: 560980575 heartbeat IPC: 0.0925214 cumulative IPC: 0.0924585 (Simulation time: 0 hr 4 min 50 sec) 
Heartbeat CPU 0 instructions: 51000000 cycles: 568063077 heartbeat IPC: 0.141193 cumulative IPC: 0.0932435 (Simulation time: 0 hr 4 min 54 sec) 
Heartbeat CPU 0 instructions: 52000003 cycles: 576809683 heartbeat IPC: 0.11433 cumulative IPC: 0.0936548 (Simulation time: 0 hr 4 min 59 sec) 
Heartbeat CPU 0 instructions: 53000001 cycles: 588129199 heartbeat IPC: 0.0883428 cumulative IPC: 0.093524 (Simulation time: 0 hr 5 min 6 sec) 
Heartbeat CPU 0 instructions: 54000001 cycles: 595705212 heartbeat IPC: 0.131996 cumulative IPC: 0.0941477 (Simulation time: 0 hr 5 min 10 sec) 
Heartbeat CPU 0 instructions: 55000000 cycles: 603678337 heartbeat IPC: 0.125421 cumulative IPC: 0.0946722 (Simulation time: 0 hr 5 min 15 sec) 
Heartbeat CPU 0 instructions: 56000000 cycles: 615416147 heartbeat IPC: 0.0851948 cumulative IPC: 0.0944438 (Simulation time: 0 hr 5 min 22 sec) 
Heartbeat CPU 0 instructions: 57000002 cycles: 622914660 heartbeat IPC: 0.13336 cumulative IPC: 0.0950339 (Simulation time: 0 hr 5 min 26 sec) 
Heartbeat CPU 0 instructions: 58000002 cycles: 630120069 heartbeat IPC: 0.138785 cumulative IPC: 0.0956622 (Simulation time: 0 hr 5 min 31 sec) 
Heartbeat CPU 0 instructions: 59000000 cycles: 641932582 heartbeat IPC: 0.0846558 cumulative IPC: 0.095409 (Simulation time: 0 hr 5 min 38 sec) 
Heartbeat CPU 0 instructions: 60000002 cycles: 650268583 heartbeat IPC: 0.119962 cumulative IPC: 0.0958012 (Simulation time: 0 hr 5 min 43 sec) 
Heartbeat CPU 0 instructions: 61000001 cycles: 658128137 heartbeat IPC: 0.127234 cumulative IPC: 0.0962675 (Simulation time: 0 hr 5 min 48 sec) 
Heartbeat CPU 0 instructions: 62000000 cycles: 668582557 heartbeat IPC: 0.0956532 cumulative IPC: 0.0962556 (Simulation time: 0 hr 5 min 54 sec) 
Heartbeat CPU 0 instructions: 63000000 cycles: 678322461 heartbeat IPC: 0.10267 cumulative IPC: 0.0963692 (Simulation time: 0 hr 6 min 0 sec) 
Heartbeat CPU 0 instructions: 64000001 cycles: 685361958 heartbeat IPC: 0.142056 cumulative IPC: 0.0969466 (Simulation time: 0 hr 6 min 4 sec) 
Heartbeat CPU 0 instructions: 65000000 cycles: 692635686 heartbeat IPC: 0.137481 cumulative IPC: 0.0974691 (Simulation time: 0 hr 6 min 9 sec) 
Heartbeat CPU 0 instructions: 66000000 cycles: 704348607 heartbeat IPC: 0.0853758 cumulative IPC: 0.0972232 (Simulation time: 0 hr 6 min 15 sec) 
Heartbeat CPU 0 instructions: 67000000 cycles: 711392434 heartbeat IPC: 0.141968 cumulative IPC: 0.0977637 (Simulation time: 0 hr 6 min 20 sec) 
Heartbeat CPU 0 instructions: 68000001 cycles: 717901856 heartbeat IPC: 0.153624 cumulative IPC: 0.0983805 (Simulation time: 0 hr 6 min 24 sec) 
Heartbeat CPU 0 instructions: 69000001 cycles: 728312037 heartbeat IPC: 0.0960598 cumulative IPC: 0.0983403 (Simulation time: 0 hr 6 min 30 sec) 
Heartbeat CPU 0 instructions: 70000001 cycles: 737299781 heartbeat IPC: 0.111263 cumulative IPC: 0.098531 (Simulation time: 0 hr 6 min 36 sec) 
Heartbeat CPU 0 instructions: 71000000 cycles: 743858874 heartbeat IPC: 0.15246 cumulative IPC: 0.0991057 (Simulation time: 0 hr 6 min 41 sec) 
Heartbeat CPU 0 instructions: 72000000 cycles: 751291799 heartbeat IPC: 0.134537 cumulative IPC: 0.0995284 (Simulation time: 0 hr 6 min 45 sec) 
Heartbeat CPU 0 instructions: 73000000 cycles: 762798450 heartbeat IPC: 0.0869063 cumulative IPC: 0.0992995 (Simulation time: 0 hr 6 min 52 sec) 
Heartbeat CPU 0 instructions: 74000000 cycles: 769888137 heartbeat IPC: 0.14105 cumulative IPC: 0.0997609 (Simulation time: 0 hr 6 min 57 sec) 
Heartbeat CPU 0 instructions: 75000003 cycles: 777017914 heartbeat IPC: 0.140257 cumulative IPC: 0.100206 (Simulation time: 0 hr 7 min 2 sec) 
Heartbeat CPU 0 instructions: 76000002 cycles: 787033161 heartbeat IPC: 0.0998477 cumulative IPC: 0.100201 (Simulation time: 0 hr 7 min 8 sec) 
Heartbeat CPU 0 instructions: 77000000 cycles: 796911899 heartbeat IPC: 0.101227 cumulative IPC: 0.100216 (Simulation time: 0 hr 7 min 14 sec) 
Heartbeat CPU 0 instructions: 78000001 cycles: 804768505 heartbeat IPC: 0.127282 cumulative IPC: 0.10053 (Simulation time: 0 hr 7 min 18 sec) 
Heartbeat CPU 0 instructions: 79000000 cycles: 812283288 heartbeat IPC: 0.133071 cumulative IPC: 0.100888 (Simulation time: 0 hr 7 min 23 sec) 
Heartbeat CPU 0 instructions: 80000001 cycles: 824344384 heartbeat IPC: 0.0829113 cumulative IPC: 0.100576 (Simulation time: 0 hr 7 min 30 sec) 
Heartbeat CPU 0 instructions: 81000000 cycles: 833242847 heartbeat IPC: 0.112379 cumulative IPC: 0.100725 (Simulation time: 0 hr 7 min 36 sec) 
Heartbeat CPU 0 instructions: 82000002 cycles: 841662322 heartbeat IPC: 0.118772 cumulative IPC: 0.100938 (Simulation time: 0 hr 7 min 40 sec) 
Heartbeat CPU 0 instructions: 83000000 cycles: 852534070 heartbeat IPC: 0.0919813 cumulative IPC: 0.100804 (Simulation time: 0 hr 7 min 46 sec) 
Heartbeat CPU 0 instructions: 84000001 cycles: 863449538 heartbeat IPC: 0.0916132 cumulative IPC: 0.100667 (Simulation time: 0 hr 7 min 52 sec) 
Heartbeat CPU 0 instructions: 85000000 cycles: 870842496 heartbeat IPC: 0.135264 cumulative IPC: 0.101012 (Simulation time: 0 hr 7 min 57 sec) 
Heartbeat CPU 0 instructions: 86000000 cycles: 879006377 heartbeat IPC: 0.122491 cumulative IPC: 0.101245 (Simulation time: 0 hr 8 min 2 sec) 
Heartbeat CPU 0 instructions: 87000003 cycles: 891088867 heartbeat IPC: 0.0827646 cumulative IPC: 0.100953 (Simulation time: 0 hr 8 min 9 sec) 
Heartbeat CPU 0 instructions: 88000000 cycles: 899110756 heartbeat IPC: 0.124659 cumulative IPC: 0.101199 (Simulation time: 0 hr 8 min 13 sec) 
Heartbeat CPU 0 instructions: 89000000 cycles: 907491398 heartbeat IPC: 0.119323 cumulative IPC: 0.101394 (Simulation time: 0 hr 8 min 18 sec) 
Heartbeat CPU 0 instructions: 90000003 cycles: 918577667 heartbeat IPC: 0.0902019 cumulative IPC: 0.101237 (Simulation time: 0 hr 8 min 25 sec) 
Heartbeat CPU 0 instructions: 91000000 cycles: 927756806 heartbeat IPC: 0.108942 cumulative IPC: 0.101326 (Simulation time: 0 hr 8 min 31 sec) 
Heartbeat CPU 0 instructions: 92000000 cycles: 935818384 heartbeat IPC: 0.124045 cumulative IPC: 0.101552 (Simulation time: 0 hr 8 min 36 sec) 
Heartbeat CPU 0 instructions: 93000000 cycles: 945640751 heartbeat IPC: 0.101808 cumulative IPC: 0.101556 (Simulation time: 0 hr 8 min 42 sec) 
Heartbeat CPU 0 instructions: 94000000 cycles: 956640015 heartbeat IPC: 0.0909152 cumulative IPC: 0.101414 (Simulation time: 0 hr 8 min 48 sec) 
Heartbeat CPU 0 instructions: 95000001 cycles: 965510603 heartbeat IPC: 0.112732 cumulative IPC: 0.101534 (Simulation time: 0 hr 8 min 54 sec) 
Heartbeat CPU 0 instructions: 96000000 cycles: 973511250 heartbeat IPC: 0.12499 cumulative IPC: 0.101756 (Simulation time: 0 hr 8 min 59 sec) 
Heartbeat CPU 0 instructions: 97000003 cycles: 985632115 heartbeat IPC: 0.0825026 cumulative IPC: 0.101484 (Simulation time: 0 hr 9 min 6 sec) 
Heartbeat CPU 0 instructions: 98000000 cycles: 994509620 heartbeat IPC: 0.112644 cumulative IPC: 0.101598 (Simulation time: 0 hr 9 min 11 sec) 
Heartbeat CPU 0 instructions: 99000000 cycles: 1002950773 heartbeat IPC: 0.118467 cumulative IPC: 0.101761 (Simulation time: 0 hr 9 min 16 sec) 
Heartbeat CPU 0 instructions: 100000002 cycles: 1014248661 heartbeat IPC: 0.0885123 cumulative IPC: 0.101592 (Simulation time: 0 hr 9 min 23 sec) 
Heartbeat CPU 0 instructions: 101000000 cycles: 1024881931 heartbeat IPC: 0.0940443 cumulative IPC: 0.101503 (Simulation time: 0 hr 9 min 29 sec) 
Heartbeat CPU 0 instructions: 102000001 cycles: 1034412051 heartbeat IPC: 0.104931 cumulative IPC: 0.101539 (Simulation time: 0 hr 9 min 34 sec) 
Heartbeat CPU 0 instructions: 103000000 cycles: 1042568339 heartbeat IPC: 0.122605 cumulative IPC: 0.101727 (Simulation time: 0 hr 9 min 39 sec) 
Heartbeat CPU 0 instructions: 104000001 cycles: 1054726015 heartbeat IPC: 0.0822526 cumulative IPC: 0.101471 (Simulation time: 0 hr 9 min 47 sec) 
Heartbeat CPU 0 instructions: 105000000 cycles: 1065425713 heartbeat IPC: 0.0934605 cumulative IPC: 0.10138 (Simulation time: 0 hr 9 min 53 sec) 
Heartbeat CPU 0 instructions: 106000001 cycles: 1074186678 heartbeat IPC: 0.114143 cumulative IPC: 0.101498 (Simulation time: 0 hr 9 min 58 sec) 
Heartbeat CPU 0 instructions: 107000001 cycles: 1083990879 heartbeat IPC: 0.101997 cumulative IPC: 0.101503 (Simulation time: 0 hr 10 min 3 sec) 
Heartbeat CPU 0 instructions: 108000000 cycles: 1095991698 heartbeat IPC: 0.0833276 cumulative IPC: 0.101278 (Simulation time: 0 hr 10 min 10 sec) 
Heartbeat CPU 0 instructions: 109000001 cycles: 1105070910 heartbeat IPC: 0.110142 cumulative IPC: 0.10136 (Simulation time: 0 hr 10 min 15 sec) 
Heartbeat CPU 0 instructions: 110000000 cycles: 1115198556 heartbeat IPC: 0.0987395 cumulative IPC: 0.101333 (Simulation time: 0 hr 10 min 21 sec) 
Heartbeat CPU 0 instructions: 111000002 cycles: 1126692789 heartbeat IPC: 0.0870003 cumulative IPC: 0.101168 (Simulation time: 0 hr 10 min 27 sec) 
Heartbeat CPU 0 instructions: 112000001 cycles: 1137943540 heartbeat IPC: 0.0888829 cumulative IPC: 0.101031 (Simulation time: 0 hr 10 min 33 sec) 
Heartbeat CPU 0 instructions: 113000000 cycles: 1147438240 heartbeat IPC: 0.105322 cumulative IPC: 0.101071 (Simulation time: 0 hr 10 min 39 sec) 
Heartbeat CPU 0 instructions: 114000000 cycles: 1157231074 heartbeat IPC: 0.102115 cumulative IPC: 0.101081 (Simulation time: 0 hr 10 min 44 sec) 
Heartbeat CPU 0 instructions: 115000003 cycles: 1168681358 heartbeat IPC: 0.0873343 cumulative IPC: 0.10093 (Simulation time: 0 hr 10 min 51 sec) 
Heartbeat CPU 0 instructions: 116000003 cycles: 1181071971 heartbeat IPC: 0.0807063 cumulative IPC: 0.100692 (Simulation time: 0 hr 10 min 58 sec) 
Heartbeat CPU 0 instructions: 117000000 cycles: 1191717629 heartbeat IPC: 0.0939347 cumulative IPC: 0.100624 (Simulation time: 0 hr 11 min 4 sec) 
Heartbeat CPU 0 instructions: 118000001 cycles: 1201760333 heartbeat IPC: 0.0995749 cumulative IPC: 0.100614 (Simulation time: 0 hr 11 min 9 sec) 
Heartbeat CPU 0 instructions: 119000002 cycles: 1211174482 heartbeat IPC: 0.106223 cumulative IPC: 0.100663 (Simulation time: 0 hr 11 min 14 sec) 
Heartbeat CPU 0 instructions: 120000002 cycles: 1223389053 heartbeat IPC: 0.0818694 cumulative IPC: 0.100453 (Simulation time: 0 hr 11 min 21 sec) 
Heartbeat CPU 0 instructions: 121000000 cycles: 1233804924 heartbeat IPC: 0.0960071 cumulative IPC: 0.100412 (Simulation time: 0 hr 11 min 27 sec) 
Heartbeat CPU 0 instructions: 122000002 cycles: 1244441012 heartbeat IPC: 0.0940197 cumulative IPC: 0.100351 (Simulation time: 0 hr 11 min 32 sec) 
Heartbeat CPU 0 instructions: 123000003 cycles: 1254149250 heartbeat IPC: 0.103005 cumulative IPC: 0.100374 (Simulation time: 0 hr 11 min 38 sec) 
Heartbeat CPU 0 instructions: 124000000 cycles: 1267189445 heartbeat IPC: 0.0766857 cumulative IPC: 0.100102 (Simulation time: 0 hr 11 min 45 sec) 
Heartbeat CPU 0 instructions: 125000002 cycles: 1278050259 heartbeat IPC: 0.0920743 cumulative IPC: 0.100026 (Simulation time: 0 hr 11 min 51 sec) 
Heartbeat CPU 0 instructions: 126000001 cycles: 1289120932 heartbeat IPC: 0.0903287 cumulative IPC: 0.0999339 (Simulation time: 0 hr 11 min 56 sec) 
Heartbeat CPU 0 instructions: 127000000 cycles: 1299260147 heartbeat IPC: 0.0986269 cumulative IPC: 0.0999226 (Simulation time: 0 hr 12 min 2 sec) 
Heartbeat CPU 0 instructions: 128000002 cycles: 1310265303 heartbeat IPC: 0.0908667 cumulative IPC: 0.0998383 (Simulation time: 0 hr 12 min 7 sec) 
Heartbeat CPU 0 instructions: 129000000 cycles: 1323519927 heartbeat IPC: 0.0754452 cumulative IPC: 0.0995678 (Simulation time: 0 hr 12 min 14 sec) 
Heartbeat CPU 0 instructions: 130000000 cycles: 1333674606 heartbeat IPC: 0.0984768 cumulative IPC: 0.0995586 (Simulation time: 0 hr 12 min 20 sec) 
Heartbeat CPU 0 instructions: 131000000 cycles: 1341977324 heartbeat IPC: 0.120442 cumulative IPC: 0.0997015 (Simulation time: 0 hr 12 min 24 sec) 
Heartbeat CPU 0 instructions: 132000000 cycles: 1352356031 heartbeat IPC: 0.0963511 cumulative IPC: 0.0996731 (Simulation time: 0 hr 12 min 30 sec) 
Heartbeat CPU 0 instructions: 133000000 cycles: 1363291928 heartbeat IPC: 0.091442 cumulative IPC: 0.0996002 (Simulation time: 0 hr 12 min 37 sec) 
Heartbeat CPU 0 instructions: 134000000 cycles: 1371185934 heartbeat IPC: 0.126678 cumulative IPC: 0.0997722 (Simulation time: 0 hr 12 min 42 sec) 
Heartbeat CPU 0 instructions: 135000000 cycles: 1378555797 heartbeat IPC: 0.135688 cumulative IPC: 0.0999839 (Simulation time: 0 hr 12 min 46 sec) 
Heartbeat CPU 0 instructions: 136000000 cycles: 1389600057 heartbeat IPC: 0.0905448 cumulative IPC: 0.0999012 (Simulation time: 0 hr 12 min 53 sec) 
Heartbeat CPU 0 instructions: 137000001 cycles: 1401168637 heartbeat IPC: 0.0864411 cumulative IPC: 0.0997789 (Simulation time: 0 hr 13 min 0 sec) 
Heartbeat CPU 0 instructions: 138000001 cycles: 1411395359 heartbeat IPC: 0.097783 cumulative IPC: 0.099763 (Simulation time: 0 hr 13 min 6 sec) 
Heartbeat CPU 0 instructions: 139000002 cycles: 1421432835 heartbeat IPC: 0.0996267 cumulative IPC: 0.0997619 (Simulation time: 0 hr 13 min 11 sec) 
Heartbeat CPU 0 instructions: 140000000 cycles: 1431153177 heartbeat IPC: 0.102877 cumulative IPC: 0.0997852 (Simulation time: 0 hr 13 min 17 sec) 
Heartbeat CPU 0 instructions: 141000001 cycles: 1443804039 heartbeat IPC: 0.0790461 cumulative IPC: 0.0995857 (Simulation time: 0 hr 13 min 24 sec) 
Heartbeat CPU 0 instructions: 142000000 cycles: 1453647466 heartbeat IPC: 0.101591 cumulative IPC: 0.0996006 (Simulation time: 0 hr 13 min 29 sec) 
Heartbeat CPU 0 instructions: 143000000 cycles: 1463706957 heartbeat IPC: 0.0994086 cumulative IPC: 0.0995992 (Simulation time: 0 hr 13 min 35 sec) 
Heartbeat CPU 0 instructions: 144000003 cycles: 1473170393 heartbeat IPC: 0.10567 cumulative IPC: 0.0996419 (Simulation time: 0 hr 13 min 40 sec) 
Heartbeat CPU 0 instructions: 145000000 cycles: 1485354553 heartbeat IPC: 0.0820735 cumulative IPC: 0.0994841 (Simulation time: 0 hr 13 min 47 sec) 
Heartbeat CPU 0 instructions: 146000001 cycles: 1496134743 heartbeat IPC: 0.0927628 cumulative IPC: 0.0994312 (Simulation time: 0 hr 13 min 53 sec) 
Heartbeat CPU 0 instructions: 147000000 cycles: 1506406854 heartbeat IPC: 0.0973509 cumulative IPC: 0.0994157 (Simulation time: 0 hr 13 min 58 sec) 
Heartbeat CPU 0 instructions: 148000000 cycles: 1516765393 heartbeat IPC: 0.0965387 cumulative IPC: 0.0993942 (Simulation time: 0 hr 14 min 4 sec) 
Heartbeat CPU 0 instructions: 149000000 cycles: 1528465070 heartbeat IPC: 0.0854724 cumulative IPC: 0.0992779 (Simulation time: 0 hr 14 min 10 sec) 
Heartbeat CPU 0 instructions: 150000001 cycles: 1539835702 heartbeat IPC: 0.0879459 cumulative IPC: 0.0991866 (Simulation time: 0 hr 14 min 16 sec) 
Heartbeat CPU 0 instructions: 151000000 cycles: 1551438568 heartbeat IPC: 0.0861855 cumulative IPC: 0.0990806 (Simulation time: 0 hr 14 min 22 sec) 
Heartbeat CPU 0 instructions: 152000002 cycles: 1562164233 heartbeat IPC: 0.0932345 cumulative IPC: 0.0990368 (Simulation time: 0 hr 14 min 28 sec) 
Heartbeat CPU 0 instructions: 153000000 cycles: 1571327390 heartbeat IPC: 0.109132 cumulative IPC: 0.0991009 (Simulation time: 0 hr 14 min 33 sec) 
Heartbeat CPU 0 instructions: 154000000 cycles: 1583483931 heartbeat IPC: 0.0822602 cumulative IPC: 0.0989603 (Simulation time: 0 hr 14 min 40 sec) 
Heartbeat CPU 0 instructions: 155000000 cycles: 1593699055 heartbeat IPC: 0.0978941 cumulative IPC: 0.0989528 (Simulation time: 0 hr 14 min 45 sec) 
Heartbeat CPU 0 instructions: 156000000 cycles: 1603803789 heartbeat IPC: 0.0989635 cumulative IPC: 0.0989529 (Simulation time: 0 hr 14 min 50 sec) 
Heartbeat CPU 0 instructions: 157000001 cycles: 1614093371 heartbeat IPC: 0.0971858 cumulative IPC: 0.0989407 (Simulation time: 0 hr 14 min 56 sec) 
Heartbeat CPU 0 instructions: 158000002 cycles: 1626827208 heartbeat IPC: 0.078531 cumulative IPC: 0.0987672 (Simulation time: 0 hr 15 min 2 sec) 
Heartbeat CPU 0 instructions: 159000000 cycles: 1639301214 heartbeat IPC: 0.0801665 cumulative IPC: 0.0986136 (Simulation time: 0 hr 15 min 9 sec) 
Heartbeat CPU 0 instructions: 160000002 cycles: 1649270445 heartbeat IPC: 0.100309 cumulative IPC: 0.0986248 (Simulation time: 0 hr 15 min 14 sec) 
Heartbeat CPU 0 instructions: 161000000 cycles: 1659755132 heartbeat IPC: 0.095377 cumulative IPC: 0.0986025 (Simulation time: 0 hr 15 min 20 sec) 
Heartbeat CPU 0 instructions: 162000000 cycles: 1669790958 heartbeat IPC: 0.099643 cumulative IPC: 0.0986093 (Simulation time: 0 hr 15 min 25 sec) 
Heartbeat CPU 0 instructions: 163000003 cycles: 1682249969 heartbeat IPC: 0.0802634 cumulative IPC: 0.0984622 (Simulation time: 0 hr 15 min 32 sec) 
Heartbeat CPU 0 instructions: 164000002 cycles: 1693412113 heartbeat IPC: 0.0895884 cumulative IPC: 0.0983989 (Simulation time: 0 hr 15 min 38 sec) 
Heartbeat CPU 0 instructions: 165000000 cycles: 1703566979 heartbeat IPC: 0.0984748 cumulative IPC: 0.0983994 (Simulation time: 0 hr 15 min 44 sec) 
Heartbeat CPU 0 instructions: 166000001 cycles: 1713765397 heartbeat IPC: 0.0980545 cumulative IPC: 0.0983972 (Simulation time: 0 hr 15 min 49 sec) 
Heartbeat CPU 0 instructions: 167000003 cycles: 1724135527 heartbeat IPC: 0.096431 cumulative IPC: 0.0983844 (Simulation time: 0 hr 15 min 55 sec) 
Heartbeat CPU 0 instructions: 168000000 cycles: 1736544324 heartbeat IPC: 0.0805877 cumulative IPC: 0.0982471 (Simulation time: 0 hr 16 min 5 sec) 
Heartbeat CPU 0 instructions: 169000002 cycles: 1747365356 heartbeat IPC: 0.0924128 cumulative IPC: 0.0982081 (Simulation time: 0 hr 16 min 11 sec) 
Heartbeat CPU 0 instructions: 170000000 cycles: 1756920841 heartbeat IPC: 0.104652 cumulative IPC: 0.0982459 (Simulation time: 0 hr 16 min 17 sec) 
Heartbeat CPU 0 instructions: 171000000 cycles: 1766690761 heartbeat IPC: 0.102355 cumulative IPC: 0.0982704 (Simulation time: 0 hr 16 min 22 sec) 
Heartbeat CPU 0 instructions: 172000002 cycles: 1779413648 heartbeat IPC: 0.0785987 cumulative IPC: 0.0981188 (Simulation time: 0 hr 16 min 29 sec) 
Heartbeat CPU 0 instructions: 173000001 cycles: 1789963756 heartbeat IPC: 0.0947857 cumulative IPC: 0.0980977 (Simulation time: 0 hr 16 min 35 sec) 
Heartbeat CPU 0 instructions: 174000001 cycles: 1801926902 heartbeat IPC: 0.0835901 cumulative IPC: 0.097994 (Simulation time: 0 hr 16 min 41 sec) 
Heartbeat CPU 0 instructions: 175000000 cycles: 1811295835 heartbeat IPC: 0.106736 cumulative IPC: 0.0980426 (Simulation time: 0 hr 16 min 47 sec) 
Heartbeat CPU 0 instructions: 176000000 cycles: 1822897736 heartbeat IPC: 0.0861928 cumulative IPC: 0.0979615 (Simulation time: 0 hr 16 min 53 sec) 
Heartbeat CPU 0 instructions: 177000000 cycles: 1833873665 heartbeat IPC: 0.0911085 cumulative IPC: 0.0979174 (Simulation time: 0 hr 16 min 59 sec) 
Heartbeat CPU 0 instructions: 178000000 cycles: 1842636194 heartbeat IPC: 0.114122 cumulative IPC: 0.0980002 (Simulation time: 0 hr 17 min 4 sec) 
Heartbeat CPU 0 instructions: 179000002 cycles: 1850317847 heartbeat IPC: 0.130181 cumulative IPC: 0.0981438 (Simulation time: 0 hr 17 min 8 sec) 
Heartbeat CPU 0 instructions: 180000001 cycles: 1861620261 heartbeat IPC: 0.0884766 cumulative IPC: 0.0980807 (Simulation time: 0 hr 17 min 15 sec) 
Heartbeat CPU 0 instructions: 181000000 cycles: 1871910708 heartbeat IPC: 0.0971774 cumulative IPC: 0.0980754 (Simulation time: 0 hr 17 min 21 sec) 
Heartbeat CPU 0 instructions: 182000003 cycles: 1881358140 heartbeat IPC: 0.105849 cumulative IPC: 0.0981173 (Simulation time: 0 hr 17 min 26 sec) 
Heartbeat CPU 0 instructions: 183000000 cycles: 1892158114 heartbeat IPC: 0.0925925 cumulative IPC: 0.0980835 (Simulation time: 0 hr 17 min 31 sec) 
Heartbeat CPU 0 instructions: 184000002 cycles: 1903090386 heartbeat IPC: 0.0914725 cumulative IPC: 0.0980427 (Simulation time: 0 hr 17 min 37 sec) 
Heartbeat CPU 0 instructions: 185000000 cycles: 1915360162 heartbeat IPC: 0.0815009 cumulative IPC: 0.0979292 (Simulation time: 0 hr 17 min 44 sec) 
Heartbeat CPU 0 instructions: 186000000 cycles: 1925652123 heartbeat IPC: 0.0971632 cumulative IPC: 0.0979248 (Simulation time: 0 hr 17 min 49 sec) 
Heartbeat CPU 0 instructions: 187000000 cycles: 1935252115 heartbeat IPC: 0.104167 cumulative IPC: 0.0979579 (Simulation time: 0 hr 17 min 54 sec) 
Heartbeat CPU 0 instructions: 188000001 cycles: 1945713006 heartbeat IPC: 0.0955942 cumulative IPC: 0.0979443 (Simulation time: 0 hr 17 min 59 sec) 
Heartbeat CPU 0 instructions: 189000000 cycles: 1957072149 heartbeat IPC: 0.0880347 cumulative IPC: 0.0978828 (Simulation time: 0 hr 18 min 5 sec) 
Heartbeat CPU 0 instructions: 190000000 cycles: 1969669502 heartbeat IPC: 0.0793818 cumulative IPC: 0.0977562 (Simulation time: 0 hr 18 min 12 sec) 
Heartbeat CPU 0 instructions: 191000001 cycles: 1978264836 heartbeat IPC: 0.116342 cumulative IPC: 0.0978426 (Simulation time: 0 hr 18 min 17 sec) 
Heartbeat CPU 0 instructions: 192000000 cycles: 1986315692 heartbeat IPC: 0.12421 cumulative IPC: 0.0979568 (Simulation time: 0 hr 18 min 22 sec) 
Heartbeat CPU 0 instructions: 193000003 cycles: 1996704313 heartbeat IPC: 0.0962595 cumulative IPC: 0.0979474 (Simulation time: 0 hr 18 min 28 sec) 
Heartbeat CPU 0 instructions: 194000000 cycles: 2006801632 heartbeat IPC: 0.0990359 cumulative IPC: 0.0979532 (Simulation time: 0 hr 18 min 33 sec) 
Heartbeat CPU 0 instructions: 195000000 cycles: 2014166456 heartbeat IPC: 0.135781 cumulative IPC: 0.098101 (Simulation time: 0 hr 18 min 38 sec) 
Heartbeat CPU 0 instructions: 196000000 cycles: 2025835743 heartbeat IPC: 0.085695 cumulative IPC: 0.0980247 (Simulation time: 0 hr 18 min 44 sec) 
Heartbeat CPU 0 instructions: 197000000 cycles: 2036994600 heartbeat IPC: 0.0896149 cumulative IPC: 0.0979755 (Simulation time: 0 hr 18 min 50 sec) 
Heartbeat CPU 0 instructions: 198000000 cycles: 2049762396 heartbeat IPC: 0.0783221 cumulative IPC: 0.0978449 (Simulation time: 0 hr 18 min 57 sec) 
Heartbeat CPU 0 instructions: 199000000 cycles: 2060315809 heartbeat IPC: 0.0947561 cumulative IPC: 0.097828 (Simulation time: 0 hr 19 min 2 sec) 
Heartbeat CPU 0 instructions: 200000000 cycles: 2068883034 heartbeat IPC: 0.116724 cumulative IPC: 0.0979115 (Simulation time: 0 hr 19 min 7 sec) 
Heartbeat CPU 0 instructions: 201000000 cycles: 2078257371 heartbeat IPC: 0.106674 cumulative IPC: 0.0979536 (Simulation time: 0 hr 19 min 12 sec) 
Heartbeat CPU 0 instructions: 202000001 cycles: 2090507437 heartbeat IPC: 0.0816323 cumulative IPC: 0.0978517 (Simulation time: 0 hr 19 min 19 sec) 
Heartbeat CPU 0 instructions: 203000000 cycles: 2101909419 heartbeat IPC: 0.087704 cumulative IPC: 0.0977931 (Simulation time: 0 hr 19 min 24 sec) 
Heartbeat CPU 0 instructions: 204000001 cycles: 2110980199 heartbeat IPC: 0.110244 cumulative IPC: 0.09785 (Simulation time: 0 hr 19 min 29 sec) 
Heartbeat CPU 0 instructions: 205000000 cycles: 2119988946 heartbeat IPC: 0.111003 cumulative IPC: 0.0979095 (Simulation time: 0 hr 19 min 35 sec) 
Heartbeat CPU 0 instructions: 206000000 cycles: 2132121208 heartbeat IPC: 0.0824249 cumulative IPC: 0.0978158 (Simulation time: 0 hr 19 min 41 sec) 
Heartbeat CPU 0 instructions: 207000000 cycles: 2142040660 heartbeat IPC: 0.100812 cumulative IPC: 0.0978305 (Simulation time: 0 hr 19 min 47 sec) 
Heartbeat CPU 0 instructions: 208000002 cycles: 2150755683 heartbeat IPC: 0.114745 cumulative IPC: 0.0979034 (Simulation time: 0 hr 19 min 52 sec) 
Heartbeat CPU 0 instructions: 209000000 cycles: 2160565196 heartbeat IPC: 0.101942 cumulative IPC: 0.0979229 (Simulation time: 0 hr 19 min 57 sec) 
Heartbeat CPU 0 instructions: 210000001 cycles: 2172251115 heartbeat IPC: 0.0855732 cumulative IPC: 0.0978523 (Simulation time: 0 hr 20 min 3 sec) 
Heartbeat CPU 0 instructions: 211000001 cycles: 2183207141 heartbeat IPC: 0.091274 cumulative IPC: 0.0978172 (Simulation time: 0 hr 20 min 9 sec) 
Heartbeat CPU 0 instructions: 212000000 cycles: 2194241778 heartbeat IPC: 0.0906236 cumulative IPC: 0.0977788 (Simulation time: 0 hr 20 min 15 sec) 
Heartbeat CPU 0 instructions: 213000002 cycles: 2205620821 heartbeat IPC: 0.087881 cumulative IPC: 0.0977246 (Simulation time: 0 hr 20 min 20 sec) 
Heartbeat CPU 0 instructions: 214000001 cycles: 2216256609 heartbeat IPC: 0.0940221 cumulative IPC: 0.0977057 (Simulation time: 0 hr 20 min 26 sec) 
Heartbeat CPU 0 instructions: 215000003 cycles: 2228055492 heartbeat IPC: 0.084754 cumulative IPC: 0.0976329 (Simulation time: 0 hr 20 min 32 sec) 
Heartbeat CPU 0 instructions: 216000002 cycles: 2240486929 heartbeat IPC: 0.0804411 cumulative IPC: 0.0975318 (Simulation time: 0 hr 20 min 39 sec) 
Heartbeat CPU 0 instructions: 217000001 cycles: 2253582581 heartbeat IPC: 0.0763611 cumulative IPC: 0.0974013 (Simulation time: 0 hr 20 min 45 sec) 
Heartbeat CPU 0 instructions: 218000001 cycles: 2264838495 heartbeat IPC: 0.0888422 cumulative IPC: 0.0973562 (Simulation time: 0 hr 20 min 51 sec) 
Heartbeat CPU 0 instructions: 219000000 cycles: 2275348768 heartbeat IPC: 0.0951449 cumulative IPC: 0.0973454 (Simulation time: 0 hr 20 min 56 sec) 
Heartbeat CPU 0 instructions: 220000000 cycles: 2286970161 heartbeat IPC: 0.0860482 cumulative IPC: 0.0972846 (Simulation time: 0 hr 21 min 2 sec) 
Heartbeat CPU 0 instructions: 221000000 cycles: 2298905431 heartbeat IPC: 0.0837853 cumulative IPC: 0.0972103 (Simulation time: 0 hr 21 min 9 sec) 
Heartbeat CPU 0 instructions: 222000000 cycles: 2310173971 heartbeat IPC: 0.0887426 cumulative IPC: 0.0971666 (Simulation time: 0 hr 21 min 14 sec) 
Heartbeat CPU 0 instructions: 223000002 cycles: 2320552703 heartbeat IPC: 0.0963511 cumulative IPC: 0.0971627 (Simulation time: 0 hr 21 min 20 sec) 
Heartbeat CPU 0 instructions: 224000000 cycles: 2330348391 heartbeat IPC: 0.102086 cumulative IPC: 0.0971846 (Simulation time: 0 hr 21 min 25 sec) 
Heartbeat CPU 0 instructions: 225000003 cycles: 2342730171 heartbeat IPC: 0.0807641 cumulative IPC: 0.0970928 (Simulation time: 0 hr 21 min 32 sec) 
Heartbeat CPU 0 instructions: 226000001 cycles: 2352666296 heartbeat IPC: 0.100643 cumulative IPC: 0.0971087 (Simulation time: 0 hr 21 min 37 sec) 
Heartbeat CPU 0 instructions: 227000000 cycles: 2363839195 heartbeat IPC: 0.0895022 cumulative IPC: 0.0970707 (Simulation time: 0 hr 21 min 43 sec) 
Heartbeat CPU 0 instructions: 228000000 cycles: 2374727679 heartbeat IPC: 0.0918401 cumulative IPC: 0.0970453 (Simulation time: 0 hr 21 min 49 sec) 
Heartbeat CPU 0 instructions: 229000001 cycles: 2385983072 heartbeat IPC: 0.0888464 cumulative IPC: 0.0970044 (Simulation time: 0 hr 21 min 54 sec) 
Heartbeat CPU 0 instructions: 230000001 cycles: 2397363162 heartbeat IPC: 0.0878728 cumulative IPC: 0.0969586 (Simulation time: 0 hr 22 min 0 sec) 
Heartbeat CPU 0 instructions: 231000000 cycles: 2409467956 heartbeat IPC: 0.0826118 cumulative IPC: 0.0968825 (Simulation time: 0 hr 22 min 7 sec) 
Heartbeat CPU 0 instructions: 232000000 cycles: 2419710643 heartbeat IPC: 0.0976306 cumulative IPC: 0.0968858 (Simulation time: 0 hr 22 min 13 sec) 
Heartbeat CPU 0 instructions: 233000003 cycles: 2430099654 heartbeat IPC: 0.0962558 cumulative IPC: 0.096883 (Simulation time: 0 hr 22 min 18 sec) 
Heartbeat CPU 0 instructions: 234000002 cycles: 2441354468 heartbeat IPC: 0.0888508 cumulative IPC: 0.0968439 (Simulation time: 0 hr 22 min 24 sec) 
Heartbeat CPU 0 instructions: 235000002 cycles: 2451830362 heartbeat IPC: 0.0954572 cumulative IPC: 0.0968377 (Simulation time: 0 hr 22 min 29 sec) 
Heartbeat CPU 0 instructions: 236000001 cycles: 2462030265 heartbeat IPC: 0.0980401 cumulative IPC: 0.0968429 (Simulation time: 0 hr 22 min 36 sec) 
Heartbeat CPU 0 instructions: 237000002 cycles: 2474826731 heartbeat IPC: 0.0781467 cumulative IPC: 0.096741 (Simulation time: 0 hr 22 min 43 sec) 
Heartbeat CPU 0 instructions: 238000001 cycles: 2486190160 heartbeat IPC: 0.0880015 cumulative IPC: 0.0966988 (Simulation time: 0 hr 22 min 48 sec) 
Heartbeat CPU 0 instructions: 239000001 cycles: 2497226875 heartbeat IPC: 0.0906067 cumulative IPC: 0.0966705 (Simulation time: 0 hr 22 min 54 sec) 
Heartbeat CPU 0 instructions: 240000000 cycles: 2507353225 heartbeat IPC: 0.0987522 cumulative IPC: 0.0966793 (Simulation time: 0 hr 22 min 59 sec) 
Heartbeat CPU 0 instructions: 241000000 cycles: 2517852869 heartbeat IPC: 0.0952413 cumulative IPC: 0.096673 (Simulation time: 0 hr 23 min 5 sec) 
Heartbeat CPU 0 instructions: 242000000 cycles: 2528979362 heartbeat IPC: 0.0898756 cumulative IPC: 0.0966415 (Simulation time: 0 hr 23 min 10 sec) 
Heartbeat CPU 0 instructions: 243000002 cycles: 2541687683 heartbeat IPC: 0.0786888 cumulative IPC: 0.096547 (Simulation time: 0 hr 23 min 17 sec) 
Heartbeat CPU 0 instructions: 244000000 cycles: 2553108762 heartbeat IPC: 0.0875572 cumulative IPC: 0.0965046 (Simulation time: 0 hr 23 min 23 sec) 
Heartbeat CPU 0 instructions: 245000001 cycles: 2561358947 heartbeat IPC: 0.12121 cumulative IPC: 0.0965884 (Simulation time: 0 hr 23 min 27 sec) 
Heartbeat CPU 0 instructions: 246000003 cycles: 2572827528 heartbeat IPC: 0.0871949 cumulative IPC: 0.0965443 (Simulation time: 0 hr 23 min 33 sec) 
Heartbeat CPU 0 instructions: 247000002 cycles: 2582869844 heartbeat IPC: 0.0995785 cumulative IPC: 0.0965567 (Simulation time: 0 hr 23 min 38 sec) 
Heartbeat CPU 0 instructions: 248000000 cycles: 2593839598 heartbeat IPC: 0.0911596 cumulative IPC: 0.0965327 (Simulation time: 0 hr 23 min 44 sec) 
Heartbeat CPU 0 instructions: 249000000 cycles: 2605657074 heartbeat IPC: 0.0846204 cumulative IPC: 0.0964759 (Simulation time: 0 hr 23 min 50 sec) 
Heartbeat CPU 0 instructions: 250000000 cycles: 2619143044 heartbeat IPC: 0.0741511 cumulative IPC: 0.096355 (Simulation time: 0 hr 23 min 57 sec) 
Heartbeat CPU 0 instructions: 251000001 cycles: 2629378431 heartbeat IPC: 0.0977004 cumulative IPC: 0.0963605 (Simulation time: 0 hr 24 min 2 sec) 
Heartbeat CPU 0 instructions: 252000002 cycles: 2638980759 heartbeat IPC: 0.104142 cumulative IPC: 0.0963903 (Simulation time: 0 hr 24 min 8 sec) 
Heartbeat CPU 0 instructions: 253000000 cycles: 2650066536 heartbeat IPC: 0.0902055 cumulative IPC: 0.0963631 (Simulation time: 0 hr 24 min 13 sec) 
Heartbeat CPU 0 instructions: 254000002 cycles: 2660026848 heartbeat IPC: 0.100399 cumulative IPC: 0.096379 (Simulation time: 0 hr 24 min 19 sec) 
Heartbeat CPU 0 instructions: 255000001 cycles: 2668301355 heartbeat IPC: 0.120853 cumulative IPC: 0.0964587 (Simulation time: 0 hr 24 min 24 sec) 
Heartbeat CPU 0 instructions: 256000002 cycles: 2679114935 heartbeat IPC: 0.0924764 cumulative IPC: 0.0964418 (Simulation time: 0 hr 24 min 30 sec) 
Heartbeat CPU 0 instructions: 257000000 cycles: 2685848599 heartbeat IPC: 0.148507 cumulative IPC: 0.0965789 (Simulation time: 0 hr 24 min 35 sec) 
Heartbeat CPU 0 instructions: 258000001 cycles: 2696268484 heartbeat IPC: 0.0959704 cumulative IPC: 0.0965764 (Simulation time: 0 hr 24 min 42 sec) 
Heartbeat CPU 0 instructions: 259000000 cycles: 2701363112 heartbeat IPC: 0.196285 cumulative IPC: 0.0967739 (Simulation time: 0 hr 24 min 46 sec) 
Heartbeat CPU 0 instructions: 260000000 cycles: 2706697871 heartbeat IPC: 0.18745 cumulative IPC: 0.0969615 (Simulation time: 0 hr 24 min 51 sec) 
Finished CPU 0 instructions: 250000000 cycles: 2578343646 cumulative IPC: 0.0969615 (Simulation time: 0 hr 24 min 51 sec) 

ChampSim completed all CPUs

Region of Interest Statistics

CPU 0 cumulative IPC: 0.0969615 instructions: 250000000 cycles: 2578343646
L1D TOTAL     ACCESS:   62049289  HIT:   27882481  MISS:   34166808
L1D LOAD      ACCESS:   52406267  HIT:   18682819  MISS:   33723448
L1D RFO       ACCESS:    9643022  HIT:    9199662  MISS:     443360
L1D PREFETCH  ACCESS:          0  HIT:          0  MISS:          0
L1D WRITEBACK ACCESS:          0  HIT:          0  MISS:          0
L1D PREFETCH  REQUESTED:          0  ISSUED:          0  USEFUL:          0  USELESS:          0
L1D AVERAGE MISS LATENCY: 119.994 cycles
L1I TOTAL     ACCESS:   46673624  HIT:   46673619  MISS:          5
L1I LOAD      ACCESS:   46673624  HIT:   46673619  MISS:          5
L1I RFO       ACCESS:          0  HIT:          0  MISS:          0
L1I PREFETCH  ACCESS:          0  HIT:          0  MISS:          0
L1I WRITEBACK ACCESS:          0  HIT:          0  MISS:          0
L1I PREFETCH  REQUESTED:          0  ISSUED:          0  USEFUL:          0  USELESS:          0
L1I AVERAGE MISS LATENCY: 278.6 cycles
L2C TOTAL     ACCESS:   39003461  HIT:   14026241  MISS:   24977220
L2C LOAD      ACCESS:   33722955  HIT:    9042471  MISS:   24680484
L2C RFO       ACCESS:     443346  HIT:     146779  MISS:     296567
L2C PREFETCH  ACCESS:          0  HIT:          0  MISS:          0
L2C WRITEBACK ACCESS:    4837160  HIT:    4836991  MISS:        169
L2C PREFETCH  REQUESTED:          0  ISSUED:          0  USEFUL:          0  USELESS:          0
L2C AVERAGE MISS LATENCY: 140.316 cycles
LLC TOTAL     ACCESS:   44418005  HIT:   22496275  MISS:   21921730
LLC LOAD      ACCESS:   24680475  HIT:   10994463  MISS:   13686012
LLC RFO       ACCESS:     296567  HIT:      92390  MISS:     204177
LLC PREFETCH  ACCESS:   15753324  HIT:    7748290  MISS:    8005034
LLC WRITEBACK ACCESS:    3687639  HIT:    3661132  MISS:      26507
LLC PREFETCH  REQUESTED:   16921056  ISSUED:   16921056  USEFUL:    5618742  USELESS:    2383199
LLC AVERAGE MISS LATENCY: 210.36 cycles
Major fault: 0 Minor fault: 147958
performance stats:
mapping cache size: 8413349
divergence: 11217764

DRAM Statistics
 CHANNEL 0
 RQ ROW_BUFFER_HIT:    3703143  ROW_BUFFER_MISS:    7211129
 DBUS_CONGESTED:    8541515
 WQ ROW_BUFFER_HIT:    1047474  ROW_BUFFER_MISS:     675155  FULL:          0

 CHANNEL 1
 RQ ROW_BUFFER_HIT:    3726780  ROW_BUFFER_MISS:    7253731
 DBUS_CONGESTED:    8541515
 WQ ROW_BUFFER_HIT:    1061858  ROW_BUFFER_MISS:     661160  FULL:          0

 AVG_CONGESTED_CYCLE: 16

CPU 0 Branch Prediction Accuracy: 94.1304% MPKI: 16.5981 Average ROB Occupancy at Mispredict: 33.7621

Branch types
NOT_BRANCH: 179304838 71.7219%
BRANCH_DIRECT_JUMP: 3390466 1.35619%
BRANCH_INDIRECT: 0 0%
BRANCH_CONDITIONAL: 67210277 26.8841%
BRANCH_DIRECT_CALL: 47194 0.0188776%
BRANCH_INDIRECT_CALL: 0 0%
BRANCH_RETURN: 47194 0.0188776%
BRANCH_OTHER: 0 0%


gzip: stdout: Broken pipe
