
*** ChampSim Multicore Out-of-Order Simulator ***

Warmup Instructions: 1000000
Prefetch Warmup Instructions: 10000000
Simulation Instructions: 250000000
Stat Printing Period: 1000000
Number of CPUs: 1
LLC sets: 2048
LLC ways: 16
Off-chip DRAM Size: 32768 MB Channels: 2 Width: 64-bit Data Rate: 1024 MT/s

CPU 0 runs /scratch/cluster/cmolder/ML-DPC/ChampSimTraces/spec06/471.omnetpp-s2.trace.gz
Read seed: 984
Heartbeat CPU 0 instructions: 1000002 cycles: 367657 heartbeat IPC: 2.71993 cumulative IPC: 2.71993 (Simulation time: 0 hr 0 min 7 sec) 

Warmup complete CPU 0 instructions: 1000002 cycles: 367657 (Simulation time: 0 hr 0 min 7 sec) 

Heartbeat CPU 0 instructions: 2000002 cycles: 2675475 heartbeat IPC: 0.43331 cumulative IPC: 0.43331 (Simulation time: 0 hr 0 min 12 sec) 
Heartbeat CPU 0 instructions: 3000002 cycles: 5085446 heartbeat IPC: 0.414943 cumulative IPC: 0.423927 (Simulation time: 0 hr 0 min 18 sec) 
Heartbeat CPU 0 instructions: 4000001 cycles: 7371155 heartbeat IPC: 0.437501 cumulative IPC: 0.428357 (Simulation time: 0 hr 0 min 23 sec) 
Heartbeat CPU 0 instructions: 5000003 cycles: 9609238 heartbeat IPC: 0.446812 cumulative IPC: 0.432826 (Simulation time: 0 hr 0 min 28 sec) 
Heartbeat CPU 0 instructions: 6000000 cycles: 11863425 heartbeat IPC: 0.443618 cumulative IPC: 0.434942 (Simulation time: 0 hr 0 min 33 sec) 
Heartbeat CPU 0 instructions: 7000001 cycles: 14253199 heartbeat IPC: 0.41845 cumulative IPC: 0.432104 (Simulation time: 0 hr 0 min 39 sec) 
Heartbeat CPU 0 instructions: 8000000 cycles: 17106759 heartbeat IPC: 0.350439 cumulative IPC: 0.418182 (Simulation time: 0 hr 0 min 44 sec) 
Heartbeat CPU 0 instructions: 9000002 cycles: 19638065 heartbeat IPC: 0.395054 cumulative IPC: 0.415144 (Simulation time: 0 hr 0 min 50 sec) 
Heartbeat CPU 0 instructions: 10000001 cycles: 22509598 heartbeat IPC: 0.348246 cumulative IPC: 0.406468 (Simulation time: 0 hr 0 min 56 sec) 

Warmup complete CPU 0 instructions: 10000001 cycles: 22509598 (Simulation time: 0 hr 0 min 56 sec) 

Heartbeat CPU 0 instructions: 11000000 cycles: 25102589 heartbeat IPC: 0.385655 cumulative IPC: 0.385655 (Simulation time: 0 hr 1 min 2 sec) 
Heartbeat CPU 0 instructions: 12000001 cycles: 25586201 heartbeat IPC: 2.06778 cumulative IPC: 0.650068 (Simulation time: 0 hr 1 min 5 sec) 
Heartbeat CPU 0 instructions: 13000000 cycles: 26052119 heartbeat IPC: 2.1463 cumulative IPC: 0.846854 (Simulation time: 0 hr 1 min 9 sec) 
Heartbeat CPU 0 instructions: 14000000 cycles: 26504560 heartbeat IPC: 2.21023 cumulative IPC: 1.00126 (Simulation time: 0 hr 1 min 13 sec) 
Heartbeat CPU 0 instructions: 15000002 cycles: 26966961 heartbeat IPC: 2.16263 cumulative IPC: 1.12174 (Simulation time: 0 hr 1 min 17 sec) 
Heartbeat CPU 0 instructions: 16000003 cycles: 29214295 heartbeat IPC: 0.444972 cumulative IPC: 0.894895 (Simulation time: 0 hr 1 min 22 sec) 
Heartbeat CPU 0 instructions: 17000000 cycles: 31555335 heartbeat IPC: 0.427159 cumulative IPC: 0.773845 (Simulation time: 0 hr 1 min 28 sec) 
Heartbeat CPU 0 instructions: 18000003 cycles: 33762025 heartbeat IPC: 0.453169 cumulative IPC: 0.710958 (Simulation time: 0 hr 1 min 33 sec) 
Heartbeat CPU 0 instructions: 19000000 cycles: 35997742 heartbeat IPC: 0.447282 cumulative IPC: 0.667253 (Simulation time: 0 hr 1 min 38 sec) 
Heartbeat CPU 0 instructions: 20000000 cycles: 38828696 heartbeat IPC: 0.353238 cumulative IPC: 0.612779 (Simulation time: 0 hr 1 min 44 sec) 
Heartbeat CPU 0 instructions: 21000001 cycles: 41649167 heartbeat IPC: 0.354551 cumulative IPC: 0.574726 (Simulation time: 0 hr 1 min 50 sec) 
Heartbeat CPU 0 instructions: 22000000 cycles: 44299048 heartbeat IPC: 0.377375 cumulative IPC: 0.550725 (Simulation time: 0 hr 1 min 55 sec) 
Heartbeat CPU 0 instructions: 23000001 cycles: 46567473 heartbeat IPC: 0.440835 cumulative IPC: 0.540364 (Simulation time: 0 hr 2 min 1 sec) 
Heartbeat CPU 0 instructions: 24000001 cycles: 48789907 heartbeat IPC: 0.449957 cumulative IPC: 0.532718 (Simulation time: 0 hr 2 min 6 sec) 
Heartbeat CPU 0 instructions: 25000001 cycles: 51016144 heartbeat IPC: 0.449188 cumulative IPC: 0.526195 (Simulation time: 0 hr 2 min 12 sec) 
Heartbeat CPU 0 instructions: 26000003 cycles: 53211255 heartbeat IPC: 0.455559 cumulative IPC: 0.521145 (Simulation time: 0 hr 2 min 17 sec) 
Heartbeat CPU 0 instructions: 27000000 cycles: 55433946 heartbeat IPC: 0.449904 cumulative IPC: 0.516335 (Simulation time: 0 hr 2 min 22 sec) 
Heartbeat CPU 0 instructions: 28000000 cycles: 57622850 heartbeat IPC: 0.45685 cumulative IPC: 0.512627 (Simulation time: 0 hr 2 min 27 sec) 
Heartbeat CPU 0 instructions: 29000003 cycles: 59941816 heartbeat IPC: 0.431228 cumulative IPC: 0.507584 (Simulation time: 0 hr 2 min 33 sec) 
Heartbeat CPU 0 instructions: 30000001 cycles: 62179872 heartbeat IPC: 0.446815 cumulative IPC: 0.504156 (Simulation time: 0 hr 2 min 38 sec) 
Heartbeat CPU 0 instructions: 31000003 cycles: 64365212 heartbeat IPC: 0.457596 cumulative IPC: 0.501725 (Simulation time: 0 hr 2 min 43 sec) 
Heartbeat CPU 0 instructions: 32000000 cycles: 66583683 heartbeat IPC: 0.45076 cumulative IPC: 0.49916 (Simulation time: 0 hr 2 min 49 sec) 
Heartbeat CPU 0 instructions: 33000000 cycles: 69197752 heartbeat IPC: 0.382545 cumulative IPC: 0.49263 (Simulation time: 0 hr 2 min 54 sec) 
Heartbeat CPU 0 instructions: 34000002 cycles: 71984704 heartbeat IPC: 0.358816 cumulative IPC: 0.485092 (Simulation time: 0 hr 3 min 0 sec) 
Heartbeat CPU 0 instructions: 35000002 cycles: 74543494 heartbeat IPC: 0.39081 cumulative IPC: 0.480456 (Simulation time: 0 hr 3 min 6 sec) 
Heartbeat CPU 0 instructions: 36000001 cycles: 77288210 heartbeat IPC: 0.364336 cumulative IPC: 0.474638 (Simulation time: 0 hr 3 min 12 sec) 
Heartbeat CPU 0 instructions: 37000002 cycles: 79515276 heartbeat IPC: 0.449022 cumulative IPC: 0.473637 (Simulation time: 0 hr 3 min 17 sec) 
Heartbeat CPU 0 instructions: 38000000 cycles: 82070540 heartbeat IPC: 0.391348 cumulative IPC: 0.470107 (Simulation time: 0 hr 3 min 23 sec) 
Heartbeat CPU 0 instructions: 39000002 cycles: 84024734 heartbeat IPC: 0.511721 cumulative IPC: 0.471429 (Simulation time: 0 hr 3 min 28 sec) 
Heartbeat CPU 0 instructions: 40000003 cycles: 84483321 heartbeat IPC: 2.18061 cumulative IPC: 0.484076 (Simulation time: 0 hr 3 min 32 sec) 
Heartbeat CPU 0 instructions: 41000002 cycles: 84936817 heartbeat IPC: 2.20509 cumulative IPC: 0.496578 (Simulation time: 0 hr 3 min 36 sec) 
Heartbeat CPU 0 instructions: 42000002 cycles: 85394410 heartbeat IPC: 2.18535 cumulative IPC: 0.508867 (Simulation time: 0 hr 3 min 40 sec) 
Heartbeat CPU 0 instructions: 43000000 cycles: 86025389 heartbeat IPC: 1.58484 cumulative IPC: 0.519556 (Simulation time: 0 hr 3 min 44 sec) 
Heartbeat CPU 0 instructions: 44000000 cycles: 88315251 heartbeat IPC: 0.436708 cumulative IPC: 0.516673 (Simulation time: 0 hr 3 min 50 sec) 
Heartbeat CPU 0 instructions: 45000001 cycles: 90644420 heartbeat IPC: 0.429338 cumulative IPC: 0.513687 (Simulation time: 0 hr 3 min 55 sec) 
Heartbeat CPU 0 instructions: 46000001 cycles: 93482346 heartbeat IPC: 0.35237 cumulative IPC: 0.507237 (Simulation time: 0 hr 4 min 1 sec) 
Heartbeat CPU 0 instructions: 47000001 cycles: 96308656 heartbeat IPC: 0.353818 cumulative IPC: 0.501361 (Simulation time: 0 hr 4 min 7 sec) 
Heartbeat CPU 0 instructions: 48000000 cycles: 98908233 heartbeat IPC: 0.384678 cumulative IPC: 0.497391 (Simulation time: 0 hr 4 min 12 sec) 
Heartbeat CPU 0 instructions: 49000001 cycles: 101331818 heartbeat IPC: 0.412612 cumulative IPC: 0.494784 (Simulation time: 0 hr 4 min 18 sec) 
Heartbeat CPU 0 instructions: 50000001 cycles: 103565296 heartbeat IPC: 0.447732 cumulative IPC: 0.493488 (Simulation time: 0 hr 4 min 24 sec) 
Heartbeat CPU 0 instructions: 51000003 cycles: 105786248 heartbeat IPC: 0.450258 cumulative IPC: 0.492335 (Simulation time: 0 hr 4 min 29 sec) 
Heartbeat CPU 0 instructions: 52000000 cycles: 107993223 heartbeat IPC: 0.453108 cumulative IPC: 0.491322 (Simulation time: 0 hr 4 min 35 sec) 
Heartbeat CPU 0 instructions: 53000000 cycles: 110211005 heartbeat IPC: 0.450901 cumulative IPC: 0.4903 (Simulation time: 0 hr 4 min 40 sec) 
Heartbeat CPU 0 instructions: 54000001 cycles: 112423295 heartbeat IPC: 0.452021 cumulative IPC: 0.489358 (Simulation time: 0 hr 4 min 45 sec) 
Heartbeat CPU 0 instructions: 55000000 cycles: 114833804 heartbeat IPC: 0.41485 cumulative IPC: 0.487413 (Simulation time: 0 hr 4 min 51 sec) 
Heartbeat CPU 0 instructions: 56000000 cycles: 117069869 heartbeat IPC: 0.447214 cumulative IPC: 0.486462 (Simulation time: 0 hr 4 min 56 sec) 
Heartbeat CPU 0 instructions: 57000000 cycles: 119274491 heartbeat IPC: 0.453593 cumulative IPC: 0.485713 (Simulation time: 0 hr 5 min 2 sec) 
Heartbeat CPU 0 instructions: 58000002 cycles: 121701391 heartbeat IPC: 0.412049 cumulative IPC: 0.483911 (Simulation time: 0 hr 5 min 7 sec) 
Heartbeat CPU 0 instructions: 59000002 cycles: 124488354 heartbeat IPC: 0.358814 cumulative IPC: 0.480492 (Simulation time: 0 hr 5 min 13 sec) 
Heartbeat CPU 0 instructions: 60000000 cycles: 126901247 heartbeat IPC: 0.414439 cumulative IPC: 0.478966 (Simulation time: 0 hr 5 min 18 sec) 
Heartbeat CPU 0 instructions: 61000002 cycles: 129499893 heartbeat IPC: 0.384817 cumulative IPC: 0.476679 (Simulation time: 0 hr 5 min 24 sec) 
Heartbeat CPU 0 instructions: 62000001 cycles: 132297720 heartbeat IPC: 0.35742 cumulative IPC: 0.47364 (Simulation time: 0 hr 5 min 30 sec) 
Heartbeat CPU 0 instructions: 63000002 cycles: 134553102 heartbeat IPC: 0.443384 cumulative IPC: 0.473031 (Simulation time: 0 hr 5 min 35 sec) 
Heartbeat CPU 0 instructions: 64000000 cycles: 136780830 heartbeat IPC: 0.448887 cumulative IPC: 0.47256 (Simulation time: 0 hr 5 min 41 sec) 
Heartbeat CPU 0 instructions: 65000002 cycles: 138996867 heartbeat IPC: 0.451257 cumulative IPC: 0.472155 (Simulation time: 0 hr 5 min 46 sec) 
Heartbeat CPU 0 instructions: 66000000 cycles: 142602016 heartbeat IPC: 0.27738 cumulative IPC: 0.466308 (Simulation time: 0 hr 5 min 53 sec) 
Heartbeat CPU 0 instructions: 67000000 cycles: 143686667 heartbeat IPC: 0.921956 cumulative IPC: 0.470386 (Simulation time: 0 hr 5 min 57 sec) 
Heartbeat CPU 0 instructions: 68000001 cycles: 144142892 heartbeat IPC: 2.1919 cumulative IPC: 0.476843 (Simulation time: 0 hr 6 min 1 sec) 
Heartbeat CPU 0 instructions: 69000000 cycles: 144599547 heartbeat IPC: 2.18983 cumulative IPC: 0.48325 (Simulation time: 0 hr 6 min 5 sec) 
Heartbeat CPU 0 instructions: 70000000 cycles: 145051712 heartbeat IPC: 2.21158 cumulative IPC: 0.489628 (Simulation time: 0 hr 6 min 8 sec) 
Heartbeat CPU 0 instructions: 71000000 cycles: 145526591 heartbeat IPC: 2.1058 cumulative IPC: 0.495866 (Simulation time: 0 hr 6 min 12 sec) 
Heartbeat CPU 0 instructions: 72000001 cycles: 148314559 heartbeat IPC: 0.358685 cumulative IPC: 0.492826 (Simulation time: 0 hr 6 min 18 sec) 
Heartbeat CPU 0 instructions: 73000001 cycles: 151185423 heartbeat IPC: 0.348327 cumulative IPC: 0.489602 (Simulation time: 0 hr 6 min 24 sec) 
Heartbeat CPU 0 instructions: 74000002 cycles: 153993381 heartbeat IPC: 0.356131 cumulative IPC: 0.486752 (Simulation time: 0 hr 6 min 30 sec) 
Heartbeat CPU 0 instructions: 75000000 cycles: 156316897 heartbeat IPC: 0.430381 cumulative IPC: 0.485773 (Simulation time: 0 hr 6 min 35 sec) 
Heartbeat CPU 0 instructions: 76000001 cycles: 158547418 heartbeat IPC: 0.448326 cumulative IPC: 0.485159 (Simulation time: 0 hr 6 min 41 sec) 
Heartbeat CPU 0 instructions: 77000000 cycles: 160774791 heartbeat IPC: 0.448959 cumulative IPC: 0.484576 (Simulation time: 0 hr 6 min 46 sec) 
Heartbeat CPU 0 instructions: 78000000 cycles: 163013951 heartbeat IPC: 0.446596 cumulative IPC: 0.483971 (Simulation time: 0 hr 6 min 51 sec) 
Heartbeat CPU 0 instructions: 79000000 cycles: 165246788 heartbeat IPC: 0.447861 cumulative IPC: 0.483406 (Simulation time: 0 hr 6 min 57 sec) 
Heartbeat CPU 0 instructions: 80000002 cycles: 167462601 heartbeat IPC: 0.451303 cumulative IPC: 0.482915 (Simulation time: 0 hr 7 min 2 sec) 
Heartbeat CPU 0 instructions: 81000003 cycles: 169810289 heartbeat IPC: 0.425951 cumulative IPC: 0.482007 (Simulation time: 0 hr 7 min 8 sec) 
Heartbeat CPU 0 instructions: 82000002 cycles: 172048263 heartbeat IPC: 0.446832 cumulative IPC: 0.481481 (Simulation time: 0 hr 7 min 13 sec) 
Heartbeat CPU 0 instructions: 83000000 cycles: 174294253 heartbeat IPC: 0.445237 cumulative IPC: 0.480945 (Simulation time: 0 hr 7 min 18 sec) 
Heartbeat CPU 0 instructions: 84000000 cycles: 176562321 heartbeat IPC: 0.440904 cumulative IPC: 0.480355 (Simulation time: 0 hr 7 min 23 sec) 
Heartbeat CPU 0 instructions: 85000000 cycles: 179360034 heartbeat IPC: 0.357435 cumulative IPC: 0.478163 (Simulation time: 0 hr 7 min 29 sec) 
Heartbeat CPU 0 instructions: 86000000 cycles: 182140706 heartbeat IPC: 0.359625 cumulative IPC: 0.476098 (Simulation time: 0 hr 7 min 35 sec) 
Heartbeat CPU 0 instructions: 87000001 cycles: 184697284 heartbeat IPC: 0.391148 cumulative IPC: 0.474759 (Simulation time: 0 hr 7 min 41 sec) 
Heartbeat CPU 0 instructions: 88000000 cycles: 187123327 heartbeat IPC: 0.412193 cumulative IPC: 0.473837 (Simulation time: 0 hr 7 min 46 sec) 
Heartbeat CPU 0 instructions: 89000001 cycles: 189633793 heartbeat IPC: 0.398333 cumulative IPC: 0.472702 (Simulation time: 0 hr 7 min 52 sec) 
Heartbeat CPU 0 instructions: 90000000 cycles: 191875391 heartbeat IPC: 0.44611 cumulative IPC: 0.47235 (Simulation time: 0 hr 7 min 57 sec) 
Heartbeat CPU 0 instructions: 91000002 cycles: 194126657 heartbeat IPC: 0.444195 cumulative IPC: 0.471981 (Simulation time: 0 hr 8 min 3 sec) 
Heartbeat CPU 0 instructions: 92000002 cycles: 196538533 heartbeat IPC: 0.414615 cumulative IPC: 0.471186 (Simulation time: 0 hr 8 min 9 sec) 
Heartbeat CPU 0 instructions: 93000001 cycles: 198780054 heartbeat IPC: 0.446125 cumulative IPC: 0.470867 (Simulation time: 0 hr 8 min 14 sec) 
Heartbeat CPU 0 instructions: 94000001 cycles: 202823578 heartbeat IPC: 0.247309 cumulative IPC: 0.465854 (Simulation time: 0 hr 8 min 21 sec) 
Heartbeat CPU 0 instructions: 95000001 cycles: 203335923 heartbeat IPC: 1.95181 cumulative IPC: 0.470064 (Simulation time: 0 hr 8 min 25 sec) 
Heartbeat CPU 0 instructions: 96000000 cycles: 203796391 heartbeat IPC: 2.1717 cumulative IPC: 0.474386 (Simulation time: 0 hr 8 min 29 sec) 
Heartbeat CPU 0 instructions: 97000002 cycles: 204246194 heartbeat IPC: 2.2232 cumulative IPC: 0.478715 (Simulation time: 0 hr 8 min 32 sec) 
Heartbeat CPU 0 instructions: 98000002 cycles: 204705378 heartbeat IPC: 2.17778 cumulative IPC: 0.482997 (Simulation time: 0 hr 8 min 36 sec) 
Heartbeat CPU 0 instructions: 99000000 cycles: 205948469 heartbeat IPC: 0.804445 cumulative IPC: 0.485175 (Simulation time: 0 hr 8 min 40 sec) 
Heartbeat CPU 0 instructions: 100000000 cycles: 208857167 heartbeat IPC: 0.343796 cumulative IPC: 0.482968 (Simulation time: 0 hr 8 min 46 sec) 
Heartbeat CPU 0 instructions: 101000000 cycles: 211397273 heartbeat IPC: 0.393684 cumulative IPC: 0.481768 (Simulation time: 0 hr 8 min 52 sec) 
Heartbeat CPU 0 instructions: 102000000 cycles: 213828200 heartbeat IPC: 0.411366 cumulative IPC: 0.480873 (Simulation time: 0 hr 8 min 58 sec) 
Heartbeat CPU 0 instructions: 103000001 cycles: 216067231 heartbeat IPC: 0.446622 cumulative IPC: 0.480477 (Simulation time: 0 hr 9 min 3 sec) 
Heartbeat CPU 0 instructions: 104000002 cycles: 218307713 heartbeat IPC: 0.446333 cumulative IPC: 0.480086 (Simulation time: 0 hr 9 min 8 sec) 
Heartbeat CPU 0 instructions: 105000002 cycles: 220536418 heartbeat IPC: 0.448691 cumulative IPC: 0.479733 (Simulation time: 0 hr 9 min 14 sec) 
Heartbeat CPU 0 instructions: 106000000 cycles: 222889296 heartbeat IPC: 0.425011 cumulative IPC: 0.47909 (Simulation time: 0 hr 9 min 19 sec) 
Heartbeat CPU 0 instructions: 107000001 cycles: 225140000 heartbeat IPC: 0.444306 cumulative IPC: 0.478704 (Simulation time: 0 hr 9 min 25 sec) 
Heartbeat CPU 0 instructions: 108000003 cycles: 227389301 heartbeat IPC: 0.444583 cumulative IPC: 0.478329 (Simulation time: 0 hr 9 min 30 sec) 
Heartbeat CPU 0 instructions: 109000000 cycles: 229623046 heartbeat IPC: 0.447677 cumulative IPC: 0.477999 (Simulation time: 0 hr 9 min 35 sec) 
Heartbeat CPU 0 instructions: 110000000 cycles: 231885005 heartbeat IPC: 0.442095 cumulative IPC: 0.477611 (Simulation time: 0 hr 9 min 41 sec) 
Heartbeat CPU 0 instructions: 111000002 cycles: 234309143 heartbeat IPC: 0.412519 cumulative IPC: 0.476866 (Simulation time: 0 hr 9 min 46 sec) 
Heartbeat CPU 0 instructions: 112000000 cycles: 237125687 heartbeat IPC: 0.355044 cumulative IPC: 0.475267 (Simulation time: 0 hr 9 min 52 sec) 
Heartbeat CPU 0 instructions: 113000000 cycles: 239701783 heartbeat IPC: 0.388184 cumulative IPC: 0.474234 (Simulation time: 0 hr 9 min 58 sec) 
Heartbeat CPU 0 instructions: 114000002 cycles: 242503196 heartbeat IPC: 0.356963 cumulative IPC: 0.472741 (Simulation time: 0 hr 10 min 3 sec) 
Heartbeat CPU 0 instructions: 115000001 cycles: 245034667 heartbeat IPC: 0.395027 cumulative IPC: 0.471857 (Simulation time: 0 hr 10 min 9 sec) 
Heartbeat CPU 0 instructions: 116000001 cycles: 247291066 heartbeat IPC: 0.443184 cumulative IPC: 0.471569 (Simulation time: 0 hr 10 min 14 sec) 
Heartbeat CPU 0 instructions: 117000002 cycles: 249553898 heartbeat IPC: 0.441925 cumulative IPC: 0.471274 (Simulation time: 0 hr 10 min 20 sec) 
Heartbeat CPU 0 instructions: 118000001 cycles: 251981744 heartbeat IPC: 0.411887 cumulative IPC: 0.470645 (Simulation time: 0 hr 10 min 26 sec) 
Heartbeat CPU 0 instructions: 119000002 cycles: 254233259 heartbeat IPC: 0.444146 cumulative IPC: 0.470388 (Simulation time: 0 hr 10 min 31 sec) 
Heartbeat CPU 0 instructions: 120000003 cycles: 256487847 heartbeat IPC: 0.44354 cumulative IPC: 0.470129 (Simulation time: 0 hr 10 min 36 sec) 
Heartbeat CPU 0 instructions: 121000000 cycles: 258724399 heartbeat IPC: 0.447115 cumulative IPC: 0.469911 (Simulation time: 0 hr 10 min 42 sec) 
Heartbeat CPU 0 instructions: 122000003 cycles: 262785455 heartbeat IPC: 0.246242 cumulative IPC: 0.466131 (Simulation time: 0 hr 10 min 49 sec) 
Heartbeat CPU 0 instructions: 123000002 cycles: 263277871 heartbeat IPC: 2.0308 cumulative IPC: 0.469331 (Simulation time: 0 hr 10 min 53 sec) 
Heartbeat CPU 0 instructions: 124000000 cycles: 263730923 heartbeat IPC: 2.20725 cumulative IPC: 0.472595 (Simulation time: 0 hr 10 min 56 sec) 
Heartbeat CPU 0 instructions: 125000000 cycles: 264187865 heartbeat IPC: 2.18846 cumulative IPC: 0.475839 (Simulation time: 0 hr 11 min 0 sec) 
Heartbeat CPU 0 instructions: 126000000 cycles: 264724027 heartbeat IPC: 1.86511 cumulative IPC: 0.478914 (Simulation time: 0 hr 11 min 4 sec) 
Heartbeat CPU 0 instructions: 127000001 cycles: 266100061 heartbeat IPC: 0.726727 cumulative IPC: 0.480314 (Simulation time: 0 hr 11 min 9 sec) 
Heartbeat CPU 0 instructions: 128000000 cycles: 268973041 heartbeat IPC: 0.34807 cumulative IPC: 0.478773 (Simulation time: 0 hr 11 min 15 sec) 
Heartbeat CPU 0 instructions: 129000001 cycles: 271487767 heartbeat IPC: 0.397658 cumulative IPC: 0.477954 (Simulation time: 0 hr 11 min 20 sec) 
Heartbeat CPU 0 instructions: 130000001 cycles: 273755381 heartbeat IPC: 0.440992 cumulative IPC: 0.47762 (Simulation time: 0 hr 11 min 26 sec) 
Heartbeat CPU 0 instructions: 131000000 cycles: 276012839 heartbeat IPC: 0.442976 cumulative IPC: 0.477311 (Simulation time: 0 hr 11 min 31 sec) 
Heartbeat CPU 0 instructions: 132000000 cycles: 278306845 heartbeat IPC: 0.435919 cumulative IPC: 0.47694 (Simulation time: 0 hr 11 min 36 sec) 
Heartbeat CPU 0 instructions: 133000001 cycles: 280641856 heartbeat IPC: 0.428264 cumulative IPC: 0.4765 (Simulation time: 0 hr 11 min 42 sec) 
Heartbeat CPU 0 instructions: 134000000 cycles: 282886263 heartbeat IPC: 0.445552 cumulative IPC: 0.476233 (Simulation time: 0 hr 11 min 47 sec) 
Heartbeat CPU 0 instructions: 135000000 cycles: 285126727 heartbeat IPC: 0.446336 cumulative IPC: 0.475978 (Simulation time: 0 hr 11 min 52 sec) 
Heartbeat CPU 0 instructions: 136000000 cycles: 287362596 heartbeat IPC: 0.447253 cumulative IPC: 0.475736 (Simulation time: 0 hr 11 min 57 sec) 
Heartbeat CPU 0 instructions: 137000000 cycles: 289606450 heartbeat IPC: 0.445662 cumulative IPC: 0.475483 (Simulation time: 0 hr 12 min 3 sec) 
Heartbeat CPU 0 instructions: 138000002 cycles: 292308296 heartbeat IPC: 0.370118 cumulative IPC: 0.474428 (Simulation time: 0 hr 12 min 8 sec) 
Heartbeat CPU 0 instructions: 139000001 cycles: 294476715 heartbeat IPC: 0.461165 cumulative IPC: 0.474322 (Simulation time: 0 hr 12 min 14 sec) 
Heartbeat CPU 0 instructions: 140000000 cycles: 297326112 heartbeat IPC: 0.350951 cumulative IPC: 0.473043 (Simulation time: 0 hr 12 min 19 sec) 
Heartbeat CPU 0 instructions: 141000000 cycles: 300139231 heartbeat IPC: 0.355477 cumulative IPC: 0.471852 (Simulation time: 0 hr 12 min 25 sec) 
Heartbeat CPU 0 instructions: 142000002 cycles: 302848512 heartbeat IPC: 0.369102 cumulative IPC: 0.470859 (Simulation time: 0 hr 12 min 31 sec) 
Heartbeat CPU 0 instructions: 143000000 cycles: 305108306 heartbeat IPC: 0.442517 cumulative IPC: 0.470632 (Simulation time: 0 hr 12 min 36 sec) 
Heartbeat CPU 0 instructions: 144000003 cycles: 307443642 heartbeat IPC: 0.428205 cumulative IPC: 0.470284 (Simulation time: 0 hr 12 min 41 sec) 
Heartbeat CPU 0 instructions: 145000000 cycles: 309713885 heartbeat IPC: 0.44048 cumulative IPC: 0.470049 (Simulation time: 0 hr 12 min 47 sec) 
Heartbeat CPU 0 instructions: 146000003 cycles: 311966985 heartbeat IPC: 0.443834 cumulative IPC: 0.469845 (Simulation time: 0 hr 12 min 52 sec) 
Heartbeat CPU 0 instructions: 147000001 cycles: 314224452 heartbeat IPC: 0.442973 cumulative IPC: 0.469637 (Simulation time: 0 hr 12 min 58 sec) 
Heartbeat CPU 0 instructions: 148000002 cycles: 316501995 heartbeat IPC: 0.43907 cumulative IPC: 0.4694 (Simulation time: 0 hr 13 min 3 sec) 
Heartbeat CPU 0 instructions: 149000000 cycles: 318771388 heartbeat IPC: 0.440646 cumulative IPC: 0.46918 (Simulation time: 0 hr 13 min 8 sec) 
Heartbeat CPU 0 instructions: 150000001 cycles: 322878197 heartbeat IPC: 0.243498 cumulative IPC: 0.466094 (Simulation time: 0 hr 13 min 15 sec) 
Heartbeat CPU 0 instructions: 151000002 cycles: 323559111 heartbeat IPC: 1.46862 cumulative IPC: 0.468361 (Simulation time: 0 hr 13 min 20 sec) 
Heartbeat CPU 0 instructions: 152000001 cycles: 324012636 heartbeat IPC: 2.20495 cumulative IPC: 0.470974 (Simulation time: 0 hr 13 min 23 sec) 
Heartbeat CPU 0 instructions: 153000000 cycles: 324461011 heartbeat IPC: 2.23027 cumulative IPC: 0.473586 (Simulation time: 0 hr 13 min 27 sec) 
Heartbeat CPU 0 instructions: 154000000 cycles: 324918697 heartbeat IPC: 2.1849 cumulative IPC: 0.476176 (Simulation time: 0 hr 13 min 31 sec) 
Heartbeat CPU 0 instructions: 155000000 cycles: 326465614 heartbeat IPC: 0.646447 cumulative IPC: 0.477043 (Simulation time: 0 hr 13 min 36 sec) 
Heartbeat CPU 0 instructions: 156000001 cycles: 329361819 heartbeat IPC: 0.34528 cumulative IPC: 0.475799 (Simulation time: 0 hr 13 min 41 sec) 
Heartbeat CPU 0 instructions: 157000002 cycles: 331738193 heartbeat IPC: 0.42081 cumulative IPC: 0.475376 (Simulation time: 0 hr 13 min 47 sec) 
Heartbeat CPU 0 instructions: 158000001 cycles: 334020955 heartbeat IPC: 0.438065 cumulative IPC: 0.475103 (Simulation time: 0 hr 13 min 52 sec) 
Heartbeat CPU 0 instructions: 159000002 cycles: 336476031 heartbeat IPC: 0.40732 cumulative IPC: 0.474573 (Simulation time: 0 hr 13 min 58 sec) 
Heartbeat CPU 0 instructions: 160000000 cycles: 338738137 heartbeat IPC: 0.442065 cumulative IPC: 0.47434 (Simulation time: 0 hr 14 min 4 sec) 
Heartbeat CPU 0 instructions: 161000001 cycles: 341007848 heartbeat IPC: 0.440585 cumulative IPC: 0.4741 (Simulation time: 0 hr 14 min 9 sec) 
Heartbeat CPU 0 instructions: 162000000 cycles: 343261221 heartbeat IPC: 0.443779 cumulative IPC: 0.473887 (Simulation time: 0 hr 14 min 14 sec) 
Heartbeat CPU 0 instructions: 163000001 cycles: 345523719 heartbeat IPC: 0.44199 cumulative IPC: 0.473664 (Simulation time: 0 hr 14 min 20 sec) 
Heartbeat CPU 0 instructions: 164000001 cycles: 347966996 heartbeat IPC: 0.409286 cumulative IPC: 0.47318 (Simulation time: 0 hr 14 min 26 sec) 
Heartbeat CPU 0 instructions: 165000000 cycles: 350264035 heartbeat IPC: 0.435343 cumulative IPC: 0.472915 (Simulation time: 0 hr 14 min 31 sec) 
Heartbeat CPU 0 instructions: 166000000 cycles: 352697354 heartbeat IPC: 0.410961 cumulative IPC: 0.472458 (Simulation time: 0 hr 14 min 37 sec) 
Heartbeat CPU 0 instructions: 167000001 cycles: 355127917 heartbeat IPC: 0.411428 cumulative IPC: 0.472012 (Simulation time: 0 hr 14 min 42 sec) 
Heartbeat CPU 0 instructions: 168000002 cycles: 357944452 heartbeat IPC: 0.355047 cumulative IPC: 0.47103 (Simulation time: 0 hr 14 min 48 sec) 
Heartbeat CPU 0 instructions: 169000000 cycles: 360733822 heartbeat IPC: 0.358503 cumulative IPC: 0.470102 (Simulation time: 0 hr 14 min 54 sec) 
Heartbeat CPU 0 instructions: 170000002 cycles: 363408359 heartbeat IPC: 0.373897 cumulative IPC: 0.469348 (Simulation time: 0 hr 14 min 59 sec) 
Heartbeat CPU 0 instructions: 171000002 cycles: 365755696 heartbeat IPC: 0.426015 cumulative IPC: 0.469051 (Simulation time: 0 hr 15 min 5 sec) 
Heartbeat CPU 0 instructions: 172000000 cycles: 368044156 heartbeat IPC: 0.436974 cumulative IPC: 0.468839 (Simulation time: 0 hr 15 min 10 sec) 
Heartbeat CPU 0 instructions: 173000001 cycles: 370307315 heartbeat IPC: 0.441861 cumulative IPC: 0.468663 (Simulation time: 0 hr 15 min 16 sec) 
Heartbeat CPU 0 instructions: 174000001 cycles: 372587747 heartbeat IPC: 0.438513 cumulative IPC: 0.468467 (Simulation time: 0 hr 15 min 21 sec) 
Heartbeat CPU 0 instructions: 175000000 cycles: 374863838 heartbeat IPC: 0.439349 cumulative IPC: 0.468279 (Simulation time: 0 hr 15 min 27 sec) 
Heartbeat CPU 0 instructions: 176000000 cycles: 377224860 heartbeat IPC: 0.423545 cumulative IPC: 0.467981 (Simulation time: 0 hr 15 min 32 sec) 
Heartbeat CPU 0 instructions: 177000002 cycles: 379532662 heartbeat IPC: 0.433314 cumulative IPC: 0.467757 (Simulation time: 0 hr 15 min 38 sec) 
Heartbeat CPU 0 instructions: 178000001 cycles: 383659227 heartbeat IPC: 0.242332 cumulative IPC: 0.465181 (Simulation time: 0 hr 15 min 45 sec) 
Heartbeat CPU 0 instructions: 179000001 cycles: 384151942 heartbeat IPC: 2.02957 cumulative IPC: 0.467313 (Simulation time: 0 hr 15 min 48 sec) 
Heartbeat CPU 0 instructions: 180000002 cycles: 384605051 heartbeat IPC: 2.20698 cumulative IPC: 0.469489 (Simulation time: 0 hr 15 min 52 sec) 
Heartbeat CPU 0 instructions: 181000000 cycles: 385054336 heartbeat IPC: 2.22575 cumulative IPC: 0.471666 (Simulation time: 0 hr 15 min 56 sec) 
Heartbeat CPU 0 instructions: 182000001 cycles: 385512018 heartbeat IPC: 2.18493 cumulative IPC: 0.473826 (Simulation time: 0 hr 16 min 0 sec) 
Heartbeat CPU 0 instructions: 183000001 cycles: 387077148 heartbeat IPC: 0.638925 cumulative IPC: 0.474535 (Simulation time: 0 hr 16 min 4 sec) 
Heartbeat CPU 0 instructions: 184000000 cycles: 389956762 heartbeat IPC: 0.347268 cumulative IPC: 0.473537 (Simulation time: 0 hr 16 min 10 sec) 
Heartbeat CPU 0 instructions: 185000003 cycles: 392538458 heartbeat IPC: 0.387343 cumulative IPC: 0.472936 (Simulation time: 0 hr 16 min 16 sec) 
Heartbeat CPU 0 instructions: 186000002 cycles: 394816888 heartbeat IPC: 0.438898 cumulative IPC: 0.472728 (Simulation time: 0 hr 16 min 22 sec) 
Heartbeat CPU 0 instructions: 187000000 cycles: 397117805 heartbeat IPC: 0.434608 cumulative IPC: 0.472494 (Simulation time: 0 hr 16 min 27 sec) 
Heartbeat CPU 0 instructions: 188000000 cycles: 399390003 heartbeat IPC: 0.440102 cumulative IPC: 0.472298 (Simulation time: 0 hr 16 min 33 sec) 
Heartbeat CPU 0 instructions: 189000000 cycles: 401666617 heartbeat IPC: 0.439249 cumulative IPC: 0.4721 (Simulation time: 0 hr 16 min 38 sec) 
Heartbeat CPU 0 instructions: 190000000 cycles: 404128680 heartbeat IPC: 0.406163 cumulative IPC: 0.471675 (Simulation time: 0 hr 16 min 44 sec) 
Heartbeat CPU 0 instructions: 191000002 cycles: 406431653 heartbeat IPC: 0.434222 cumulative IPC: 0.47145 (Simulation time: 0 hr 16 min 50 sec) 
Heartbeat CPU 0 instructions: 192000002 cycles: 408705463 heartbeat IPC: 0.43979 cumulative IPC: 0.471263 (Simulation time: 0 hr 16 min 55 sec) 
Heartbeat CPU 0 instructions: 193000000 cycles: 410993759 heartbeat IPC: 0.437006 cumulative IPC: 0.471062 (Simulation time: 0 hr 17 min 0 sec) 
Heartbeat CPU 0 instructions: 194000000 cycles: 413302385 heartbeat IPC: 0.433158 cumulative IPC: 0.470838 (Simulation time: 0 hr 17 min 6 sec) 
Heartbeat CPU 0 instructions: 195000000 cycles: 415731274 heartbeat IPC: 0.411711 cumulative IPC: 0.470473 (Simulation time: 0 hr 17 min 11 sec) 
Heartbeat CPU 0 instructions: 196000001 cycles: 418193482 heartbeat IPC: 0.40614 cumulative IPC: 0.470072 (Simulation time: 0 hr 17 min 17 sec) 
Heartbeat CPU 0 instructions: 197000002 cycles: 421019796 heartbeat IPC: 0.353818 cumulative IPC: 0.469248 (Simulation time: 0 hr 17 min 23 sec) 
Heartbeat CPU 0 instructions: 198000000 cycles: 423804222 heartbeat IPC: 0.35914 cumulative IPC: 0.468484 (Simulation time: 0 hr 17 min 29 sec) 
Heartbeat CPU 0 instructions: 199000002 cycles: 426552418 heartbeat IPC: 0.363876 cumulative IPC: 0.467772 (Simulation time: 0 hr 17 min 35 sec) 
Heartbeat CPU 0 instructions: 200000000 cycles: 428866990 heartbeat IPC: 0.432044 cumulative IPC: 0.467569 (Simulation time: 0 hr 17 min 40 sec) 
Heartbeat CPU 0 instructions: 201000001 cycles: 431166989 heartbeat IPC: 0.434783 cumulative IPC: 0.467384 (Simulation time: 0 hr 17 min 46 sec) 
Heartbeat CPU 0 instructions: 202000001 cycles: 433564896 heartbeat IPC: 0.41703 cumulative IPC: 0.46709 (Simulation time: 0 hr 17 min 51 sec) 
Heartbeat CPU 0 instructions: 203000001 cycles: 435883328 heartbeat IPC: 0.431326 cumulative IPC: 0.46689 (Simulation time: 0 hr 17 min 57 sec) 
Heartbeat CPU 0 instructions: 204000000 cycles: 438183253 heartbeat IPC: 0.434796 cumulative IPC: 0.466712 (Simulation time: 0 hr 18 min 2 sec) 
Heartbeat CPU 0 instructions: 205000003 cycles: 440463972 heartbeat IPC: 0.43846 cumulative IPC: 0.466558 (Simulation time: 0 hr 18 min 8 sec) 
Heartbeat CPU 0 instructions: 206000001 cycles: 444583170 heartbeat IPC: 0.242765 cumulative IPC: 0.464374 (Simulation time: 0 hr 18 min 15 sec) 
Heartbeat CPU 0 instructions: 207000000 cycles: 445077730 heartbeat IPC: 2.022 cumulative IPC: 0.466197 (Simulation time: 0 hr 18 min 19 sec) 
Heartbeat CPU 0 instructions: 208000002 cycles: 445538627 heartbeat IPC: 2.16969 cumulative IPC: 0.468053 (Simulation time: 0 hr 18 min 22 sec) 
Heartbeat CPU 0 instructions: 209000000 cycles: 445987980 heartbeat IPC: 2.22542 cumulative IPC: 0.469918 (Simulation time: 0 hr 18 min 26 sec) 
Heartbeat CPU 0 instructions: 210000002 cycles: 446632275 heartbeat IPC: 1.55209 cumulative IPC: 0.471562 (Simulation time: 0 hr 18 min 30 sec) 
Heartbeat CPU 0 instructions: 211000001 cycles: 447491544 heartbeat IPC: 1.16378 cumulative IPC: 0.472961 (Simulation time: 0 hr 18 min 35 sec) 
Heartbeat CPU 0 instructions: 212000000 cycles: 450401317 heartbeat IPC: 0.343669 cumulative IPC: 0.472082 (Simulation time: 0 hr 18 min 41 sec) 
Heartbeat CPU 0 instructions: 213000000 cycles: 453287379 heartbeat IPC: 0.346493 cumulative IPC: 0.471241 (Simulation time: 0 hr 18 min 46 sec) 
Heartbeat CPU 0 instructions: 214000002 cycles: 455834415 heartbeat IPC: 0.392614 cumulative IPC: 0.470778 (Simulation time: 0 hr 18 min 52 sec) 
Heartbeat CPU 0 instructions: 215000002 cycles: 458114400 heartbeat IPC: 0.438599 cumulative IPC: 0.47061 (Simulation time: 0 hr 18 min 57 sec) 
Heartbeat CPU 0 instructions: 216000000 cycles: 460426527 heartbeat IPC: 0.432501 cumulative IPC: 0.470409 (Simulation time: 0 hr 19 min 3 sec) 
Heartbeat CPU 0 instructions: 217000000 cycles: 462922930 heartbeat IPC: 0.400576 cumulative IPC: 0.470013 (Simulation time: 0 hr 19 min 9 sec) 
Heartbeat CPU 0 instructions: 218000002 cycles: 465219063 heartbeat IPC: 0.435516 cumulative IPC: 0.469834 (Simulation time: 0 hr 19 min 14 sec) 
Heartbeat CPU 0 instructions: 219000000 cycles: 467527798 heartbeat IPC: 0.433137 cumulative IPC: 0.469644 (Simulation time: 0 hr 19 min 20 sec) 
Heartbeat CPU 0 instructions: 220000000 cycles: 469834303 heartbeat IPC: 0.433556 cumulative IPC: 0.469458 (Simulation time: 0 hr 19 min 25 sec) 
Heartbeat CPU 0 instructions: 221000003 cycles: 472119558 heartbeat IPC: 0.437589 cumulative IPC: 0.469296 (Simulation time: 0 hr 19 min 30 sec) 
Heartbeat CPU 0 instructions: 222000000 cycles: 474484569 heartbeat IPC: 0.42283 cumulative IPC: 0.469053 (Simulation time: 0 hr 19 min 36 sec) 
Heartbeat CPU 0 instructions: 223000002 cycles: 476832409 heartbeat IPC: 0.425924 cumulative IPC: 0.46883 (Simulation time: 0 hr 19 min 42 sec) 
Heartbeat CPU 0 instructions: 224000000 cycles: 479131625 heartbeat IPC: 0.43493 cumulative IPC: 0.468659 (Simulation time: 0 hr 19 min 47 sec) 
Heartbeat CPU 0 instructions: 225000002 cycles: 481767199 heartbeat IPC: 0.379425 cumulative IPC: 0.468147 (Simulation time: 0 hr 19 min 52 sec) 
Heartbeat CPU 0 instructions: 226000001 cycles: 484554626 heartbeat IPC: 0.358753 cumulative IPC: 0.467487 (Simulation time: 0 hr 19 min 58 sec) 
Heartbeat CPU 0 instructions: 227000001 cycles: 487318933 heartbeat IPC: 0.361754 cumulative IPC: 0.466858 (Simulation time: 0 hr 20 min 4 sec) 
Heartbeat CPU 0 instructions: 228000001 cycles: 489434862 heartbeat IPC: 0.472606 cumulative IPC: 0.466884 (Simulation time: 0 hr 20 min 9 sec) 
Heartbeat CPU 0 instructions: 229000000 cycles: 492257572 heartbeat IPC: 0.354269 cumulative IPC: 0.466207 (Simulation time: 0 hr 20 min 15 sec) 
Heartbeat CPU 0 instructions: 230000000 cycles: 494834046 heartbeat IPC: 0.388127 cumulative IPC: 0.465782 (Simulation time: 0 hr 20 min 21 sec) 
Heartbeat CPU 0 instructions: 231000000 cycles: 497114856 heartbeat IPC: 0.438441 cumulative IPC: 0.46565 (Simulation time: 0 hr 20 min 26 sec) 
Heartbeat CPU 0 instructions: 232000000 cycles: 499411593 heartbeat IPC: 0.4354 cumulative IPC: 0.465504 (Simulation time: 0 hr 20 min 32 sec) 
Heartbeat CPU 0 instructions: 233000000 cycles: 501700256 heartbeat IPC: 0.436936 cumulative IPC: 0.465368 (Simulation time: 0 hr 20 min 37 sec) 
Heartbeat CPU 0 instructions: 234000001 cycles: 505398683 heartbeat IPC: 0.270386 cumulative IPC: 0.463875 (Simulation time: 0 hr 20 min 44 sec) 
Heartbeat CPU 0 instructions: 235000000 cycles: 506514987 heartbeat IPC: 0.895812 cumulative IPC: 0.464871 (Simulation time: 0 hr 20 min 49 sec) 
Heartbeat CPU 0 instructions: 236000002 cycles: 506968815 heartbeat IPC: 2.20348 cumulative IPC: 0.4665 (Simulation time: 0 hr 20 min 52 sec) 
Heartbeat CPU 0 instructions: 237000000 cycles: 507426897 heartbeat IPC: 2.18301 cumulative IPC: 0.468121 (Simulation time: 0 hr 20 min 56 sec) 
Heartbeat CPU 0 instructions: 238000003 cycles: 507877814 heartbeat IPC: 2.21771 cumulative IPC: 0.469746 (Simulation time: 0 hr 21 min 0 sec) 
Heartbeat CPU 0 instructions: 239000000 cycles: 508347266 heartbeat IPC: 2.13014 cumulative IPC: 0.471351 (Simulation time: 0 hr 21 min 4 sec) 
Heartbeat CPU 0 instructions: 240000000 cycles: 511086127 heartbeat IPC: 0.365115 cumulative IPC: 0.470755 (Simulation time: 0 hr 21 min 9 sec) 
Heartbeat CPU 0 instructions: 241000000 cycles: 513982633 heartbeat IPC: 0.345244 cumulative IPC: 0.470016 (Simulation time: 0 hr 21 min 15 sec) 
Heartbeat CPU 0 instructions: 242000000 cycles: 516839212 heartbeat IPC: 0.350069 cumulative IPC: 0.469322 (Simulation time: 0 hr 21 min 21 sec) 
Heartbeat CPU 0 instructions: 243000002 cycles: 519402452 heartbeat IPC: 0.390132 cumulative IPC: 0.468914 (Simulation time: 0 hr 21 min 27 sec) 
Heartbeat CPU 0 instructions: 244000003 cycles: 521888155 heartbeat IPC: 0.402301 cumulative IPC: 0.468582 (Simulation time: 0 hr 21 min 33 sec) 
Heartbeat CPU 0 instructions: 245000001 cycles: 524170728 heartbeat IPC: 0.438101 cumulative IPC: 0.468444 (Simulation time: 0 hr 21 min 38 sec) 
Heartbeat CPU 0 instructions: 246000000 cycles: 526472810 heartbeat IPC: 0.434389 cumulative IPC: 0.468288 (Simulation time: 0 hr 21 min 43 sec) 
Heartbeat CPU 0 instructions: 247000000 cycles: 528772811 heartbeat IPC: 0.434782 cumulative IPC: 0.468136 (Simulation time: 0 hr 21 min 49 sec) 
Heartbeat CPU 0 instructions: 248000003 cycles: 531244525 heartbeat IPC: 0.404579 cumulative IPC: 0.467827 (Simulation time: 0 hr 21 min 55 sec) 
Heartbeat CPU 0 instructions: 249000001 cycles: 533588730 heartbeat IPC: 0.426583 cumulative IPC: 0.467638 (Simulation time: 0 hr 22 min 0 sec) 
Heartbeat CPU 0 instructions: 250000000 cycles: 535897166 heartbeat IPC: 0.433193 cumulative IPC: 0.467483 (Simulation time: 0 hr 22 min 6 sec) 
Heartbeat CPU 0 instructions: 251000000 cycles: 538229158 heartbeat IPC: 0.428818 cumulative IPC: 0.467308 (Simulation time: 0 hr 22 min 11 sec) 
Heartbeat CPU 0 instructions: 252000003 cycles: 540547232 heartbeat IPC: 0.431394 cumulative IPC: 0.467148 (Simulation time: 0 hr 22 min 16 sec) 
Heartbeat CPU 0 instructions: 253000000 cycles: 542865427 heartbeat IPC: 0.431369 cumulative IPC: 0.466988 (Simulation time: 0 hr 22 min 22 sec) 
Heartbeat CPU 0 instructions: 254000000 cycles: 545360159 heartbeat IPC: 0.400845 cumulative IPC: 0.466673 (Simulation time: 0 hr 22 min 28 sec) 
Heartbeat CPU 0 instructions: 255000003 cycles: 547686476 heartbeat IPC: 0.429865 cumulative IPC: 0.466509 (Simulation time: 0 hr 22 min 33 sec) 
Heartbeat CPU 0 instructions: 256000002 cycles: 550107836 heartbeat IPC: 0.412991 cumulative IPC: 0.466264 (Simulation time: 0 hr 22 min 38 sec) 
Heartbeat CPU 0 instructions: 257000000 cycles: 552947555 heartbeat IPC: 0.352147 cumulative IPC: 0.465653 (Simulation time: 0 hr 22 min 44 sec) 
Heartbeat CPU 0 instructions: 258000001 cycles: 555768858 heartbeat IPC: 0.354447 cumulative IPC: 0.465065 (Simulation time: 0 hr 22 min 50 sec) 
Heartbeat CPU 0 instructions: 259000001 cycles: 558567163 heartbeat IPC: 0.357359 cumulative IPC: 0.464502 (Simulation time: 0 hr 22 min 56 sec) 
Heartbeat CPU 0 instructions: 260000001 cycles: 561176126 heartbeat IPC: 0.383294 cumulative IPC: 0.464109 (Simulation time: 0 hr 23 min 2 sec) 
Finished CPU 0 instructions: 250000000 cycles: 538666528 cumulative IPC: 0.464109 (Simulation time: 0 hr 23 min 2 sec) 

ChampSim completed all CPUs

Region of Interest Statistics

CPU 0 cumulative IPC: 0.464109 instructions: 250000000 cycles: 538666528
L1D TOTAL     ACCESS:   35188411  HIT:   28744137  MISS:    6444274
L1D LOAD      ACCESS:   23528819  HIT:   17179388  MISS:    6349431
L1D RFO       ACCESS:   11659592  HIT:   11564749  MISS:      94843
L1D PREFETCH  ACCESS:          0  HIT:          0  MISS:          0
L1D WRITEBACK ACCESS:          0  HIT:          0  MISS:          0
L1D PREFETCH  REQUESTED:          0  ISSUED:          0  USEFUL:          0  USELESS:          0
L1D AVERAGE MISS LATENCY: 248.565 cycles
L1I TOTAL     ACCESS:   48608270  HIT:   48578179  MISS:      30091
L1I LOAD      ACCESS:   48608270  HIT:   48578179  MISS:      30091
L1I RFO       ACCESS:          0  HIT:          0  MISS:          0
L1I PREFETCH  ACCESS:          0  HIT:          0  MISS:          0
L1I WRITEBACK ACCESS:          0  HIT:          0  MISS:          0
L1I PREFETCH  REQUESTED:          0  ISSUED:          0  USEFUL:          0  USELESS:          0
L1I AVERAGE MISS LATENCY: 90.6312 cycles
L2C TOTAL     ACCESS:    6682682  HIT:     266267  MISS:    6416415
L2C LOAD      ACCESS:    6379515  HIT:      52733  MISS:    6326782
L2C RFO       ACCESS:      94843  HIT:       5210  MISS:      89633
L2C PREFETCH  ACCESS:          0  HIT:          0  MISS:          0
L2C WRITEBACK ACCESS:     208324  HIT:     208324  MISS:          0
L2C PREFETCH  REQUESTED:          0  ISSUED:          0  USEFUL:          0  USELESS:          0
L2C AVERAGE MISS LATENCY: 135.84 cycles
LLC TOTAL     ACCESS:   11539232  HIT:    9858707  MISS:    1680525
LLC LOAD      ACCESS:    6326779  HIT:    4931049  MISS:    1395730
LLC RFO       ACCESS:      89633  HIT:      51528  MISS:      38105
LLC PREFETCH  ACCESS:    4921283  HIT:    4674593  MISS:     246690
LLC WRITEBACK ACCESS:     201537  HIT:     201537  MISS:          0
LLC PREFETCH  REQUESTED:    6235360  ISSUED:    6235360  USEFUL:     244250  USELESS:       2418
LLC AVERAGE MISS LATENCY: 197.678 cycles
Major fault: 0 Minor fault: 16761
performance stats:
mapping cache size: 99999
divergence: 336013

DRAM Statistics
 CHANNEL 0
 RQ ROW_BUFFER_HIT:     271704  ROW_BUFFER_MISS:     587150
 DBUS_CONGESTED:     276073
 WQ ROW_BUFFER_HIT:      38645  ROW_BUFFER_MISS:      20299  FULL:          0

 CHANNEL 1
 RQ ROW_BUFFER_HIT:     259167  ROW_BUFFER_MISS:     562471
 DBUS_CONGESTED:     276073
 WQ ROW_BUFFER_HIT:      38897  ROW_BUFFER_MISS:      21583  FULL:          0

 AVG_CONGESTED_CYCLE: 16

CPU 0 Branch Prediction Accuracy: 99.7353% MPKI: 0.851228 Average ROB Occupancy at Mispredict: 54.1237

Branch types
NOT_BRANCH: 169607492 67.843%
BRANCH_DIRECT_JUMP: 3142682 1.25707%
BRANCH_INDIRECT: 122637 0.0490548%
BRANCH_CONDITIONAL: 74106362 29.6425%
BRANCH_DIRECT_CALL: 1387635 0.555054%
BRANCH_INDIRECT_CALL: 122777 0.0491108%
BRANCH_RETURN: 1510412 0.604165%
BRANCH_OTHER: 0 0%


gzip: stdout: Broken pipe
