
*** ChampSim Multicore Out-of-Order Simulator ***

Warmup Instructions: 1000000
Prefetch Warmup Instructions: 10000000
Simulation Instructions: 250000000
Stat Printing Period: 1000000
Number of CPUs: 1
LLC sets: 2048
LLC ways: 16
Off-chip DRAM Size: 32768 MB Channels: 2 Width: 64-bit Data Rate: 1024 MT/s

CPU 0 runs /scratch/cluster/cmolder/ML-DPC/ChampSimTraces/spec06/471.omnetpp-s0.trace.gz
Read seed: 1036
Heartbeat CPU 0 instructions: 1000000 cycles: 363762 heartbeat IPC: 2.74905 cumulative IPC: 2.74905 (Simulation time: 0 hr 0 min 2 sec) 

Warmup complete CPU 0 instructions: 1000004 cycles: 363763 (Simulation time: 0 hr 0 min 2 sec) 

Heartbeat CPU 0 instructions: 2000000 cycles: 3076658 heartbeat IPC: 0.36861 cumulative IPC: 0.368608 (Simulation time: 0 hr 0 min 5 sec) 
Heartbeat CPU 0 instructions: 3000000 cycles: 3741377 heartbeat IPC: 1.5044 cumulative IPC: 0.592133 (Simulation time: 0 hr 0 min 7 sec) 
Heartbeat CPU 0 instructions: 4000002 cycles: 6765957 heartbeat IPC: 0.330625 cumulative IPC: 0.468589 (Simulation time: 0 hr 0 min 10 sec) 
Heartbeat CPU 0 instructions: 5000002 cycles: 9733729 heartbeat IPC: 0.336953 cumulative IPC: 0.426896 (Simulation time: 0 hr 0 min 12 sec) 
Heartbeat CPU 0 instructions: 6000001 cycles: 12158469 heartbeat IPC: 0.412415 cumulative IPC: 0.423919 (Simulation time: 0 hr 0 min 14 sec) 
Heartbeat CPU 0 instructions: 7000003 cycles: 15464079 heartbeat IPC: 0.302517 cumulative IPC: 0.397343 (Simulation time: 0 hr 0 min 17 sec) 
Heartbeat CPU 0 instructions: 8000003 cycles: 15912506 heartbeat IPC: 2.23002 cumulative IPC: 0.450197 (Simulation time: 0 hr 0 min 18 sec) 
Heartbeat CPU 0 instructions: 9000002 cycles: 16359207 heartbeat IPC: 2.23863 cumulative IPC: 0.500142 (Simulation time: 0 hr 0 min 20 sec) 
Heartbeat CPU 0 instructions: 10000000 cycles: 16804969 heartbeat IPC: 2.24335 cumulative IPC: 0.547405 (Simulation time: 0 hr 0 min 21 sec) 

Warmup complete CPU 0 instructions: 10000004 cycles: 16804970 (Simulation time: 0 hr 0 min 21 sec) 

Heartbeat CPU 0 instructions: 11000000 cycles: 17251682 heartbeat IPC: 2.23857 cumulative IPC: 2.23857 (Simulation time: 0 hr 0 min 23 sec) 
Heartbeat CPU 0 instructions: 12000002 cycles: 17703976 heartbeat IPC: 2.21096 cumulative IPC: 2.22468 (Simulation time: 0 hr 0 min 24 sec) 
Heartbeat CPU 0 instructions: 13000002 cycles: 18160886 heartbeat IPC: 2.18861 cumulative IPC: 2.21252 (Simulation time: 0 hr 0 min 26 sec) 
Heartbeat CPU 0 instructions: 14000000 cycles: 18604332 heartbeat IPC: 2.25506 cumulative IPC: 2.22301 (Simulation time: 0 hr 0 min 28 sec) 
Heartbeat CPU 0 instructions: 15000001 cycles: 19047876 heartbeat IPC: 2.25457 cumulative IPC: 2.22925 (Simulation time: 0 hr 0 min 29 sec) 
Heartbeat CPU 0 instructions: 16000002 cycles: 19494086 heartbeat IPC: 2.2411 cumulative IPC: 2.23122 (Simulation time: 0 hr 0 min 31 sec) 
Heartbeat CPU 0 instructions: 17000001 cycles: 19946814 heartbeat IPC: 2.20883 cumulative IPC: 2.22799 (Simulation time: 0 hr 0 min 32 sec) 
Heartbeat CPU 0 instructions: 18000000 cycles: 20391220 heartbeat IPC: 2.25019 cumulative IPC: 2.23074 (Simulation time: 0 hr 0 min 34 sec) 
Heartbeat CPU 0 instructions: 19000002 cycles: 20835158 heartbeat IPC: 2.25257 cumulative IPC: 2.23315 (Simulation time: 0 hr 0 min 35 sec) 
Heartbeat CPU 0 instructions: 20000003 cycles: 23907828 heartbeat IPC: 0.32545 cumulative IPC: 1.40788 (Simulation time: 0 hr 0 min 38 sec) 
Heartbeat CPU 0 instructions: 21000001 cycles: 26024212 heartbeat IPC: 0.472503 cumulative IPC: 1.19316 (Simulation time: 0 hr 0 min 40 sec) 
Heartbeat CPU 0 instructions: 22000000 cycles: 27338104 heartbeat IPC: 0.761097 cumulative IPC: 1.13926 (Simulation time: 0 hr 0 min 42 sec) 
Heartbeat CPU 0 instructions: 23000003 cycles: 30332957 heartbeat IPC: 0.333907 cumulative IPC: 0.960971 (Simulation time: 0 hr 0 min 44 sec) 
Heartbeat CPU 0 instructions: 24000000 cycles: 33294735 heartbeat IPC: 0.337634 cumulative IPC: 0.849011 (Simulation time: 0 hr 0 min 47 sec) 
Heartbeat CPU 0 instructions: 25000000 cycles: 35581867 heartbeat IPC: 0.437229 cumulative IPC: 0.798854 (Simulation time: 0 hr 0 min 49 sec) 
Heartbeat CPU 0 instructions: 26000001 cycles: 36717299 heartbeat IPC: 0.880723 cumulative IPC: 0.803522 (Simulation time: 0 hr 0 min 51 sec) 
Heartbeat CPU 0 instructions: 27000000 cycles: 39685028 heartbeat IPC: 0.336958 cumulative IPC: 0.743005 (Simulation time: 0 hr 0 min 53 sec) 
Heartbeat CPU 0 instructions: 28000001 cycles: 42696303 heartbeat IPC: 0.332086 cumulative IPC: 0.695213 (Simulation time: 0 hr 0 min 56 sec) 
Heartbeat CPU 0 instructions: 29000001 cycles: 45188056 heartbeat IPC: 0.401324 cumulative IPC: 0.669413 (Simulation time: 0 hr 0 min 59 sec) 
Heartbeat CPU 0 instructions: 30000003 cycles: 46127898 heartbeat IPC: 1.06401 cumulative IPC: 0.68206 (Simulation time: 0 hr 1 min 1 sec) 
Heartbeat CPU 0 instructions: 31000001 cycles: 49099378 heartbeat IPC: 0.336532 cumulative IPC: 0.650267 (Simulation time: 0 hr 1 min 4 sec) 
Heartbeat CPU 0 instructions: 32000000 cycles: 52110646 heartbeat IPC: 0.332086 cumulative IPC: 0.623129 (Simulation time: 0 hr 1 min 6 sec) 
Heartbeat CPU 0 instructions: 33000000 cycles: 54829096 heartbeat IPC: 0.367857 cumulative IPC: 0.604879 (Simulation time: 0 hr 1 min 8 sec) 
Heartbeat CPU 0 instructions: 34000002 cycles: 55563673 heartbeat IPC: 1.36133 cumulative IPC: 0.619216 (Simulation time: 0 hr 1 min 10 sec) 
Heartbeat CPU 0 instructions: 35000000 cycles: 58576664 heartbeat IPC: 0.331895 cumulative IPC: 0.598491 (Simulation time: 0 hr 1 min 13 sec) 
Heartbeat CPU 0 instructions: 36000001 cycles: 61606836 heartbeat IPC: 0.330015 cumulative IPC: 0.580333 (Simulation time: 0 hr 1 min 16 sec) 
Heartbeat CPU 0 instructions: 37000002 cycles: 64201599 heartbeat IPC: 0.385392 cumulative IPC: 0.569661 (Simulation time: 0 hr 1 min 18 sec) 
Heartbeat CPU 0 instructions: 38000001 cycles: 65049429 heartbeat IPC: 1.17948 cumulative IPC: 0.580377 (Simulation time: 0 hr 1 min 20 sec) 
Heartbeat CPU 0 instructions: 39000001 cycles: 67974313 heartbeat IPC: 0.341894 cumulative IPC: 0.566746 (Simulation time: 0 hr 1 min 23 sec) 
Heartbeat CPU 0 instructions: 40000001 cycles: 70966528 heartbeat IPC: 0.334201 cumulative IPC: 0.553898 (Simulation time: 0 hr 1 min 26 sec) 
Heartbeat CPU 0 instructions: 41000000 cycles: 73435749 heartbeat IPC: 0.404986 cumulative IPC: 0.547405 (Simulation time: 0 hr 1 min 28 sec) 
Heartbeat CPU 0 instructions: 42000000 cycles: 74405016 heartbeat IPC: 1.03171 cumulative IPC: 0.555555 (Simulation time: 0 hr 1 min 30 sec) 
Heartbeat CPU 0 instructions: 43000000 cycles: 79701088 heartbeat IPC: 0.188819 cumulative IPC: 0.524675 (Simulation time: 0 hr 1 min 33 sec) 
Heartbeat CPU 0 instructions: 44000000 cycles: 80154526 heartbeat IPC: 2.20537 cumulative IPC: 0.536705 (Simulation time: 0 hr 1 min 34 sec) 
Heartbeat CPU 0 instructions: 45000000 cycles: 80605019 heartbeat IPC: 2.21979 cumulative IPC: 0.548589 (Simulation time: 0 hr 1 min 36 sec) 
Heartbeat CPU 0 instructions: 46000001 cycles: 81055125 heartbeat IPC: 2.2217 cumulative IPC: 0.56031 (Simulation time: 0 hr 1 min 37 sec) 
Heartbeat CPU 0 instructions: 47000002 cycles: 81500435 heartbeat IPC: 2.24563 cumulative IPC: 0.57191 (Simulation time: 0 hr 1 min 39 sec) 
Heartbeat CPU 0 instructions: 48000003 cycles: 81948246 heartbeat IPC: 2.23309 cumulative IPC: 0.58333 (Simulation time: 0 hr 1 min 40 sec) 
Heartbeat CPU 0 instructions: 49000001 cycles: 82399228 heartbeat IPC: 2.21738 cumulative IPC: 0.594564 (Simulation time: 0 hr 1 min 42 sec) 
Heartbeat CPU 0 instructions: 50000002 cycles: 82848590 heartbeat IPC: 2.22538 cumulative IPC: 0.60566 (Simulation time: 0 hr 1 min 43 sec) 
Heartbeat CPU 0 instructions: 51000003 cycles: 83296768 heartbeat IPC: 2.23126 cumulative IPC: 0.616617 (Simulation time: 0 hr 1 min 45 sec) 
Heartbeat CPU 0 instructions: 52000001 cycles: 83741892 heartbeat IPC: 2.24656 cumulative IPC: 0.627456 (Simulation time: 0 hr 1 min 46 sec) 
Heartbeat CPU 0 instructions: 53000000 cycles: 84190128 heartbeat IPC: 2.23097 cumulative IPC: 0.638123 (Simulation time: 0 hr 1 min 48 sec) 
Heartbeat CPU 0 instructions: 54000001 cycles: 84645933 heartbeat IPC: 2.19392 cumulative IPC: 0.648576 (Simulation time: 0 hr 1 min 50 sec) 
Heartbeat CPU 0 instructions: 55000000 cycles: 85088154 heartbeat IPC: 2.26131 cumulative IPC: 0.65902 (Simulation time: 0 hr 1 min 52 sec) 
Heartbeat CPU 0 instructions: 56000002 cycles: 86928905 heartbeat IPC: 0.543258 cumulative IPC: 0.655981 (Simulation time: 0 hr 1 min 53 sec) 
Heartbeat CPU 0 instructions: 57000000 cycles: 88481334 heartbeat IPC: 0.644151 cumulative IPC: 0.655725 (Simulation time: 0 hr 1 min 55 sec) 
Heartbeat CPU 0 instructions: 58000001 cycles: 91410596 heartbeat IPC: 0.341383 cumulative IPC: 0.643383 (Simulation time: 0 hr 1 min 58 sec) 
Heartbeat CPU 0 instructions: 59000000 cycles: 94371122 heartbeat IPC: 0.337777 cumulative IPC: 0.631719 (Simulation time: 0 hr 2 min 1 sec) 
Heartbeat CPU 0 instructions: 60000001 cycles: 96419348 heartbeat IPC: 0.488228 cumulative IPC: 0.628027 (Simulation time: 0 hr 2 min 3 sec) 
Heartbeat CPU 0 instructions: 61000002 cycles: 97812933 heartbeat IPC: 0.717574 cumulative IPC: 0.629568 (Simulation time: 0 hr 2 min 5 sec) 
Heartbeat CPU 0 instructions: 62000002 cycles: 100782928 heartbeat IPC: 0.336701 cumulative IPC: 0.61921 (Simulation time: 0 hr 2 min 7 sec) 
Heartbeat CPU 0 instructions: 63000001 cycles: 103716997 heartbeat IPC: 0.340823 cumulative IPC: 0.609812 (Simulation time: 0 hr 2 min 10 sec) 
Heartbeat CPU 0 instructions: 64000002 cycles: 105947750 heartbeat IPC: 0.44828 cumulative IPC: 0.60577 (Simulation time: 0 hr 2 min 12 sec) 
Heartbeat CPU 0 instructions: 65000002 cycles: 107144147 heartbeat IPC: 0.835843 cumulative IPC: 0.608817 (Simulation time: 0 hr 2 min 15 sec) 
Heartbeat CPU 0 instructions: 66000000 cycles: 110154168 heartbeat IPC: 0.332223 cumulative IPC: 0.599898 (Simulation time: 0 hr 2 min 17 sec) 
Heartbeat CPU 0 instructions: 67000000 cycles: 113140023 heartbeat IPC: 0.334912 cumulative IPC: 0.591685 (Simulation time: 0 hr 2 min 21 sec) 
Heartbeat CPU 0 instructions: 68000002 cycles: 115592342 heartbeat IPC: 0.407778 cumulative IPC: 0.58712 (Simulation time: 0 hr 2 min 24 sec) 
Heartbeat CPU 0 instructions: 69000000 cycles: 116581296 heartbeat IPC: 1.01117 cumulative IPC: 0.591323 (Simulation time: 0 hr 2 min 26 sec) 
Heartbeat CPU 0 instructions: 70000000 cycles: 119590548 heartbeat IPC: 0.332309 cumulative IPC: 0.583739 (Simulation time: 0 hr 2 min 29 sec) 
Heartbeat CPU 0 instructions: 71000002 cycles: 122599286 heartbeat IPC: 0.332366 cumulative IPC: 0.57659 (Simulation time: 0 hr 2 min 31 sec) 
Heartbeat CPU 0 instructions: 72000002 cycles: 125066748 heartbeat IPC: 0.405275 cumulative IPC: 0.572686 (Simulation time: 0 hr 2 min 33 sec) 
Heartbeat CPU 0 instructions: 73000001 cycles: 126064041 heartbeat IPC: 1.00271 cumulative IPC: 0.576611 (Simulation time: 0 hr 2 min 35 sec) 
Heartbeat CPU 0 instructions: 74000000 cycles: 129090143 heartbeat IPC: 0.330458 cumulative IPC: 0.569977 (Simulation time: 0 hr 2 min 37 sec) 
Heartbeat CPU 0 instructions: 75000002 cycles: 132059342 heartbeat IPC: 0.336792 cumulative IPC: 0.56397 (Simulation time: 0 hr 2 min 41 sec) 
Heartbeat CPU 0 instructions: 76000000 cycles: 134388495 heartbeat IPC: 0.42934 cumulative IPC: 0.561303 (Simulation time: 0 hr 2 min 43 sec) 
Heartbeat CPU 0 instructions: 77000000 cycles: 135499461 heartbeat IPC: 0.900118 cumulative IPC: 0.564474 (Simulation time: 0 hr 2 min 45 sec) 
Heartbeat CPU 0 instructions: 78000002 cycles: 138491738 heartbeat IPC: 0.334194 cumulative IPC: 0.558812 (Simulation time: 0 hr 2 min 49 sec) 
Heartbeat CPU 0 instructions: 79000001 cycles: 141551753 heartbeat IPC: 0.326795 cumulative IPC: 0.55312 (Simulation time: 0 hr 2 min 53 sec) 
Heartbeat CPU 0 instructions: 80000002 cycles: 142940022 heartbeat IPC: 0.720322 cumulative IPC: 0.554961 (Simulation time: 0 hr 2 min 56 sec) 
Heartbeat CPU 0 instructions: 81000002 cycles: 144988879 heartbeat IPC: 0.488077 cumulative IPC: 0.553892 (Simulation time: 0 hr 2 min 58 sec) 
Heartbeat CPU 0 instructions: 82000001 cycles: 147976292 heartbeat IPC: 0.334737 cumulative IPC: 0.5489 (Simulation time: 0 hr 3 min 2 sec) 
Heartbeat CPU 0 instructions: 83000002 cycles: 150938928 heartbeat IPC: 0.337538 cumulative IPC: 0.544232 (Simulation time: 0 hr 3 min 4 sec) 
Heartbeat CPU 0 instructions: 84000002 cycles: 152292920 heartbeat IPC: 0.738557 cumulative IPC: 0.546174 (Simulation time: 0 hr 3 min 6 sec) 
Heartbeat CPU 0 instructions: 85000000 cycles: 154372311 heartbeat IPC: 0.480909 cumulative IPC: 0.545188 (Simulation time: 0 hr 3 min 8 sec) 
Heartbeat CPU 0 instructions: 86000000 cycles: 157299126 heartbeat IPC: 0.341668 cumulative IPC: 0.540948 (Simulation time: 0 hr 3 min 11 sec) 
Heartbeat CPU 0 instructions: 87000001 cycles: 160289792 heartbeat IPC: 0.334374 cumulative IPC: 0.536642 (Simulation time: 0 hr 3 min 13 sec) 
Heartbeat CPU 0 instructions: 88000000 cycles: 161468119 heartbeat IPC: 0.84866 cumulative IPC: 0.539184 (Simulation time: 0 hr 3 min 15 sec) 
Heartbeat CPU 0 instructions: 89000002 cycles: 166101840 heartbeat IPC: 0.21581 cumulative IPC: 0.529147 (Simulation time: 0 hr 3 min 18 sec) 
Heartbeat CPU 0 instructions: 90000002 cycles: 166547021 heartbeat IPC: 2.24628 cumulative IPC: 0.534252 (Simulation time: 0 hr 3 min 19 sec) 
Heartbeat CPU 0 instructions: 91000001 cycles: 166990697 heartbeat IPC: 2.25389 cumulative IPC: 0.539332 (Simulation time: 0 hr 3 min 21 sec) 
Heartbeat CPU 0 instructions: 92000001 cycles: 167434531 heartbeat IPC: 2.25309 cumulative IPC: 0.544382 (Simulation time: 0 hr 3 min 23 sec) 
Heartbeat CPU 0 instructions: 93000002 cycles: 167879347 heartbeat IPC: 2.24812 cumulative IPC: 0.549398 (Simulation time: 0 hr 3 min 25 sec) 
Heartbeat CPU 0 instructions: 94000002 cycles: 168322930 heartbeat IPC: 2.25437 cumulative IPC: 0.55439 (Simulation time: 0 hr 3 min 28 sec) 
Heartbeat CPU 0 instructions: 95000001 cycles: 168765449 heartbeat IPC: 2.25979 cumulative IPC: 0.559356 (Simulation time: 0 hr 3 min 30 sec) 
Heartbeat CPU 0 instructions: 96000000 cycles: 169208693 heartbeat IPC: 2.25609 cumulative IPC: 0.564291 (Simulation time: 0 hr 3 min 33 sec) 
Heartbeat CPU 0 instructions: 97000000 cycles: 169664942 heartbeat IPC: 2.19179 cumulative IPC: 0.569148 (Simulation time: 0 hr 3 min 35 sec) 
Heartbeat CPU 0 instructions: 98000001 cycles: 170110034 heartbeat IPC: 2.24673 cumulative IPC: 0.574019 (Simulation time: 0 hr 3 min 38 sec) 
Heartbeat CPU 0 instructions: 99000000 cycles: 170553676 heartbeat IPC: 2.25407 cumulative IPC: 0.578867 (Simulation time: 0 hr 3 min 40 sec) 
Heartbeat CPU 0 instructions: 100000001 cycles: 170996479 heartbeat IPC: 2.25834 cumulative IPC: 0.58369 (Simulation time: 0 hr 3 min 43 sec) 
Heartbeat CPU 0 instructions: 101000001 cycles: 171439782 heartbeat IPC: 2.25579 cumulative IPC: 0.588483 (Simulation time: 0 hr 3 min 45 sec) 
Heartbeat CPU 0 instructions: 102000002 cycles: 174448741 heartbeat IPC: 0.332341 cumulative IPC: 0.583594 (Simulation time: 0 hr 3 min 49 sec) 
Heartbeat CPU 0 instructions: 103000000 cycles: 175293687 heartbeat IPC: 1.18351 cumulative IPC: 0.586793 (Simulation time: 0 hr 3 min 50 sec) 
Heartbeat CPU 0 instructions: 104000001 cycles: 177923997 heartbeat IPC: 0.380184 cumulative IPC: 0.58342 (Simulation time: 0 hr 3 min 53 sec) 
Heartbeat CPU 0 instructions: 105000000 cycles: 180938281 heartbeat IPC: 0.331753 cumulative IPC: 0.578798 (Simulation time: 0 hr 3 min 56 sec) 
Heartbeat CPU 0 instructions: 106000003 cycles: 183878664 heartbeat IPC: 0.340093 cumulative IPC: 0.574597 (Simulation time: 0 hr 3 min 58 sec) 
Heartbeat CPU 0 instructions: 107000002 cycles: 184905756 heartbeat IPC: 0.973622 cumulative IPC: 0.577035 (Simulation time: 0 hr 3 min 59 sec) 
Heartbeat CPU 0 instructions: 108000001 cycles: 187366321 heartbeat IPC: 0.40641 cumulative IPC: 0.574573 (Simulation time: 0 hr 4 min 2 sec) 
Heartbeat CPU 0 instructions: 109000000 cycles: 190339841 heartbeat IPC: 0.336301 cumulative IPC: 0.57049 (Simulation time: 0 hr 4 min 4 sec) 
Heartbeat CPU 0 instructions: 110000000 cycles: 193347866 heartbeat IPC: 0.332444 cumulative IPC: 0.566435 (Simulation time: 0 hr 4 min 7 sec) 
Heartbeat CPU 0 instructions: 111000001 cycles: 194557066 heartbeat IPC: 0.826994 cumulative IPC: 0.568207 (Simulation time: 0 hr 4 min 9 sec) 
Heartbeat CPU 0 instructions: 112000003 cycles: 196801271 heartbeat IPC: 0.445593 cumulative IPC: 0.566678 (Simulation time: 0 hr 4 min 11 sec) 
Heartbeat CPU 0 instructions: 113000000 cycles: 199816076 heartbeat IPC: 0.331695 cumulative IPC: 0.562807 (Simulation time: 0 hr 4 min 13 sec) 
Heartbeat CPU 0 instructions: 114000002 cycles: 202820242 heartbeat IPC: 0.332872 cumulative IPC: 0.559094 (Simulation time: 0 hr 4 min 16 sec) 
Heartbeat CPU 0 instructions: 115000000 cycles: 204234804 heartbeat IPC: 0.706931 cumulative IPC: 0.56021 (Simulation time: 0 hr 4 min 17 sec) 
Heartbeat CPU 0 instructions: 116000000 cycles: 206259699 heartbeat IPC: 0.493853 cumulative IPC: 0.5595 (Simulation time: 0 hr 4 min 20 sec) 
Heartbeat CPU 0 instructions: 117000001 cycles: 209266088 heartbeat IPC: 0.332625 cumulative IPC: 0.555956 (Simulation time: 0 hr 4 min 22 sec) 
Heartbeat CPU 0 instructions: 118000000 cycles: 212249422 heartbeat IPC: 0.335195 cumulative IPC: 0.552587 (Simulation time: 0 hr 4 min 24 sec) 
Heartbeat CPU 0 instructions: 119000000 cycles: 213543211 heartbeat IPC: 0.772924 cumulative IPC: 0.554036 (Simulation time: 0 hr 4 min 26 sec) 
Heartbeat CPU 0 instructions: 120000000 cycles: 215673820 heartbeat IPC: 0.469349 cumulative IPC: 0.553128 (Simulation time: 0 hr 4 min 28 sec) 
Heartbeat CPU 0 instructions: 121000000 cycles: 218678351 heartbeat IPC: 0.332831 cumulative IPC: 0.54985 (Simulation time: 0 hr 4 min 31 sec) 
Heartbeat CPU 0 instructions: 122000001 cycles: 221643509 heartbeat IPC: 0.337251 cumulative IPC: 0.546772 (Simulation time: 0 hr 4 min 33 sec) 
Heartbeat CPU 0 instructions: 123000000 cycles: 222835752 heartbeat IPC: 0.838754 cumulative IPC: 0.548462 (Simulation time: 0 hr 4 min 35 sec) 
Heartbeat CPU 0 instructions: 124000000 cycles: 225086716 heartbeat IPC: 0.444254 cumulative IPC: 0.547336 (Simulation time: 0 hr 4 min 38 sec) 
Heartbeat CPU 0 instructions: 125000001 cycles: 228179714 heartbeat IPC: 0.323311 cumulative IPC: 0.544057 (Simulation time: 0 hr 4 min 41 sec) 
Heartbeat CPU 0 instructions: 126000002 cycles: 231023911 heartbeat IPC: 0.351593 cumulative IPC: 0.541502 (Simulation time: 0 hr 4 min 43 sec) 
Heartbeat CPU 0 instructions: 127000000 cycles: 231581760 heartbeat IPC: 1.7926 cumulative IPC: 0.544752 (Simulation time: 0 hr 4 min 44 sec) 
Heartbeat CPU 0 instructions: 128000000 cycles: 234584615 heartbeat IPC: 0.333016 cumulative IPC: 0.541832 (Simulation time: 0 hr 4 min 47 sec) 
Heartbeat CPU 0 instructions: 129000001 cycles: 237572908 heartbeat IPC: 0.33464 cumulative IPC: 0.539028 (Simulation time: 0 hr 4 min 50 sec) 
Heartbeat CPU 0 instructions: 130000002 cycles: 240436432 heartbeat IPC: 0.34922 cumulative IPC: 0.536597 (Simulation time: 0 hr 4 min 53 sec) 
Heartbeat CPU 0 instructions: 131000001 cycles: 241034739 heartbeat IPC: 1.67138 cumulative IPC: 0.539625 (Simulation time: 0 hr 4 min 55 sec) 
Heartbeat CPU 0 instructions: 132000000 cycles: 244052449 heartbeat IPC: 0.331377 cumulative IPC: 0.53686 (Simulation time: 0 hr 4 min 57 sec) 
Heartbeat CPU 0 instructions: 133000000 cycles: 247053761 heartbeat IPC: 0.333188 cumulative IPC: 0.534205 (Simulation time: 0 hr 4 min 59 sec) 
Heartbeat CPU 0 instructions: 134000001 cycles: 249656138 heartbeat IPC: 0.384264 cumulative IPC: 0.532529 (Simulation time: 0 hr 5 min 2 sec) 
Heartbeat CPU 0 instructions: 135000002 cycles: 252753662 heartbeat IPC: 0.322839 cumulative IPC: 0.529776 (Simulation time: 0 hr 5 min 6 sec) 
Heartbeat CPU 0 instructions: 136000002 cycles: 253196889 heartbeat IPC: 2.25618 cumulative IPC: 0.533013 (Simulation time: 0 hr 5 min 9 sec) 
Heartbeat CPU 0 instructions: 137000002 cycles: 253639202 heartbeat IPC: 2.26084 cumulative IPC: 0.53624 (Simulation time: 0 hr 5 min 11 sec) 
Heartbeat CPU 0 instructions: 138000003 cycles: 254081481 heartbeat IPC: 2.26102 cumulative IPC: 0.539455 (Simulation time: 0 hr 5 min 13 sec) 
Heartbeat CPU 0 instructions: 139000000 cycles: 254524274 heartbeat IPC: 2.25838 cumulative IPC: 0.542657 (Simulation time: 0 hr 5 min 14 sec) 
Heartbeat CPU 0 instructions: 140000003 cycles: 254967359 heartbeat IPC: 2.25691 cumulative IPC: 0.545846 (Simulation time: 0 hr 5 min 15 sec) 
Heartbeat CPU 0 instructions: 141000002 cycles: 255420505 heartbeat IPC: 2.20679 cumulative IPC: 0.549 (Simulation time: 0 hr 5 min 17 sec) 
Heartbeat CPU 0 instructions: 142000003 cycles: 255862906 heartbeat IPC: 2.2604 cumulative IPC: 0.552167 (Simulation time: 0 hr 5 min 19 sec) 
Heartbeat CPU 0 instructions: 143000000 cycles: 256306189 heartbeat IPC: 2.25589 cumulative IPC: 0.555321 (Simulation time: 0 hr 5 min 20 sec) 
Heartbeat CPU 0 instructions: 144000001 cycles: 256750881 heartbeat IPC: 2.24875 cumulative IPC: 0.558459 (Simulation time: 0 hr 5 min 22 sec) 
Heartbeat CPU 0 instructions: 145000000 cycles: 257195707 heartbeat IPC: 2.24807 cumulative IPC: 0.561586 (Simulation time: 0 hr 5 min 23 sec) 
Heartbeat CPU 0 instructions: 146000000 cycles: 257638757 heartbeat IPC: 2.25708 cumulative IPC: 0.564705 (Simulation time: 0 hr 5 min 25 sec) 
Heartbeat CPU 0 instructions: 147000001 cycles: 258082503 heartbeat IPC: 2.25354 cumulative IPC: 0.567811 (Simulation time: 0 hr 5 min 26 sec) 
Heartbeat CPU 0 instructions: 148000003 cycles: 261138123 heartbeat IPC: 0.327266 cumulative IPC: 0.564803 (Simulation time: 0 hr 5 min 29 sec) 
Heartbeat CPU 0 instructions: 149000001 cycles: 263441060 heartbeat IPC: 0.434227 cumulative IPC: 0.563583 (Simulation time: 0 hr 5 min 31 sec) 
Heartbeat CPU 0 instructions: 150000000 cycles: 264589580 heartbeat IPC: 0.870685 cumulative IPC: 0.565007 (Simulation time: 0 hr 5 min 33 sec) 
Heartbeat CPU 0 instructions: 151000000 cycles: 267555076 heartbeat IPC: 0.337212 cumulative IPC: 0.562313 (Simulation time: 0 hr 5 min 36 sec) 
Heartbeat CPU 0 instructions: 152000001 cycles: 270543615 heartbeat IPC: 0.334612 cumulative IPC: 0.559631 (Simulation time: 0 hr 5 min 39 sec) 
Heartbeat CPU 0 instructions: 153000002 cycles: 273026380 heartbeat IPC: 0.402777 cumulative IPC: 0.558111 (Simulation time: 0 hr 5 min 41 sec) 
Heartbeat CPU 0 instructions: 154000000 cycles: 273995923 heartbeat IPC: 1.03141 cumulative IPC: 0.559895 (Simulation time: 0 hr 5 min 43 sec) 
Heartbeat CPU 0 instructions: 155000000 cycles: 276958234 heartbeat IPC: 0.337574 cumulative IPC: 0.557364 (Simulation time: 0 hr 5 min 46 sec) 
Heartbeat CPU 0 instructions: 156000002 cycles: 279969099 heartbeat IPC: 0.332131 cumulative IPC: 0.554787 (Simulation time: 0 hr 5 min 49 sec) 
Heartbeat CPU 0 instructions: 157000000 cycles: 282670899 heartbeat IPC: 0.370123 cumulative IPC: 0.55291 (Simulation time: 0 hr 5 min 51 sec) 
Heartbeat CPU 0 instructions: 158000003 cycles: 283430506 heartbeat IPC: 1.31647 cumulative IPC: 0.555086 (Simulation time: 0 hr 5 min 53 sec) 
Heartbeat CPU 0 instructions: 159000002 cycles: 286425608 heartbeat IPC: 0.333878 cumulative IPC: 0.552628 (Simulation time: 0 hr 5 min 55 sec) 
Heartbeat CPU 0 instructions: 160000001 cycles: 289421374 heartbeat IPC: 0.333804 cumulative IPC: 0.550224 (Simulation time: 0 hr 5 min 57 sec) 
Heartbeat CPU 0 instructions: 161000001 cycles: 292319207 heartbeat IPC: 0.345085 cumulative IPC: 0.548066 (Simulation time: 0 hr 6 min 0 sec) 
Heartbeat CPU 0 instructions: 162000001 cycles: 292861914 heartbeat IPC: 1.84261 cumulative IPC: 0.550611 (Simulation time: 0 hr 6 min 1 sec) 
Heartbeat CPU 0 instructions: 163000000 cycles: 295797341 heartbeat IPC: 0.340666 cumulative IPC: 0.548402 (Simulation time: 0 hr 6 min 4 sec) 
Heartbeat CPU 0 instructions: 164000000 cycles: 298834944 heartbeat IPC: 0.329207 cumulative IPC: 0.546041 (Simulation time: 0 hr 6 min 6 sec) 
Heartbeat CPU 0 instructions: 165000000 cycles: 301615094 heartbeat IPC: 0.359693 cumulative IPC: 0.544222 (Simulation time: 0 hr 6 min 9 sec) 
Heartbeat CPU 0 instructions: 166000002 cycles: 302272556 heartbeat IPC: 1.521 cumulative IPC: 0.546472 (Simulation time: 0 hr 6 min 10 sec) 
Heartbeat CPU 0 instructions: 167000002 cycles: 305198440 heartbeat IPC: 0.341777 cumulative IPC: 0.544395 (Simulation time: 0 hr 6 min 13 sec) 
Heartbeat CPU 0 instructions: 168000000 cycles: 308203227 heartbeat IPC: 0.332802 cumulative IPC: 0.542213 (Simulation time: 0 hr 6 min 15 sec) 
Heartbeat CPU 0 instructions: 169000000 cycles: 310861557 heartbeat IPC: 0.376176 cumulative IPC: 0.540712 (Simulation time: 0 hr 6 min 18 sec) 
Heartbeat CPU 0 instructions: 170000000 cycles: 311627181 heartbeat IPC: 1.30612 cumulative IPC: 0.5427 (Simulation time: 0 hr 6 min 19 sec) 
Heartbeat CPU 0 instructions: 171000003 cycles: 314687671 heartbeat IPC: 0.326746 cumulative IPC: 0.540481 (Simulation time: 0 hr 6 min 22 sec) 
Heartbeat CPU 0 instructions: 172000001 cycles: 317678917 heartbeat IPC: 0.334308 cumulative IPC: 0.538431 (Simulation time: 0 hr 6 min 25 sec) 
Heartbeat CPU 0 instructions: 173000002 cycles: 319447463 heartbeat IPC: 0.565437 cumulative IPC: 0.538589 (Simulation time: 0 hr 6 min 27 sec) 
Heartbeat CPU 0 instructions: 174000000 cycles: 321126795 heartbeat IPC: 0.595474 cumulative IPC: 0.538903 (Simulation time: 0 hr 6 min 29 sec) 
Heartbeat CPU 0 instructions: 175000003 cycles: 324132399 heartbeat IPC: 0.332713 cumulative IPC: 0.536887 (Simulation time: 0 hr 6 min 31 sec) 
Heartbeat CPU 0 instructions: 176000000 cycles: 327139715 heartbeat IPC: 0.332521 cumulative IPC: 0.534906 (Simulation time: 0 hr 6 min 34 sec) 
Heartbeat CPU 0 instructions: 177000000 cycles: 328861732 heartbeat IPC: 0.580714 cumulative IPC: 0.535159 (Simulation time: 0 hr 6 min 36 sec) 
Heartbeat CPU 0 instructions: 178000001 cycles: 330575141 heartbeat IPC: 0.583632 cumulative IPC: 0.535424 (Simulation time: 0 hr 6 min 38 sec) 
Heartbeat CPU 0 instructions: 179000001 cycles: 333539220 heartbeat IPC: 0.337373 cumulative IPC: 0.53357 (Simulation time: 0 hr 6 min 40 sec) 
Heartbeat CPU 0 instructions: 180000001 cycles: 336575603 heartbeat IPC: 0.329339 cumulative IPC: 0.531631 (Simulation time: 0 hr 6 min 43 sec) 
Heartbeat CPU 0 instructions: 181000001 cycles: 337022566 heartbeat IPC: 2.23732 cumulative IPC: 0.534012 (Simulation time: 0 hr 6 min 44 sec) 
Heartbeat CPU 0 instructions: 182000001 cycles: 337466020 heartbeat IPC: 2.25503 cumulative IPC: 0.536392 (Simulation time: 0 hr 6 min 46 sec) 
Heartbeat CPU 0 instructions: 183000001 cycles: 337905148 heartbeat IPC: 2.27724 cumulative IPC: 0.538773 (Simulation time: 0 hr 6 min 47 sec) 
Heartbeat CPU 0 instructions: 184000001 cycles: 338346594 heartbeat IPC: 2.26528 cumulative IPC: 0.541143 (Simulation time: 0 hr 6 min 49 sec) 
Heartbeat CPU 0 instructions: 185000002 cycles: 338787070 heartbeat IPC: 2.27027 cumulative IPC: 0.543508 (Simulation time: 0 hr 6 min 50 sec) 
Heartbeat CPU 0 instructions: 186000002 cycles: 339229027 heartbeat IPC: 2.26266 cumulative IPC: 0.545865 (Simulation time: 0 hr 6 min 52 sec) 
Heartbeat CPU 0 instructions: 187000000 cycles: 339679623 heartbeat IPC: 2.21928 cumulative IPC: 0.5482 (Simulation time: 0 hr 6 min 53 sec) 
Heartbeat CPU 0 instructions: 188000001 cycles: 340120411 heartbeat IPC: 2.26867 cumulative IPC: 0.550546 (Simulation time: 0 hr 6 min 54 sec) 
Heartbeat CPU 0 instructions: 189000001 cycles: 340563998 heartbeat IPC: 2.25435 cumulative IPC: 0.55288 (Simulation time: 0 hr 6 min 56 sec) 
Heartbeat CPU 0 instructions: 190000000 cycles: 341004878 heartbeat IPC: 2.26819 cumulative IPC: 0.555213 (Simulation time: 0 hr 6 min 57 sec) 
Heartbeat CPU 0 instructions: 191000002 cycles: 341448381 heartbeat IPC: 2.25478 cumulative IPC: 0.557535 (Simulation time: 0 hr 6 min 59 sec) 
Heartbeat CPU 0 instructions: 192000001 cycles: 341890404 heartbeat IPC: 2.26232 cumulative IPC: 0.559853 (Simulation time: 0 hr 7 min 0 sec) 
Heartbeat CPU 0 instructions: 193000000 cycles: 342330713 heartbeat IPC: 2.27113 cumulative IPC: 0.562168 (Simulation time: 0 hr 7 min 2 sec) 
Heartbeat CPU 0 instructions: 194000002 cycles: 342783665 heartbeat IPC: 2.20774 cumulative IPC: 0.564454 (Simulation time: 0 hr 7 min 3 sec) 
Heartbeat CPU 0 instructions: 195000000 cycles: 344497225 heartbeat IPC: 0.583579 cumulative IPC: 0.564554 (Simulation time: 0 hr 7 min 5 sec) 
Heartbeat CPU 0 instructions: 196000000 cycles: 346286275 heartbeat IPC: 0.558956 cumulative IPC: 0.564524 (Simulation time: 0 hr 7 min 7 sec) 
Heartbeat CPU 0 instructions: 197000001 cycles: 351634841 heartbeat IPC: 0.186966 cumulative IPC: 0.558493 (Simulation time: 0 hr 7 min 10 sec) 
Heartbeat CPU 0 instructions: 198000000 cycles: 354227974 heartbeat IPC: 0.385634 cumulative IPC: 0.557164 (Simulation time: 0 hr 7 min 12 sec) 
Heartbeat CPU 0 instructions: 199000001 cycles: 355081234 heartbeat IPC: 1.17198 cumulative IPC: 0.558715 (Simulation time: 0 hr 7 min 14 sec) 
Heartbeat CPU 0 instructions: 200000000 cycles: 358083344 heartbeat IPC: 0.333099 cumulative IPC: 0.55673 (Simulation time: 0 hr 7 min 16 sec) 
Heartbeat CPU 0 instructions: 201000000 cycles: 361040320 heartbeat IPC: 0.338183 cumulative IPC: 0.554853 (Simulation time: 0 hr 7 min 19 sec) 
Heartbeat CPU 0 instructions: 202000001 cycles: 363730860 heartbeat IPC: 0.371673 cumulative IPC: 0.553432 (Simulation time: 0 hr 7 min 21 sec) 
Heartbeat CPU 0 instructions: 203000000 cycles: 364438570 heartbeat IPC: 1.41301 cumulative IPC: 0.555182 (Simulation time: 0 hr 7 min 23 sec) 
Heartbeat CPU 0 instructions: 204000003 cycles: 369753120 heartbeat IPC: 0.188163 cumulative IPC: 0.549656 (Simulation time: 0 hr 7 min 26 sec) 
Heartbeat CPU 0 instructions: 205000000 cycles: 372594228 heartbeat IPC: 0.351974 cumulative IPC: 0.548077 (Simulation time: 0 hr 7 min 28 sec) 
Heartbeat CPU 0 instructions: 206000000 cycles: 373214294 heartbeat IPC: 1.61273 cumulative IPC: 0.549929 (Simulation time: 0 hr 7 min 30 sec) 
Heartbeat CPU 0 instructions: 207000001 cycles: 376203603 heartbeat IPC: 0.334526 cumulative IPC: 0.548138 (Simulation time: 0 hr 7 min 32 sec) 
Heartbeat CPU 0 instructions: 208000003 cycles: 379212599 heartbeat IPC: 0.332337 cumulative IPC: 0.546346 (Simulation time: 0 hr 7 min 34 sec) 
Heartbeat CPU 0 instructions: 209000000 cycles: 382112828 heartbeat IPC: 0.344799 cumulative IPC: 0.544746 (Simulation time: 0 hr 7 min 37 sec) 
Heartbeat CPU 0 instructions: 210000000 cycles: 382584850 heartbeat IPC: 2.11855 cumulative IPC: 0.546777 (Simulation time: 0 hr 7 min 38 sec) 
Heartbeat CPU 0 instructions: 211000000 cycles: 387979594 heartbeat IPC: 0.185366 cumulative IPC: 0.541524 (Simulation time: 0 hr 7 min 41 sec) 
Heartbeat CPU 0 instructions: 212000000 cycles: 390912383 heartbeat IPC: 0.340972 cumulative IPC: 0.539952 (Simulation time: 0 hr 7 min 43 sec) 
Heartbeat CPU 0 instructions: 213000001 cycles: 391445770 heartbeat IPC: 1.87481 cumulative IPC: 0.541852 (Simulation time: 0 hr 7 min 45 sec) 
Heartbeat CPU 0 instructions: 214000000 cycles: 394384367 heartbeat IPC: 0.340298 cumulative IPC: 0.540284 (Simulation time: 0 hr 7 min 47 sec) 
Heartbeat CPU 0 instructions: 215000000 cycles: 397393699 heartbeat IPC: 0.3323 cumulative IPC: 0.538639 (Simulation time: 0 hr 7 min 50 sec) 
Heartbeat CPU 0 instructions: 216000001 cycles: 400334946 heartbeat IPC: 0.339992 cumulative IPC: 0.537116 (Simulation time: 0 hr 7 min 52 sec) 
Heartbeat CPU 0 instructions: 217000000 cycles: 400912730 heartbeat IPC: 1.73075 cumulative IPC: 0.538911 (Simulation time: 0 hr 7 min 53 sec) 
Heartbeat CPU 0 instructions: 218000000 cycles: 406138910 heartbeat IPC: 0.191344 cumulative IPC: 0.534246 (Simulation time: 0 hr 7 min 56 sec) 
Heartbeat CPU 0 instructions: 219000000 cycles: 409074121 heartbeat IPC: 0.340691 cumulative IPC: 0.532797 (Simulation time: 0 hr 7 min 58 sec) 
Heartbeat CPU 0 instructions: 220000000 cycles: 409842836 heartbeat IPC: 1.30087 cumulative IPC: 0.5343 (Simulation time: 0 hr 8 min 0 sec) 
Heartbeat CPU 0 instructions: 221000001 cycles: 412532707 heartbeat IPC: 0.371765 cumulative IPC: 0.533195 (Simulation time: 0 hr 8 min 3 sec) 
Heartbeat CPU 0 instructions: 222000003 cycles: 415534014 heartbeat IPC: 0.333189 cumulative IPC: 0.531689 (Simulation time: 0 hr 8 min 5 sec) 
Heartbeat CPU 0 instructions: 223000000 cycles: 418514745 heartbeat IPC: 0.335487 cumulative IPC: 0.530234 (Simulation time: 0 hr 8 min 7 sec) 
Heartbeat CPU 0 instructions: 224000001 cycles: 419305605 heartbeat IPC: 1.26445 cumulative IPC: 0.531676 (Simulation time: 0 hr 8 min 9 sec) 
Heartbeat CPU 0 instructions: 225000003 cycles: 424389746 heartbeat IPC: 0.19669 cumulative IPC: 0.527498 (Simulation time: 0 hr 8 min 12 sec) 
Heartbeat CPU 0 instructions: 226000001 cycles: 424836187 heartbeat IPC: 2.23993 cumulative IPC: 0.529371 (Simulation time: 0 hr 8 min 13 sec) 
Heartbeat CPU 0 instructions: 227000000 cycles: 425280139 heartbeat IPC: 2.25249 cumulative IPC: 0.531244 (Simulation time: 0 hr 8 min 14 sec) 
Heartbeat CPU 0 instructions: 228000002 cycles: 425725069 heartbeat IPC: 2.24755 cumulative IPC: 0.533111 (Simulation time: 0 hr 8 min 16 sec) 
Heartbeat CPU 0 instructions: 229000001 cycles: 426169863 heartbeat IPC: 2.24823 cumulative IPC: 0.534975 (Simulation time: 0 hr 8 min 17 sec) 
Heartbeat CPU 0 instructions: 230000002 cycles: 426612934 heartbeat IPC: 2.25698 cumulative IPC: 0.536837 (Simulation time: 0 hr 8 min 18 sec) 
Heartbeat CPU 0 instructions: 231000000 cycles: 427055531 heartbeat IPC: 2.25939 cumulative IPC: 0.538695 (Simulation time: 0 hr 8 min 20 sec) 
Heartbeat CPU 0 instructions: 232000000 cycles: 427498534 heartbeat IPC: 2.25732 cumulative IPC: 0.540549 (Simulation time: 0 hr 8 min 21 sec) 
Heartbeat CPU 0 instructions: 233000002 cycles: 427941667 heartbeat IPC: 2.25666 cumulative IPC: 0.542399 (Simulation time: 0 hr 8 min 23 sec) 
Heartbeat CPU 0 instructions: 234000000 cycles: 428398067 heartbeat IPC: 2.19106 cumulative IPC: 0.544227 (Simulation time: 0 hr 8 min 24 sec) 
Heartbeat CPU 0 instructions: 235000000 cycles: 428845078 heartbeat IPC: 2.23708 cumulative IPC: 0.546063 (Simulation time: 0 hr 8 min 26 sec) 
Heartbeat CPU 0 instructions: 236000000 cycles: 429289166 heartbeat IPC: 2.25181 cumulative IPC: 0.5479 (Simulation time: 0 hr 8 min 27 sec) 
Heartbeat CPU 0 instructions: 237000002 cycles: 429732612 heartbeat IPC: 2.25507 cumulative IPC: 0.549733 (Simulation time: 0 hr 8 min 28 sec) 
Heartbeat CPU 0 instructions: 238000002 cycles: 432641487 heartbeat IPC: 0.343776 cumulative IPC: 0.548292 (Simulation time: 0 hr 8 min 30 sec) 
Heartbeat CPU 0 instructions: 239000001 cycles: 433180105 heartbeat IPC: 1.8566 cumulative IPC: 0.549985 (Simulation time: 0 hr 8 min 32 sec) 
Heartbeat CPU 0 instructions: 240000001 cycles: 436179391 heartbeat IPC: 0.333413 cumulative IPC: 0.548436 (Simulation time: 0 hr 8 min 34 sec) 
Heartbeat CPU 0 instructions: 241000003 cycles: 439099279 heartbeat IPC: 0.34248 cumulative IPC: 0.547012 (Simulation time: 0 hr 8 min 37 sec) 
Heartbeat CPU 0 instructions: 242000000 cycles: 442080623 heartbeat IPC: 0.335418 cumulative IPC: 0.545529 (Simulation time: 0 hr 8 min 39 sec) 
Heartbeat CPU 0 instructions: 243000001 cycles: 442678256 heartbeat IPC: 1.67327 cumulative IPC: 0.547111 (Simulation time: 0 hr 8 min 40 sec) 
Heartbeat CPU 0 instructions: 244000001 cycles: 445505928 heartbeat IPC: 0.353648 cumulative IPC: 0.545835 (Simulation time: 0 hr 8 min 43 sec) 
Heartbeat CPU 0 instructions: 245000001 cycles: 448473805 heartbeat IPC: 0.336941 cumulative IPC: 0.544399 (Simulation time: 0 hr 8 min 45 sec) 
Heartbeat CPU 0 instructions: 246000000 cycles: 451452823 heartbeat IPC: 0.335681 cumulative IPC: 0.542968 (Simulation time: 0 hr 8 min 47 sec) 
Heartbeat CPU 0 instructions: 247000001 cycles: 452260571 heartbeat IPC: 1.23801 cumulative IPC: 0.544258 (Simulation time: 0 hr 8 min 49 sec) 
Heartbeat CPU 0 instructions: 248000001 cycles: 454919054 heartbeat IPC: 0.376154 cumulative IPC: 0.543238 (Simulation time: 0 hr 8 min 51 sec) 
Heartbeat CPU 0 instructions: 249000001 cycles: 457881171 heartbeat IPC: 0.337596 cumulative IPC: 0.541856 (Simulation time: 0 hr 8 min 53 sec) 
Heartbeat CPU 0 instructions: 250000001 cycles: 460776833 heartbeat IPC: 0.345344 cumulative IPC: 0.540575 (Simulation time: 0 hr 8 min 55 sec) 
Heartbeat CPU 0 instructions: 251000000 cycles: 461805668 heartbeat IPC: 0.971972 cumulative IPC: 0.541572 (Simulation time: 0 hr 8 min 57 sec) 
Heartbeat CPU 0 instructions: 252000000 cycles: 464203854 heartbeat IPC: 0.416982 cumulative IPC: 0.540904 (Simulation time: 0 hr 8 min 59 sec) 
Heartbeat CPU 0 instructions: 253000000 cycles: 467135454 heartbeat IPC: 0.341111 cumulative IPC: 0.539604 (Simulation time: 0 hr 9 min 1 sec) 
Heartbeat CPU 0 instructions: 254000003 cycles: 470109331 heartbeat IPC: 0.336262 cumulative IPC: 0.53827 (Simulation time: 0 hr 9 min 3 sec) 
Heartbeat CPU 0 instructions: 255000002 cycles: 471048954 heartbeat IPC: 1.06426 cumulative IPC: 0.539358 (Simulation time: 0 hr 9 min 5 sec) 
Heartbeat CPU 0 instructions: 256000002 cycles: 473562731 heartbeat IPC: 0.397808 cumulative IPC: 0.538579 (Simulation time: 0 hr 9 min 7 sec) 
Heartbeat CPU 0 instructions: 257000002 cycles: 476568014 heartbeat IPC: 0.332747 cumulative IPC: 0.537233 (Simulation time: 0 hr 9 min 9 sec) 
Heartbeat CPU 0 instructions: 258000002 cycles: 479500698 heartbeat IPC: 0.340985 cumulative IPC: 0.535989 (Simulation time: 0 hr 9 min 11 sec) 
Heartbeat CPU 0 instructions: 259000002 cycles: 480338014 heartbeat IPC: 1.19429 cumulative IPC: 0.537179 (Simulation time: 0 hr 9 min 13 sec) 
Heartbeat CPU 0 instructions: 260000000 cycles: 482964718 heartbeat IPC: 0.380704 cumulative IPC: 0.536297 (Simulation time: 0 hr 9 min 15 sec) 
Finished CPU 0 instructions: 250000000 cycles: 466159749 cumulative IPC: 0.536297 (Simulation time: 0 hr 9 min 15 sec) 

ChampSim completed all CPUs

Region of Interest Statistics

CPU 0 cumulative IPC: 0.536297 instructions: 250000000 cycles: 466159749
L1D TOTAL     ACCESS:   29131337  HIT:   24415451  MISS:    4715886
L1D LOAD      ACCESS:   20894497  HIT:   16211761  MISS:    4682736
L1D RFO       ACCESS:    8236840  HIT:    8203690  MISS:      33150
L1D PREFETCH  ACCESS:          0  HIT:          0  MISS:          0
L1D WRITEBACK ACCESS:          0  HIT:          0  MISS:          0
L1D PREFETCH  REQUESTED:          0  ISSUED:          0  USEFUL:          0  USELESS:          0
L1D AVERAGE MISS LATENCY: 295.154 cycles
L1I TOTAL     ACCESS:   48555088  HIT:   48553265  MISS:       1823
L1I LOAD      ACCESS:   48555088  HIT:   48553265  MISS:       1823
L1I RFO       ACCESS:          0  HIT:          0  MISS:          0
L1I PREFETCH  ACCESS:          0  HIT:          0  MISS:          0
L1I WRITEBACK ACCESS:          0  HIT:          0  MISS:          0
L1I PREFETCH  REQUESTED:          0  ISSUED:          0  USEFUL:          0  USELESS:          0
L1I AVERAGE MISS LATENCY: 167.686 cycles
L2C TOTAL     ACCESS:    4760007  HIT:      57187  MISS:    4702820
L2C LOAD      ACCESS:    4684559  HIT:      14427  MISS:    4670132
L2C RFO       ACCESS:      33150  HIT:        462  MISS:      32688
L2C PREFETCH  ACCESS:          0  HIT:          0  MISS:          0
L2C WRITEBACK ACCESS:      42298  HIT:      42298  MISS:          0
L2C PREFETCH  REQUESTED:          0  ISSUED:          0  USEFUL:          0  USELESS:          0
L2C AVERAGE MISS LATENCY: 190.418 cycles
LLC TOTAL     ACCESS:    4744497  HIT:    2102230  MISS:    2642267
LLC LOAD      ACCESS:    4670132  HIT:    2056585  MISS:    2613547
LLC RFO       ACCESS:      32688  HIT:       3968  MISS:      28720
LLC PREFETCH  ACCESS:          0  HIT:          0  MISS:          0
LLC WRITEBACK ACCESS:      41677  HIT:      41677  MISS:          0
LLC PREFETCH  REQUESTED:          0  ISSUED:          0  USEFUL:          0  USELESS:          0
LLC AVERAGE MISS LATENCY: 194.324 cycles
Major fault: 0 Minor fault: 21146

DRAM Statistics
 CHANNEL 0
 RQ ROW_BUFFER_HIT:     632334  ROW_BUFFER_MISS:     679930
 DBUS_CONGESTED:     564952
 WQ ROW_BUFFER_HIT:       5734  ROW_BUFFER_MISS:      12110  FULL:          0

 CHANNEL 1
 RQ ROW_BUFFER_HIT:     649238  ROW_BUFFER_MISS:     680765
 DBUS_CONGESTED:     564952
 WQ ROW_BUFFER_HIT:       5837  ROW_BUFFER_MISS:      11455  FULL:          0

 AVG_CONGESTED_CYCLE: 18

CPU 0 Branch Prediction Accuracy: 99.7602% MPKI: 0.79302 Average ROB Occupancy at Mispredict: 47.3914

Branch types
NOT_BRANCH: 167317168 66.9269%
BRANCH_DIRECT_JUMP: 3385058 1.35402%
BRANCH_INDIRECT: 68942 0.0275768%
BRANCH_CONDITIONAL: 77358916 30.9436%
BRANCH_DIRECT_CALL: 846675 0.33867%
BRANCH_INDIRECT_CALL: 88372 0.0353488%
BRANCH_RETURN: 935047 0.374019%
BRANCH_OTHER: 0 0%


gzip: stdout: Broken pipe
