
*** ChampSim Multicore Out-of-Order Simulator ***

Warmup Instructions: 1000000
Prefetch Warmup Instructions: 10000000
Simulation Instructions: 250000000
Stat Printing Period: 1000000
Number of CPUs: 1
LLC sets: 2048
LLC ways: 16
Off-chip DRAM Size: 32768 MB Channels: 2 Width: 64-bit Data Rate: 1024 MT/s

CPU 0 runs /scratch/cluster/cmolder/ML-DPC/ChampSimTraces/spec06/473.astar-s1.trace.gz
Read seed: 801
Heartbeat CPU 0 instructions: 1000003 cycles: 339325 heartbeat IPC: 2.94704 cumulative IPC: 2.94704 (Simulation time: 0 hr 0 min 8 sec) 

Warmup complete CPU 0 instructions: 1000003 cycles: 339325 (Simulation time: 0 hr 0 min 8 sec) 

Heartbeat CPU 0 instructions: 2000000 cycles: 2202496 heartbeat IPC: 0.536718 cumulative IPC: 0.536718 (Simulation time: 0 hr 0 min 12 sec) 
Heartbeat CPU 0 instructions: 3000003 cycles: 3935258 heartbeat IPC: 0.577115 cumulative IPC: 0.556184 (Simulation time: 0 hr 0 min 17 sec) 
Heartbeat CPU 0 instructions: 4000000 cycles: 5715024 heartbeat IPC: 0.56187 cumulative IPC: 0.558066 (Simulation time: 0 hr 0 min 22 sec) 
Heartbeat CPU 0 instructions: 5000003 cycles: 7441386 heartbeat IPC: 0.579255 cumulative IPC: 0.563217 (Simulation time: 0 hr 0 min 27 sec) 
Heartbeat CPU 0 instructions: 6000001 cycles: 9229146 heartbeat IPC: 0.559358 cumulative IPC: 0.562441 (Simulation time: 0 hr 0 min 32 sec) 
Heartbeat CPU 0 instructions: 7000001 cycles: 11361719 heartbeat IPC: 0.468917 cumulative IPC: 0.544346 (Simulation time: 0 hr 0 min 37 sec) 
Heartbeat CPU 0 instructions: 8000002 cycles: 13132179 heartbeat IPC: 0.564826 cumulative IPC: 0.54718 (Simulation time: 0 hr 0 min 41 sec) 
Heartbeat CPU 0 instructions: 9000001 cycles: 14881037 heartbeat IPC: 0.571801 cumulative IPC: 0.550141 (Simulation time: 0 hr 0 min 46 sec) 
Heartbeat CPU 0 instructions: 10000000 cycles: 16841749 heartbeat IPC: 0.510018 cumulative IPC: 0.545374 (Simulation time: 0 hr 0 min 51 sec) 

Warmup complete CPU 0 instructions: 10000004 cycles: 16841750 (Simulation time: 0 hr 0 min 51 sec) 

Heartbeat CPU 0 instructions: 11000000 cycles: 19042799 heartbeat IPC: 0.454329 cumulative IPC: 0.454327 (Simulation time: 0 hr 0 min 56 sec) 
Heartbeat CPU 0 instructions: 12000002 cycles: 20919801 heartbeat IPC: 0.532766 cumulative IPC: 0.49043 (Simulation time: 0 hr 1 min 1 sec) 
Heartbeat CPU 0 instructions: 13000003 cycles: 22636017 heartbeat IPC: 0.582678 cumulative IPC: 0.517753 (Simulation time: 0 hr 1 min 6 sec) 
Heartbeat CPU 0 instructions: 14000003 cycles: 24605242 heartbeat IPC: 0.507814 cumulative IPC: 0.515232 (Simulation time: 0 hr 1 min 11 sec) 
Heartbeat CPU 0 instructions: 15000000 cycles: 26824224 heartbeat IPC: 0.450656 cumulative IPC: 0.500877 (Simulation time: 0 hr 1 min 16 sec) 
Heartbeat CPU 0 instructions: 16000002 cycles: 28688553 heartbeat IPC: 0.536387 cumulative IPC: 0.506466 (Simulation time: 0 hr 1 min 21 sec) 
Heartbeat CPU 0 instructions: 17000000 cycles: 30441438 heartbeat IPC: 0.570487 cumulative IPC: 0.514717 (Simulation time: 0 hr 1 min 26 sec) 
Heartbeat CPU 0 instructions: 18000000 cycles: 32253964 heartbeat IPC: 0.551716 cumulative IPC: 0.519069 (Simulation time: 0 hr 1 min 31 sec) 
Heartbeat CPU 0 instructions: 19000000 cycles: 34191693 heartbeat IPC: 0.516068 cumulative IPC: 0.518733 (Simulation time: 0 hr 1 min 36 sec) 
Heartbeat CPU 0 instructions: 20000001 cycles: 36222351 heartbeat IPC: 0.492452 cumulative IPC: 0.51598 (Simulation time: 0 hr 1 min 41 sec) 
Heartbeat CPU 0 instructions: 21000002 cycles: 38284250 heartbeat IPC: 0.48499 cumulative IPC: 0.513 (Simulation time: 0 hr 1 min 46 sec) 
Heartbeat CPU 0 instructions: 22000000 cycles: 40395820 heartbeat IPC: 0.47358 cumulative IPC: 0.509466 (Simulation time: 0 hr 1 min 51 sec) 
Heartbeat CPU 0 instructions: 23000000 cycles: 42702206 heartbeat IPC: 0.433579 cumulative IPC: 0.502698 (Simulation time: 0 hr 1 min 56 sec) 
Heartbeat CPU 0 instructions: 24000000 cycles: 45209073 heartbeat IPC: 0.398904 cumulative IPC: 0.493525 (Simulation time: 0 hr 2 min 1 sec) 
Heartbeat CPU 0 instructions: 25000000 cycles: 48064528 heartbeat IPC: 0.350207 cumulative IPC: 0.480418 (Simulation time: 0 hr 2 min 6 sec) 
Heartbeat CPU 0 instructions: 26000001 cycles: 51200376 heartbeat IPC: 0.318893 cumulative IPC: 0.465676 (Simulation time: 0 hr 2 min 12 sec) 
Heartbeat CPU 0 instructions: 27000001 cycles: 54201274 heartbeat IPC: 0.333234 cumulative IPC: 0.455038 (Simulation time: 0 hr 2 min 17 sec) 
Heartbeat CPU 0 instructions: 28000003 cycles: 57027157 heartbeat IPC: 0.353872 cumulative IPC: 0.447924 (Simulation time: 0 hr 2 min 22 sec) 
Heartbeat CPU 0 instructions: 29000001 cycles: 59555090 heartbeat IPC: 0.395579 cumulative IPC: 0.444826 (Simulation time: 0 hr 2 min 27 sec) 
Heartbeat CPU 0 instructions: 30000002 cycles: 62158882 heartbeat IPC: 0.384056 cumulative IPC: 0.441334 (Simulation time: 0 hr 2 min 32 sec) 
Heartbeat CPU 0 instructions: 31000002 cycles: 64882832 heartbeat IPC: 0.367114 cumulative IPC: 0.437126 (Simulation time: 0 hr 2 min 38 sec) 
Heartbeat CPU 0 instructions: 32000000 cycles: 67782716 heartbeat IPC: 0.344841 cumulative IPC: 0.431872 (Simulation time: 0 hr 2 min 43 sec) 
Heartbeat CPU 0 instructions: 33000000 cycles: 70851661 heartbeat IPC: 0.325845 cumulative IPC: 0.425848 (Simulation time: 0 hr 2 min 48 sec) 
Heartbeat CPU 0 instructions: 34000000 cycles: 73944942 heartbeat IPC: 0.323281 cumulative IPC: 0.420292 (Simulation time: 0 hr 2 min 53 sec) 
Heartbeat CPU 0 instructions: 35000000 cycles: 76910340 heartbeat IPC: 0.337223 cumulative IPC: 0.416191 (Simulation time: 0 hr 2 min 58 sec) 
Heartbeat CPU 0 instructions: 36000000 cycles: 80125731 heartbeat IPC: 0.311004 cumulative IPC: 0.410846 (Simulation time: 0 hr 3 min 4 sec) 
Heartbeat CPU 0 instructions: 37000000 cycles: 83449181 heartbeat IPC: 0.300892 cumulative IPC: 0.40536 (Simulation time: 0 hr 3 min 9 sec) 
Heartbeat CPU 0 instructions: 38000000 cycles: 86579221 heartbeat IPC: 0.319485 cumulative IPC: 0.401506 (Simulation time: 0 hr 3 min 15 sec) 
Heartbeat CPU 0 instructions: 39000001 cycles: 89555760 heartbeat IPC: 0.335961 cumulative IPC: 0.398823 (Simulation time: 0 hr 3 min 20 sec) 
Heartbeat CPU 0 instructions: 40000002 cycles: 92417170 heartbeat IPC: 0.349478 cumulative IPC: 0.396954 (Simulation time: 0 hr 3 min 25 sec) 
Heartbeat CPU 0 instructions: 41000000 cycles: 95235110 heartbeat IPC: 0.354868 cumulative IPC: 0.395442 (Simulation time: 0 hr 3 min 31 sec) 
Heartbeat CPU 0 instructions: 42000001 cycles: 97972084 heartbeat IPC: 0.365367 cumulative IPC: 0.394427 (Simulation time: 0 hr 3 min 36 sec) 
Heartbeat CPU 0 instructions: 43000001 cycles: 100287471 heartbeat IPC: 0.431893 cumulative IPC: 0.395467 (Simulation time: 0 hr 3 min 41 sec) 
Heartbeat CPU 0 instructions: 44000000 cycles: 102492513 heartbeat IPC: 0.453506 cumulative IPC: 0.396961 (Simulation time: 0 hr 3 min 46 sec) 
Heartbeat CPU 0 instructions: 45000000 cycles: 104857622 heartbeat IPC: 0.422814 cumulative IPC: 0.397656 (Simulation time: 0 hr 3 min 51 sec) 
Heartbeat CPU 0 instructions: 46000001 cycles: 107024890 heartbeat IPC: 0.461411 cumulative IPC: 0.399188 (Simulation time: 0 hr 3 min 56 sec) 
Heartbeat CPU 0 instructions: 47000000 cycles: 109309620 heartbeat IPC: 0.437688 cumulative IPC: 0.400139 (Simulation time: 0 hr 4 min 1 sec) 
Heartbeat CPU 0 instructions: 48000001 cycles: 111610276 heartbeat IPC: 0.434659 cumulative IPC: 0.400977 (Simulation time: 0 hr 4 min 6 sec) 
Heartbeat CPU 0 instructions: 49000001 cycles: 114007874 heartbeat IPC: 0.417084 cumulative IPC: 0.401374 (Simulation time: 0 hr 4 min 12 sec) 
Heartbeat CPU 0 instructions: 50000001 cycles: 116270596 heartbeat IPC: 0.441946 cumulative IPC: 0.402298 (Simulation time: 0 hr 4 min 17 sec) 
Heartbeat CPU 0 instructions: 51000000 cycles: 119178823 heartbeat IPC: 0.343852 cumulative IPC: 0.400637 (Simulation time: 0 hr 4 min 22 sec) 
Heartbeat CPU 0 instructions: 52000001 cycles: 122244271 heartbeat IPC: 0.326217 cumulative IPC: 0.398472 (Simulation time: 0 hr 4 min 27 sec) 
Heartbeat CPU 0 instructions: 53000002 cycles: 124132011 heartbeat IPC: 0.529734 cumulative IPC: 0.400782 (Simulation time: 0 hr 4 min 32 sec) 
Heartbeat CPU 0 instructions: 54000000 cycles: 126008625 heartbeat IPC: 0.532874 cumulative IPC: 0.403053 (Simulation time: 0 hr 4 min 37 sec) 
Heartbeat CPU 0 instructions: 55000000 cycles: 127919597 heartbeat IPC: 0.523294 cumulative IPC: 0.405121 (Simulation time: 0 hr 4 min 42 sec) 
Heartbeat CPU 0 instructions: 56000001 cycles: 129865466 heartbeat IPC: 0.51391 cumulative IPC: 0.406994 (Simulation time: 0 hr 4 min 47 sec) 
Heartbeat CPU 0 instructions: 57000000 cycles: 131686767 heartbeat IPC: 0.549058 cumulative IPC: 0.409247 (Simulation time: 0 hr 4 min 52 sec) 
Heartbeat CPU 0 instructions: 58000002 cycles: 133477019 heartbeat IPC: 0.558582 cumulative IPC: 0.411539 (Simulation time: 0 hr 4 min 58 sec) 
Heartbeat CPU 0 instructions: 59000000 cycles: 135325501 heartbeat IPC: 0.540983 cumulative IPC: 0.413559 (Simulation time: 0 hr 5 min 3 sec) 
Heartbeat CPU 0 instructions: 60000003 cycles: 137082283 heartbeat IPC: 0.569224 cumulative IPC: 0.415833 (Simulation time: 0 hr 5 min 8 sec) 
Heartbeat CPU 0 instructions: 61000001 cycles: 138766638 heartbeat IPC: 0.593698 cumulative IPC: 0.41829 (Simulation time: 0 hr 5 min 13 sec) 
Heartbeat CPU 0 instructions: 62000000 cycles: 140434768 heartbeat IPC: 0.599473 cumulative IPC: 0.420736 (Simulation time: 0 hr 5 min 18 sec) 
Heartbeat CPU 0 instructions: 63000001 cycles: 142182141 heartbeat IPC: 0.572288 cumulative IPC: 0.422848 (Simulation time: 0 hr 5 min 23 sec) 
Heartbeat CPU 0 instructions: 64000003 cycles: 143840715 heartbeat IPC: 0.602929 cumulative IPC: 0.4252 (Simulation time: 0 hr 5 min 28 sec) 
Heartbeat CPU 0 instructions: 65000001 cycles: 145436394 heartbeat IPC: 0.626691 cumulative IPC: 0.427701 (Simulation time: 0 hr 5 min 33 sec) 
Heartbeat CPU 0 instructions: 66000000 cycles: 147053139 heartbeat IPC: 0.618526 cumulative IPC: 0.43007 (Simulation time: 0 hr 5 min 38 sec) 
Heartbeat CPU 0 instructions: 67000001 cycles: 148706306 heartbeat IPC: 0.6049 cumulative IPC: 0.432262 (Simulation time: 0 hr 5 min 43 sec) 
Heartbeat CPU 0 instructions: 68000000 cycles: 150316935 heartbeat IPC: 0.620875 cumulative IPC: 0.434538 (Simulation time: 0 hr 5 min 48 sec) 
Heartbeat CPU 0 instructions: 69000003 cycles: 152119846 heartbeat IPC: 0.55466 cumulative IPC: 0.436139 (Simulation time: 0 hr 5 min 53 sec) 
Heartbeat CPU 0 instructions: 70000001 cycles: 153793162 heartbeat IPC: 0.597615 cumulative IPC: 0.438112 (Simulation time: 0 hr 5 min 58 sec) 
Heartbeat CPU 0 instructions: 71000000 cycles: 155516388 heartbeat IPC: 0.580306 cumulative IPC: 0.439879 (Simulation time: 0 hr 6 min 3 sec) 
Heartbeat CPU 0 instructions: 72000000 cycles: 157243742 heartbeat IPC: 0.57892 cumulative IPC: 0.441589 (Simulation time: 0 hr 6 min 8 sec) 
Heartbeat CPU 0 instructions: 73000002 cycles: 158862975 heartbeat IPC: 0.617578 cumulative IPC: 0.443596 (Simulation time: 0 hr 6 min 13 sec) 
Heartbeat CPU 0 instructions: 74000003 cycles: 160308543 heartbeat IPC: 0.69177 cumulative IPC: 0.446096 (Simulation time: 0 hr 6 min 18 sec) 
Heartbeat CPU 0 instructions: 75000000 cycles: 161938515 heartbeat IPC: 0.613506 cumulative IPC: 0.447977 (Simulation time: 0 hr 6 min 23 sec) 
Heartbeat CPU 0 instructions: 76000002 cycles: 163610775 heartbeat IPC: 0.597994 cumulative IPC: 0.449686 (Simulation time: 0 hr 6 min 29 sec) 
Heartbeat CPU 0 instructions: 77000000 cycles: 165913754 heartbeat IPC: 0.434219 cumulative IPC: 0.449447 (Simulation time: 0 hr 6 min 34 sec) 
Heartbeat CPU 0 instructions: 78000002 cycles: 168166034 heartbeat IPC: 0.443995 cumulative IPC: 0.449366 (Simulation time: 0 hr 6 min 40 sec) 
Heartbeat CPU 0 instructions: 79000002 cycles: 169831922 heartbeat IPC: 0.60028 cumulative IPC: 0.451009 (Simulation time: 0 hr 6 min 45 sec) 
Heartbeat CPU 0 instructions: 80000000 cycles: 171611328 heartbeat IPC: 0.561984 cumulative IPC: 0.452285 (Simulation time: 0 hr 6 min 50 sec) 
Heartbeat CPU 0 instructions: 81000002 cycles: 173393657 heartbeat IPC: 0.561065 cumulative IPC: 0.453524 (Simulation time: 0 hr 6 min 55 sec) 
Heartbeat CPU 0 instructions: 82000000 cycles: 175065777 heartbeat IPC: 0.598042 cumulative IPC: 0.455051 (Simulation time: 0 hr 7 min 0 sec) 
Heartbeat CPU 0 instructions: 83000001 cycles: 176749983 heartbeat IPC: 0.593752 cumulative IPC: 0.456512 (Simulation time: 0 hr 7 min 6 sec) 
Heartbeat CPU 0 instructions: 84000002 cycles: 178389279 heartbeat IPC: 0.610019 cumulative IPC: 0.45807 (Simulation time: 0 hr 7 min 11 sec) 
Heartbeat CPU 0 instructions: 85000000 cycles: 180030502 heartbeat IPC: 0.6093 cumulative IPC: 0.45959 (Simulation time: 0 hr 7 min 16 sec) 
Heartbeat CPU 0 instructions: 86000001 cycles: 181656591 heartbeat IPC: 0.614973 cumulative IPC: 0.461123 (Simulation time: 0 hr 7 min 21 sec) 
Heartbeat CPU 0 instructions: 87000000 cycles: 183245512 heartbeat IPC: 0.629357 cumulative IPC: 0.46273 (Simulation time: 0 hr 7 min 26 sec) 
Heartbeat CPU 0 instructions: 88000000 cycles: 185029071 heartbeat IPC: 0.560677 cumulative IPC: 0.463769 (Simulation time: 0 hr 7 min 31 sec) 
Heartbeat CPU 0 instructions: 89000001 cycles: 186844794 heartbeat IPC: 0.550745 cumulative IPC: 0.464698 (Simulation time: 0 hr 7 min 36 sec) 
Heartbeat CPU 0 instructions: 90000002 cycles: 188583428 heartbeat IPC: 0.575165 cumulative IPC: 0.465816 (Simulation time: 0 hr 7 min 41 sec) 
Heartbeat CPU 0 instructions: 91000003 cycles: 190340219 heartbeat IPC: 0.56922 cumulative IPC: 0.466863 (Simulation time: 0 hr 7 min 47 sec) 
Heartbeat CPU 0 instructions: 92000000 cycles: 192503107 heartbeat IPC: 0.462343 cumulative IPC: 0.466807 (Simulation time: 0 hr 7 min 52 sec) 
Heartbeat CPU 0 instructions: 93000000 cycles: 194250129 heartbeat IPC: 0.572403 cumulative IPC: 0.467847 (Simulation time: 0 hr 7 min 57 sec) 
Heartbeat CPU 0 instructions: 94000000 cycles: 195922118 heartbeat IPC: 0.59809 cumulative IPC: 0.469063 (Simulation time: 0 hr 8 min 2 sec) 
Heartbeat CPU 0 instructions: 95000001 cycles: 197521726 heartbeat IPC: 0.625154 cumulative IPC: 0.470445 (Simulation time: 0 hr 8 min 7 sec) 
Heartbeat CPU 0 instructions: 96000002 cycles: 199185496 heartbeat IPC: 0.601045 cumulative IPC: 0.471637 (Simulation time: 0 hr 8 min 12 sec) 
Heartbeat CPU 0 instructions: 97000000 cycles: 200791335 heartbeat IPC: 0.622726 cumulative IPC: 0.472956 (Simulation time: 0 hr 8 min 17 sec) 
Heartbeat CPU 0 instructions: 98000001 cycles: 202520303 heartbeat IPC: 0.57838 cumulative IPC: 0.473937 (Simulation time: 0 hr 8 min 22 sec) 
Heartbeat CPU 0 instructions: 99000000 cycles: 204707639 heartbeat IPC: 0.457177 cumulative IPC: 0.473742 (Simulation time: 0 hr 8 min 27 sec) 
Heartbeat CPU 0 instructions: 100000003 cycles: 206653176 heartbeat IPC: 0.513998 cumulative IPC: 0.474155 (Simulation time: 0 hr 8 min 32 sec) 
Heartbeat CPU 0 instructions: 101000001 cycles: 208811039 heartbeat IPC: 0.463421 cumulative IPC: 0.474034 (Simulation time: 0 hr 8 min 38 sec) 
Heartbeat CPU 0 instructions: 102000000 cycles: 211445059 heartbeat IPC: 0.379647 cumulative IPC: 0.472757 (Simulation time: 0 hr 8 min 43 sec) 
Heartbeat CPU 0 instructions: 103000003 cycles: 214111691 heartbeat IPC: 0.375006 cumulative IPC: 0.471435 (Simulation time: 0 hr 8 min 48 sec) 
Heartbeat CPU 0 instructions: 104000003 cycles: 216335102 heartbeat IPC: 0.449759 cumulative IPC: 0.471194 (Simulation time: 0 hr 8 min 53 sec) 
Heartbeat CPU 0 instructions: 105000002 cycles: 218176182 heartbeat IPC: 0.543159 cumulative IPC: 0.471852 (Simulation time: 0 hr 8 min 58 sec) 
Heartbeat CPU 0 instructions: 106000002 cycles: 219850781 heartbeat IPC: 0.597158 cumulative IPC: 0.472885 (Simulation time: 0 hr 9 min 3 sec) 
Heartbeat CPU 0 instructions: 107000001 cycles: 221770273 heartbeat IPC: 0.520971 cumulative IPC: 0.473336 (Simulation time: 0 hr 9 min 9 sec) 
Heartbeat CPU 0 instructions: 108000002 cycles: 223862044 heartbeat IPC: 0.478064 cumulative IPC: 0.473384 (Simulation time: 0 hr 9 min 14 sec) 
Heartbeat CPU 0 instructions: 109000000 cycles: 226109685 heartbeat IPC: 0.44491 cumulative IPC: 0.473078 (Simulation time: 0 hr 9 min 19 sec) 
Heartbeat CPU 0 instructions: 110000000 cycles: 228217138 heartbeat IPC: 0.474506 cumulative IPC: 0.473092 (Simulation time: 0 hr 9 min 24 sec) 
Heartbeat CPU 0 instructions: 111000000 cycles: 230437195 heartbeat IPC: 0.450439 cumulative IPC: 0.472857 (Simulation time: 0 hr 9 min 29 sec) 
Heartbeat CPU 0 instructions: 112000002 cycles: 232612363 heartbeat IPC: 0.459736 cumulative IPC: 0.472724 (Simulation time: 0 hr 9 min 34 sec) 
Heartbeat CPU 0 instructions: 113000002 cycles: 234614165 heartbeat IPC: 0.49955 cumulative IPC: 0.472971 (Simulation time: 0 hr 9 min 40 sec) 
Heartbeat CPU 0 instructions: 114000000 cycles: 236449534 heartbeat IPC: 0.544849 cumulative IPC: 0.473572 (Simulation time: 0 hr 9 min 45 sec) 
Heartbeat CPU 0 instructions: 115000002 cycles: 238308494 heartbeat IPC: 0.537936 cumulative IPC: 0.474112 (Simulation time: 0 hr 9 min 50 sec) 
Heartbeat CPU 0 instructions: 116000002 cycles: 240178790 heartbeat IPC: 0.534675 cumulative IPC: 0.474619 (Simulation time: 0 hr 9 min 55 sec) 
Heartbeat CPU 0 instructions: 117000002 cycles: 241759282 heartbeat IPC: 0.632714 cumulative IPC: 0.47573 (Simulation time: 0 hr 10 min 0 sec) 
Heartbeat CPU 0 instructions: 118000002 cycles: 243346820 heartbeat IPC: 0.629906 cumulative IPC: 0.476811 (Simulation time: 0 hr 10 min 6 sec) 
Heartbeat CPU 0 instructions: 119000002 cycles: 245065363 heartbeat IPC: 0.581888 cumulative IPC: 0.477602 (Simulation time: 0 hr 10 min 11 sec) 
Heartbeat CPU 0 instructions: 120000002 cycles: 247035123 heartbeat IPC: 0.507676 cumulative IPC: 0.477859 (Simulation time: 0 hr 10 min 16 sec) 
Heartbeat CPU 0 instructions: 121000000 cycles: 248921474 heartbeat IPC: 0.530123 cumulative IPC: 0.478284 (Simulation time: 0 hr 10 min 21 sec) 
Heartbeat CPU 0 instructions: 122000002 cycles: 250989680 heartbeat IPC: 0.483512 cumulative IPC: 0.47833 (Simulation time: 0 hr 10 min 27 sec) 
Heartbeat CPU 0 instructions: 123000002 cycles: 253474814 heartbeat IPC: 0.402393 cumulative IPC: 0.477533 (Simulation time: 0 hr 10 min 32 sec) 
Heartbeat CPU 0 instructions: 124000003 cycles: 256091414 heartbeat IPC: 0.382176 cumulative IPC: 0.47649 (Simulation time: 0 hr 10 min 37 sec) 
Heartbeat CPU 0 instructions: 125000000 cycles: 258767358 heartbeat IPC: 0.373699 cumulative IPC: 0.475353 (Simulation time: 0 hr 10 min 42 sec) 
Heartbeat CPU 0 instructions: 126000002 cycles: 261863117 heartbeat IPC: 0.323023 cumulative IPC: 0.473428 (Simulation time: 0 hr 10 min 48 sec) 
Heartbeat CPU 0 instructions: 127000003 cycles: 265198718 heartbeat IPC: 0.299796 cumulative IPC: 0.471096 (Simulation time: 0 hr 10 min 53 sec) 
Heartbeat CPU 0 instructions: 128000002 cycles: 268443400 heartbeat IPC: 0.308196 cumulative IPC: 0.468995 (Simulation time: 0 hr 10 min 58 sec) 
Heartbeat CPU 0 instructions: 129000000 cycles: 271786249 heartbeat IPC: 0.299145 cumulative IPC: 0.466768 (Simulation time: 0 hr 11 min 4 sec) 
Heartbeat CPU 0 instructions: 130000000 cycles: 275058309 heartbeat IPC: 0.305618 cumulative IPC: 0.464726 (Simulation time: 0 hr 11 min 9 sec) 
Heartbeat CPU 0 instructions: 131000000 cycles: 278100775 heartbeat IPC: 0.328681 cumulative IPC: 0.463142 (Simulation time: 0 hr 11 min 14 sec) 
Heartbeat CPU 0 instructions: 132000000 cycles: 281309159 heartbeat IPC: 0.311683 cumulative IPC: 0.461304 (Simulation time: 0 hr 11 min 19 sec) 
Heartbeat CPU 0 instructions: 133000002 cycles: 284411892 heartbeat IPC: 0.322297 cumulative IPC: 0.459693 (Simulation time: 0 hr 11 min 25 sec) 
Heartbeat CPU 0 instructions: 134000001 cycles: 287508747 heartbeat IPC: 0.322908 cumulative IPC: 0.458127 (Simulation time: 0 hr 11 min 30 sec) 
Heartbeat CPU 0 instructions: 135000000 cycles: 290831651 heartbeat IPC: 0.300941 cumulative IPC: 0.456221 (Simulation time: 0 hr 11 min 36 sec) 
Heartbeat CPU 0 instructions: 136000002 cycles: 294378882 heartbeat IPC: 0.281911 cumulative IPC: 0.453993 (Simulation time: 0 hr 11 min 41 sec) 
Heartbeat CPU 0 instructions: 137000000 cycles: 298070092 heartbeat IPC: 0.270913 cumulative IPC: 0.45159 (Simulation time: 0 hr 11 min 46 sec) 
Heartbeat CPU 0 instructions: 138000000 cycles: 301159911 heartbeat IPC: 0.323644 cumulative IPC: 0.4502 (Simulation time: 0 hr 11 min 52 sec) 
Heartbeat CPU 0 instructions: 139000001 cycles: 302693308 heartbeat IPC: 0.652147 cumulative IPC: 0.451283 (Simulation time: 0 hr 11 min 57 sec) 
Heartbeat CPU 0 instructions: 140000000 cycles: 304290650 heartbeat IPC: 0.626039 cumulative IPC: 0.452254 (Simulation time: 0 hr 12 min 2 sec) 
Heartbeat CPU 0 instructions: 141000001 cycles: 305571730 heartbeat IPC: 0.780592 cumulative IPC: 0.453711 (Simulation time: 0 hr 12 min 7 sec) 
Heartbeat CPU 0 instructions: 142000000 cycles: 307062389 heartbeat IPC: 0.670844 cumulative IPC: 0.454826 (Simulation time: 0 hr 12 min 11 sec) 
Heartbeat CPU 0 instructions: 143000000 cycles: 308613771 heartbeat IPC: 0.644587 cumulative IPC: 0.455835 (Simulation time: 0 hr 12 min 16 sec) 
Heartbeat CPU 0 instructions: 144000000 cycles: 310207209 heartbeat IPC: 0.627574 cumulative IPC: 0.456768 (Simulation time: 0 hr 12 min 21 sec) 
Heartbeat CPU 0 instructions: 145000000 cycles: 311754947 heartbeat IPC: 0.646104 cumulative IPC: 0.457762 (Simulation time: 0 hr 12 min 26 sec) 
Heartbeat CPU 0 instructions: 146000002 cycles: 313573955 heartbeat IPC: 0.549751 cumulative IPC: 0.458326 (Simulation time: 0 hr 12 min 31 sec) 
Heartbeat CPU 0 instructions: 147000003 cycles: 315257358 heartbeat IPC: 0.594035 cumulative IPC: 0.459091 (Simulation time: 0 hr 12 min 37 sec) 
Heartbeat CPU 0 instructions: 148000002 cycles: 316952868 heartbeat IPC: 0.589792 cumulative IPC: 0.45983 (Simulation time: 0 hr 12 min 42 sec) 
Heartbeat CPU 0 instructions: 149000003 cycles: 318581839 heartbeat IPC: 0.613885 cumulative IPC: 0.460661 (Simulation time: 0 hr 12 min 47 sec) 
Heartbeat CPU 0 instructions: 150000000 cycles: 320615482 heartbeat IPC: 0.491727 cumulative IPC: 0.460869 (Simulation time: 0 hr 12 min 53 sec) 
Heartbeat CPU 0 instructions: 151000001 cycles: 322230808 heartbeat IPC: 0.619071 cumulative IPC: 0.461706 (Simulation time: 0 hr 12 min 58 sec) 
Heartbeat CPU 0 instructions: 152000002 cycles: 323845074 heartbeat IPC: 0.619477 cumulative IPC: 0.462536 (Simulation time: 0 hr 13 min 4 sec) 
Heartbeat CPU 0 instructions: 153000000 cycles: 325445159 heartbeat IPC: 0.624966 cumulative IPC: 0.463378 (Simulation time: 0 hr 13 min 9 sec) 
Heartbeat CPU 0 instructions: 154000000 cycles: 327248295 heartbeat IPC: 0.554589 cumulative IPC: 0.463908 (Simulation time: 0 hr 13 min 14 sec) 
Heartbeat CPU 0 instructions: 155000001 cycles: 330216625 heartbeat IPC: 0.33689 cumulative IPC: 0.462705 (Simulation time: 0 hr 13 min 19 sec) 
Heartbeat CPU 0 instructions: 156000000 cycles: 333398092 heartbeat IPC: 0.31432 cumulative IPC: 0.461213 (Simulation time: 0 hr 13 min 25 sec) 
Heartbeat CPU 0 instructions: 157000001 cycles: 336421066 heartbeat IPC: 0.3308 cumulative IPC: 0.45998 (Simulation time: 0 hr 13 min 30 sec) 
Heartbeat CPU 0 instructions: 158000002 cycles: 338681871 heartbeat IPC: 0.442321 cumulative IPC: 0.459856 (Simulation time: 0 hr 13 min 35 sec) 
Heartbeat CPU 0 instructions: 159000000 cycles: 340462906 heartbeat IPC: 0.56147 cumulative IPC: 0.460415 (Simulation time: 0 hr 13 min 40 sec) 
Heartbeat CPU 0 instructions: 160000001 cycles: 342260344 heartbeat IPC: 0.556348 cumulative IPC: 0.460945 (Simulation time: 0 hr 13 min 45 sec) 
Heartbeat CPU 0 instructions: 161000002 cycles: 344243597 heartbeat IPC: 0.504223 cumulative IPC: 0.461207 (Simulation time: 0 hr 13 min 50 sec) 
Heartbeat CPU 0 instructions: 162000003 cycles: 346836959 heartbeat IPC: 0.3856 cumulative IPC: 0.460613 (Simulation time: 0 hr 13 min 56 sec) 
Heartbeat CPU 0 instructions: 163000000 cycles: 349732961 heartbeat IPC: 0.345303 cumulative IPC: 0.45961 (Simulation time: 0 hr 14 min 1 sec) 
Heartbeat CPU 0 instructions: 164000003 cycles: 352359330 heartbeat IPC: 0.380755 cumulative IPC: 0.458992 (Simulation time: 0 hr 14 min 6 sec) 
Heartbeat CPU 0 instructions: 165000000 cycles: 355143660 heartbeat IPC: 0.359152 cumulative IPC: 0.458171 (Simulation time: 0 hr 14 min 11 sec) 
Heartbeat CPU 0 instructions: 166000000 cycles: 357664315 heartbeat IPC: 0.396722 cumulative IPC: 0.457716 (Simulation time: 0 hr 14 min 16 sec) 
Heartbeat CPU 0 instructions: 167000000 cycles: 359751088 heartbeat IPC: 0.479209 cumulative IPC: 0.457847 (Simulation time: 0 hr 14 min 21 sec) 
Heartbeat CPU 0 instructions: 168000002 cycles: 361417567 heartbeat IPC: 0.600069 cumulative IPC: 0.458535 (Simulation time: 0 hr 14 min 26 sec) 
Heartbeat CPU 0 instructions: 169000000 cycles: 362942846 heartbeat IPC: 0.655616 cumulative IPC: 0.459403 (Simulation time: 0 hr 14 min 31 sec) 
Heartbeat CPU 0 instructions: 170000000 cycles: 364413313 heartbeat IPC: 0.680056 cumulative IPC: 0.460337 (Simulation time: 0 hr 14 min 35 sec) 
Heartbeat CPU 0 instructions: 171000000 cycles: 365789347 heartbeat IPC: 0.726726 cumulative IPC: 0.461387 (Simulation time: 0 hr 14 min 40 sec) 
Heartbeat CPU 0 instructions: 172000001 cycles: 367231585 heartbeat IPC: 0.693368 cumulative IPC: 0.462342 (Simulation time: 0 hr 14 min 45 sec) 
Heartbeat CPU 0 instructions: 173000003 cycles: 368755332 heartbeat IPC: 0.656278 cumulative IPC: 0.463182 (Simulation time: 0 hr 14 min 50 sec) 
Heartbeat CPU 0 instructions: 174000000 cycles: 370247333 heartbeat IPC: 0.670239 cumulative IPC: 0.464056 (Simulation time: 0 hr 14 min 55 sec) 
Heartbeat CPU 0 instructions: 175000000 cycles: 371679407 heartbeat IPC: 0.698288 cumulative IPC: 0.465001 (Simulation time: 0 hr 15 min 0 sec) 
Heartbeat CPU 0 instructions: 176000000 cycles: 373291118 heartbeat IPC: 0.620459 cumulative IPC: 0.465704 (Simulation time: 0 hr 15 min 5 sec) 
Heartbeat CPU 0 instructions: 177000000 cycles: 374961358 heartbeat IPC: 0.598716 cumulative IPC: 0.466325 (Simulation time: 0 hr 15 min 10 sec) 
Heartbeat CPU 0 instructions: 178000000 cycles: 376529556 heartbeat IPC: 0.637675 cumulative IPC: 0.467072 (Simulation time: 0 hr 15 min 15 sec) 
Heartbeat CPU 0 instructions: 179000000 cycles: 378006770 heartbeat IPC: 0.67695 cumulative IPC: 0.46793 (Simulation time: 0 hr 15 min 20 sec) 
Heartbeat CPU 0 instructions: 180000002 cycles: 379624369 heartbeat IPC: 0.618201 cumulative IPC: 0.4686 (Simulation time: 0 hr 15 min 25 sec) 
Heartbeat CPU 0 instructions: 181000000 cycles: 381258882 heartbeat IPC: 0.611802 cumulative IPC: 0.469242 (Simulation time: 0 hr 15 min 30 sec) 
Heartbeat CPU 0 instructions: 182000000 cycles: 383014387 heartbeat IPC: 0.569637 cumulative IPC: 0.469724 (Simulation time: 0 hr 15 min 35 sec) 
Heartbeat CPU 0 instructions: 183000001 cycles: 384810933 heartbeat IPC: 0.556624 cumulative IPC: 0.470148 (Simulation time: 0 hr 15 min 41 sec) 
Heartbeat CPU 0 instructions: 184000000 cycles: 386705037 heartbeat IPC: 0.527954 cumulative IPC: 0.470444 (Simulation time: 0 hr 15 min 46 sec) 
Heartbeat CPU 0 instructions: 185000003 cycles: 388518224 heartbeat IPC: 0.551517 cumulative IPC: 0.47084 (Simulation time: 0 hr 15 min 51 sec) 
Heartbeat CPU 0 instructions: 186000002 cycles: 390257950 heartbeat IPC: 0.574803 cumulative IPC: 0.471324 (Simulation time: 0 hr 15 min 56 sec) 
Heartbeat CPU 0 instructions: 187000000 cycles: 391954184 heartbeat IPC: 0.58954 cumulative IPC: 0.471859 (Simulation time: 0 hr 16 min 1 sec) 
Heartbeat CPU 0 instructions: 188000001 cycles: 393617567 heartbeat IPC: 0.601185 cumulative IPC: 0.472429 (Simulation time: 0 hr 16 min 6 sec) 
Heartbeat CPU 0 instructions: 189000001 cycles: 395312532 heartbeat IPC: 0.589983 cumulative IPC: 0.472956 (Simulation time: 0 hr 16 min 11 sec) 
Heartbeat CPU 0 instructions: 190000003 cycles: 397121576 heartbeat IPC: 0.552779 cumulative IPC: 0.473336 (Simulation time: 0 hr 16 min 16 sec) 
Heartbeat CPU 0 instructions: 191000000 cycles: 398751590 heartbeat IPC: 0.61349 cumulative IPC: 0.473934 (Simulation time: 0 hr 16 min 21 sec) 
Heartbeat CPU 0 instructions: 192000000 cycles: 400224812 heartbeat IPC: 0.678784 cumulative IPC: 0.474721 (Simulation time: 0 hr 16 min 26 sec) 
Heartbeat CPU 0 instructions: 193000002 cycles: 401559028 heartbeat IPC: 0.749505 cumulative IPC: 0.475674 (Simulation time: 0 hr 16 min 31 sec) 
Heartbeat CPU 0 instructions: 194000003 cycles: 403047213 heartbeat IPC: 0.67196 cumulative IPC: 0.47643 (Simulation time: 0 hr 16 min 36 sec) 
Heartbeat CPU 0 instructions: 195000003 cycles: 404724515 heartbeat IPC: 0.596196 cumulative IPC: 0.476948 (Simulation time: 0 hr 16 min 41 sec) 
Heartbeat CPU 0 instructions: 196000002 cycles: 406381448 heartbeat IPC: 0.603524 cumulative IPC: 0.477487 (Simulation time: 0 hr 16 min 46 sec) 
Heartbeat CPU 0 instructions: 197000002 cycles: 407908022 heartbeat IPC: 0.655062 cumulative IPC: 0.47818 (Simulation time: 0 hr 16 min 52 sec) 
Heartbeat CPU 0 instructions: 198000000 cycles: 409664681 heartbeat IPC: 0.569261 cumulative IPC: 0.478587 (Simulation time: 0 hr 16 min 57 sec) 
Heartbeat CPU 0 instructions: 199000002 cycles: 411320646 heartbeat IPC: 0.603879 cumulative IPC: 0.479113 (Simulation time: 0 hr 17 min 2 sec) 
Heartbeat CPU 0 instructions: 200000002 cycles: 412909252 heartbeat IPC: 0.629483 cumulative IPC: 0.479716 (Simulation time: 0 hr 17 min 7 sec) 
Heartbeat CPU 0 instructions: 201000001 cycles: 414647630 heartbeat IPC: 0.575248 cumulative IPC: 0.480134 (Simulation time: 0 hr 17 min 12 sec) 
Heartbeat CPU 0 instructions: 202000003 cycles: 416320472 heartbeat IPC: 0.597786 cumulative IPC: 0.480626 (Simulation time: 0 hr 17 min 17 sec) 
Heartbeat CPU 0 instructions: 203000000 cycles: 418054042 heartbeat IPC: 0.576843 cumulative IPC: 0.481042 (Simulation time: 0 hr 17 min 22 sec) 
Heartbeat CPU 0 instructions: 204000002 cycles: 419803655 heartbeat IPC: 0.571556 cumulative IPC: 0.481435 (Simulation time: 0 hr 17 min 27 sec) 
Heartbeat CPU 0 instructions: 205000000 cycles: 421448312 heartbeat IPC: 0.608028 cumulative IPC: 0.48195 (Simulation time: 0 hr 17 min 32 sec) 
Heartbeat CPU 0 instructions: 206000002 cycles: 423051839 heartbeat IPC: 0.623627 cumulative IPC: 0.482509 (Simulation time: 0 hr 17 min 37 sec) 
Heartbeat CPU 0 instructions: 207000003 cycles: 424720425 heartbeat IPC: 0.59931 cumulative IPC: 0.482987 (Simulation time: 0 hr 17 min 43 sec) 
Heartbeat CPU 0 instructions: 208000001 cycles: 426919390 heartbeat IPC: 0.454758 cumulative IPC: 0.482835 (Simulation time: 0 hr 17 min 48 sec) 
Heartbeat CPU 0 instructions: 209000000 cycles: 428891745 heartbeat IPC: 0.507008 cumulative IPC: 0.482951 (Simulation time: 0 hr 17 min 53 sec) 
Heartbeat CPU 0 instructions: 210000002 cycles: 430598698 heartbeat IPC: 0.58584 cumulative IPC: 0.483376 (Simulation time: 0 hr 17 min 58 sec) 
Heartbeat CPU 0 instructions: 211000000 cycles: 432341532 heartbeat IPC: 0.573777 cumulative IPC: 0.483755 (Simulation time: 0 hr 18 min 3 sec) 
Heartbeat CPU 0 instructions: 212000001 cycles: 434224253 heartbeat IPC: 0.531147 cumulative IPC: 0.483969 (Simulation time: 0 hr 18 min 8 sec) 
Heartbeat CPU 0 instructions: 213000000 cycles: 436040966 heartbeat IPC: 0.550444 cumulative IPC: 0.484257 (Simulation time: 0 hr 18 min 14 sec) 
Heartbeat CPU 0 instructions: 214000001 cycles: 437842096 heartbeat IPC: 0.555208 cumulative IPC: 0.48456 (Simulation time: 0 hr 18 min 19 sec) 
Heartbeat CPU 0 instructions: 215000001 cycles: 439576413 heartbeat IPC: 0.576596 cumulative IPC: 0.484938 (Simulation time: 0 hr 18 min 24 sec) 
Heartbeat CPU 0 instructions: 216000000 cycles: 441331975 heartbeat IPC: 0.569618 cumulative IPC: 0.485288 (Simulation time: 0 hr 18 min 29 sec) 
Heartbeat CPU 0 instructions: 217000000 cycles: 443018652 heartbeat IPC: 0.592882 cumulative IPC: 0.485714 (Simulation time: 0 hr 18 min 34 sec) 
Heartbeat CPU 0 instructions: 218000001 cycles: 444788842 heartbeat IPC: 0.564912 cumulative IPC: 0.486041 (Simulation time: 0 hr 18 min 39 sec) 
Heartbeat CPU 0 instructions: 219000002 cycles: 446419205 heartbeat IPC: 0.613361 cumulative IPC: 0.486525 (Simulation time: 0 hr 18 min 44 sec) 
Heartbeat CPU 0 instructions: 220000000 cycles: 448113801 heartbeat IPC: 0.59011 cumulative IPC: 0.486932 (Simulation time: 0 hr 18 min 49 sec) 
Heartbeat CPU 0 instructions: 221000000 cycles: 449820254 heartbeat IPC: 0.586011 cumulative IPC: 0.487322 (Simulation time: 0 hr 18 min 54 sec) 
Heartbeat CPU 0 instructions: 222000001 cycles: 451414005 heartbeat IPC: 0.627451 cumulative IPC: 0.487836 (Simulation time: 0 hr 18 min 59 sec) 
Heartbeat CPU 0 instructions: 223000001 cycles: 453074135 heartbeat IPC: 0.602362 cumulative IPC: 0.488272 (Simulation time: 0 hr 19 min 4 sec) 
Heartbeat CPU 0 instructions: 224000002 cycles: 454757258 heartbeat IPC: 0.594134 cumulative IPC: 0.488679 (Simulation time: 0 hr 19 min 10 sec) 
Heartbeat CPU 0 instructions: 225000000 cycles: 456645600 heartbeat IPC: 0.529564 cumulative IPC: 0.488854 (Simulation time: 0 hr 19 min 15 sec) 
Heartbeat CPU 0 instructions: 226000001 cycles: 458379606 heartbeat IPC: 0.5767 cumulative IPC: 0.489199 (Simulation time: 0 hr 19 min 20 sec) 
Heartbeat CPU 0 instructions: 227000000 cycles: 460033633 heartbeat IPC: 0.604584 cumulative IPC: 0.48963 (Simulation time: 0 hr 19 min 25 sec) 
Heartbeat CPU 0 instructions: 228000000 cycles: 461621809 heartbeat IPC: 0.629653 cumulative IPC: 0.49013 (Simulation time: 0 hr 19 min 30 sec) 
Heartbeat CPU 0 instructions: 229000002 cycles: 463203571 heartbeat IPC: 0.632208 cumulative IPC: 0.490633 (Simulation time: 0 hr 19 min 35 sec) 
Heartbeat CPU 0 instructions: 230000000 cycles: 464818179 heartbeat IPC: 0.619344 cumulative IPC: 0.491097 (Simulation time: 0 hr 19 min 41 sec) 
Heartbeat CPU 0 instructions: 231000000 cycles: 466451782 heartbeat IPC: 0.612144 cumulative IPC: 0.491537 (Simulation time: 0 hr 19 min 46 sec) 
Heartbeat CPU 0 instructions: 232000002 cycles: 468135012 heartbeat IPC: 0.594097 cumulative IPC: 0.49192 (Simulation time: 0 hr 19 min 51 sec) 
Heartbeat CPU 0 instructions: 233000000 cycles: 469730535 heartbeat IPC: 0.626752 cumulative IPC: 0.492395 (Simulation time: 0 hr 19 min 56 sec) 
Heartbeat CPU 0 instructions: 234000000 cycles: 471398451 heartbeat IPC: 0.599551 cumulative IPC: 0.492788 (Simulation time: 0 hr 20 min 1 sec) 
Heartbeat CPU 0 instructions: 235000002 cycles: 473312351 heartbeat IPC: 0.522494 cumulative IPC: 0.492912 (Simulation time: 0 hr 20 min 6 sec) 
Heartbeat CPU 0 instructions: 236000001 cycles: 475190770 heartbeat IPC: 0.532362 cumulative IPC: 0.493074 (Simulation time: 0 hr 20 min 11 sec) 
Heartbeat CPU 0 instructions: 237000002 cycles: 477140325 heartbeat IPC: 0.512938 cumulative IPC: 0.493158 (Simulation time: 0 hr 20 min 16 sec) 
Heartbeat CPU 0 instructions: 238000003 cycles: 478827460 heartbeat IPC: 0.592721 cumulative IPC: 0.493522 (Simulation time: 0 hr 20 min 21 sec) 
Heartbeat CPU 0 instructions: 239000000 cycles: 480469978 heartbeat IPC: 0.608819 cumulative IPC: 0.49393 (Simulation time: 0 hr 20 min 26 sec) 
Heartbeat CPU 0 instructions: 240000001 cycles: 482320910 heartbeat IPC: 0.540269 cumulative IPC: 0.494114 (Simulation time: 0 hr 20 min 31 sec) 
Heartbeat CPU 0 instructions: 241000000 cycles: 484775295 heartbeat IPC: 0.407434 cumulative IPC: 0.49366 (Simulation time: 0 hr 20 min 36 sec) 
Heartbeat CPU 0 instructions: 242000000 cycles: 487096272 heartbeat IPC: 0.430853 cumulative IPC: 0.49335 (Simulation time: 0 hr 20 min 41 sec) 
Heartbeat CPU 0 instructions: 243000001 cycles: 489384640 heartbeat IPC: 0.436993 cumulative IPC: 0.493077 (Simulation time: 0 hr 20 min 47 sec) 
Heartbeat CPU 0 instructions: 244000003 cycles: 491987474 heartbeat IPC: 0.384197 cumulative IPC: 0.49248 (Simulation time: 0 hr 20 min 52 sec) 
Heartbeat CPU 0 instructions: 245000000 cycles: 494617149 heartbeat IPC: 0.380274 cumulative IPC: 0.491863 (Simulation time: 0 hr 20 min 57 sec) 
Heartbeat CPU 0 instructions: 246000001 cycles: 496912092 heartbeat IPC: 0.435741 cumulative IPC: 0.491595 (Simulation time: 0 hr 21 min 2 sec) 
Heartbeat CPU 0 instructions: 247000000 cycles: 498536093 heartbeat IPC: 0.615763 cumulative IPC: 0.492013 (Simulation time: 0 hr 21 min 7 sec) 
Heartbeat CPU 0 instructions: 248000003 cycles: 500041232 heartbeat IPC: 0.664392 cumulative IPC: 0.49255 (Simulation time: 0 hr 21 min 12 sec) 
Heartbeat CPU 0 instructions: 249000001 cycles: 501871931 heartbeat IPC: 0.546238 cumulative IPC: 0.492753 (Simulation time: 0 hr 21 min 17 sec) 
Heartbeat CPU 0 instructions: 250000002 cycles: 503834895 heartbeat IPC: 0.509434 cumulative IPC: 0.49282 (Simulation time: 0 hr 21 min 22 sec) 
Heartbeat CPU 0 instructions: 251000003 cycles: 506047602 heartbeat IPC: 0.451936 cumulative IPC: 0.492635 (Simulation time: 0 hr 21 min 27 sec) 
Heartbeat CPU 0 instructions: 252000002 cycles: 508448768 heartbeat IPC: 0.416464 cumulative IPC: 0.492263 (Simulation time: 0 hr 21 min 32 sec) 
Heartbeat CPU 0 instructions: 253000000 cycles: 511060495 heartbeat IPC: 0.382888 cumulative IPC: 0.491685 (Simulation time: 0 hr 21 min 38 sec) 
Heartbeat CPU 0 instructions: 254000003 cycles: 513714439 heartbeat IPC: 0.376799 cumulative IPC: 0.491071 (Simulation time: 0 hr 21 min 43 sec) 
Heartbeat CPU 0 instructions: 255000003 cycles: 516294587 heartbeat IPC: 0.387575 cumulative IPC: 0.490537 (Simulation time: 0 hr 21 min 48 sec) 
Heartbeat CPU 0 instructions: 256000002 cycles: 518882172 heartbeat IPC: 0.38646 cumulative IPC: 0.49 (Simulation time: 0 hr 21 min 53 sec) 
Heartbeat CPU 0 instructions: 257000000 cycles: 521581083 heartbeat IPC: 0.370519 cumulative IPC: 0.489361 (Simulation time: 0 hr 21 min 59 sec) 
Heartbeat CPU 0 instructions: 258000002 cycles: 524416757 heartbeat IPC: 0.352651 cumulative IPC: 0.488598 (Simulation time: 0 hr 22 min 4 sec) 
Heartbeat CPU 0 instructions: 259000000 cycles: 527268286 heartbeat IPC: 0.350688 cumulative IPC: 0.487827 (Simulation time: 0 hr 22 min 9 sec) 
Heartbeat CPU 0 instructions: 260000001 cycles: 529861791 heartbeat IPC: 0.385579 cumulative IPC: 0.48731 (Simulation time: 0 hr 22 min 14 sec) 
Finished CPU 0 instructions: 250000001 cycles: 513020042 cumulative IPC: 0.48731 (Simulation time: 0 hr 22 min 14 sec) 

ChampSim completed all CPUs

Region of Interest Statistics

CPU 0 cumulative IPC: 0.48731 instructions: 250000001 cycles: 513020042
L1D TOTAL     ACCESS:   62041386  HIT:   54943298  MISS:    7098088
L1D LOAD      ACCESS:   51313433  HIT:   44291119  MISS:    7022314
L1D RFO       ACCESS:   10727953  HIT:   10652179  MISS:      75774
L1D PREFETCH  ACCESS:          0  HIT:          0  MISS:          0
L1D WRITEBACK ACCESS:          0  HIT:          0  MISS:          0
L1D PREFETCH  REQUESTED:          0  ISSUED:          0  USEFUL:          0  USELESS:          0
L1D AVERAGE MISS LATENCY: 43.1153 cycles
L1I TOTAL     ACCESS:   44078236  HIT:   44078117  MISS:        119
L1I LOAD      ACCESS:   44078236  HIT:   44078117  MISS:        119
L1I RFO       ACCESS:          0  HIT:          0  MISS:          0
L1I PREFETCH  ACCESS:          0  HIT:          0  MISS:          0
L1I WRITEBACK ACCESS:          0  HIT:          0  MISS:          0
L1I PREFETCH  REQUESTED:          0  ISSUED:          0  USEFUL:          0  USELESS:          0
L1I AVERAGE MISS LATENCY: 242.445 cycles
L2C TOTAL     ACCESS:    9433263  HIT:    6693517  MISS:    2739746
L2C LOAD      ACCESS:    7022189  HIT:    4295844  MISS:    2726345
L2C RFO       ACCESS:      75724  HIT:      62528  MISS:      13196
L2C PREFETCH  ACCESS:          0  HIT:          0  MISS:          0
L2C WRITEBACK ACCESS:    2335350  HIT:    2335145  MISS:        205
L2C PREFETCH  REQUESTED:          0  ISSUED:          0  USEFUL:          0  USELESS:          0
L2C AVERAGE MISS LATENCY: 65.732 cycles
LLC TOTAL     ACCESS:    6181686  HIT:    5546146  MISS:     635540
LLC LOAD      ACCESS:    2726152  HIT:    2277378  MISS:     448774
LLC RFO       ACCESS:      13195  HIT:      12266  MISS:        929
LLC PREFETCH  ACCESS:    2463297  HIT:    2277986  MISS:     185311
LLC WRITEBACK ACCESS:     979042  HIT:     978516  MISS:        526
LLC PREFETCH  REQUESTED:    2492136  ISSUED:    2492136  USEFUL:     132216  USELESS:      49447
LLC AVERAGE MISS LATENCY: 197.848 cycles
Major fault: 0 Minor fault: 6160
performance stats:
mapping cache size: 258837
divergence: 2015691

DRAM Statistics
 CHANNEL 0
 RQ ROW_BUFFER_HIT:     155343  ROW_BUFFER_MISS:     166341
 DBUS_CONGESTED:     132524
 WQ ROW_BUFFER_HIT:      61215  ROW_BUFFER_MISS:     115316  FULL:          0

 CHANNEL 1
 RQ ROW_BUFFER_HIT:     150697  ROW_BUFFER_MISS:     162598
 DBUS_CONGESTED:     132524
 WQ ROW_BUFFER_HIT:      59288  ROW_BUFFER_MISS:     114699  FULL:          0

 AVG_CONGESTED_CYCLE: 16

CPU 0 Branch Prediction Accuracy: 84.6275% MPKI: 29.3261 Average ROB Occupancy at Mispredict: 12.7184

Branch types
NOT_BRANCH: 202307509 80.923%
BRANCH_DIRECT_JUMP: 21164 0.0084656%
BRANCH_INDIRECT: 0 0%
BRANCH_CONDITIONAL: 47659255 19.0637%
BRANCH_DIRECT_CALL: 6025 0.00241%
BRANCH_INDIRECT_CALL: 0 0%
BRANCH_RETURN: 6025 0.00241%
BRANCH_OTHER: 0 0%


gzip: stdout: Broken pipe
