
*** ChampSim Multicore Out-of-Order Simulator ***

Warmup Instructions: 1000000
Prefetch Warmup Instructions: 10000000
Simulation Instructions: 250000000
Stat Printing Period: 1000000
Number of CPUs: 1
LLC sets: 2048
LLC ways: 16
Off-chip DRAM Size: 32768 MB Channels: 2 Width: 64-bit Data Rate: 1024 MT/s

CPU 0 runs /scratch/cluster/cmolder/ML-DPC/ChampSimTraces/spec17/602.gcc-s1.trace.xz
Read seed: 270
Heartbeat CPU 0 instructions: 1000000 cycles: 486568 heartbeat IPC: 2.05521 cumulative IPC: 2.05521 (Simulation time: 0 hr 0 min 3 sec) 

Warmup complete CPU 0 instructions: 1000004 cycles: 486569 (Simulation time: 0 hr 0 min 3 sec) 

Heartbeat CPU 0 instructions: 2000003 cycles: 11427874 heartbeat IPC: 0.091397 cumulative IPC: 0.0913967 (Simulation time: 0 hr 0 min 11 sec) 
Heartbeat CPU 0 instructions: 3000002 cycles: 22419354 heartbeat IPC: 0.0909795 cumulative IPC: 0.0911876 (Simulation time: 0 hr 0 min 20 sec) 
Heartbeat CPU 0 instructions: 4000000 cycles: 33413295 heartbeat IPC: 0.090959 cumulative IPC: 0.0911113 (Simulation time: 0 hr 0 min 29 sec) 
Heartbeat CPU 0 instructions: 5000002 cycles: 44345557 heartbeat IPC: 0.0914726 cumulative IPC: 0.0912013 (Simulation time: 0 hr 0 min 38 sec) 
Heartbeat CPU 0 instructions: 6000000 cycles: 54407931 heartbeat IPC: 0.0993799 cumulative IPC: 0.0927276 (Simulation time: 0 hr 0 min 46 sec) 
Heartbeat CPU 0 instructions: 7000001 cycles: 65334849 heartbeat IPC: 0.0915172 cumulative IPC: 0.0925236 (Simulation time: 0 hr 0 min 55 sec) 
Heartbeat CPU 0 instructions: 8000000 cycles: 76291326 heartbeat IPC: 0.0912701 cumulative IPC: 0.0923424 (Simulation time: 0 hr 1 min 4 sec) 
Heartbeat CPU 0 instructions: 9000000 cycles: 87245534 heartbeat IPC: 0.0912891 cumulative IPC: 0.0922094 (Simulation time: 0 hr 1 min 13 sec) 
Heartbeat CPU 0 instructions: 10000002 cycles: 98196399 heartbeat IPC: 0.0913172 cumulative IPC: 0.0921094 (Simulation time: 0 hr 1 min 21 sec) 

Warmup complete CPU 0 instructions: 10000002 cycles: 98196399 (Simulation time: 0 hr 1 min 21 sec) 

Heartbeat CPU 0 instructions: 11000000 cycles: 102733254 heartbeat IPC: 0.220417 cumulative IPC: 0.220417 (Simulation time: 0 hr 1 min 27 sec) 
Heartbeat CPU 0 instructions: 12000001 cycles: 107296851 heartbeat IPC: 0.219126 cumulative IPC: 0.219769 (Simulation time: 0 hr 1 min 32 sec) 
Heartbeat CPU 0 instructions: 13000002 cycles: 111808889 heartbeat IPC: 0.22163 cumulative IPC: 0.220386 (Simulation time: 0 hr 1 min 37 sec) 
Heartbeat CPU 0 instructions: 14000001 cycles: 116319647 heartbeat IPC: 0.221692 cumulative IPC: 0.220711 (Simulation time: 0 hr 1 min 42 sec) 
Heartbeat CPU 0 instructions: 15000000 cycles: 120863361 heartbeat IPC: 0.220084 cumulative IPC: 0.220585 (Simulation time: 0 hr 1 min 47 sec) 
Heartbeat CPU 0 instructions: 16000001 cycles: 125387744 heartbeat IPC: 0.221025 cumulative IPC: 0.220658 (Simulation time: 0 hr 1 min 52 sec) 
Heartbeat CPU 0 instructions: 17000001 cycles: 129910924 heartbeat IPC: 0.221083 cumulative IPC: 0.220719 (Simulation time: 0 hr 1 min 58 sec) 
Heartbeat CPU 0 instructions: 18000000 cycles: 134449986 heartbeat IPC: 0.22031 cumulative IPC: 0.220668 (Simulation time: 0 hr 2 min 2 sec) 
Heartbeat CPU 0 instructions: 19000001 cycles: 138968404 heartbeat IPC: 0.221317 cumulative IPC: 0.22074 (Simulation time: 0 hr 2 min 7 sec) 
Heartbeat CPU 0 instructions: 20000000 cycles: 143474678 heartbeat IPC: 0.221913 cumulative IPC: 0.220856 (Simulation time: 0 hr 2 min 12 sec) 
Heartbeat CPU 0 instructions: 21000002 cycles: 147963669 heartbeat IPC: 0.222768 cumulative IPC: 0.221029 (Simulation time: 0 hr 2 min 17 sec) 
Heartbeat CPU 0 instructions: 22000000 cycles: 152551567 heartbeat IPC: 0.217964 cumulative IPC: 0.22077 (Simulation time: 0 hr 2 min 22 sec) 
Heartbeat CPU 0 instructions: 23000001 cycles: 157065887 heartbeat IPC: 0.221518 cumulative IPC: 0.220827 (Simulation time: 0 hr 2 min 27 sec) 
Heartbeat CPU 0 instructions: 24000003 cycles: 161555101 heartbeat IPC: 0.222757 cumulative IPC: 0.220964 (Simulation time: 0 hr 2 min 31 sec) 
Heartbeat CPU 0 instructions: 25000000 cycles: 166012838 heartbeat IPC: 0.224328 cumulative IPC: 0.221185 (Simulation time: 0 hr 2 min 36 sec) 
Heartbeat CPU 0 instructions: 26000000 cycles: 170525761 heartbeat IPC: 0.221586 cumulative IPC: 0.22121 (Simulation time: 0 hr 2 min 41 sec) 
Heartbeat CPU 0 instructions: 27000000 cycles: 175008987 heartbeat IPC: 0.223054 cumulative IPC: 0.221318 (Simulation time: 0 hr 2 min 46 sec) 
Heartbeat CPU 0 instructions: 28000000 cycles: 179474877 heartbeat IPC: 0.22392 cumulative IPC: 0.221461 (Simulation time: 0 hr 2 min 51 sec) 
Heartbeat CPU 0 instructions: 29000000 cycles: 183928609 heartbeat IPC: 0.224531 cumulative IPC: 0.22162 (Simulation time: 0 hr 2 min 56 sec) 
Heartbeat CPU 0 instructions: 30000001 cycles: 188465401 heartbeat IPC: 0.22042 cumulative IPC: 0.22156 (Simulation time: 0 hr 3 min 1 sec) 
Heartbeat CPU 0 instructions: 31000001 cycles: 193019169 heartbeat IPC: 0.219598 cumulative IPC: 0.221466 (Simulation time: 0 hr 3 min 5 sec) 
Heartbeat CPU 0 instructions: 32000001 cycles: 197503684 heartbeat IPC: 0.22299 cumulative IPC: 0.221535 (Simulation time: 0 hr 3 min 10 sec) 
Heartbeat CPU 0 instructions: 33000000 cycles: 202088659 heartbeat IPC: 0.218103 cumulative IPC: 0.221383 (Simulation time: 0 hr 3 min 15 sec) 
Heartbeat CPU 0 instructions: 34000003 cycles: 206597693 heartbeat IPC: 0.221778 cumulative IPC: 0.2214 (Simulation time: 0 hr 3 min 20 sec) 
Heartbeat CPU 0 instructions: 35000000 cycles: 211076840 heartbeat IPC: 0.223256 cumulative IPC: 0.221473 (Simulation time: 0 hr 3 min 25 sec) 
Heartbeat CPU 0 instructions: 36000003 cycles: 215523100 heartbeat IPC: 0.224909 cumulative IPC: 0.221603 (Simulation time: 0 hr 3 min 30 sec) 
Heartbeat CPU 0 instructions: 37000003 cycles: 219791545 heartbeat IPC: 0.234277 cumulative IPC: 0.222048 (Simulation time: 0 hr 3 min 34 sec) 
Heartbeat CPU 0 instructions: 38000000 cycles: 223973503 heartbeat IPC: 0.239122 cumulative IPC: 0.222616 (Simulation time: 0 hr 3 min 39 sec) 
Heartbeat CPU 0 instructions: 39000000 cycles: 228171320 heartbeat IPC: 0.238219 cumulative IPC: 0.22312 (Simulation time: 0 hr 3 min 44 sec) 
Heartbeat CPU 0 instructions: 40000002 cycles: 232368808 heartbeat IPC: 0.238238 cumulative IPC: 0.223593 (Simulation time: 0 hr 3 min 49 sec) 
Heartbeat CPU 0 instructions: 41000000 cycles: 236582242 heartbeat IPC: 0.237336 cumulative IPC: 0.224011 (Simulation time: 0 hr 3 min 53 sec) 
Heartbeat CPU 0 instructions: 42000002 cycles: 240506833 heartbeat IPC: 0.254804 cumulative IPC: 0.224861 (Simulation time: 0 hr 3 min 58 sec) 
Heartbeat CPU 0 instructions: 43000000 cycles: 244730725 heartbeat IPC: 0.236748 cumulative IPC: 0.225203 (Simulation time: 0 hr 4 min 2 sec) 
Heartbeat CPU 0 instructions: 44000000 cycles: 248969022 heartbeat IPC: 0.235944 cumulative IPC: 0.225505 (Simulation time: 0 hr 4 min 7 sec) 
Heartbeat CPU 0 instructions: 45000000 cycles: 253198109 heartbeat IPC: 0.236458 cumulative IPC: 0.225804 (Simulation time: 0 hr 4 min 12 sec) 
Heartbeat CPU 0 instructions: 46000003 cycles: 257394806 heartbeat IPC: 0.238283 cumulative IPC: 0.226133 (Simulation time: 0 hr 4 min 17 sec) 
Heartbeat CPU 0 instructions: 47000001 cycles: 261558170 heartbeat IPC: 0.24019 cumulative IPC: 0.226491 (Simulation time: 0 hr 4 min 21 sec) 
Heartbeat CPU 0 instructions: 48000000 cycles: 265719994 heartbeat IPC: 0.240279 cumulative IPC: 0.226834 (Simulation time: 0 hr 4 min 26 sec) 
Heartbeat CPU 0 instructions: 49000003 cycles: 269935541 heartbeat IPC: 0.237218 cumulative IPC: 0.227089 (Simulation time: 0 hr 4 min 31 sec) 
Heartbeat CPU 0 instructions: 50000000 cycles: 274177279 heartbeat IPC: 0.235752 cumulative IPC: 0.227297 (Simulation time: 0 hr 4 min 35 sec) 
Heartbeat CPU 0 instructions: 51000002 cycles: 278345552 heartbeat IPC: 0.239908 cumulative IPC: 0.227589 (Simulation time: 0 hr 4 min 40 sec) 
Heartbeat CPU 0 instructions: 52000000 cycles: 282506557 heartbeat IPC: 0.240326 cumulative IPC: 0.227877 (Simulation time: 0 hr 4 min 45 sec) 
Heartbeat CPU 0 instructions: 53000003 cycles: 286724927 heartbeat IPC: 0.237059 cumulative IPC: 0.228082 (Simulation time: 0 hr 4 min 49 sec) 
Heartbeat CPU 0 instructions: 54000000 cycles: 290860327 heartbeat IPC: 0.241814 cumulative IPC: 0.228377 (Simulation time: 0 hr 4 min 54 sec) 
Heartbeat CPU 0 instructions: 55000000 cycles: 295077857 heartbeat IPC: 0.237106 cumulative IPC: 0.228564 (Simulation time: 0 hr 4 min 59 sec) 
Heartbeat CPU 0 instructions: 56000002 cycles: 299293590 heartbeat IPC: 0.237207 cumulative IPC: 0.228745 (Simulation time: 0 hr 5 min 3 sec) 
Heartbeat CPU 0 instructions: 57000001 cycles: 303465832 heartbeat IPC: 0.239679 cumulative IPC: 0.228967 (Simulation time: 0 hr 5 min 8 sec) 
Heartbeat CPU 0 instructions: 58000003 cycles: 307682362 heartbeat IPC: 0.237162 cumulative IPC: 0.229132 (Simulation time: 0 hr 5 min 13 sec) 
Heartbeat CPU 0 instructions: 59000002 cycles: 311872047 heartbeat IPC: 0.238681 cumulative IPC: 0.22932 (Simulation time: 0 hr 5 min 17 sec) 
Heartbeat CPU 0 instructions: 60000002 cycles: 316101996 heartbeat IPC: 0.236409 cumulative IPC: 0.229457 (Simulation time: 0 hr 5 min 22 sec) 
Heartbeat CPU 0 instructions: 61000002 cycles: 320188823 heartbeat IPC: 0.244689 cumulative IPC: 0.229738 (Simulation time: 0 hr 5 min 27 sec) 
Heartbeat CPU 0 instructions: 62000002 cycles: 324301157 heartbeat IPC: 0.243171 cumulative IPC: 0.229982 (Simulation time: 0 hr 5 min 31 sec) 
Heartbeat CPU 0 instructions: 63000001 cycles: 328498973 heartbeat IPC: 0.238219 cumulative IPC: 0.230132 (Simulation time: 0 hr 5 min 36 sec) 
Heartbeat CPU 0 instructions: 64000000 cycles: 332648051 heartbeat IPC: 0.241017 cumulative IPC: 0.230325 (Simulation time: 0 hr 5 min 41 sec) 
Heartbeat CPU 0 instructions: 65000000 cycles: 336786018 heartbeat IPC: 0.241665 cumulative IPC: 0.230521 (Simulation time: 0 hr 5 min 45 sec) 
Heartbeat CPU 0 instructions: 66000000 cycles: 340958904 heartbeat IPC: 0.239642 cumulative IPC: 0.230678 (Simulation time: 0 hr 5 min 50 sec) 
Heartbeat CPU 0 instructions: 67000000 cycles: 345172105 heartbeat IPC: 0.237349 cumulative IPC: 0.230792 (Simulation time: 0 hr 5 min 55 sec) 
Heartbeat CPU 0 instructions: 68000000 cycles: 349317525 heartbeat IPC: 0.24123 cumulative IPC: 0.230964 (Simulation time: 0 hr 6 min 0 sec) 
Heartbeat CPU 0 instructions: 69000001 cycles: 353497433 heartbeat IPC: 0.23924 cumulative IPC: 0.2311 (Simulation time: 0 hr 6 min 4 sec) 
Heartbeat CPU 0 instructions: 70000000 cycles: 357662772 heartbeat IPC: 0.240076 cumulative IPC: 0.231244 (Simulation time: 0 hr 6 min 9 sec) 
Heartbeat CPU 0 instructions: 71000000 cycles: 361806142 heartbeat IPC: 0.241349 cumulative IPC: 0.231403 (Simulation time: 0 hr 6 min 14 sec) 
Heartbeat CPU 0 instructions: 72000000 cycles: 365921634 heartbeat IPC: 0.242984 cumulative IPC: 0.231581 (Simulation time: 0 hr 6 min 18 sec) 
Heartbeat CPU 0 instructions: 73000003 cycles: 370091015 heartbeat IPC: 0.239844 cumulative IPC: 0.231707 (Simulation time: 0 hr 6 min 23 sec) 
Heartbeat CPU 0 instructions: 74000000 cycles: 374224359 heartbeat IPC: 0.241934 cumulative IPC: 0.231861 (Simulation time: 0 hr 6 min 28 sec) 
Heartbeat CPU 0 instructions: 75000000 cycles: 378469651 heartbeat IPC: 0.235555 cumulative IPC: 0.231917 (Simulation time: 0 hr 6 min 33 sec) 
Heartbeat CPU 0 instructions: 76000001 cycles: 382661742 heartbeat IPC: 0.238545 cumulative IPC: 0.232014 (Simulation time: 0 hr 6 min 37 sec) 
Heartbeat CPU 0 instructions: 77000000 cycles: 386913637 heartbeat IPC: 0.235189 cumulative IPC: 0.232061 (Simulation time: 0 hr 6 min 42 sec) 
Heartbeat CPU 0 instructions: 78000001 cycles: 391115212 heartbeat IPC: 0.238006 cumulative IPC: 0.232146 (Simulation time: 0 hr 6 min 47 sec) 
Heartbeat CPU 0 instructions: 79000003 cycles: 395097112 heartbeat IPC: 0.251137 cumulative IPC: 0.232401 (Simulation time: 0 hr 6 min 52 sec) 
Heartbeat CPU 0 instructions: 80000000 cycles: 399268200 heartbeat IPC: 0.239745 cumulative IPC: 0.232503 (Simulation time: 0 hr 6 min 57 sec) 
Heartbeat CPU 0 instructions: 81000000 cycles: 403460018 heartbeat IPC: 0.23856 cumulative IPC: 0.232586 (Simulation time: 0 hr 7 min 1 sec) 
Heartbeat CPU 0 instructions: 82000002 cycles: 407632409 heartbeat IPC: 0.239671 cumulative IPC: 0.232681 (Simulation time: 0 hr 7 min 6 sec) 
Heartbeat CPU 0 instructions: 83000000 cycles: 411795763 heartbeat IPC: 0.24019 cumulative IPC: 0.232781 (Simulation time: 0 hr 7 min 11 sec) 
Heartbeat CPU 0 instructions: 84000000 cycles: 416006287 heartbeat IPC: 0.2375 cumulative IPC: 0.232844 (Simulation time: 0 hr 7 min 16 sec) 
Heartbeat CPU 0 instructions: 85000000 cycles: 420152847 heartbeat IPC: 0.241164 cumulative IPC: 0.232951 (Simulation time: 0 hr 7 min 20 sec) 
Heartbeat CPU 0 instructions: 86000002 cycles: 424352844 heartbeat IPC: 0.238096 cumulative IPC: 0.233017 (Simulation time: 0 hr 7 min 25 sec) 
Heartbeat CPU 0 instructions: 87000000 cycles: 428550984 heartbeat IPC: 0.2382 cumulative IPC: 0.233083 (Simulation time: 0 hr 7 min 30 sec) 
Heartbeat CPU 0 instructions: 88000000 cycles: 432681813 heartbeat IPC: 0.242082 cumulative IPC: 0.233194 (Simulation time: 0 hr 7 min 34 sec) 
Heartbeat CPU 0 instructions: 89000003 cycles: 436869966 heartbeat IPC: 0.238769 cumulative IPC: 0.233263 (Simulation time: 0 hr 7 min 39 sec) 
Heartbeat CPU 0 instructions: 90000001 cycles: 441004191 heartbeat IPC: 0.241883 cumulative IPC: 0.233367 (Simulation time: 0 hr 7 min 44 sec) 
Heartbeat CPU 0 instructions: 91000000 cycles: 445211008 heartbeat IPC: 0.237709 cumulative IPC: 0.23342 (Simulation time: 0 hr 7 min 49 sec) 
Heartbeat CPU 0 instructions: 92000002 cycles: 449454023 heartbeat IPC: 0.235682 cumulative IPC: 0.233447 (Simulation time: 0 hr 7 min 54 sec) 
Heartbeat CPU 0 instructions: 93000002 cycles: 453632296 heartbeat IPC: 0.239333 cumulative IPC: 0.233516 (Simulation time: 0 hr 7 min 58 sec) 
Heartbeat CPU 0 instructions: 94000001 cycles: 457839261 heartbeat IPC: 0.237701 cumulative IPC: 0.233565 (Simulation time: 0 hr 8 min 3 sec) 
Heartbeat CPU 0 instructions: 95000002 cycles: 462078133 heartbeat IPC: 0.235912 cumulative IPC: 0.233592 (Simulation time: 0 hr 8 min 8 sec) 
Heartbeat CPU 0 instructions: 96000001 cycles: 466294166 heartbeat IPC: 0.23719 cumulative IPC: 0.233634 (Simulation time: 0 hr 8 min 12 sec) 
Heartbeat CPU 0 instructions: 97000001 cycles: 470451912 heartbeat IPC: 0.240515 cumulative IPC: 0.23371 (Simulation time: 0 hr 8 min 17 sec) 
Heartbeat CPU 0 instructions: 98000003 cycles: 474553765 heartbeat IPC: 0.243793 cumulative IPC: 0.23382 (Simulation time: 0 hr 8 min 22 sec) 
Heartbeat CPU 0 instructions: 99000000 cycles: 478686602 heartbeat IPC: 0.241964 cumulative IPC: 0.233909 (Simulation time: 0 hr 8 min 26 sec) 
Heartbeat CPU 0 instructions: 100000001 cycles: 482822215 heartbeat IPC: 0.241802 cumulative IPC: 0.233994 (Simulation time: 0 hr 8 min 31 sec) 
Heartbeat CPU 0 instructions: 101000001 cycles: 486937708 heartbeat IPC: 0.242984 cumulative IPC: 0.234089 (Simulation time: 0 hr 8 min 36 sec) 
Heartbeat CPU 0 instructions: 102000002 cycles: 491032884 heartbeat IPC: 0.24419 cumulative IPC: 0.234194 (Simulation time: 0 hr 8 min 40 sec) 
Heartbeat CPU 0 instructions: 103000001 cycles: 495300182 heartbeat IPC: 0.23434 cumulative IPC: 0.234196 (Simulation time: 0 hr 8 min 45 sec) 
Heartbeat CPU 0 instructions: 104000000 cycles: 499558438 heartbeat IPC: 0.234838 cumulative IPC: 0.234203 (Simulation time: 0 hr 8 min 50 sec) 
Heartbeat CPU 0 instructions: 105000003 cycles: 503693865 heartbeat IPC: 0.241814 cumulative IPC: 0.23428 (Simulation time: 0 hr 8 min 54 sec) 
Heartbeat CPU 0 instructions: 106000000 cycles: 507810997 heartbeat IPC: 0.242887 cumulative IPC: 0.234367 (Simulation time: 0 hr 8 min 59 sec) 
Heartbeat CPU 0 instructions: 107000000 cycles: 511993572 heartbeat IPC: 0.239087 cumulative IPC: 0.234414 (Simulation time: 0 hr 9 min 4 sec) 
Heartbeat CPU 0 instructions: 108000001 cycles: 516112627 heartbeat IPC: 0.242774 cumulative IPC: 0.234497 (Simulation time: 0 hr 9 min 8 sec) 
Heartbeat CPU 0 instructions: 109000002 cycles: 520244514 heartbeat IPC: 0.24202 cumulative IPC: 0.23457 (Simulation time: 0 hr 9 min 13 sec) 
Heartbeat CPU 0 instructions: 110000000 cycles: 524366428 heartbeat IPC: 0.242605 cumulative IPC: 0.234648 (Simulation time: 0 hr 9 min 18 sec) 
Heartbeat CPU 0 instructions: 111000001 cycles: 528526761 heartbeat IPC: 0.240366 cumulative IPC: 0.234703 (Simulation time: 0 hr 9 min 22 sec) 
Heartbeat CPU 0 instructions: 112000000 cycles: 532720084 heartbeat IPC: 0.238474 cumulative IPC: 0.23474 (Simulation time: 0 hr 9 min 27 sec) 
Heartbeat CPU 0 instructions: 113000000 cycles: 536980851 heartbeat IPC: 0.2347 cumulative IPC: 0.234739 (Simulation time: 0 hr 9 min 32 sec) 
Heartbeat CPU 0 instructions: 114000000 cycles: 541141375 heartbeat IPC: 0.240354 cumulative IPC: 0.234792 (Simulation time: 0 hr 9 min 36 sec) 
Heartbeat CPU 0 instructions: 115000000 cycles: 544685527 heartbeat IPC: 0.282155 cumulative IPC: 0.235168 (Simulation time: 0 hr 9 min 41 sec) 
Heartbeat CPU 0 instructions: 116000000 cycles: 548840693 heartbeat IPC: 0.240664 cumulative IPC: 0.235219 (Simulation time: 0 hr 9 min 46 sec) 
Heartbeat CPU 0 instructions: 117000001 cycles: 553013366 heartbeat IPC: 0.239655 cumulative IPC: 0.235259 (Simulation time: 0 hr 9 min 50 sec) 
Heartbeat CPU 0 instructions: 118000000 cycles: 557239694 heartbeat IPC: 0.236612 cumulative IPC: 0.235272 (Simulation time: 0 hr 9 min 55 sec) 
Heartbeat CPU 0 instructions: 119000001 cycles: 561420200 heartbeat IPC: 0.239206 cumulative IPC: 0.235307 (Simulation time: 0 hr 10 min 0 sec) 
Heartbeat CPU 0 instructions: 120000000 cycles: 565571874 heartbeat IPC: 0.240866 cumulative IPC: 0.235357 (Simulation time: 0 hr 10 min 4 sec) 
Heartbeat CPU 0 instructions: 121000000 cycles: 569710856 heartbeat IPC: 0.241605 cumulative IPC: 0.235412 (Simulation time: 0 hr 10 min 9 sec) 
Heartbeat CPU 0 instructions: 122000000 cycles: 573904009 heartbeat IPC: 0.238484 cumulative IPC: 0.235439 (Simulation time: 0 hr 10 min 14 sec) 
Heartbeat CPU 0 instructions: 123000001 cycles: 578114833 heartbeat IPC: 0.237483 cumulative IPC: 0.235457 (Simulation time: 0 hr 10 min 18 sec) 
Heartbeat CPU 0 instructions: 124000001 cycles: 582317623 heartbeat IPC: 0.237937 cumulative IPC: 0.235478 (Simulation time: 0 hr 10 min 23 sec) 
Heartbeat CPU 0 instructions: 125000001 cycles: 586489542 heartbeat IPC: 0.239698 cumulative IPC: 0.235514 (Simulation time: 0 hr 10 min 28 sec) 
Heartbeat CPU 0 instructions: 126000003 cycles: 590697459 heartbeat IPC: 0.237648 cumulative IPC: 0.235532 (Simulation time: 0 hr 10 min 32 sec) 
Heartbeat CPU 0 instructions: 127000001 cycles: 594859150 heartbeat IPC: 0.240286 cumulative IPC: 0.235572 (Simulation time: 0 hr 10 min 37 sec) 
Heartbeat CPU 0 instructions: 128000001 cycles: 599061654 heartbeat IPC: 0.237953 cumulative IPC: 0.235592 (Simulation time: 0 hr 10 min 42 sec) 
Heartbeat CPU 0 instructions: 129000000 cycles: 603367059 heartbeat IPC: 0.232266 cumulative IPC: 0.235564 (Simulation time: 0 hr 10 min 47 sec) 
Heartbeat CPU 0 instructions: 130000001 cycles: 607568370 heartbeat IPC: 0.238021 cumulative IPC: 0.235584 (Simulation time: 0 hr 10 min 51 sec) 
Heartbeat CPU 0 instructions: 131000000 cycles: 611814772 heartbeat IPC: 0.235493 cumulative IPC: 0.235583 (Simulation time: 0 hr 10 min 56 sec) 
Heartbeat CPU 0 instructions: 132000000 cycles: 616030539 heartbeat IPC: 0.237205 cumulative IPC: 0.235597 (Simulation time: 0 hr 11 min 1 sec) 
Heartbeat CPU 0 instructions: 133000001 cycles: 620260933 heartbeat IPC: 0.236385 cumulative IPC: 0.235603 (Simulation time: 0 hr 11 min 5 sec) 
Heartbeat CPU 0 instructions: 134000001 cycles: 624321502 heartbeat IPC: 0.246271 cumulative IPC: 0.235685 (Simulation time: 0 hr 11 min 10 sec) 
Heartbeat CPU 0 instructions: 135000000 cycles: 628423884 heartbeat IPC: 0.243761 cumulative IPC: 0.235748 (Simulation time: 0 hr 11 min 15 sec) 
Heartbeat CPU 0 instructions: 136000000 cycles: 632594707 heartbeat IPC: 0.239761 cumulative IPC: 0.235779 (Simulation time: 0 hr 11 min 19 sec) 
Heartbeat CPU 0 instructions: 137000002 cycles: 636660662 heartbeat IPC: 0.245945 cumulative IPC: 0.235856 (Simulation time: 0 hr 11 min 24 sec) 
Heartbeat CPU 0 instructions: 138000000 cycles: 640869780 heartbeat IPC: 0.237579 cumulative IPC: 0.235869 (Simulation time: 0 hr 11 min 29 sec) 
Heartbeat CPU 0 instructions: 139000001 cycles: 644991400 heartbeat IPC: 0.242623 cumulative IPC: 0.23592 (Simulation time: 0 hr 11 min 33 sec) 
Heartbeat CPU 0 instructions: 140000000 cycles: 649241648 heartbeat IPC: 0.23528 cumulative IPC: 0.235915 (Simulation time: 0 hr 11 min 38 sec) 
Heartbeat CPU 0 instructions: 141000001 cycles: 653421544 heartbeat IPC: 0.239241 cumulative IPC: 0.23594 (Simulation time: 0 hr 11 min 43 sec) 
Heartbeat CPU 0 instructions: 142000000 cycles: 657606367 heartbeat IPC: 0.238958 cumulative IPC: 0.235963 (Simulation time: 0 hr 11 min 47 sec) 
Heartbeat CPU 0 instructions: 143000000 cycles: 661769337 heartbeat IPC: 0.240213 cumulative IPC: 0.235994 (Simulation time: 0 hr 11 min 52 sec) 
Heartbeat CPU 0 instructions: 144000003 cycles: 665939665 heartbeat IPC: 0.23979 cumulative IPC: 0.236022 (Simulation time: 0 hr 11 min 57 sec) 
Heartbeat CPU 0 instructions: 145000001 cycles: 670114071 heartbeat IPC: 0.239555 cumulative IPC: 0.236048 (Simulation time: 0 hr 12 min 1 sec) 
Heartbeat CPU 0 instructions: 146000000 cycles: 674260438 heartbeat IPC: 0.241175 cumulative IPC: 0.236085 (Simulation time: 0 hr 12 min 6 sec) 
Heartbeat CPU 0 instructions: 147000000 cycles: 678399857 heartbeat IPC: 0.24158 cumulative IPC: 0.236124 (Simulation time: 0 hr 12 min 11 sec) 
Heartbeat CPU 0 instructions: 148000000 cycles: 682579686 heartbeat IPC: 0.239244 cumulative IPC: 0.236146 (Simulation time: 0 hr 12 min 15 sec) 
Heartbeat CPU 0 instructions: 149000000 cycles: 686856005 heartbeat IPC: 0.233846 cumulative IPC: 0.23613 (Simulation time: 0 hr 12 min 20 sec) 
Heartbeat CPU 0 instructions: 150000001 cycles: 691119767 heartbeat IPC: 0.234535 cumulative IPC: 0.236118 (Simulation time: 0 hr 12 min 25 sec) 
Heartbeat CPU 0 instructions: 151000000 cycles: 695322732 heartbeat IPC: 0.237927 cumulative IPC: 0.236131 (Simulation time: 0 hr 12 min 29 sec) 
Heartbeat CPU 0 instructions: 152000001 cycles: 699266371 heartbeat IPC: 0.253573 cumulative IPC: 0.236245 (Simulation time: 0 hr 12 min 34 sec) 
Heartbeat CPU 0 instructions: 153000002 cycles: 703391740 heartbeat IPC: 0.242403 cumulative IPC: 0.236287 (Simulation time: 0 hr 12 min 38 sec) 
Heartbeat CPU 0 instructions: 154000000 cycles: 707575654 heartbeat IPC: 0.23901 cumulative IPC: 0.236306 (Simulation time: 0 hr 12 min 43 sec) 
Heartbeat CPU 0 instructions: 155000000 cycles: 711803799 heartbeat IPC: 0.23651 cumulative IPC: 0.236307 (Simulation time: 0 hr 12 min 48 sec) 
Heartbeat CPU 0 instructions: 156000000 cycles: 715976975 heartbeat IPC: 0.239626 cumulative IPC: 0.23633 (Simulation time: 0 hr 12 min 52 sec) 
Heartbeat CPU 0 instructions: 157000000 cycles: 720175473 heartbeat IPC: 0.23818 cumulative IPC: 0.236342 (Simulation time: 0 hr 12 min 57 sec) 
Heartbeat CPU 0 instructions: 158000001 cycles: 724370968 heartbeat IPC: 0.238351 cumulative IPC: 0.236356 (Simulation time: 0 hr 13 min 2 sec) 
Heartbeat CPU 0 instructions: 159000000 cycles: 728582696 heartbeat IPC: 0.237432 cumulative IPC: 0.236363 (Simulation time: 0 hr 13 min 6 sec) 
Heartbeat CPU 0 instructions: 160000002 cycles: 732810465 heartbeat IPC: 0.236532 cumulative IPC: 0.236364 (Simulation time: 0 hr 13 min 11 sec) 
Heartbeat CPU 0 instructions: 161000001 cycles: 736953343 heartbeat IPC: 0.241378 cumulative IPC: 0.236397 (Simulation time: 0 hr 13 min 16 sec) 
Heartbeat CPU 0 instructions: 162000000 cycles: 741130317 heartbeat IPC: 0.239408 cumulative IPC: 0.236416 (Simulation time: 0 hr 13 min 20 sec) 
Heartbeat CPU 0 instructions: 163000003 cycles: 745297119 heartbeat IPC: 0.239993 cumulative IPC: 0.236439 (Simulation time: 0 hr 13 min 25 sec) 
Heartbeat CPU 0 instructions: 164000001 cycles: 749501251 heartbeat IPC: 0.237861 cumulative IPC: 0.236448 (Simulation time: 0 hr 13 min 30 sec) 
Heartbeat CPU 0 instructions: 165000000 cycles: 753755650 heartbeat IPC: 0.235051 cumulative IPC: 0.236439 (Simulation time: 0 hr 13 min 34 sec) 
Heartbeat CPU 0 instructions: 166000000 cycles: 757917230 heartbeat IPC: 0.240293 cumulative IPC: 0.236464 (Simulation time: 0 hr 13 min 39 sec) 
Heartbeat CPU 0 instructions: 167000001 cycles: 762138435 heartbeat IPC: 0.236899 cumulative IPC: 0.236466 (Simulation time: 0 hr 13 min 44 sec) 
Heartbeat CPU 0 instructions: 168000001 cycles: 766347554 heartbeat IPC: 0.237579 cumulative IPC: 0.236473 (Simulation time: 0 hr 13 min 48 sec) 
Heartbeat CPU 0 instructions: 169000001 cycles: 770549288 heartbeat IPC: 0.237997 cumulative IPC: 0.236483 (Simulation time: 0 hr 13 min 53 sec) 
Heartbeat CPU 0 instructions: 170000001 cycles: 774730863 heartbeat IPC: 0.239144 cumulative IPC: 0.236499 (Simulation time: 0 hr 13 min 58 sec) 
Heartbeat CPU 0 instructions: 171000000 cycles: 778865225 heartbeat IPC: 0.241875 cumulative IPC: 0.236532 (Simulation time: 0 hr 14 min 2 sec) 
Heartbeat CPU 0 instructions: 172000002 cycles: 783003395 heartbeat IPC: 0.241653 cumulative IPC: 0.236563 (Simulation time: 0 hr 14 min 7 sec) 
Heartbeat CPU 0 instructions: 173000001 cycles: 787185145 heartbeat IPC: 0.239134 cumulative IPC: 0.236579 (Simulation time: 0 hr 14 min 12 sec) 
Heartbeat CPU 0 instructions: 174000003 cycles: 791284840 heartbeat IPC: 0.243921 cumulative IPC: 0.236622 (Simulation time: 0 hr 14 min 16 sec) 
Heartbeat CPU 0 instructions: 175000000 cycles: 795436112 heartbeat IPC: 0.240889 cumulative IPC: 0.236647 (Simulation time: 0 hr 14 min 21 sec) 
Heartbeat CPU 0 instructions: 176000000 cycles: 799638033 heartbeat IPC: 0.237986 cumulative IPC: 0.236655 (Simulation time: 0 hr 14 min 26 sec) 
Heartbeat CPU 0 instructions: 177000001 cycles: 803826445 heartbeat IPC: 0.238754 cumulative IPC: 0.236668 (Simulation time: 0 hr 14 min 30 sec) 
Heartbeat CPU 0 instructions: 178000000 cycles: 807982400 heartbeat IPC: 0.240618 cumulative IPC: 0.236691 (Simulation time: 0 hr 14 min 35 sec) 
Heartbeat CPU 0 instructions: 179000001 cycles: 812128428 heartbeat IPC: 0.241195 cumulative IPC: 0.236717 (Simulation time: 0 hr 14 min 40 sec) 
Heartbeat CPU 0 instructions: 180000000 cycles: 816254756 heartbeat IPC: 0.242346 cumulative IPC: 0.23675 (Simulation time: 0 hr 14 min 44 sec) 
Heartbeat CPU 0 instructions: 181000002 cycles: 820387635 heartbeat IPC: 0.241963 cumulative IPC: 0.236779 (Simulation time: 0 hr 14 min 49 sec) 
Heartbeat CPU 0 instructions: 182000000 cycles: 824528533 heartbeat IPC: 0.241493 cumulative IPC: 0.236806 (Simulation time: 0 hr 14 min 54 sec) 
Heartbeat CPU 0 instructions: 183000000 cycles: 828684978 heartbeat IPC: 0.24059 cumulative IPC: 0.236828 (Simulation time: 0 hr 14 min 58 sec) 
Heartbeat CPU 0 instructions: 184000000 cycles: 832836400 heartbeat IPC: 0.240881 cumulative IPC: 0.236851 (Simulation time: 0 hr 15 min 3 sec) 
Heartbeat CPU 0 instructions: 185000000 cycles: 837038118 heartbeat IPC: 0.237998 cumulative IPC: 0.236857 (Simulation time: 0 hr 15 min 8 sec) 
Heartbeat CPU 0 instructions: 186000002 cycles: 841197640 heartbeat IPC: 0.240413 cumulative IPC: 0.236877 (Simulation time: 0 hr 15 min 12 sec) 
Heartbeat CPU 0 instructions: 187000000 cycles: 845389061 heartbeat IPC: 0.238582 cumulative IPC: 0.236887 (Simulation time: 0 hr 15 min 17 sec) 
Heartbeat CPU 0 instructions: 188000000 cycles: 848876643 heartbeat IPC: 0.286732 cumulative IPC: 0.237118 (Simulation time: 0 hr 15 min 21 sec) 
Heartbeat CPU 0 instructions: 189000000 cycles: 853112526 heartbeat IPC: 0.236078 cumulative IPC: 0.237112 (Simulation time: 0 hr 15 min 26 sec) 
Heartbeat CPU 0 instructions: 190000002 cycles: 857316927 heartbeat IPC: 0.237846 cumulative IPC: 0.237117 (Simulation time: 0 hr 15 min 31 sec) 
Heartbeat CPU 0 instructions: 191000000 cycles: 861524089 heartbeat IPC: 0.237689 cumulative IPC: 0.23712 (Simulation time: 0 hr 15 min 35 sec) 
Heartbeat CPU 0 instructions: 192000001 cycles: 865682866 heartbeat IPC: 0.240456 cumulative IPC: 0.237138 (Simulation time: 0 hr 15 min 40 sec) 
Heartbeat CPU 0 instructions: 193000001 cycles: 869915853 heartbeat IPC: 0.23624 cumulative IPC: 0.237133 (Simulation time: 0 hr 15 min 45 sec) 
Heartbeat CPU 0 instructions: 194000003 cycles: 874085780 heartbeat IPC: 0.239813 cumulative IPC: 0.237147 (Simulation time: 0 hr 15 min 49 sec) 
Heartbeat CPU 0 instructions: 195000001 cycles: 878291990 heartbeat IPC: 0.237743 cumulative IPC: 0.23715 (Simulation time: 0 hr 15 min 54 sec) 
Heartbeat CPU 0 instructions: 196000000 cycles: 882515295 heartbeat IPC: 0.236781 cumulative IPC: 0.237148 (Simulation time: 0 hr 15 min 59 sec) 
Heartbeat CPU 0 instructions: 197000000 cycles: 886693373 heartbeat IPC: 0.239345 cumulative IPC: 0.23716 (Simulation time: 0 hr 16 min 3 sec) 
Heartbeat CPU 0 instructions: 198000000 cycles: 890885640 heartbeat IPC: 0.238534 cumulative IPC: 0.237167 (Simulation time: 0 hr 16 min 8 sec) 
Heartbeat CPU 0 instructions: 199000000 cycles: 895056049 heartbeat IPC: 0.239785 cumulative IPC: 0.237181 (Simulation time: 0 hr 16 min 13 sec) 
Heartbeat CPU 0 instructions: 200000000 cycles: 899156011 heartbeat IPC: 0.243905 cumulative IPC: 0.237215 (Simulation time: 0 hr 16 min 17 sec) 
Heartbeat CPU 0 instructions: 201000000 cycles: 903413887 heartbeat IPC: 0.234859 cumulative IPC: 0.237203 (Simulation time: 0 hr 16 min 22 sec) 
Heartbeat CPU 0 instructions: 202000000 cycles: 907619233 heartbeat IPC: 0.237793 cumulative IPC: 0.237206 (Simulation time: 0 hr 16 min 27 sec) 
Heartbeat CPU 0 instructions: 203000000 cycles: 911774468 heartbeat IPC: 0.24066 cumulative IPC: 0.237224 (Simulation time: 0 hr 16 min 31 sec) 
Heartbeat CPU 0 instructions: 204000003 cycles: 915981219 heartbeat IPC: 0.237714 cumulative IPC: 0.237226 (Simulation time: 0 hr 16 min 36 sec) 
Heartbeat CPU 0 instructions: 205000000 cycles: 920206013 heartbeat IPC: 0.236697 cumulative IPC: 0.237224 (Simulation time: 0 hr 16 min 41 sec) 
Heartbeat CPU 0 instructions: 206000000 cycles: 924393117 heartbeat IPC: 0.238829 cumulative IPC: 0.237232 (Simulation time: 0 hr 16 min 45 sec) 
Heartbeat CPU 0 instructions: 207000000 cycles: 928523751 heartbeat IPC: 0.242094 cumulative IPC: 0.237256 (Simulation time: 0 hr 16 min 50 sec) 
Heartbeat CPU 0 instructions: 208000000 cycles: 932650940 heartbeat IPC: 0.242296 cumulative IPC: 0.237281 (Simulation time: 0 hr 16 min 55 sec) 
Heartbeat CPU 0 instructions: 209000000 cycles: 936818693 heartbeat IPC: 0.239937 cumulative IPC: 0.237294 (Simulation time: 0 hr 16 min 59 sec) 
Heartbeat CPU 0 instructions: 210000003 cycles: 940912194 heartbeat IPC: 0.24429 cumulative IPC: 0.237328 (Simulation time: 0 hr 17 min 4 sec) 
Heartbeat CPU 0 instructions: 211000001 cycles: 945116785 heartbeat IPC: 0.237835 cumulative IPC: 0.23733 (Simulation time: 0 hr 17 min 9 sec) 
Heartbeat CPU 0 instructions: 212000000 cycles: 949236300 heartbeat IPC: 0.242747 cumulative IPC: 0.237357 (Simulation time: 0 hr 17 min 13 sec) 
Heartbeat CPU 0 instructions: 213000003 cycles: 953475042 heartbeat IPC: 0.23592 cumulative IPC: 0.23735 (Simulation time: 0 hr 17 min 18 sec) 
Heartbeat CPU 0 instructions: 214000001 cycles: 957630648 heartbeat IPC: 0.240638 cumulative IPC: 0.237365 (Simulation time: 0 hr 17 min 23 sec) 
Heartbeat CPU 0 instructions: 215000001 cycles: 961841147 heartbeat IPC: 0.237502 cumulative IPC: 0.237366 (Simulation time: 0 hr 17 min 27 sec) 
Heartbeat CPU 0 instructions: 216000000 cycles: 965967476 heartbeat IPC: 0.242346 cumulative IPC: 0.23739 (Simulation time: 0 hr 17 min 32 sec) 
Heartbeat CPU 0 instructions: 217000001 cycles: 970117019 heartbeat IPC: 0.240991 cumulative IPC: 0.237407 (Simulation time: 0 hr 17 min 37 sec) 
Heartbeat CPU 0 instructions: 218000002 cycles: 974241224 heartbeat IPC: 0.242471 cumulative IPC: 0.237431 (Simulation time: 0 hr 17 min 41 sec) 
Heartbeat CPU 0 instructions: 219000001 cycles: 978343790 heartbeat IPC: 0.24375 cumulative IPC: 0.23746 (Simulation time: 0 hr 17 min 46 sec) 
Heartbeat CPU 0 instructions: 220000000 cycles: 982462092 heartbeat IPC: 0.242818 cumulative IPC: 0.237485 (Simulation time: 0 hr 17 min 51 sec) 
Heartbeat CPU 0 instructions: 221000000 cycles: 986640946 heartbeat IPC: 0.2393 cumulative IPC: 0.237494 (Simulation time: 0 hr 17 min 55 sec) 
Heartbeat CPU 0 instructions: 222000000 cycles: 990830187 heartbeat IPC: 0.238707 cumulative IPC: 0.237499 (Simulation time: 0 hr 18 min 0 sec) 
Heartbeat CPU 0 instructions: 223000000 cycles: 995049139 heartbeat IPC: 0.237026 cumulative IPC: 0.237497 (Simulation time: 0 hr 18 min 5 sec) 
Heartbeat CPU 0 instructions: 224000000 cycles: 999252132 heartbeat IPC: 0.237926 cumulative IPC: 0.237499 (Simulation time: 0 hr 18 min 10 sec) 
Heartbeat CPU 0 instructions: 225000000 cycles: 1003182639 heartbeat IPC: 0.25442 cumulative IPC: 0.237573 (Simulation time: 0 hr 18 min 14 sec) 
Heartbeat CPU 0 instructions: 226000000 cycles: 1007400264 heartbeat IPC: 0.2371 cumulative IPC: 0.23757 (Simulation time: 0 hr 18 min 19 sec) 
Heartbeat CPU 0 instructions: 227000003 cycles: 1011584816 heartbeat IPC: 0.238975 cumulative IPC: 0.237577 (Simulation time: 0 hr 18 min 23 sec) 
Heartbeat CPU 0 instructions: 228000002 cycles: 1015810296 heartbeat IPC: 0.236659 cumulative IPC: 0.237573 (Simulation time: 0 hr 18 min 28 sec) 
Heartbeat CPU 0 instructions: 229000001 cycles: 1020011784 heartbeat IPC: 0.238011 cumulative IPC: 0.237575 (Simulation time: 0 hr 18 min 33 sec) 
Heartbeat CPU 0 instructions: 230000001 cycles: 1024249279 heartbeat IPC: 0.235988 cumulative IPC: 0.237567 (Simulation time: 0 hr 18 min 37 sec) 
Heartbeat CPU 0 instructions: 231000000 cycles: 1028416278 heartbeat IPC: 0.239981 cumulative IPC: 0.237578 (Simulation time: 0 hr 18 min 42 sec) 
Heartbeat CPU 0 instructions: 232000000 cycles: 1032576547 heartbeat IPC: 0.240369 cumulative IPC: 0.237591 (Simulation time: 0 hr 18 min 47 sec) 
Heartbeat CPU 0 instructions: 233000003 cycles: 1036764653 heartbeat IPC: 0.238772 cumulative IPC: 0.237596 (Simulation time: 0 hr 18 min 51 sec) 
Heartbeat CPU 0 instructions: 234000001 cycles: 1040960101 heartbeat IPC: 0.238353 cumulative IPC: 0.237599 (Simulation time: 0 hr 18 min 56 sec) 
Heartbeat CPU 0 instructions: 235000001 cycles: 1045167044 heartbeat IPC: 0.237702 cumulative IPC: 0.2376 (Simulation time: 0 hr 19 min 1 sec) 
Heartbeat CPU 0 instructions: 236000001 cycles: 1049304347 heartbeat IPC: 0.241703 cumulative IPC: 0.237618 (Simulation time: 0 hr 19 min 5 sec) 
Heartbeat CPU 0 instructions: 237000002 cycles: 1053534941 heartbeat IPC: 0.236374 cumulative IPC: 0.237612 (Simulation time: 0 hr 19 min 10 sec) 
Heartbeat CPU 0 instructions: 238000001 cycles: 1057761204 heartbeat IPC: 0.236615 cumulative IPC: 0.237608 (Simulation time: 0 hr 19 min 15 sec) 
Heartbeat CPU 0 instructions: 239000000 cycles: 1061983035 heartbeat IPC: 0.236864 cumulative IPC: 0.237604 (Simulation time: 0 hr 19 min 20 sec) 
Heartbeat CPU 0 instructions: 240000001 cycles: 1066219216 heartbeat IPC: 0.236062 cumulative IPC: 0.237598 (Simulation time: 0 hr 19 min 25 sec) 
Heartbeat CPU 0 instructions: 241000000 cycles: 1070453564 heartbeat IPC: 0.236164 cumulative IPC: 0.237591 (Simulation time: 0 hr 19 min 30 sec) 
Heartbeat CPU 0 instructions: 242000000 cycles: 1074667276 heartbeat IPC: 0.23732 cumulative IPC: 0.23759 (Simulation time: 0 hr 19 min 35 sec) 
Heartbeat CPU 0 instructions: 243000000 cycles: 1078872899 heartbeat IPC: 0.237777 cumulative IPC: 0.237591 (Simulation time: 0 hr 19 min 40 sec) 
Heartbeat CPU 0 instructions: 244000003 cycles: 1082942345 heartbeat IPC: 0.245734 cumulative IPC: 0.237625 (Simulation time: 0 hr 19 min 45 sec) 
Heartbeat CPU 0 instructions: 245000000 cycles: 1087049372 heartbeat IPC: 0.243484 cumulative IPC: 0.237649 (Simulation time: 0 hr 19 min 50 sec) 
Heartbeat CPU 0 instructions: 246000001 cycles: 1091154659 heartbeat IPC: 0.243589 cumulative IPC: 0.237674 (Simulation time: 0 hr 19 min 55 sec) 
Heartbeat CPU 0 instructions: 247000001 cycles: 1095239435 heartbeat IPC: 0.244811 cumulative IPC: 0.237703 (Simulation time: 0 hr 20 min 0 sec) 
Heartbeat CPU 0 instructions: 248000001 cycles: 1099344242 heartbeat IPC: 0.243617 cumulative IPC: 0.237727 (Simulation time: 0 hr 20 min 5 sec) 
Heartbeat CPU 0 instructions: 249000001 cycles: 1103533593 heartbeat IPC: 0.2387 cumulative IPC: 0.237731 (Simulation time: 0 hr 20 min 9 sec) 
Heartbeat CPU 0 instructions: 250000000 cycles: 1107723417 heartbeat IPC: 0.238673 cumulative IPC: 0.237735 (Simulation time: 0 hr 20 min 14 sec) 
Heartbeat CPU 0 instructions: 251000002 cycles: 1111881793 heartbeat IPC: 0.240479 cumulative IPC: 0.237746 (Simulation time: 0 hr 20 min 19 sec) 
Heartbeat CPU 0 instructions: 252000003 cycles: 1116049119 heartbeat IPC: 0.239962 cumulative IPC: 0.237755 (Simulation time: 0 hr 20 min 25 sec) 
Heartbeat CPU 0 instructions: 253000000 cycles: 1120147341 heartbeat IPC: 0.244008 cumulative IPC: 0.23778 (Simulation time: 0 hr 20 min 29 sec) 
Heartbeat CPU 0 instructions: 254000000 cycles: 1124289918 heartbeat IPC: 0.241396 cumulative IPC: 0.237795 (Simulation time: 0 hr 20 min 34 sec) 
Heartbeat CPU 0 instructions: 255000002 cycles: 1128368650 heartbeat IPC: 0.245175 cumulative IPC: 0.237824 (Simulation time: 0 hr 20 min 39 sec) 
Heartbeat CPU 0 instructions: 256000000 cycles: 1132468788 heartbeat IPC: 0.243894 cumulative IPC: 0.237848 (Simulation time: 0 hr 20 min 44 sec) 
Heartbeat CPU 0 instructions: 257000000 cycles: 1136660653 heartbeat IPC: 0.238557 cumulative IPC: 0.237851 (Simulation time: 0 hr 20 min 49 sec) 
Heartbeat CPU 0 instructions: 258000002 cycles: 1140869533 heartbeat IPC: 0.237593 cumulative IPC: 0.23785 (Simulation time: 0 hr 20 min 54 sec) 
Heartbeat CPU 0 instructions: 259000003 cycles: 1145077939 heartbeat IPC: 0.23762 cumulative IPC: 0.237849 (Simulation time: 0 hr 20 min 59 sec) 
Heartbeat CPU 0 instructions: 260000000 cycles: 1149251877 heartbeat IPC: 0.239581 cumulative IPC: 0.237856 (Simulation time: 0 hr 21 min 4 sec) 
Finished CPU 0 instructions: 250000000 cycles: 1051055527 cumulative IPC: 0.237856 (Simulation time: 0 hr 21 min 4 sec) 

ChampSim completed all CPUs

Region of Interest Statistics

CPU 0 cumulative IPC: 0.237856 instructions: 250000000 cycles: 1051055527
L1D TOTAL     ACCESS:   38782716  HIT:   21276102  MISS:   17506614
L1D LOAD      ACCESS:   35455452  HIT:   17955709  MISS:   17499743
L1D RFO       ACCESS:    3327264  HIT:    3320393  MISS:       6871
L1D PREFETCH  ACCESS:          0  HIT:          0  MISS:          0
L1D WRITEBACK ACCESS:          0  HIT:          0  MISS:          0
L1D PREFETCH  REQUESTED:          0  ISSUED:          0  USEFUL:          0  USELESS:          0
L1D AVERAGE MISS LATENCY: 50.4541 cycles
L1I TOTAL     ACCESS:   58201753  HIT:   58201728  MISS:         25
L1I LOAD      ACCESS:   58201753  HIT:   58201728  MISS:         25
L1I RFO       ACCESS:          0  HIT:          0  MISS:          0
L1I PREFETCH  ACCESS:          0  HIT:          0  MISS:          0
L1I WRITEBACK ACCESS:          0  HIT:          0  MISS:          0
L1I PREFETCH  REQUESTED:          0  ISSUED:          0  USEFUL:          0  USELESS:          0
L1I AVERAGE MISS LATENCY: 255.6 cycles
L2C TOTAL     ACCESS:   17534893  HIT:      37943  MISS:   17496950
L2C LOAD      ACCESS:   17499745  HIT:       9843  MISS:   17489902
L2C RFO       ACCESS:       6871  HIT:          2  MISS:       6869
L2C PREFETCH  ACCESS:          0  HIT:          0  MISS:          0
L2C WRITEBACK ACCESS:      28277  HIT:      28098  MISS:        179
L2C PREFETCH  REQUESTED:          0  ISSUED:          0  USEFUL:          0  USELESS:          0
L2C AVERAGE MISS LATENCY: 36.4205 cycles
LLC TOTAL     ACCESS:   31915541  HIT:   14163054  MISS:   17752487
LLC LOAD      ACCESS:   17489902  HIT:   14065943  MISS:    3423959
LLC RFO       ACCESS:       6869  HIT:       1234  MISS:       5635
LLC PREFETCH  ACCESS:   14390569  HIT:      67815  MISS:   14322754
LLC WRITEBACK ACCESS:      28201  HIT:      28062  MISS:        139
LLC PREFETCH  REQUESTED:   17489877  ISSUED:   17390724  USEFUL:   14064599  USELESS:     257636
LLC AVERAGE MISS LATENCY: 91.8403 cycles
Major fault: 0 Minor fault: 48244

DRAM Statistics
 CHANNEL 0
 RQ ROW_BUFFER_HIT:    8713604  ROW_BUFFER_MISS:     165053
 DBUS_CONGESTED:     354988
 WQ ROW_BUFFER_HIT:       8975  ROW_BUFFER_MISS:       4825  FULL:          0

 CHANNEL 1
 RQ ROW_BUFFER_HIT:    8708777  ROW_BUFFER_MISS:     164913
 DBUS_CONGESTED:     354988
 WQ ROW_BUFFER_HIT:       8835  ROW_BUFFER_MISS:       5524  FULL:          0

 AVG_CONGESTED_CYCLE: 8

CPU 0 Branch Prediction Accuracy: 99.7029% MPKI: 1.05897 Average ROB Occupancy at Mispredict: 267.181

Branch types
NOT_BRANCH: 160879255 64.3517%
BRANCH_DIRECT_JUMP: 854073 0.341629%
BRANCH_INDIRECT: 0 0%
BRANCH_CONDITIONAL: 87423430 34.9694%
BRANCH_DIRECT_CALL: 421777 0.168711%
BRANCH_INDIRECT_CALL: 0 0%
BRANCH_RETURN: 421777 0.168711%
BRANCH_OTHER: 0 0%

