
*** ChampSim Multicore Out-of-Order Simulator ***

Warmup Instructions: 1000000
Prefetch Warmup Instructions: 10000000
Simulation Instructions: 250000000
Stat Printing Period: 1000000
Number of CPUs: 1
LLC sets: 2048
LLC ways: 16
Off-chip DRAM Size: 32768 MB Channels: 2 Width: 64-bit Data Rate: 1024 MT/s

CPU 0 runs /scratch/cluster/cmolder/ML-DPC/ChampSimTraces/spec17/602.gcc-s1.trace.xz
Read seed: 270
Heartbeat CPU 0 instructions: 1000000 cycles: 486568 heartbeat IPC: 2.05521 cumulative IPC: 2.05521 (Simulation time: 0 hr 0 min 3 sec) 

Warmup complete CPU 0 instructions: 1000004 cycles: 486569 (Simulation time: 0 hr 0 min 3 sec) 

Heartbeat CPU 0 instructions: 2000003 cycles: 11427874 heartbeat IPC: 0.091397 cumulative IPC: 0.0913967 (Simulation time: 0 hr 0 min 12 sec) 
Heartbeat CPU 0 instructions: 3000002 cycles: 22419354 heartbeat IPC: 0.0909795 cumulative IPC: 0.0911876 (Simulation time: 0 hr 0 min 21 sec) 
Heartbeat CPU 0 instructions: 4000000 cycles: 33413295 heartbeat IPC: 0.090959 cumulative IPC: 0.0911113 (Simulation time: 0 hr 0 min 29 sec) 
Heartbeat CPU 0 instructions: 5000002 cycles: 44345557 heartbeat IPC: 0.0914726 cumulative IPC: 0.0912013 (Simulation time: 0 hr 0 min 37 sec) 
Heartbeat CPU 0 instructions: 6000000 cycles: 54407931 heartbeat IPC: 0.0993799 cumulative IPC: 0.0927276 (Simulation time: 0 hr 0 min 45 sec) 
Heartbeat CPU 0 instructions: 7000001 cycles: 65334849 heartbeat IPC: 0.0915172 cumulative IPC: 0.0925236 (Simulation time: 0 hr 0 min 54 sec) 
Heartbeat CPU 0 instructions: 8000000 cycles: 76291326 heartbeat IPC: 0.0912701 cumulative IPC: 0.0923424 (Simulation time: 0 hr 1 min 2 sec) 
Heartbeat CPU 0 instructions: 9000000 cycles: 87245534 heartbeat IPC: 0.0912891 cumulative IPC: 0.0922094 (Simulation time: 0 hr 1 min 11 sec) 
Heartbeat CPU 0 instructions: 10000002 cycles: 98196399 heartbeat IPC: 0.0913172 cumulative IPC: 0.0921094 (Simulation time: 0 hr 1 min 19 sec) 

Warmup complete CPU 0 instructions: 10000002 cycles: 98196399 (Simulation time: 0 hr 1 min 19 sec) 

Heartbeat CPU 0 instructions: 11000000 cycles: 109203563 heartbeat IPC: 0.0908497 cumulative IPC: 0.0908497 (Simulation time: 0 hr 1 min 28 sec) 
Heartbeat CPU 0 instructions: 12000001 cycles: 120184928 heartbeat IPC: 0.0910635 cumulative IPC: 0.0909565 (Simulation time: 0 hr 1 min 37 sec) 
Heartbeat CPU 0 instructions: 13000002 cycles: 131136212 heartbeat IPC: 0.0913136 cumulative IPC: 0.0910752 (Simulation time: 0 hr 1 min 46 sec) 
Heartbeat CPU 0 instructions: 14000001 cycles: 142132611 heartbeat IPC: 0.0909388 cumulative IPC: 0.0910411 (Simulation time: 0 hr 1 min 55 sec) 
Heartbeat CPU 0 instructions: 15000000 cycles: 153078995 heartbeat IPC: 0.0913543 cumulative IPC: 0.0911035 (Simulation time: 0 hr 2 min 3 sec) 
Heartbeat CPU 0 instructions: 16000001 cycles: 164061355 heartbeat IPC: 0.0910552 cumulative IPC: 0.0910955 (Simulation time: 0 hr 2 min 12 sec) 
Heartbeat CPU 0 instructions: 17000001 cycles: 175041540 heartbeat IPC: 0.0910731 cumulative IPC: 0.0910923 (Simulation time: 0 hr 2 min 21 sec) 
Heartbeat CPU 0 instructions: 18000000 cycles: 186005945 heartbeat IPC: 0.0912041 cumulative IPC: 0.0911062 (Simulation time: 0 hr 2 min 29 sec) 
Heartbeat CPU 0 instructions: 19000001 cycles: 197043247 heartbeat IPC: 0.0906019 cumulative IPC: 0.0910499 (Simulation time: 0 hr 2 min 38 sec) 
Heartbeat CPU 0 instructions: 20000000 cycles: 208000233 heartbeat IPC: 0.0912659 cumulative IPC: 0.0910715 (Simulation time: 0 hr 2 min 47 sec) 
Heartbeat CPU 0 instructions: 21000002 cycles: 218942613 heartbeat IPC: 0.091388 cumulative IPC: 0.0911002 (Simulation time: 0 hr 2 min 56 sec) 
Heartbeat CPU 0 instructions: 22000000 cycles: 229950206 heartbeat IPC: 0.0908462 cumulative IPC: 0.0910789 (Simulation time: 0 hr 3 min 5 sec) 
Heartbeat CPU 0 instructions: 23000001 cycles: 240913387 heartbeat IPC: 0.0912145 cumulative IPC: 0.0910894 (Simulation time: 0 hr 3 min 14 sec) 
Heartbeat CPU 0 instructions: 24000003 cycles: 251873370 heartbeat IPC: 0.0912412 cumulative IPC: 0.0911002 (Simulation time: 0 hr 3 min 23 sec) 
Heartbeat CPU 0 instructions: 25000000 cycles: 262802297 heartbeat IPC: 0.0915 cumulative IPC: 0.0911267 (Simulation time: 0 hr 3 min 32 sec) 
Heartbeat CPU 0 instructions: 26000000 cycles: 273771977 heartbeat IPC: 0.0911604 cumulative IPC: 0.0911288 (Simulation time: 0 hr 3 min 41 sec) 
Heartbeat CPU 0 instructions: 27000000 cycles: 284720994 heartbeat IPC: 0.0913324 cumulative IPC: 0.0911408 (Simulation time: 0 hr 3 min 50 sec) 
Heartbeat CPU 0 instructions: 28000000 cycles: 295660066 heartbeat IPC: 0.0914154 cumulative IPC: 0.091156 (Simulation time: 0 hr 3 min 59 sec) 
Heartbeat CPU 0 instructions: 29000000 cycles: 306607794 heartbeat IPC: 0.0913432 cumulative IPC: 0.0911658 (Simulation time: 0 hr 4 min 8 sec) 
Heartbeat CPU 0 instructions: 30000001 cycles: 317584959 heartbeat IPC: 0.0910983 cumulative IPC: 0.0911625 (Simulation time: 0 hr 4 min 17 sec) 
Heartbeat CPU 0 instructions: 31000001 cycles: 328576517 heartbeat IPC: 0.0909789 cumulative IPC: 0.0911537 (Simulation time: 0 hr 4 min 26 sec) 
Heartbeat CPU 0 instructions: 32000001 cycles: 339535505 heartbeat IPC: 0.0912493 cumulative IPC: 0.091158 (Simulation time: 0 hr 4 min 34 sec) 
Heartbeat CPU 0 instructions: 33000000 cycles: 350493580 heartbeat IPC: 0.0912568 cumulative IPC: 0.0911623 (Simulation time: 0 hr 4 min 43 sec) 
Heartbeat CPU 0 instructions: 34000003 cycles: 361426677 heartbeat IPC: 0.0914657 cumulative IPC: 0.0911749 (Simulation time: 0 hr 4 min 52 sec) 
Heartbeat CPU 0 instructions: 35000000 cycles: 372428509 heartbeat IPC: 0.0908937 cumulative IPC: 0.0911636 (Simulation time: 0 hr 5 min 1 sec) 
Heartbeat CPU 0 instructions: 36000003 cycles: 383412608 heartbeat IPC: 0.091041 cumulative IPC: 0.0911589 (Simulation time: 0 hr 5 min 10 sec) 
Heartbeat CPU 0 instructions: 37000003 cycles: 391735788 heartbeat IPC: 0.120146 cumulative IPC: 0.0919808 (Simulation time: 0 hr 5 min 17 sec) 
Heartbeat CPU 0 instructions: 38000000 cycles: 398008342 heartbeat IPC: 0.159424 cumulative IPC: 0.0933919 (Simulation time: 0 hr 5 min 23 sec) 
Heartbeat CPU 0 instructions: 39000000 cycles: 404290526 heartbeat IPC: 0.15918 cumulative IPC: 0.0947421 (Simulation time: 0 hr 5 min 29 sec) 
Heartbeat CPU 0 instructions: 40000002 cycles: 410577575 heartbeat IPC: 0.159057 cumulative IPC: 0.0960365 (Simulation time: 0 hr 5 min 35 sec) 
Heartbeat CPU 0 instructions: 41000000 cycles: 416869446 heartbeat IPC: 0.158935 cumulative IPC: 0.0972784 (Simulation time: 0 hr 5 min 41 sec) 
Heartbeat CPU 0 instructions: 42000002 cycles: 422715617 heartbeat IPC: 0.171052 cumulative IPC: 0.0986074 (Simulation time: 0 hr 5 min 47 sec) 
Heartbeat CPU 0 instructions: 43000000 cycles: 428987224 heartbeat IPC: 0.159448 cumulative IPC: 0.0997609 (Simulation time: 0 hr 5 min 54 sec) 
Heartbeat CPU 0 instructions: 44000000 cycles: 435256132 heartbeat IPC: 0.159517 cumulative IPC: 0.100872 (Simulation time: 0 hr 6 min 0 sec) 
Heartbeat CPU 0 instructions: 45000000 cycles: 441548856 heartbeat IPC: 0.158914 cumulative IPC: 0.101936 (Simulation time: 0 hr 6 min 6 sec) 
Heartbeat CPU 0 instructions: 46000003 cycles: 447816325 heartbeat IPC: 0.159555 cumulative IPC: 0.102969 (Simulation time: 0 hr 6 min 12 sec) 
Heartbeat CPU 0 instructions: 47000001 cycles: 454118232 heartbeat IPC: 0.158682 cumulative IPC: 0.103955 (Simulation time: 0 hr 6 min 19 sec) 
Heartbeat CPU 0 instructions: 48000000 cycles: 460407164 heartbeat IPC: 0.159009 cumulative IPC: 0.104911 (Simulation time: 0 hr 6 min 25 sec) 
Heartbeat CPU 0 instructions: 49000003 cycles: 466694048 heartbeat IPC: 0.159062 cumulative IPC: 0.105835 (Simulation time: 0 hr 6 min 31 sec) 
Heartbeat CPU 0 instructions: 50000000 cycles: 472980315 heartbeat IPC: 0.159076 cumulative IPC: 0.106728 (Simulation time: 0 hr 6 min 37 sec) 
Heartbeat CPU 0 instructions: 51000002 cycles: 479254518 heartbeat IPC: 0.159383 cumulative IPC: 0.107595 (Simulation time: 0 hr 6 min 44 sec) 
Heartbeat CPU 0 instructions: 52000000 cycles: 485536793 heartbeat IPC: 0.159178 cumulative IPC: 0.108432 (Simulation time: 0 hr 6 min 50 sec) 
Heartbeat CPU 0 instructions: 53000003 cycles: 491834473 heartbeat IPC: 0.158789 cumulative IPC: 0.109237 (Simulation time: 0 hr 6 min 56 sec) 
Heartbeat CPU 0 instructions: 54000000 cycles: 498117788 heartbeat IPC: 0.159151 cumulative IPC: 0.110022 (Simulation time: 0 hr 7 min 2 sec) 
Heartbeat CPU 0 instructions: 55000000 cycles: 504418673 heartbeat IPC: 0.158708 cumulative IPC: 0.110777 (Simulation time: 0 hr 7 min 8 sec) 
Heartbeat CPU 0 instructions: 56000002 cycles: 510736554 heartbeat IPC: 0.158281 cumulative IPC: 0.111504 (Simulation time: 0 hr 7 min 14 sec) 
Heartbeat CPU 0 instructions: 57000001 cycles: 517011821 heartbeat IPC: 0.159356 cumulative IPC: 0.112221 (Simulation time: 0 hr 7 min 20 sec) 
Heartbeat CPU 0 instructions: 58000003 cycles: 523304590 heartbeat IPC: 0.158913 cumulative IPC: 0.112912 (Simulation time: 0 hr 7 min 26 sec) 
Heartbeat CPU 0 instructions: 59000002 cycles: 529601295 heartbeat IPC: 0.158813 cumulative IPC: 0.113582 (Simulation time: 0 hr 7 min 32 sec) 
Heartbeat CPU 0 instructions: 60000002 cycles: 535881709 heartbeat IPC: 0.159225 cumulative IPC: 0.114237 (Simulation time: 0 hr 7 min 38 sec) 
Heartbeat CPU 0 instructions: 61000002 cycles: 542162994 heartbeat IPC: 0.159203 cumulative IPC: 0.114874 (Simulation time: 0 hr 7 min 44 sec) 
Heartbeat CPU 0 instructions: 62000002 cycles: 548438668 heartbeat IPC: 0.159345 cumulative IPC: 0.115493 (Simulation time: 0 hr 7 min 50 sec) 
Heartbeat CPU 0 instructions: 63000001 cycles: 554726922 heartbeat IPC: 0.159026 cumulative IPC: 0.116093 (Simulation time: 0 hr 7 min 56 sec) 
Heartbeat CPU 0 instructions: 64000000 cycles: 561001606 heartbeat IPC: 0.15937 cumulative IPC: 0.11668 (Simulation time: 0 hr 8 min 3 sec) 
Heartbeat CPU 0 instructions: 65000000 cycles: 567280743 heartbeat IPC: 0.159258 cumulative IPC: 0.11725 (Simulation time: 0 hr 8 min 9 sec) 
Heartbeat CPU 0 instructions: 66000000 cycles: 573566715 heartbeat IPC: 0.159084 cumulative IPC: 0.117803 (Simulation time: 0 hr 8 min 15 sec) 
Heartbeat CPU 0 instructions: 67000000 cycles: 579875524 heartbeat IPC: 0.158509 cumulative IPC: 0.118336 (Simulation time: 0 hr 8 min 22 sec) 
Heartbeat CPU 0 instructions: 68000000 cycles: 586153724 heartbeat IPC: 0.159281 cumulative IPC: 0.118863 (Simulation time: 0 hr 8 min 28 sec) 
Heartbeat CPU 0 instructions: 69000001 cycles: 592442132 heartbeat IPC: 0.159023 cumulative IPC: 0.119374 (Simulation time: 0 hr 8 min 34 sec) 
Heartbeat CPU 0 instructions: 70000000 cycles: 598717403 heartbeat IPC: 0.159356 cumulative IPC: 0.119875 (Simulation time: 0 hr 8 min 40 sec) 
Heartbeat CPU 0 instructions: 71000000 cycles: 605009303 heartbeat IPC: 0.158935 cumulative IPC: 0.12036 (Simulation time: 0 hr 8 min 46 sec) 
Heartbeat CPU 0 instructions: 72000000 cycles: 611305288 heartbeat IPC: 0.158831 cumulative IPC: 0.120832 (Simulation time: 0 hr 8 min 52 sec) 
Heartbeat CPU 0 instructions: 73000003 cycles: 617600828 heartbeat IPC: 0.158843 cumulative IPC: 0.121293 (Simulation time: 0 hr 8 min 58 sec) 
Heartbeat CPU 0 instructions: 74000000 cycles: 623878144 heartbeat IPC: 0.159303 cumulative IPC: 0.121747 (Simulation time: 0 hr 9 min 4 sec) 
Heartbeat CPU 0 instructions: 75000000 cycles: 630151011 heartbeat IPC: 0.159417 cumulative IPC: 0.122191 (Simulation time: 0 hr 9 min 10 sec) 
Heartbeat CPU 0 instructions: 76000001 cycles: 636440271 heartbeat IPC: 0.159001 cumulative IPC: 0.122621 (Simulation time: 0 hr 9 min 16 sec) 
Heartbeat CPU 0 instructions: 77000000 cycles: 642739992 heartbeat IPC: 0.158737 cumulative IPC: 0.123039 (Simulation time: 0 hr 9 min 22 sec) 
Heartbeat CPU 0 instructions: 78000001 cycles: 649013024 heartbeat IPC: 0.159413 cumulative IPC: 0.123453 (Simulation time: 0 hr 9 min 28 sec) 
Heartbeat CPU 0 instructions: 79000003 cycles: 654849142 heartbeat IPC: 0.171347 cumulative IPC: 0.123955 (Simulation time: 0 hr 9 min 34 sec) 
Heartbeat CPU 0 instructions: 80000000 cycles: 661109662 heartbeat IPC: 0.159731 cumulative IPC: 0.124353 (Simulation time: 0 hr 9 min 40 sec) 
Heartbeat CPU 0 instructions: 81000000 cycles: 667375721 heartbeat IPC: 0.15959 cumulative IPC: 0.124741 (Simulation time: 0 hr 9 min 46 sec) 
Heartbeat CPU 0 instructions: 82000002 cycles: 673662787 heartbeat IPC: 0.159057 cumulative IPC: 0.125116 (Simulation time: 0 hr 9 min 52 sec) 
Heartbeat CPU 0 instructions: 83000000 cycles: 679950999 heartbeat IPC: 0.159027 cumulative IPC: 0.125482 (Simulation time: 0 hr 9 min 59 sec) 
Heartbeat CPU 0 instructions: 84000000 cycles: 686241475 heartbeat IPC: 0.15897 cumulative IPC: 0.125841 (Simulation time: 0 hr 10 min 5 sec) 
Heartbeat CPU 0 instructions: 85000000 cycles: 692527587 heartbeat IPC: 0.159081 cumulative IPC: 0.126192 (Simulation time: 0 hr 10 min 11 sec) 
Heartbeat CPU 0 instructions: 86000002 cycles: 698812257 heartbeat IPC: 0.159118 cumulative IPC: 0.126537 (Simulation time: 0 hr 10 min 17 sec) 
Heartbeat CPU 0 instructions: 87000000 cycles: 705088841 heartbeat IPC: 0.159322 cumulative IPC: 0.126876 (Simulation time: 0 hr 10 min 23 sec) 
Heartbeat CPU 0 instructions: 88000000 cycles: 711365289 heartbeat IPC: 0.159326 cumulative IPC: 0.127208 (Simulation time: 0 hr 10 min 28 sec) 
Heartbeat CPU 0 instructions: 89000003 cycles: 717650591 heartbeat IPC: 0.159102 cumulative IPC: 0.127532 (Simulation time: 0 hr 10 min 34 sec) 
Heartbeat CPU 0 instructions: 90000001 cycles: 723936330 heartbeat IPC: 0.15909 cumulative IPC: 0.127849 (Simulation time: 0 hr 10 min 40 sec) 
Heartbeat CPU 0 instructions: 91000000 cycles: 730219184 heartbeat IPC: 0.159163 cumulative IPC: 0.12816 (Simulation time: 0 hr 10 min 46 sec) 
Heartbeat CPU 0 instructions: 92000002 cycles: 736534115 heartbeat IPC: 0.158355 cumulative IPC: 0.128459 (Simulation time: 0 hr 10 min 53 sec) 
Heartbeat CPU 0 instructions: 93000002 cycles: 742825553 heartbeat IPC: 0.158946 cumulative IPC: 0.128756 (Simulation time: 0 hr 10 min 59 sec) 
Heartbeat CPU 0 instructions: 94000001 cycles: 749094710 heartbeat IPC: 0.159511 cumulative IPC: 0.129052 (Simulation time: 0 hr 11 min 4 sec) 
Heartbeat CPU 0 instructions: 95000002 cycles: 755408761 heartbeat IPC: 0.158377 cumulative IPC: 0.129334 (Simulation time: 0 hr 11 min 11 sec) 
Heartbeat CPU 0 instructions: 96000001 cycles: 761689300 heartbeat IPC: 0.159222 cumulative IPC: 0.129617 (Simulation time: 0 hr 11 min 17 sec) 
Heartbeat CPU 0 instructions: 97000001 cycles: 767973415 heartbeat IPC: 0.159131 cumulative IPC: 0.129894 (Simulation time: 0 hr 11 min 23 sec) 
Heartbeat CPU 0 instructions: 98000003 cycles: 774247732 heartbeat IPC: 0.15938 cumulative IPC: 0.130168 (Simulation time: 0 hr 11 min 29 sec) 
Heartbeat CPU 0 instructions: 99000000 cycles: 780529793 heartbeat IPC: 0.159183 cumulative IPC: 0.130435 (Simulation time: 0 hr 11 min 36 sec) 
Heartbeat CPU 0 instructions: 100000001 cycles: 786812223 heartbeat IPC: 0.159174 cumulative IPC: 0.130697 (Simulation time: 0 hr 11 min 42 sec) 
Heartbeat CPU 0 instructions: 101000001 cycles: 793089282 heartbeat IPC: 0.15931 cumulative IPC: 0.130955 (Simulation time: 0 hr 11 min 48 sec) 
Heartbeat CPU 0 instructions: 102000002 cycles: 799359495 heartbeat IPC: 0.159484 cumulative IPC: 0.131211 (Simulation time: 0 hr 11 min 54 sec) 
Heartbeat CPU 0 instructions: 103000001 cycles: 805662395 heartbeat IPC: 0.158657 cumulative IPC: 0.131455 (Simulation time: 0 hr 12 min 0 sec) 
Heartbeat CPU 0 instructions: 104000000 cycles: 811960263 heartbeat IPC: 0.158784 cumulative IPC: 0.131696 (Simulation time: 0 hr 12 min 6 sec) 
Heartbeat CPU 0 instructions: 105000003 cycles: 818236402 heartbeat IPC: 0.159334 cumulative IPC: 0.131937 (Simulation time: 0 hr 12 min 12 sec) 
Heartbeat CPU 0 instructions: 106000000 cycles: 824521704 heartbeat IPC: 0.159101 cumulative IPC: 0.132172 (Simulation time: 0 hr 12 min 18 sec) 
Heartbeat CPU 0 instructions: 107000000 cycles: 830800000 heartbeat IPC: 0.159279 cumulative IPC: 0.132404 (Simulation time: 0 hr 12 min 24 sec) 
Heartbeat CPU 0 instructions: 108000001 cycles: 837089062 heartbeat IPC: 0.159006 cumulative IPC: 0.132631 (Simulation time: 0 hr 12 min 30 sec) 
Heartbeat CPU 0 instructions: 109000002 cycles: 843389429 heartbeat IPC: 0.158721 cumulative IPC: 0.132851 (Simulation time: 0 hr 12 min 36 sec) 
Heartbeat CPU 0 instructions: 110000000 cycles: 849676408 heartbeat IPC: 0.159059 cumulative IPC: 0.133071 (Simulation time: 0 hr 12 min 42 sec) 
Heartbeat CPU 0 instructions: 111000001 cycles: 855949730 heartbeat IPC: 0.159405 cumulative IPC: 0.133289 (Simulation time: 0 hr 12 min 47 sec) 
Heartbeat CPU 0 instructions: 112000000 cycles: 862242909 heartbeat IPC: 0.158902 cumulative IPC: 0.1335 (Simulation time: 0 hr 12 min 53 sec) 
Heartbeat CPU 0 instructions: 113000000 cycles: 868525711 heartbeat IPC: 0.159165 cumulative IPC: 0.133709 (Simulation time: 0 hr 12 min 59 sec) 
Heartbeat CPU 0 instructions: 114000000 cycles: 874810807 heartbeat IPC: 0.159107 cumulative IPC: 0.133915 (Simulation time: 0 hr 13 min 5 sec) 
Heartbeat CPU 0 instructions: 115000000 cycles: 879983339 heartbeat IPC: 0.193329 cumulative IPC: 0.134308 (Simulation time: 0 hr 13 min 11 sec) 
Heartbeat CPU 0 instructions: 116000000 cycles: 886254255 heartbeat IPC: 0.159466 cumulative IPC: 0.134508 (Simulation time: 0 hr 13 min 17 sec) 
Heartbeat CPU 0 instructions: 117000001 cycles: 892524254 heartbeat IPC: 0.15949 cumulative IPC: 0.134705 (Simulation time: 0 hr 13 min 23 sec) 
Heartbeat CPU 0 instructions: 118000000 cycles: 898805443 heartbeat IPC: 0.159205 cumulative IPC: 0.134897 (Simulation time: 0 hr 13 min 29 sec) 
Heartbeat CPU 0 instructions: 119000001 cycles: 905078239 heartbeat IPC: 0.159419 cumulative IPC: 0.135088 (Simulation time: 0 hr 13 min 35 sec) 
Heartbeat CPU 0 instructions: 120000000 cycles: 911383857 heartbeat IPC: 0.158589 cumulative IPC: 0.13527 (Simulation time: 0 hr 13 min 41 sec) 
Heartbeat CPU 0 instructions: 121000000 cycles: 917671135 heartbeat IPC: 0.159051 cumulative IPC: 0.135453 (Simulation time: 0 hr 13 min 47 sec) 
Heartbeat CPU 0 instructions: 122000000 cycles: 923958617 heartbeat IPC: 0.159046 cumulative IPC: 0.135632 (Simulation time: 0 hr 13 min 53 sec) 
Heartbeat CPU 0 instructions: 123000001 cycles: 930243557 heartbeat IPC: 0.159111 cumulative IPC: 0.13581 (Simulation time: 0 hr 13 min 59 sec) 
Heartbeat CPU 0 instructions: 124000001 cycles: 936513977 heartbeat IPC: 0.159479 cumulative IPC: 0.135987 (Simulation time: 0 hr 14 min 5 sec) 
Heartbeat CPU 0 instructions: 125000001 cycles: 942799717 heartbeat IPC: 0.15909 cumulative IPC: 0.136159 (Simulation time: 0 hr 14 min 11 sec) 
Heartbeat CPU 0 instructions: 126000003 cycles: 949096552 heartbeat IPC: 0.15881 cumulative IPC: 0.136326 (Simulation time: 0 hr 14 min 17 sec) 
Heartbeat CPU 0 instructions: 127000001 cycles: 955380059 heartbeat IPC: 0.159146 cumulative IPC: 0.136494 (Simulation time: 0 hr 14 min 22 sec) 
Heartbeat CPU 0 instructions: 128000001 cycles: 961679105 heartbeat IPC: 0.158754 cumulative IPC: 0.136656 (Simulation time: 0 hr 14 min 28 sec) 
Heartbeat CPU 0 instructions: 129000000 cycles: 967998667 heartbeat IPC: 0.158239 cumulative IPC: 0.136813 (Simulation time: 0 hr 14 min 35 sec) 
Heartbeat CPU 0 instructions: 130000001 cycles: 974271518 heartbeat IPC: 0.159417 cumulative IPC: 0.136975 (Simulation time: 0 hr 14 min 41 sec) 
Heartbeat CPU 0 instructions: 131000000 cycles: 980555426 heartbeat IPC: 0.159136 cumulative IPC: 0.137132 (Simulation time: 0 hr 14 min 47 sec) 
Heartbeat CPU 0 instructions: 132000000 cycles: 986856739 heartbeat IPC: 0.158697 cumulative IPC: 0.137285 (Simulation time: 0 hr 14 min 53 sec) 
Heartbeat CPU 0 instructions: 133000001 cycles: 993135821 heartbeat IPC: 0.159259 cumulative IPC: 0.137439 (Simulation time: 0 hr 14 min 59 sec) 
Heartbeat CPU 0 instructions: 134000001 cycles: 999419790 heartbeat IPC: 0.159135 cumulative IPC: 0.137591 (Simulation time: 0 hr 15 min 5 sec) 
Heartbeat CPU 0 instructions: 135000000 cycles: 1005693535 heartbeat IPC: 0.159394 cumulative IPC: 0.137741 (Simulation time: 0 hr 15 min 11 sec) 
Heartbeat CPU 0 instructions: 136000000 cycles: 1011981846 heartbeat IPC: 0.159025 cumulative IPC: 0.137888 (Simulation time: 0 hr 15 min 17 sec) 
Heartbeat CPU 0 instructions: 137000002 cycles: 1018249335 heartbeat IPC: 0.159554 cumulative IPC: 0.138036 (Simulation time: 0 hr 15 min 23 sec) 
Heartbeat CPU 0 instructions: 138000000 cycles: 1024535855 heartbeat IPC: 0.15907 cumulative IPC: 0.138178 (Simulation time: 0 hr 15 min 29 sec) 
Heartbeat CPU 0 instructions: 139000001 cycles: 1030817834 heartbeat IPC: 0.159186 cumulative IPC: 0.13832 (Simulation time: 0 hr 15 min 35 sec) 
Heartbeat CPU 0 instructions: 140000000 cycles: 1037127660 heartbeat IPC: 0.158483 cumulative IPC: 0.138455 (Simulation time: 0 hr 15 min 41 sec) 
Heartbeat CPU 0 instructions: 141000001 cycles: 1043405543 heartbeat IPC: 0.15929 cumulative IPC: 0.138594 (Simulation time: 0 hr 15 min 47 sec) 
Heartbeat CPU 0 instructions: 142000000 cycles: 1049691393 heartbeat IPC: 0.159087 cumulative IPC: 0.138729 (Simulation time: 0 hr 15 min 53 sec) 
Heartbeat CPU 0 instructions: 143000000 cycles: 1055970534 heartbeat IPC: 0.159257 cumulative IPC: 0.138864 (Simulation time: 0 hr 15 min 59 sec) 
Heartbeat CPU 0 instructions: 144000003 cycles: 1062256902 heartbeat IPC: 0.159075 cumulative IPC: 0.138995 (Simulation time: 0 hr 16 min 5 sec) 
Heartbeat CPU 0 instructions: 145000001 cycles: 1068554768 heartbeat IPC: 0.158784 cumulative IPC: 0.139124 (Simulation time: 0 hr 16 min 11 sec) 
Heartbeat CPU 0 instructions: 146000000 cycles: 1074849907 heartbeat IPC: 0.158853 cumulative IPC: 0.139251 (Simulation time: 0 hr 16 min 17 sec) 
Heartbeat CPU 0 instructions: 147000000 cycles: 1081122151 heartbeat IPC: 0.159433 cumulative IPC: 0.13938 (Simulation time: 0 hr 16 min 23 sec) 
Heartbeat CPU 0 instructions: 148000000 cycles: 1087396644 heartbeat IPC: 0.159375 cumulative IPC: 0.139507 (Simulation time: 0 hr 16 min 29 sec) 
Heartbeat CPU 0 instructions: 149000000 cycles: 1093686315 heartbeat IPC: 0.158991 cumulative IPC: 0.13963 (Simulation time: 0 hr 16 min 35 sec) 
Heartbeat CPU 0 instructions: 150000001 cycles: 1099981085 heartbeat IPC: 0.158862 cumulative IPC: 0.139751 (Simulation time: 0 hr 16 min 41 sec) 
Heartbeat CPU 0 instructions: 151000000 cycles: 1106252362 heartbeat IPC: 0.159457 cumulative IPC: 0.139873 (Simulation time: 0 hr 16 min 47 sec) 
Heartbeat CPU 0 instructions: 152000001 cycles: 1112108554 heartbeat IPC: 0.17076 cumulative IPC: 0.140052 (Simulation time: 0 hr 16 min 53 sec) 
Heartbeat CPU 0 instructions: 153000002 cycles: 1118374580 heartbeat IPC: 0.159591 cumulative IPC: 0.140172 (Simulation time: 0 hr 16 min 59 sec) 
Heartbeat CPU 0 instructions: 154000000 cycles: 1124647542 heartbeat IPC: 0.159414 cumulative IPC: 0.140289 (Simulation time: 0 hr 17 min 5 sec) 
Heartbeat CPU 0 instructions: 155000000 cycles: 1130931808 heartbeat IPC: 0.159128 cumulative IPC: 0.140404 (Simulation time: 0 hr 17 min 11 sec) 
Heartbeat CPU 0 instructions: 156000000 cycles: 1137225758 heartbeat IPC: 0.158883 cumulative IPC: 0.140516 (Simulation time: 0 hr 17 min 17 sec) 
Heartbeat CPU 0 instructions: 157000000 cycles: 1143515911 heartbeat IPC: 0.158979 cumulative IPC: 0.140627 (Simulation time: 0 hr 17 min 23 sec) 
Heartbeat CPU 0 instructions: 158000001 cycles: 1149799566 heartbeat IPC: 0.159143 cumulative IPC: 0.140738 (Simulation time: 0 hr 17 min 29 sec) 
Heartbeat CPU 0 instructions: 159000000 cycles: 1156089985 heartbeat IPC: 0.158972 cumulative IPC: 0.140846 (Simulation time: 0 hr 17 min 35 sec) 
Heartbeat CPU 0 instructions: 160000002 cycles: 1162373691 heartbeat IPC: 0.159142 cumulative IPC: 0.140954 (Simulation time: 0 hr 17 min 41 sec) 
Heartbeat CPU 0 instructions: 161000001 cycles: 1168648817 heartbeat IPC: 0.159359 cumulative IPC: 0.141062 (Simulation time: 0 hr 17 min 47 sec) 
Heartbeat CPU 0 instructions: 162000000 cycles: 1174930678 heartbeat IPC: 0.159188 cumulative IPC: 0.141168 (Simulation time: 0 hr 17 min 53 sec) 
Heartbeat CPU 0 instructions: 163000003 cycles: 1181217800 heartbeat IPC: 0.159056 cumulative IPC: 0.141271 (Simulation time: 0 hr 17 min 59 sec) 
Heartbeat CPU 0 instructions: 164000001 cycles: 1187499372 heartbeat IPC: 0.159195 cumulative IPC: 0.141375 (Simulation time: 0 hr 18 min 5 sec) 
Heartbeat CPU 0 instructions: 165000000 cycles: 1193818966 heartbeat IPC: 0.158238 cumulative IPC: 0.141472 (Simulation time: 0 hr 18 min 12 sec) 
Heartbeat CPU 0 instructions: 166000000 cycles: 1200111179 heartbeat IPC: 0.158927 cumulative IPC: 0.141572 (Simulation time: 0 hr 18 min 18 sec) 
Heartbeat CPU 0 instructions: 167000001 cycles: 1206381016 heartbeat IPC: 0.159494 cumulative IPC: 0.141673 (Simulation time: 0 hr 18 min 24 sec) 
Heartbeat CPU 0 instructions: 168000001 cycles: 1212690973 heartbeat IPC: 0.15848 cumulative IPC: 0.141768 (Simulation time: 0 hr 18 min 30 sec) 
Heartbeat CPU 0 instructions: 169000001 cycles: 1218976142 heartbeat IPC: 0.159105 cumulative IPC: 0.141866 (Simulation time: 0 hr 18 min 36 sec) 
Heartbeat CPU 0 instructions: 170000001 cycles: 1225263253 heartbeat IPC: 0.159056 cumulative IPC: 0.141961 (Simulation time: 0 hr 18 min 42 sec) 
Heartbeat CPU 0 instructions: 171000000 cycles: 1231536421 heartbeat IPC: 0.159409 cumulative IPC: 0.142058 (Simulation time: 0 hr 18 min 47 sec) 
Heartbeat CPU 0 instructions: 172000002 cycles: 1237820542 heartbeat IPC: 0.159132 cumulative IPC: 0.142152 (Simulation time: 0 hr 18 min 53 sec) 
Heartbeat CPU 0 instructions: 173000001 cycles: 1244097993 heartbeat IPC: 0.1593 cumulative IPC: 0.142246 (Simulation time: 0 hr 18 min 59 sec) 
Heartbeat CPU 0 instructions: 174000003 cycles: 1250376266 heartbeat IPC: 0.15928 cumulative IPC: 0.142339 (Simulation time: 0 hr 19 min 5 sec) 
Heartbeat CPU 0 instructions: 175000000 cycles: 1256645203 heartbeat IPC: 0.159516 cumulative IPC: 0.142432 (Simulation time: 0 hr 19 min 11 sec) 
Heartbeat CPU 0 instructions: 176000000 cycles: 1262947640 heartbeat IPC: 0.158669 cumulative IPC: 0.14252 (Simulation time: 0 hr 19 min 17 sec) 
Heartbeat CPU 0 instructions: 177000001 cycles: 1269247186 heartbeat IPC: 0.158742 cumulative IPC: 0.142607 (Simulation time: 0 hr 19 min 23 sec) 
Heartbeat CPU 0 instructions: 178000000 cycles: 1275526357 heartbeat IPC: 0.159257 cumulative IPC: 0.142696 (Simulation time: 0 hr 19 min 29 sec) 
Heartbeat CPU 0 instructions: 179000001 cycles: 1281802040 heartbeat IPC: 0.159345 cumulative IPC: 0.142784 (Simulation time: 0 hr 19 min 35 sec) 
Heartbeat CPU 0 instructions: 180000000 cycles: 1288083731 heartbeat IPC: 0.159193 cumulative IPC: 0.142871 (Simulation time: 0 hr 19 min 41 sec) 
Heartbeat CPU 0 instructions: 181000002 cycles: 1294378217 heartbeat IPC: 0.15887 cumulative IPC: 0.142955 (Simulation time: 0 hr 19 min 47 sec) 
Heartbeat CPU 0 instructions: 182000000 cycles: 1300671044 heartbeat IPC: 0.158911 cumulative IPC: 0.143038 (Simulation time: 0 hr 19 min 53 sec) 
Heartbeat CPU 0 instructions: 183000000 cycles: 1306960029 heartbeat IPC: 0.159008 cumulative IPC: 0.143121 (Simulation time: 0 hr 19 min 59 sec) 
Heartbeat CPU 0 instructions: 184000000 cycles: 1313233381 heartbeat IPC: 0.159404 cumulative IPC: 0.143206 (Simulation time: 0 hr 20 min 5 sec) 
Heartbeat CPU 0 instructions: 185000000 cycles: 1319520272 heartbeat IPC: 0.159061 cumulative IPC: 0.143287 (Simulation time: 0 hr 20 min 10 sec) 
Heartbeat CPU 0 instructions: 186000002 cycles: 1325803113 heartbeat IPC: 0.159164 cumulative IPC: 0.143368 (Simulation time: 0 hr 20 min 16 sec) 
Heartbeat CPU 0 instructions: 187000000 cycles: 1332092400 heartbeat IPC: 0.159 cumulative IPC: 0.143448 (Simulation time: 0 hr 20 min 22 sec) 
Heartbeat CPU 0 instructions: 188000000 cycles: 1337141867 heartbeat IPC: 0.198041 cumulative IPC: 0.143671 (Simulation time: 0 hr 20 min 28 sec) 
Heartbeat CPU 0 instructions: 189000000 cycles: 1343415409 heartbeat IPC: 0.1594 cumulative IPC: 0.14375 (Simulation time: 0 hr 20 min 34 sec) 
Heartbeat CPU 0 instructions: 190000002 cycles: 1349682065 heartbeat IPC: 0.159575 cumulative IPC: 0.143829 (Simulation time: 0 hr 20 min 40 sec) 
Heartbeat CPU 0 instructions: 191000000 cycles: 1355967240 heartbeat IPC: 0.159104 cumulative IPC: 0.143905 (Simulation time: 0 hr 20 min 46 sec) 
Heartbeat CPU 0 instructions: 192000001 cycles: 1362241998 heartbeat IPC: 0.159369 cumulative IPC: 0.143982 (Simulation time: 0 hr 20 min 52 sec) 
Heartbeat CPU 0 instructions: 193000001 cycles: 1368544782 heartbeat IPC: 0.15866 cumulative IPC: 0.144055 (Simulation time: 0 hr 20 min 58 sec) 
Heartbeat CPU 0 instructions: 194000003 cycles: 1374830564 heartbeat IPC: 0.15909 cumulative IPC: 0.144129 (Simulation time: 0 hr 21 min 4 sec) 
Heartbeat CPU 0 instructions: 195000001 cycles: 1381116802 heartbeat IPC: 0.159077 cumulative IPC: 0.144202 (Simulation time: 0 hr 21 min 10 sec) 
Heartbeat CPU 0 instructions: 196000000 cycles: 1387404771 heartbeat IPC: 0.159034 cumulative IPC: 0.144275 (Simulation time: 0 hr 21 min 16 sec) 
Heartbeat CPU 0 instructions: 197000000 cycles: 1393676587 heartbeat IPC: 0.159443 cumulative IPC: 0.144348 (Simulation time: 0 hr 21 min 22 sec) 
Heartbeat CPU 0 instructions: 198000000 cycles: 1399960998 heartbeat IPC: 0.159124 cumulative IPC: 0.144419 (Simulation time: 0 hr 21 min 28 sec) 
Heartbeat CPU 0 instructions: 199000000 cycles: 1406252918 heartbeat IPC: 0.158934 cumulative IPC: 0.144489 (Simulation time: 0 hr 21 min 34 sec) 
Heartbeat CPU 0 instructions: 200000000 cycles: 1412531684 heartbeat IPC: 0.159267 cumulative IPC: 0.14456 (Simulation time: 0 hr 21 min 40 sec) 
Heartbeat CPU 0 instructions: 201000000 cycles: 1418834308 heartbeat IPC: 0.158664 cumulative IPC: 0.144627 (Simulation time: 0 hr 21 min 46 sec) 
Heartbeat CPU 0 instructions: 202000000 cycles: 1425155818 heartbeat IPC: 0.15819 cumulative IPC: 0.144692 (Simulation time: 0 hr 21 min 52 sec) 
Heartbeat CPU 0 instructions: 203000000 cycles: 1431423394 heartbeat IPC: 0.159551 cumulative IPC: 0.144762 (Simulation time: 0 hr 21 min 58 sec) 
Heartbeat CPU 0 instructions: 204000003 cycles: 1437705972 heartbeat IPC: 0.159171 cumulative IPC: 0.144829 (Simulation time: 0 hr 22 min 4 sec) 
Heartbeat CPU 0 instructions: 205000000 cycles: 1444012119 heartbeat IPC: 0.158575 cumulative IPC: 0.144894 (Simulation time: 0 hr 22 min 10 sec) 
Heartbeat CPU 0 instructions: 206000000 cycles: 1450291075 heartbeat IPC: 0.159262 cumulative IPC: 0.14496 (Simulation time: 0 hr 22 min 16 sec) 
Heartbeat CPU 0 instructions: 207000000 cycles: 1456572425 heartbeat IPC: 0.159201 cumulative IPC: 0.145026 (Simulation time: 0 hr 22 min 22 sec) 
Heartbeat CPU 0 instructions: 208000000 cycles: 1462849295 heartbeat IPC: 0.159315 cumulative IPC: 0.145092 (Simulation time: 0 hr 22 min 28 sec) 
Heartbeat CPU 0 instructions: 209000000 cycles: 1469135791 heartbeat IPC: 0.159071 cumulative IPC: 0.145156 (Simulation time: 0 hr 22 min 34 sec) 
Heartbeat CPU 0 instructions: 210000003 cycles: 1475403918 heartbeat IPC: 0.159538 cumulative IPC: 0.145221 (Simulation time: 0 hr 22 min 41 sec) 
Heartbeat CPU 0 instructions: 211000001 cycles: 1481691248 heartbeat IPC: 0.15905 cumulative IPC: 0.145284 (Simulation time: 0 hr 22 min 47 sec) 
Heartbeat CPU 0 instructions: 212000000 cycles: 1487970029 heartbeat IPC: 0.159266 cumulative IPC: 0.145347 (Simulation time: 0 hr 22 min 53 sec) 
Heartbeat CPU 0 instructions: 213000003 cycles: 1494281520 heartbeat IPC: 0.158442 cumulative IPC: 0.145407 (Simulation time: 0 hr 23 min 0 sec) 
Heartbeat CPU 0 instructions: 214000001 cycles: 1500560823 heartbeat IPC: 0.159253 cumulative IPC: 0.145469 (Simulation time: 0 hr 23 min 6 sec) 
Heartbeat CPU 0 instructions: 215000001 cycles: 1506845266 heartbeat IPC: 0.159123 cumulative IPC: 0.14553 (Simulation time: 0 hr 23 min 12 sec) 
Heartbeat CPU 0 instructions: 216000000 cycles: 1513127128 heartbeat IPC: 0.159188 cumulative IPC: 0.14559 (Simulation time: 0 hr 23 min 18 sec) 
Heartbeat CPU 0 instructions: 217000001 cycles: 1519407442 heartbeat IPC: 0.159228 cumulative IPC: 0.14565 (Simulation time: 0 hr 23 min 25 sec) 
Heartbeat CPU 0 instructions: 218000002 cycles: 1525708980 heartbeat IPC: 0.158692 cumulative IPC: 0.145708 (Simulation time: 0 hr 23 min 31 sec) 
Heartbeat CPU 0 instructions: 219000001 cycles: 1532002299 heartbeat IPC: 0.158899 cumulative IPC: 0.145766 (Simulation time: 0 hr 23 min 37 sec) 
Heartbeat CPU 0 instructions: 220000000 cycles: 1538274341 heartbeat IPC: 0.159438 cumulative IPC: 0.145825 (Simulation time: 0 hr 23 min 43 sec) 
Heartbeat CPU 0 instructions: 221000000 cycles: 1544549042 heartbeat IPC: 0.15937 cumulative IPC: 0.145884 (Simulation time: 0 hr 23 min 50 sec) 
Heartbeat CPU 0 instructions: 222000000 cycles: 1550843445 heartbeat IPC: 0.158871 cumulative IPC: 0.14594 (Simulation time: 0 hr 23 min 56 sec) 
Heartbeat CPU 0 instructions: 223000000 cycles: 1557133149 heartbeat IPC: 0.15899 cumulative IPC: 0.145997 (Simulation time: 0 hr 24 min 2 sec) 
Heartbeat CPU 0 instructions: 224000000 cycles: 1563400870 heartbeat IPC: 0.159548 cumulative IPC: 0.146055 (Simulation time: 0 hr 24 min 8 sec) 
Heartbeat CPU 0 instructions: 225000000 cycles: 1569247013 heartbeat IPC: 0.171053 cumulative IPC: 0.146154 (Simulation time: 0 hr 24 min 14 sec) 
Heartbeat CPU 0 instructions: 226000000 cycles: 1575506373 heartbeat IPC: 0.159761 cumulative IPC: 0.146212 (Simulation time: 0 hr 24 min 21 sec) 
Heartbeat CPU 0 instructions: 227000003 cycles: 1581778576 heartbeat IPC: 0.159434 cumulative IPC: 0.146268 (Simulation time: 0 hr 24 min 27 sec) 
Heartbeat CPU 0 instructions: 228000002 cycles: 1588067497 heartbeat IPC: 0.15901 cumulative IPC: 0.146321 (Simulation time: 0 hr 24 min 33 sec) 
Heartbeat CPU 0 instructions: 229000001 cycles: 1594357918 heartbeat IPC: 0.158972 cumulative IPC: 0.146375 (Simulation time: 0 hr 24 min 39 sec) 
Heartbeat CPU 0 instructions: 230000001 cycles: 1600650127 heartbeat IPC: 0.158927 cumulative IPC: 0.146427 (Simulation time: 0 hr 24 min 45 sec) 
Heartbeat CPU 0 instructions: 231000000 cycles: 1606933269 heartbeat IPC: 0.159156 cumulative IPC: 0.14648 (Simulation time: 0 hr 24 min 51 sec) 
Heartbeat CPU 0 instructions: 232000000 cycles: 1613224302 heartbeat IPC: 0.158956 cumulative IPC: 0.146532 (Simulation time: 0 hr 24 min 57 sec) 
Heartbeat CPU 0 instructions: 233000003 cycles: 1619509142 heartbeat IPC: 0.159114 cumulative IPC: 0.146584 (Simulation time: 0 hr 25 min 3 sec) 
Heartbeat CPU 0 instructions: 234000001 cycles: 1625781476 heartbeat IPC: 0.15943 cumulative IPC: 0.146637 (Simulation time: 0 hr 25 min 9 sec) 
Heartbeat CPU 0 instructions: 235000001 cycles: 1632065883 heartbeat IPC: 0.159124 cumulative IPC: 0.146688 (Simulation time: 0 hr 25 min 15 sec) 
Heartbeat CPU 0 instructions: 236000001 cycles: 1638350498 heartbeat IPC: 0.159119 cumulative IPC: 0.146739 (Simulation time: 0 hr 25 min 21 sec) 
Heartbeat CPU 0 instructions: 237000002 cycles: 1644636459 heartbeat IPC: 0.159085 cumulative IPC: 0.146789 (Simulation time: 0 hr 25 min 27 sec) 
Heartbeat CPU 0 instructions: 238000001 cycles: 1650949244 heartbeat IPC: 0.158409 cumulative IPC: 0.146836 (Simulation time: 0 hr 25 min 34 sec) 
Heartbeat CPU 0 instructions: 239000000 cycles: 1657248500 heartbeat IPC: 0.158749 cumulative IPC: 0.146884 (Simulation time: 0 hr 25 min 40 sec) 
Heartbeat CPU 0 instructions: 240000001 cycles: 1663516204 heartbeat IPC: 0.159548 cumulative IPC: 0.146935 (Simulation time: 0 hr 25 min 46 sec) 
Heartbeat CPU 0 instructions: 241000000 cycles: 1669828522 heartbeat IPC: 0.15842 cumulative IPC: 0.146981 (Simulation time: 0 hr 25 min 52 sec) 
Heartbeat CPU 0 instructions: 242000000 cycles: 1676111348 heartbeat IPC: 0.159164 cumulative IPC: 0.147029 (Simulation time: 0 hr 25 min 58 sec) 
Heartbeat CPU 0 instructions: 243000000 cycles: 1682398751 heartbeat IPC: 0.159048 cumulative IPC: 0.147077 (Simulation time: 0 hr 26 min 3 sec) 
Heartbeat CPU 0 instructions: 244000003 cycles: 1688671290 heartbeat IPC: 0.159426 cumulative IPC: 0.147126 (Simulation time: 0 hr 26 min 9 sec) 
Heartbeat CPU 0 instructions: 245000000 cycles: 1694957011 heartbeat IPC: 0.15909 cumulative IPC: 0.147173 (Simulation time: 0 hr 26 min 15 sec) 
Heartbeat CPU 0 instructions: 246000001 cycles: 1701239161 heartbeat IPC: 0.159181 cumulative IPC: 0.14722 (Simulation time: 0 hr 26 min 21 sec) 
Heartbeat CPU 0 instructions: 247000001 cycles: 1707514419 heartbeat IPC: 0.159356 cumulative IPC: 0.147267 (Simulation time: 0 hr 26 min 27 sec) 
Heartbeat CPU 0 instructions: 248000001 cycles: 1713786196 heartbeat IPC: 0.159444 cumulative IPC: 0.147315 (Simulation time: 0 hr 26 min 33 sec) 
Heartbeat CPU 0 instructions: 249000001 cycles: 1720086204 heartbeat IPC: 0.15873 cumulative IPC: 0.147359 (Simulation time: 0 hr 26 min 39 sec) 
Heartbeat CPU 0 instructions: 250000000 cycles: 1726392405 heartbeat IPC: 0.158574 cumulative IPC: 0.147402 (Simulation time: 0 hr 26 min 45 sec) 
Heartbeat CPU 0 instructions: 251000002 cycles: 1732670201 heartbeat IPC: 0.159292 cumulative IPC: 0.147448 (Simulation time: 0 hr 26 min 50 sec) 
Heartbeat CPU 0 instructions: 252000003 cycles: 1738949784 heartbeat IPC: 0.159246 cumulative IPC: 0.147493 (Simulation time: 0 hr 26 min 56 sec) 
Heartbeat CPU 0 instructions: 253000000 cycles: 1745230358 heartbeat IPC: 0.159221 cumulative IPC: 0.147538 (Simulation time: 0 hr 27 min 2 sec) 
Heartbeat CPU 0 instructions: 254000000 cycles: 1751522007 heartbeat IPC: 0.158941 cumulative IPC: 0.147581 (Simulation time: 0 hr 27 min 8 sec) 
Heartbeat CPU 0 instructions: 255000002 cycles: 1757820560 heartbeat IPC: 0.158767 cumulative IPC: 0.147624 (Simulation time: 0 hr 27 min 14 sec) 
Heartbeat CPU 0 instructions: 256000000 cycles: 1764110096 heartbeat IPC: 0.158994 cumulative IPC: 0.147667 (Simulation time: 0 hr 27 min 20 sec) 
Heartbeat CPU 0 instructions: 257000000 cycles: 1770381023 heartbeat IPC: 0.159466 cumulative IPC: 0.147711 (Simulation time: 0 hr 27 min 26 sec) 
Heartbeat CPU 0 instructions: 258000002 cycles: 1776666087 heartbeat IPC: 0.159108 cumulative IPC: 0.147754 (Simulation time: 0 hr 27 min 32 sec) 
Heartbeat CPU 0 instructions: 259000003 cycles: 1782948625 heartbeat IPC: 0.159172 cumulative IPC: 0.147796 (Simulation time: 0 hr 27 min 38 sec) 
Heartbeat CPU 0 instructions: 260000000 cycles: 1789241188 heartbeat IPC: 0.158917 cumulative IPC: 0.147838 (Simulation time: 0 hr 27 min 44 sec) 
Finished CPU 0 instructions: 250000000 cycles: 1691044838 cumulative IPC: 0.147838 (Simulation time: 0 hr 27 min 44 sec) 

ChampSim completed all CPUs

Region of Interest Statistics

CPU 0 cumulative IPC: 0.147838 instructions: 250000000 cycles: 1691044838
L1D TOTAL     ACCESS:   38780327  HIT:   21273702  MISS:   17506625
L1D LOAD      ACCESS:   35453065  HIT:   17953322  MISS:   17499743
L1D RFO       ACCESS:    3327262  HIT:    3320380  MISS:       6882
L1D PREFETCH  ACCESS:          0  HIT:          0  MISS:          0
L1D WRITEBACK ACCESS:          0  HIT:          0  MISS:          0
L1D PREFETCH  REQUESTED:          0  ISSUED:          0  USEFUL:          0  USELESS:          0
L1D AVERAGE MISS LATENCY: 87.6392 cycles
L1I TOTAL     ACCESS:   58644470  HIT:   58644445  MISS:         25
L1I LOAD      ACCESS:   58644470  HIT:   58644445  MISS:         25
L1I RFO       ACCESS:          0  HIT:          0  MISS:          0
L1I PREFETCH  ACCESS:          0  HIT:          0  MISS:          0
L1I WRITEBACK ACCESS:          0  HIT:          0  MISS:          0
L1I PREFETCH  REQUESTED:          0  ISSUED:          0  USEFUL:          0  USELESS:          0
L1I AVERAGE MISS LATENCY: 281.2 cycles
L2C TOTAL     ACCESS:   17534905  HIT:      37956  MISS:   17496949
L2C LOAD      ACCESS:   17499742  HIT:       9853  MISS:   17489889
L2C RFO       ACCESS:       6882  HIT:          2  MISS:       6880
L2C PREFETCH  ACCESS:          0  HIT:          0  MISS:          0
L2C WRITEBACK ACCESS:      28281  HIT:      28101  MISS:        180
L2C PREFETCH  REQUESTED:          0  ISSUED:          0  USEFUL:          0  USELESS:          0
L2C AVERAGE MISS LATENCY: 73.6261 cycles
LLC TOTAL     ACCESS:   21212336  HIT:    3716623  MISS:   17495713
LLC LOAD      ACCESS:   17489889  HIT:    3685126  MISS:   13804763
LLC RFO       ACCESS:       6880  HIT:          6  MISS:       6874
LLC PREFETCH  ACCESS:    3687364  HIT:       3428  MISS:    3683936
LLC WRITEBACK ACCESS:      28203  HIT:      28063  MISS:        140
LLC PREFETCH  REQUESTED:   15622234  ISSUED:   15622234  USEFUL:    3682395  USELESS:       1529
LLC AVERAGE MISS LATENCY: 78.0056 cycles
Major fault: 0 Minor fault: 48244
performance stats:
mapping cache size: 2561648
divergence: 13096

DRAM Statistics
 CHANNEL 0
 RQ ROW_BUFFER_HIT:    8607150  ROW_BUFFER_MISS:     140610
 DBUS_CONGESTED:      86954
 WQ ROW_BUFFER_HIT:      11771  ROW_BUFFER_MISS:       2029  FULL:          0

 CHANNEL 1
 RQ ROW_BUFFER_HIT:    8608006  ROW_BUFFER_MISS:     139806
 DBUS_CONGESTED:      86954
 WQ ROW_BUFFER_HIT:      12859  ROW_BUFFER_MISS:       1501  FULL:          0

 AVG_CONGESTED_CYCLE: 11

CPU 0 Branch Prediction Accuracy: 99.7029% MPKI: 1.05897 Average ROB Occupancy at Mispredict: 266.771

Branch types
NOT_BRANCH: 160879255 64.3517%
BRANCH_DIRECT_JUMP: 854073 0.341629%
BRANCH_INDIRECT: 0 0%
BRANCH_CONDITIONAL: 87423430 34.9694%
BRANCH_DIRECT_CALL: 421777 0.168711%
BRANCH_INDIRECT_CALL: 0 0%
BRANCH_RETURN: 421777 0.168711%
BRANCH_OTHER: 0 0%

