
*** ChampSim Multicore Out-of-Order Simulator ***

Warmup Instructions: 1000000
Prefetch Warmup Instructions: 10000000
Simulation Instructions: 250000000
Stat Printing Period: 1000000
Number of CPUs: 1
LLC sets: 2048
LLC ways: 16
Off-chip DRAM Size: 32768 MB Channels: 2 Width: 64-bit Data Rate: 1024 MT/s

CPU 0 runs /scratch/cluster/cmolder/ML-DPC/ChampSimTraces/spec17/602.gcc-s2.trace.xz
Read seed: 275
Heartbeat CPU 0 instructions: 1000000 cycles: 552882 heartbeat IPC: 1.8087 cumulative IPC: 1.8087 (Simulation time: 0 hr 0 min 3 sec) 

Warmup complete CPU 0 instructions: 1000001 cycles: 552884 (Simulation time: 0 hr 0 min 3 sec) 

Heartbeat CPU 0 instructions: 2000003 cycles: 1830406 heartbeat IPC: 0.782767 cumulative IPC: 0.782767 (Simulation time: 0 hr 0 min 6 sec) 
Heartbeat CPU 0 instructions: 3000000 cycles: 3620517 heartbeat IPC: 0.558623 cumulative IPC: 0.651968 (Simulation time: 0 hr 0 min 9 sec) 
Heartbeat CPU 0 instructions: 4000000 cycles: 5179864 heartbeat IPC: 0.641294 cumulative IPC: 0.648371 (Simulation time: 0 hr 0 min 12 sec) 
Heartbeat CPU 0 instructions: 5000000 cycles: 7196344 heartbeat IPC: 0.495914 cumulative IPC: 0.602096 (Simulation time: 0 hr 0 min 15 sec) 
Heartbeat CPU 0 instructions: 6000003 cycles: 8534422 heartbeat IPC: 0.747343 cumulative IPC: 0.626446 (Simulation time: 0 hr 0 min 18 sec) 
Heartbeat CPU 0 instructions: 7000002 cycles: 9819146 heartbeat IPC: 0.778377 cumulative IPC: 0.64751 (Simulation time: 0 hr 0 min 21 sec) 
Heartbeat CPU 0 instructions: 8000001 cycles: 11340771 heartbeat IPC: 0.657192 cumulative IPC: 0.648876 (Simulation time: 0 hr 0 min 24 sec) 
Heartbeat CPU 0 instructions: 9000000 cycles: 12791185 heartbeat IPC: 0.689458 cumulative IPC: 0.653685 (Simulation time: 0 hr 0 min 27 sec) 
Heartbeat CPU 0 instructions: 10000000 cycles: 14392417 heartbeat IPC: 0.624519 cumulative IPC: 0.650311 (Simulation time: 0 hr 0 min 30 sec) 

Warmup complete CPU 0 instructions: 10000003 cycles: 14392418 (Simulation time: 0 hr 0 min 30 sec) 

Heartbeat CPU 0 instructions: 11000000 cycles: 15899422 heartbeat IPC: 0.663568 cumulative IPC: 0.663566 (Simulation time: 0 hr 0 min 33 sec) 
Heartbeat CPU 0 instructions: 12000001 cycles: 17055879 heartbeat IPC: 0.864711 cumulative IPC: 0.750902 (Simulation time: 0 hr 0 min 35 sec) 
Heartbeat CPU 0 instructions: 13000001 cycles: 18497872 heartbeat IPC: 0.693485 cumulative IPC: 0.730735 (Simulation time: 0 hr 0 min 38 sec) 
Heartbeat CPU 0 instructions: 14000001 cycles: 19452913 heartbeat IPC: 1.04708 cumulative IPC: 0.790436 (Simulation time: 0 hr 0 min 41 sec) 
Heartbeat CPU 0 instructions: 15000003 cycles: 20595475 heartbeat IPC: 0.875228 cumulative IPC: 0.806054 (Simulation time: 0 hr 0 min 43 sec) 
Heartbeat CPU 0 instructions: 16000000 cycles: 22282318 heartbeat IPC: 0.592822 cumulative IPC: 0.760466 (Simulation time: 0 hr 0 min 46 sec) 
Heartbeat CPU 0 instructions: 17000000 cycles: 23605366 heartbeat IPC: 0.75583 cumulative IPC: 0.7598 (Simulation time: 0 hr 0 min 49 sec) 
Heartbeat CPU 0 instructions: 18000000 cycles: 24955164 heartbeat IPC: 0.740852 cumulative IPC: 0.757379 (Simulation time: 0 hr 0 min 52 sec) 
Heartbeat CPU 0 instructions: 19000000 cycles: 26160735 heartbeat IPC: 0.829482 cumulative IPC: 0.764765 (Simulation time: 0 hr 0 min 55 sec) 
Heartbeat CPU 0 instructions: 20000000 cycles: 27355243 heartbeat IPC: 0.837165 cumulative IPC: 0.771437 (Simulation time: 0 hr 0 min 57 sec) 
Heartbeat CPU 0 instructions: 21000001 cycles: 28567027 heartbeat IPC: 0.82523 cumulative IPC: 0.776035 (Simulation time: 0 hr 1 min 0 sec) 
Heartbeat CPU 0 instructions: 22000000 cycles: 29704189 heartbeat IPC: 0.879381 cumulative IPC: 0.783711 (Simulation time: 0 hr 1 min 3 sec) 
Heartbeat CPU 0 instructions: 23000002 cycles: 30856722 heartbeat IPC: 0.867656 cumulative IPC: 0.789587 (Simulation time: 0 hr 1 min 6 sec) 
Heartbeat CPU 0 instructions: 24000001 cycles: 32011457 heartbeat IPC: 0.865999 cumulative IPC: 0.794595 (Simulation time: 0 hr 1 min 9 sec) 
Heartbeat CPU 0 instructions: 25000001 cycles: 33104803 heartbeat IPC: 0.914624 cumulative IPC: 0.801608 (Simulation time: 0 hr 1 min 12 sec) 
Heartbeat CPU 0 instructions: 26000002 cycles: 34266301 heartbeat IPC: 0.860958 cumulative IPC: 0.805077 (Simulation time: 0 hr 1 min 14 sec) 
Heartbeat CPU 0 instructions: 27000000 cycles: 35366463 heartbeat IPC: 0.908955 cumulative IPC: 0.810525 (Simulation time: 0 hr 1 min 17 sec) 
Heartbeat CPU 0 instructions: 28000002 cycles: 36548466 heartbeat IPC: 0.846023 cumulative IPC: 0.812419 (Simulation time: 0 hr 1 min 20 sec) 
Heartbeat CPU 0 instructions: 29000003 cycles: 37832473 heartbeat IPC: 0.778813 cumulative IPC: 0.810578 (Simulation time: 0 hr 1 min 23 sec) 
Heartbeat CPU 0 instructions: 30000000 cycles: 39291501 heartbeat IPC: 0.685386 cumulative IPC: 0.803242 (Simulation time: 0 hr 1 min 25 sec) 
Heartbeat CPU 0 instructions: 31000003 cycles: 40508172 heartbeat IPC: 0.821917 cumulative IPC: 0.804112 (Simulation time: 0 hr 1 min 28 sec) 
Heartbeat CPU 0 instructions: 32000001 cycles: 41577784 heartbeat IPC: 0.934917 cumulative IPC: 0.809259 (Simulation time: 0 hr 1 min 30 sec) 
Heartbeat CPU 0 instructions: 33000000 cycles: 42852892 heartbeat IPC: 0.784247 cumulative IPC: 0.808138 (Simulation time: 0 hr 1 min 33 sec) 
Heartbeat CPU 0 instructions: 34000000 cycles: 43900875 heartbeat IPC: 0.954214 cumulative IPC: 0.813326 (Simulation time: 0 hr 1 min 35 sec) 
Heartbeat CPU 0 instructions: 35000000 cycles: 45134001 heartbeat IPC: 0.810947 cumulative IPC: 0.813231 (Simulation time: 0 hr 1 min 38 sec) 
Heartbeat CPU 0 instructions: 36000000 cycles: 46383418 heartbeat IPC: 0.800373 cumulative IPC: 0.812728 (Simulation time: 0 hr 1 min 40 sec) 
Heartbeat CPU 0 instructions: 37000002 cycles: 47621434 heartbeat IPC: 0.807746 cumulative IPC: 0.812543 (Simulation time: 0 hr 1 min 43 sec) 
Heartbeat CPU 0 instructions: 38000000 cycles: 48718537 heartbeat IPC: 0.91149 cumulative IPC: 0.815705 (Simulation time: 0 hr 1 min 45 sec) 
Heartbeat CPU 0 instructions: 39000000 cycles: 50281994 heartbeat IPC: 0.639608 cumulative IPC: 0.808034 (Simulation time: 0 hr 1 min 47 sec) 
Heartbeat CPU 0 instructions: 40000001 cycles: 51379447 heartbeat IPC: 0.911202 cumulative IPC: 0.811095 (Simulation time: 0 hr 1 min 50 sec) 
Heartbeat CPU 0 instructions: 41000000 cycles: 52510791 heartbeat IPC: 0.883904 cumulative IPC: 0.813256 (Simulation time: 0 hr 1 min 52 sec) 
Heartbeat CPU 0 instructions: 42000000 cycles: 53899435 heartbeat IPC: 0.720127 cumulative IPC: 0.809983 (Simulation time: 0 hr 1 min 55 sec) 
Heartbeat CPU 0 instructions: 43000003 cycles: 54760388 heartbeat IPC: 1.16151 cumulative IPC: 0.81748 (Simulation time: 0 hr 1 min 57 sec) 
Heartbeat CPU 0 instructions: 44000000 cycles: 55345141 heartbeat IPC: 1.71012 cumulative IPC: 0.830226 (Simulation time: 0 hr 2 min 0 sec) 
Heartbeat CPU 0 instructions: 45000000 cycles: 56270342 heartbeat IPC: 1.08085 cumulative IPC: 0.835762 (Simulation time: 0 hr 2 min 3 sec) 
Heartbeat CPU 0 instructions: 46000000 cycles: 57467761 heartbeat IPC: 0.83513 cumulative IPC: 0.835745 (Simulation time: 0 hr 2 min 6 sec) 
Heartbeat CPU 0 instructions: 47000001 cycles: 58059468 heartbeat IPC: 1.69003 cumulative IPC: 0.847321 (Simulation time: 0 hr 2 min 9 sec) 
Heartbeat CPU 0 instructions: 48000002 cycles: 58634041 heartbeat IPC: 1.74042 cumulative IPC: 0.85892 (Simulation time: 0 hr 2 min 11 sec) 
Heartbeat CPU 0 instructions: 49000001 cycles: 59716362 heartbeat IPC: 0.923939 cumulative IPC: 0.860472 (Simulation time: 0 hr 2 min 15 sec) 
Heartbeat CPU 0 instructions: 50000000 cycles: 60894843 heartbeat IPC: 0.848549 cumulative IPC: 0.86017 (Simulation time: 0 hr 2 min 17 sec) 
Heartbeat CPU 0 instructions: 51000000 cycles: 61812122 heartbeat IPC: 1.09018 cumulative IPC: 0.864619 (Simulation time: 0 hr 2 min 20 sec) 
Heartbeat CPU 0 instructions: 52000000 cycles: 62904322 heartbeat IPC: 0.915583 cumulative IPC: 0.865767 (Simulation time: 0 hr 2 min 22 sec) 
Heartbeat CPU 0 instructions: 53000001 cycles: 63984769 heartbeat IPC: 0.925544 cumulative IPC: 0.867069 (Simulation time: 0 hr 2 min 25 sec) 
Heartbeat CPU 0 instructions: 54000002 cycles: 64733962 heartbeat IPC: 1.33477 cumulative IPC: 0.87403 (Simulation time: 0 hr 2 min 26 sec) 
Heartbeat CPU 0 instructions: 55000000 cycles: 65667499 heartbeat IPC: 1.07119 cumulative IPC: 0.877619 (Simulation time: 0 hr 2 min 28 sec) 
Heartbeat CPU 0 instructions: 56000003 cycles: 66646139 heartbeat IPC: 1.02183 cumulative IPC: 0.88032 (Simulation time: 0 hr 2 min 30 sec) 
Heartbeat CPU 0 instructions: 57000001 cycles: 67489273 heartbeat IPC: 1.18605 cumulative IPC: 0.885175 (Simulation time: 0 hr 2 min 33 sec) 
Heartbeat CPU 0 instructions: 58000000 cycles: 68369165 heartbeat IPC: 1.1365 cumulative IPC: 0.889272 (Simulation time: 0 hr 2 min 35 sec) 
Heartbeat CPU 0 instructions: 59000001 cycles: 69228402 heartbeat IPC: 1.16382 cumulative IPC: 0.893574 (Simulation time: 0 hr 2 min 37 sec) 
Heartbeat CPU 0 instructions: 60000000 cycles: 70208211 heartbeat IPC: 1.02061 cumulative IPC: 0.895804 (Simulation time: 0 hr 2 min 40 sec) 
Heartbeat CPU 0 instructions: 61000002 cycles: 71658475 heartbeat IPC: 0.689531 cumulative IPC: 0.89058 (Simulation time: 0 hr 2 min 42 sec) 
Heartbeat CPU 0 instructions: 62000002 cycles: 73117990 heartbeat IPC: 0.685159 cumulative IPC: 0.885475 (Simulation time: 0 hr 2 min 45 sec) 
Heartbeat CPU 0 instructions: 63000002 cycles: 74582893 heartbeat IPC: 0.682639 cumulative IPC: 0.880538 (Simulation time: 0 hr 2 min 48 sec) 
Heartbeat CPU 0 instructions: 64000000 cycles: 76086419 heartbeat IPC: 0.665102 cumulative IPC: 0.875288 (Simulation time: 0 hr 2 min 51 sec) 
Heartbeat CPU 0 instructions: 65000002 cycles: 77330780 heartbeat IPC: 0.803627 cumulative IPC: 0.873871 (Simulation time: 0 hr 2 min 53 sec) 
Heartbeat CPU 0 instructions: 66000000 cycles: 78907198 heartbeat IPC: 0.634348 cumulative IPC: 0.868018 (Simulation time: 0 hr 2 min 56 sec) 
Heartbeat CPU 0 instructions: 67000000 cycles: 80166217 heartbeat IPC: 0.794269 cumulative IPC: 0.866606 (Simulation time: 0 hr 2 min 58 sec) 
Heartbeat CPU 0 instructions: 68000001 cycles: 81257544 heartbeat IPC: 0.916317 cumulative IPC: 0.867418 (Simulation time: 0 hr 3 min 0 sec) 
Heartbeat CPU 0 instructions: 69000000 cycles: 82572011 heartbeat IPC: 0.760764 cumulative IPC: 0.865362 (Simulation time: 0 hr 3 min 3 sec) 
Heartbeat CPU 0 instructions: 70000003 cycles: 83652904 heartbeat IPC: 0.925164 cumulative IPC: 0.866295 (Simulation time: 0 hr 3 min 5 sec) 
Heartbeat CPU 0 instructions: 71000001 cycles: 85194209 heartbeat IPC: 0.6488 cumulative IPC: 0.86156 (Simulation time: 0 hr 3 min 8 sec) 
Heartbeat CPU 0 instructions: 72000000 cycles: 86064528 heartbeat IPC: 1.149 cumulative IPC: 0.865051 (Simulation time: 0 hr 3 min 10 sec) 
Heartbeat CPU 0 instructions: 73000000 cycles: 86851481 heartbeat IPC: 1.27072 cumulative IPC: 0.869456 (Simulation time: 0 hr 3 min 13 sec) 
Heartbeat CPU 0 instructions: 74000001 cycles: 87620383 heartbeat IPC: 1.30056 cumulative IPC: 0.873983 (Simulation time: 0 hr 3 min 15 sec) 
Heartbeat CPU 0 instructions: 75000000 cycles: 88431223 heartbeat IPC: 1.23329 cumulative IPC: 0.877918 (Simulation time: 0 hr 3 min 17 sec) 
Heartbeat CPU 0 instructions: 76000001 cycles: 89176227 heartbeat IPC: 1.34228 cumulative IPC: 0.882544 (Simulation time: 0 hr 3 min 18 sec) 
Heartbeat CPU 0 instructions: 77000000 cycles: 90071730 heartbeat IPC: 1.11669 cumulative IPC: 0.885315 (Simulation time: 0 hr 3 min 20 sec) 
Heartbeat CPU 0 instructions: 78000001 cycles: 90992992 heartbeat IPC: 1.08547 cumulative IPC: 0.887722 (Simulation time: 0 hr 3 min 22 sec) 
Heartbeat CPU 0 instructions: 79000000 cycles: 91752070 heartbeat IPC: 1.31739 cumulative IPC: 0.891938 (Simulation time: 0 hr 3 min 25 sec) 
Heartbeat CPU 0 instructions: 80000000 cycles: 92491101 heartbeat IPC: 1.35312 cumulative IPC: 0.896302 (Simulation time: 0 hr 3 min 28 sec) 
Heartbeat CPU 0 instructions: 81000002 cycles: 93236119 heartbeat IPC: 1.34225 cumulative IPC: 0.900516 (Simulation time: 0 hr 3 min 31 sec) 
Heartbeat CPU 0 instructions: 82000000 cycles: 93968395 heartbeat IPC: 1.3656 cumulative IPC: 0.904796 (Simulation time: 0 hr 3 min 33 sec) 
Heartbeat CPU 0 instructions: 83000003 cycles: 94687131 heartbeat IPC: 1.39134 cumulative IPC: 0.909151 (Simulation time: 0 hr 3 min 34 sec) 
Heartbeat CPU 0 instructions: 84000000 cycles: 95504743 heartbeat IPC: 1.22307 cumulative IPC: 0.912315 (Simulation time: 0 hr 3 min 36 sec) 
Heartbeat CPU 0 instructions: 85000000 cycles: 96264102 heartbeat IPC: 1.3169 cumulative IPC: 0.916068 (Simulation time: 0 hr 3 min 39 sec) 
Heartbeat CPU 0 instructions: 86000003 cycles: 97000650 heartbeat IPC: 1.35769 cumulative IPC: 0.920005 (Simulation time: 0 hr 3 min 42 sec) 
Heartbeat CPU 0 instructions: 87000003 cycles: 97722039 heartbeat IPC: 1.38621 cumulative IPC: 0.924041 (Simulation time: 0 hr 3 min 45 sec) 
Heartbeat CPU 0 instructions: 88000000 cycles: 98434775 heartbeat IPC: 1.40304 cumulative IPC: 0.928103 (Simulation time: 0 hr 3 min 47 sec) 
Heartbeat CPU 0 instructions: 89000000 cycles: 99145291 heartbeat IPC: 1.40743 cumulative IPC: 0.932122 (Simulation time: 0 hr 3 min 48 sec) 
Heartbeat CPU 0 instructions: 90000000 cycles: 100100727 heartbeat IPC: 1.04664 cumulative IPC: 0.933398 (Simulation time: 0 hr 3 min 50 sec) 
Heartbeat CPU 0 instructions: 91000000 cycles: 101054081 heartbeat IPC: 1.04893 cumulative IPC: 0.934669 (Simulation time: 0 hr 3 min 52 sec) 
Heartbeat CPU 0 instructions: 92000002 cycles: 101932115 heartbeat IPC: 1.13891 cumulative IPC: 0.936718 (Simulation time: 0 hr 3 min 55 sec) 
Heartbeat CPU 0 instructions: 93000002 cycles: 102797878 heartbeat IPC: 1.15505 cumulative IPC: 0.938856 (Simulation time: 0 hr 3 min 57 sec) 
Heartbeat CPU 0 instructions: 94000000 cycles: 103638295 heartbeat IPC: 1.18988 cumulative IPC: 0.94122 (Simulation time: 0 hr 3 min 59 sec) 
Heartbeat CPU 0 instructions: 95000001 cycles: 104965564 heartbeat IPC: 0.753428 cumulative IPC: 0.938468 (Simulation time: 0 hr 4 min 2 sec) 
Heartbeat CPU 0 instructions: 96000003 cycles: 106449524 heartbeat IPC: 0.673874 cumulative IPC: 0.934203 (Simulation time: 0 hr 4 min 5 sec) 
Heartbeat CPU 0 instructions: 97000001 cycles: 107828166 heartbeat IPC: 0.72535 cumulative IPC: 0.931121 (Simulation time: 0 hr 4 min 8 sec) 
Heartbeat CPU 0 instructions: 98000001 cycles: 109072991 heartbeat IPC: 0.803326 cumulative IPC: 0.929441 (Simulation time: 0 hr 4 min 11 sec) 
Heartbeat CPU 0 instructions: 99000000 cycles: 110274710 heartbeat IPC: 0.83214 cumulative IPC: 0.928221 (Simulation time: 0 hr 4 min 15 sec) 
Heartbeat CPU 0 instructions: 100000000 cycles: 111959495 heartbeat IPC: 0.593548 cumulative IPC: 0.922442 (Simulation time: 0 hr 4 min 18 sec) 
Heartbeat CPU 0 instructions: 101000002 cycles: 113354573 heartbeat IPC: 0.716807 cumulative IPC: 0.919543 (Simulation time: 0 hr 4 min 21 sec) 
Heartbeat CPU 0 instructions: 102000000 cycles: 114447028 heartbeat IPC: 0.915368 cumulative IPC: 0.919498 (Simulation time: 0 hr 4 min 23 sec) 
Heartbeat CPU 0 instructions: 103000003 cycles: 115504406 heartbeat IPC: 0.945738 cumulative IPC: 0.919772 (Simulation time: 0 hr 4 min 26 sec) 
Heartbeat CPU 0 instructions: 104000003 cycles: 116583854 heartbeat IPC: 0.926399 cumulative IPC: 0.919842 (Simulation time: 0 hr 4 min 29 sec) 
Heartbeat CPU 0 instructions: 105000000 cycles: 117689457 heartbeat IPC: 0.904481 cumulative IPC: 0.919678 (Simulation time: 0 hr 4 min 32 sec) 
Heartbeat CPU 0 instructions: 106000002 cycles: 118860348 heartbeat IPC: 0.854052 cumulative IPC: 0.918942 (Simulation time: 0 hr 4 min 35 sec) 
Heartbeat CPU 0 instructions: 107000002 cycles: 119873836 heartbeat IPC: 0.986692 cumulative IPC: 0.919593 (Simulation time: 0 hr 4 min 38 sec) 
Heartbeat CPU 0 instructions: 108000001 cycles: 120870628 heartbeat IPC: 1.00322 cumulative IPC: 0.920376 (Simulation time: 0 hr 4 min 41 sec) 
Heartbeat CPU 0 instructions: 109000000 cycles: 121921647 heartbeat IPC: 0.951457 cumulative IPC: 0.92068 (Simulation time: 0 hr 4 min 44 sec) 
Heartbeat CPU 0 instructions: 110000000 cycles: 123001343 heartbeat IPC: 0.926187 cumulative IPC: 0.920735 (Simulation time: 0 hr 4 min 47 sec) 
Heartbeat CPU 0 instructions: 111000002 cycles: 124174305 heartbeat IPC: 0.852544 cumulative IPC: 0.920006 (Simulation time: 0 hr 4 min 50 sec) 
Heartbeat CPU 0 instructions: 112000000 cycles: 125500950 heartbeat IPC: 0.75378 cumulative IPC: 0.918021 (Simulation time: 0 hr 4 min 53 sec) 
Heartbeat CPU 0 instructions: 113000001 cycles: 126893506 heartbeat IPC: 0.718105 cumulative IPC: 0.915547 (Simulation time: 0 hr 4 min 56 sec) 
Heartbeat CPU 0 instructions: 114000002 cycles: 128036633 heartbeat IPC: 0.874794 cumulative IPC: 0.915137 (Simulation time: 0 hr 4 min 59 sec) 
Heartbeat CPU 0 instructions: 115000001 cycles: 129142421 heartbeat IPC: 0.904332 cumulative IPC: 0.915033 (Simulation time: 0 hr 5 min 2 sec) 
Heartbeat CPU 0 instructions: 116000001 cycles: 130633481 heartbeat IPC: 0.670664 cumulative IPC: 0.911898 (Simulation time: 0 hr 5 min 5 sec) 
Heartbeat CPU 0 instructions: 117000003 cycles: 132079871 heartbeat IPC: 0.691378 cumulative IPC: 0.909188 (Simulation time: 0 hr 5 min 8 sec) 
Heartbeat CPU 0 instructions: 118000000 cycles: 133401428 heartbeat IPC: 0.756681 cumulative IPC: 0.907494 (Simulation time: 0 hr 5 min 12 sec) 
Heartbeat CPU 0 instructions: 119000000 cycles: 134692199 heartbeat IPC: 0.774731 cumulative IPC: 0.90607 (Simulation time: 0 hr 5 min 15 sec) 
Heartbeat CPU 0 instructions: 120000001 cycles: 136337598 heartbeat IPC: 0.607756 cumulative IPC: 0.902045 (Simulation time: 0 hr 5 min 18 sec) 
Heartbeat CPU 0 instructions: 121000000 cycles: 137875174 heartbeat IPC: 0.650374 cumulative IPC: 0.898911 (Simulation time: 0 hr 5 min 21 sec) 
Heartbeat CPU 0 instructions: 122000001 cycles: 139151317 heartbeat IPC: 0.783612 cumulative IPC: 0.897732 (Simulation time: 0 hr 5 min 24 sec) 
Heartbeat CPU 0 instructions: 123000000 cycles: 140617698 heartbeat IPC: 0.68195 cumulative IPC: 0.895225 (Simulation time: 0 hr 5 min 27 sec) 
Heartbeat CPU 0 instructions: 124000000 cycles: 141966403 heartbeat IPC: 0.741452 cumulative IPC: 0.893599 (Simulation time: 0 hr 5 min 30 sec) 
Heartbeat CPU 0 instructions: 125000003 cycles: 143248277 heartbeat IPC: 0.78011 cumulative IPC: 0.89247 (Simulation time: 0 hr 5 min 33 sec) 
Heartbeat CPU 0 instructions: 126000000 cycles: 144754410 heartbeat IPC: 0.66395 cumulative IPC: 0.88983 (Simulation time: 0 hr 5 min 36 sec) 
Heartbeat CPU 0 instructions: 127000000 cycles: 145895499 heartbeat IPC: 0.876356 cumulative IPC: 0.889713 (Simulation time: 0 hr 5 min 39 sec) 
Heartbeat CPU 0 instructions: 128000002 cycles: 146697745 heartbeat IPC: 1.2465 cumulative IPC: 0.891876 (Simulation time: 0 hr 5 min 42 sec) 
Heartbeat CPU 0 instructions: 129000001 cycles: 147507352 heartbeat IPC: 1.23517 cumulative IPC: 0.893964 (Simulation time: 0 hr 5 min 44 sec) 
Heartbeat CPU 0 instructions: 130000001 cycles: 148754811 heartbeat IPC: 0.80163 cumulative IPC: 0.893107 (Simulation time: 0 hr 5 min 48 sec) 
Heartbeat CPU 0 instructions: 131000002 cycles: 150290409 heartbeat IPC: 0.651213 cumulative IPC: 0.890374 (Simulation time: 0 hr 5 min 51 sec) 
Heartbeat CPU 0 instructions: 132000000 cycles: 151403842 heartbeat IPC: 0.898121 cumulative IPC: 0.890437 (Simulation time: 0 hr 5 min 54 sec) 
Heartbeat CPU 0 instructions: 133000001 cycles: 152711774 heartbeat IPC: 0.764566 cumulative IPC: 0.889246 (Simulation time: 0 hr 5 min 57 sec) 
Heartbeat CPU 0 instructions: 134000000 cycles: 153887503 heartbeat IPC: 0.850535 cumulative IPC: 0.88892 (Simulation time: 0 hr 6 min 0 sec) 
Heartbeat CPU 0 instructions: 135000001 cycles: 155373641 heartbeat IPC: 0.672886 cumulative IPC: 0.886643 (Simulation time: 0 hr 6 min 3 sec) 
Heartbeat CPU 0 instructions: 136000001 cycles: 156878180 heartbeat IPC: 0.664655 cumulative IPC: 0.884299 (Simulation time: 0 hr 6 min 6 sec) 
Heartbeat CPU 0 instructions: 137000000 cycles: 158642960 heartbeat IPC: 0.566642 cumulative IPC: 0.880413 (Simulation time: 0 hr 6 min 8 sec) 
Heartbeat CPU 0 instructions: 138000000 cycles: 159776179 heartbeat IPC: 0.882442 cumulative IPC: 0.880428 (Simulation time: 0 hr 6 min 11 sec) 
Heartbeat CPU 0 instructions: 139000000 cycles: 160866980 heartbeat IPC: 0.916758 cumulative IPC: 0.880699 (Simulation time: 0 hr 6 min 14 sec) 
Heartbeat CPU 0 instructions: 140000000 cycles: 161972561 heartbeat IPC: 0.904502 cumulative IPC: 0.880877 (Simulation time: 0 hr 6 min 17 sec) 
Heartbeat CPU 0 instructions: 141000000 cycles: 163103557 heartbeat IPC: 0.884176 cumulative IPC: 0.880902 (Simulation time: 0 hr 6 min 20 sec) 
Heartbeat CPU 0 instructions: 142000000 cycles: 164146986 heartbeat IPC: 0.958379 cumulative IPC: 0.881442 (Simulation time: 0 hr 6 min 22 sec) 
Heartbeat CPU 0 instructions: 143000000 cycles: 165245084 heartbeat IPC: 0.910666 cumulative IPC: 0.881655 (Simulation time: 0 hr 6 min 25 sec) 
Heartbeat CPU 0 instructions: 144000001 cycles: 166301286 heartbeat IPC: 0.94679 cumulative IPC: 0.882108 (Simulation time: 0 hr 6 min 28 sec) 
Heartbeat CPU 0 instructions: 145000000 cycles: 167390279 heartbeat IPC: 0.918279 cumulative IPC: 0.882365 (Simulation time: 0 hr 6 min 31 sec) 
Heartbeat CPU 0 instructions: 146000000 cycles: 168513124 heartbeat IPC: 0.890595 cumulative IPC: 0.882425 (Simulation time: 0 hr 6 min 34 sec) 
Heartbeat CPU 0 instructions: 147000002 cycles: 169548041 heartbeat IPC: 0.966263 cumulative IPC: 0.882984 (Simulation time: 0 hr 6 min 37 sec) 
Heartbeat CPU 0 instructions: 148000003 cycles: 170717631 heartbeat IPC: 0.855001 cumulative IPC: 0.882775 (Simulation time: 0 hr 6 min 40 sec) 
Heartbeat CPU 0 instructions: 149000000 cycles: 171688389 heartbeat IPC: 1.03012 cumulative IPC: 0.883684 (Simulation time: 0 hr 6 min 43 sec) 
Heartbeat CPU 0 instructions: 150000002 cycles: 172806708 heartbeat IPC: 0.894201 cumulative IPC: 0.883759 (Simulation time: 0 hr 6 min 46 sec) 
Heartbeat CPU 0 instructions: 151000000 cycles: 173797396 heartbeat IPC: 1.0094 cumulative IPC: 0.884539 (Simulation time: 0 hr 6 min 49 sec) 
Heartbeat CPU 0 instructions: 152000003 cycles: 175140835 heartbeat IPC: 0.744361 cumulative IPC: 0.883368 (Simulation time: 0 hr 6 min 52 sec) 
Heartbeat CPU 0 instructions: 153000002 cycles: 176272522 heartbeat IPC: 0.883636 cumulative IPC: 0.88337 (Simulation time: 0 hr 6 min 55 sec) 
Heartbeat CPU 0 instructions: 154000000 cycles: 177114628 heartbeat IPC: 1.1875 cumulative IPC: 0.884944 (Simulation time: 0 hr 6 min 57 sec) 
Heartbeat CPU 0 instructions: 155000001 cycles: 177967604 heartbeat IPC: 1.17237 cumulative IPC: 0.886442 (Simulation time: 0 hr 7 min 0 sec) 
Heartbeat CPU 0 instructions: 156000001 cycles: 178755681 heartbeat IPC: 1.26891 cumulative IPC: 0.888276 (Simulation time: 0 hr 7 min 3 sec) 
Heartbeat CPU 0 instructions: 157000002 cycles: 179805480 heartbeat IPC: 0.952564 cumulative IPC: 0.888684 (Simulation time: 0 hr 7 min 6 sec) 
Heartbeat CPU 0 instructions: 158000003 cycles: 180700729 heartbeat IPC: 1.11701 cumulative IPC: 0.889913 (Simulation time: 0 hr 7 min 8 sec) 
Heartbeat CPU 0 instructions: 159000002 cycles: 181536417 heartbeat IPC: 1.19662 cumulative IPC: 0.891447 (Simulation time: 0 hr 7 min 11 sec) 
Heartbeat CPU 0 instructions: 160000001 cycles: 183592909 heartbeat IPC: 0.486264 cumulative IPC: 0.886522 (Simulation time: 0 hr 7 min 15 sec) 
Heartbeat CPU 0 instructions: 161000000 cycles: 185200608 heartbeat IPC: 0.622006 cumulative IPC: 0.884033 (Simulation time: 0 hr 7 min 17 sec) 
Heartbeat CPU 0 instructions: 162000000 cycles: 186625979 heartbeat IPC: 0.701572 cumulative IPC: 0.882523 (Simulation time: 0 hr 7 min 19 sec) 
Heartbeat CPU 0 instructions: 163000001 cycles: 187971421 heartbeat IPC: 0.743251 cumulative IPC: 0.881443 (Simulation time: 0 hr 7 min 22 sec) 
Heartbeat CPU 0 instructions: 164000002 cycles: 189212567 heartbeat IPC: 0.805708 cumulative IPC: 0.880905 (Simulation time: 0 hr 7 min 24 sec) 
Heartbeat CPU 0 instructions: 165000000 cycles: 190739433 heartbeat IPC: 0.654935 cumulative IPC: 0.878949 (Simulation time: 0 hr 7 min 27 sec) 
Heartbeat CPU 0 instructions: 166000003 cycles: 192227940 heartbeat IPC: 0.671816 cumulative IPC: 0.877215 (Simulation time: 0 hr 7 min 29 sec) 
Heartbeat CPU 0 instructions: 167000001 cycles: 193537957 heartbeat IPC: 0.763347 cumulative IPC: 0.876382 (Simulation time: 0 hr 7 min 32 sec) 
Heartbeat CPU 0 instructions: 168000000 cycles: 194789008 heartbeat IPC: 0.799327 cumulative IPC: 0.875848 (Simulation time: 0 hr 7 min 34 sec) 
Heartbeat CPU 0 instructions: 169000001 cycles: 196070981 heartbeat IPC: 0.780048 cumulative IPC: 0.875172 (Simulation time: 0 hr 7 min 37 sec) 
Heartbeat CPU 0 instructions: 170000000 cycles: 197226965 heartbeat IPC: 0.865063 cumulative IPC: 0.875108 (Simulation time: 0 hr 7 min 40 sec) 
Heartbeat CPU 0 instructions: 171000001 cycles: 198264473 heartbeat IPC: 0.963849 cumulative IPC: 0.875609 (Simulation time: 0 hr 7 min 42 sec) 
Heartbeat CPU 0 instructions: 172000000 cycles: 199246540 heartbeat IPC: 1.01826 cumulative IPC: 0.876367 (Simulation time: 0 hr 7 min 44 sec) 
Heartbeat CPU 0 instructions: 173000001 cycles: 200157831 heartbeat IPC: 1.09735 cumulative IPC: 0.877451 (Simulation time: 0 hr 7 min 46 sec) 
Heartbeat CPU 0 instructions: 174000001 cycles: 201004638 heartbeat IPC: 1.18091 cumulative IPC: 0.878828 (Simulation time: 0 hr 7 min 49 sec) 
Heartbeat CPU 0 instructions: 175000003 cycles: 201839666 heartbeat IPC: 1.19757 cumulative IPC: 0.880248 (Simulation time: 0 hr 7 min 51 sec) 
Heartbeat CPU 0 instructions: 176000000 cycles: 202951124 heartbeat IPC: 0.899716 cumulative IPC: 0.880362 (Simulation time: 0 hr 7 min 53 sec) 
Heartbeat CPU 0 instructions: 177000003 cycles: 203857212 heartbeat IPC: 1.10365 cumulative IPC: 0.88143 (Simulation time: 0 hr 7 min 56 sec) 
Heartbeat CPU 0 instructions: 178000002 cycles: 205083775 heartbeat IPC: 0.815286 cumulative IPC: 0.881005 (Simulation time: 0 hr 7 min 58 sec) 
Heartbeat CPU 0 instructions: 179000001 cycles: 206433981 heartbeat IPC: 0.740627 cumulative IPC: 0.880018 (Simulation time: 0 hr 8 min 0 sec) 
Heartbeat CPU 0 instructions: 180000000 cycles: 207726001 heartbeat IPC: 0.773981 cumulative IPC: 0.879309 (Simulation time: 0 hr 8 min 3 sec) 
Heartbeat CPU 0 instructions: 181000003 cycles: 208925441 heartbeat IPC: 0.833725 cumulative IPC: 0.879028 (Simulation time: 0 hr 8 min 5 sec) 
Heartbeat CPU 0 instructions: 182000001 cycles: 210299915 heartbeat IPC: 0.72755 cumulative IPC: 0.877965 (Simulation time: 0 hr 8 min 8 sec) 
Heartbeat CPU 0 instructions: 183000002 cycles: 211443827 heartbeat IPC: 0.874194 cumulative IPC: 0.877943 (Simulation time: 0 hr 8 min 10 sec) 
Heartbeat CPU 0 instructions: 184000002 cycles: 212696814 heartbeat IPC: 0.798093 cumulative IPC: 0.877439 (Simulation time: 0 hr 8 min 13 sec) 
Heartbeat CPU 0 instructions: 185000001 cycles: 214651035 heartbeat IPC: 0.511712 cumulative IPC: 0.87387 (Simulation time: 0 hr 8 min 16 sec) 
Heartbeat CPU 0 instructions: 186000001 cycles: 216188915 heartbeat IPC: 0.650246 cumulative IPC: 0.872166 (Simulation time: 0 hr 8 min 18 sec) 
Heartbeat CPU 0 instructions: 187000000 cycles: 217441651 heartbeat IPC: 0.798252 cumulative IPC: 0.87171 (Simulation time: 0 hr 8 min 21 sec) 
Heartbeat CPU 0 instructions: 188000000 cycles: 218894729 heartbeat IPC: 0.688194 cumulative IPC: 0.870406 (Simulation time: 0 hr 8 min 24 sec) 
Heartbeat CPU 0 instructions: 189000000 cycles: 220126931 heartbeat IPC: 0.811555 cumulative IPC: 0.870053 (Simulation time: 0 hr 8 min 27 sec) 
Heartbeat CPU 0 instructions: 190000002 cycles: 221453058 heartbeat IPC: 0.754077 cumulative IPC: 0.869311 (Simulation time: 0 hr 8 min 29 sec) 
Heartbeat CPU 0 instructions: 191000000 cycles: 222728890 heartbeat IPC: 0.783801 cumulative IPC: 0.868787 (Simulation time: 0 hr 8 min 32 sec) 
Heartbeat CPU 0 instructions: 192000000 cycles: 224023285 heartbeat IPC: 0.772562 cumulative IPC: 0.868193 (Simulation time: 0 hr 8 min 35 sec) 
Heartbeat CPU 0 instructions: 193000000 cycles: 225223653 heartbeat IPC: 0.833078 cumulative IPC: 0.867993 (Simulation time: 0 hr 8 min 38 sec) 
Heartbeat CPU 0 instructions: 194000003 cycles: 226412882 heartbeat IPC: 0.840883 cumulative IPC: 0.867841 (Simulation time: 0 hr 8 min 41 sec) 
Heartbeat CPU 0 instructions: 195000001 cycles: 227620441 heartbeat IPC: 0.828115 cumulative IPC: 0.867616 (Simulation time: 0 hr 8 min 43 sec) 
Heartbeat CPU 0 instructions: 196000003 cycles: 228750756 heartbeat IPC: 0.884711 cumulative IPC: 0.867706 (Simulation time: 0 hr 8 min 46 sec) 
Heartbeat CPU 0 instructions: 197000000 cycles: 229981515 heartbeat IPC: 0.812504 cumulative IPC: 0.867391 (Simulation time: 0 hr 8 min 48 sec) 
Heartbeat CPU 0 instructions: 198000000 cycles: 231196359 heartbeat IPC: 0.823151 cumulative IPC: 0.867143 (Simulation time: 0 hr 8 min 51 sec) 
Heartbeat CPU 0 instructions: 199000002 cycles: 232433900 heartbeat IPC: 0.808056 cumulative IPC: 0.866808 (Simulation time: 0 hr 8 min 54 sec) 
Heartbeat CPU 0 instructions: 200000000 cycles: 233625659 heartbeat IPC: 0.839094 cumulative IPC: 0.866657 (Simulation time: 0 hr 8 min 57 sec) 
Heartbeat CPU 0 instructions: 201000000 cycles: 235079981 heartbeat IPC: 0.687606 cumulative IPC: 0.865477 (Simulation time: 0 hr 9 min 0 sec) 
Heartbeat CPU 0 instructions: 202000000 cycles: 236419304 heartbeat IPC: 0.746646 cumulative IPC: 0.86476 (Simulation time: 0 hr 9 min 3 sec) 
Heartbeat CPU 0 instructions: 203000000 cycles: 237652571 heartbeat IPC: 0.810854 cumulative IPC: 0.864462 (Simulation time: 0 hr 9 min 5 sec) 
Heartbeat CPU 0 instructions: 204000000 cycles: 238867994 heartbeat IPC: 0.822759 cumulative IPC: 0.864237 (Simulation time: 0 hr 9 min 8 sec) 
Heartbeat CPU 0 instructions: 205000003 cycles: 240083445 heartbeat IPC: 0.822742 cumulative IPC: 0.864013 (Simulation time: 0 hr 9 min 10 sec) 
Heartbeat CPU 0 instructions: 206000000 cycles: 240959777 heartbeat IPC: 1.14112 cumulative IPC: 0.865085 (Simulation time: 0 hr 9 min 13 sec) 
Heartbeat CPU 0 instructions: 207000000 cycles: 242129984 heartbeat IPC: 0.85455 cumulative IPC: 0.865031 (Simulation time: 0 hr 9 min 15 sec) 
Heartbeat CPU 0 instructions: 208000000 cycles: 243314187 heartbeat IPC: 0.84445 cumulative IPC: 0.864924 (Simulation time: 0 hr 9 min 18 sec) 
Heartbeat CPU 0 instructions: 209000000 cycles: 244592909 heartbeat IPC: 0.782031 cumulative IPC: 0.864464 (Simulation time: 0 hr 9 min 20 sec) 
Heartbeat CPU 0 instructions: 210000001 cycles: 245867691 heartbeat IPC: 0.784449 cumulative IPC: 0.864023 (Simulation time: 0 hr 9 min 22 sec) 
Heartbeat CPU 0 instructions: 211000003 cycles: 246885201 heartbeat IPC: 0.982793 cumulative IPC: 0.864543 (Simulation time: 0 hr 9 min 24 sec) 
Heartbeat CPU 0 instructions: 212000000 cycles: 248082400 heartbeat IPC: 0.835281 cumulative IPC: 0.864393 (Simulation time: 0 hr 9 min 27 sec) 
Heartbeat CPU 0 instructions: 213000000 cycles: 249341381 heartbeat IPC: 0.794293 cumulative IPC: 0.864017 (Simulation time: 0 hr 9 min 30 sec) 
Heartbeat CPU 0 instructions: 214000003 cycles: 250403306 heartbeat IPC: 0.941689 cumulative IPC: 0.864367 (Simulation time: 0 hr 9 min 32 sec) 
Heartbeat CPU 0 instructions: 215000000 cycles: 251623870 heartbeat IPC: 0.819291 cumulative IPC: 0.864135 (Simulation time: 0 hr 9 min 35 sec) 
Heartbeat CPU 0 instructions: 216000000 cycles: 252843111 heartbeat IPC: 0.820182 cumulative IPC: 0.86391 (Simulation time: 0 hr 9 min 38 sec) 
Heartbeat CPU 0 instructions: 217000000 cycles: 254188547 heartbeat IPC: 0.743253 cumulative IPC: 0.863233 (Simulation time: 0 hr 9 min 40 sec) 
Heartbeat CPU 0 instructions: 218000000 cycles: 255378806 heartbeat IPC: 0.840153 cumulative IPC: 0.863119 (Simulation time: 0 hr 9 min 43 sec) 
Heartbeat CPU 0 instructions: 219000001 cycles: 256475819 heartbeat IPC: 0.911567 cumulative IPC: 0.863339 (Simulation time: 0 hr 9 min 45 sec) 
Heartbeat CPU 0 instructions: 220000000 cycles: 257803370 heartbeat IPC: 0.753266 cumulative IPC: 0.862738 (Simulation time: 0 hr 9 min 48 sec) 
Heartbeat CPU 0 instructions: 221000000 cycles: 259170466 heartbeat IPC: 0.731477 cumulative IPC: 0.862005 (Simulation time: 0 hr 9 min 51 sec) 
Heartbeat CPU 0 instructions: 222000003 cycles: 260349927 heartbeat IPC: 0.847847 cumulative IPC: 0.861938 (Simulation time: 0 hr 9 min 53 sec) 
Heartbeat CPU 0 instructions: 223000000 cycles: 261480220 heartbeat IPC: 0.884724 cumulative IPC: 0.862042 (Simulation time: 0 hr 9 min 56 sec) 
Heartbeat CPU 0 instructions: 224000002 cycles: 262667966 heartbeat IPC: 0.841933 cumulative IPC: 0.861946 (Simulation time: 0 hr 9 min 59 sec) 
Heartbeat CPU 0 instructions: 225000000 cycles: 263661511 heartbeat IPC: 1.00649 cumulative IPC: 0.862522 (Simulation time: 0 hr 10 min 2 sec) 
Heartbeat CPU 0 instructions: 226000003 cycles: 265453952 heartbeat IPC: 0.5579 cumulative IPC: 0.860347 (Simulation time: 0 hr 10 min 4 sec) 
Heartbeat CPU 0 instructions: 227000002 cycles: 266966157 heartbeat IPC: 0.661285 cumulative IPC: 0.859155 (Simulation time: 0 hr 10 min 7 sec) 
Heartbeat CPU 0 instructions: 228000002 cycles: 268421641 heartbeat IPC: 0.687057 cumulative IPC: 0.858169 (Simulation time: 0 hr 10 min 9 sec) 
Heartbeat CPU 0 instructions: 229000002 cycles: 269863374 heartbeat IPC: 0.69361 cumulative IPC: 0.85724 (Simulation time: 0 hr 10 min 12 sec) 
Heartbeat CPU 0 instructions: 230000000 cycles: 271352535 heartbeat IPC: 0.671518 cumulative IPC: 0.856164 (Simulation time: 0 hr 10 min 14 sec) 
Heartbeat CPU 0 instructions: 231000000 cycles: 272688199 heartbeat IPC: 0.748691 cumulative IPC: 0.855608 (Simulation time: 0 hr 10 min 16 sec) 
Heartbeat CPU 0 instructions: 232000001 cycles: 273886087 heartbeat IPC: 0.834803 cumulative IPC: 0.855512 (Simulation time: 0 hr 10 min 19 sec) 
Heartbeat CPU 0 instructions: 233000001 cycles: 274921040 heartbeat IPC: 0.966227 cumulative IPC: 0.855952 (Simulation time: 0 hr 10 min 21 sec) 
Heartbeat CPU 0 instructions: 234000000 cycles: 276259633 heartbeat IPC: 0.747052 cumulative IPC: 0.855395 (Simulation time: 0 hr 10 min 23 sec) 
Heartbeat CPU 0 instructions: 235000003 cycles: 277506328 heartbeat IPC: 0.802123 cumulative IPC: 0.855143 (Simulation time: 0 hr 10 min 26 sec) 
Heartbeat CPU 0 instructions: 236000001 cycles: 279517788 heartbeat IPC: 0.49715 cumulative IPC: 0.852427 (Simulation time: 0 hr 10 min 28 sec) 
Heartbeat CPU 0 instructions: 237000003 cycles: 280958561 heartbeat IPC: 0.694073 cumulative IPC: 0.851571 (Simulation time: 0 hr 10 min 31 sec) 
Heartbeat CPU 0 instructions: 238000000 cycles: 282054857 heartbeat IPC: 0.91216 cumulative IPC: 0.851819 (Simulation time: 0 hr 10 min 34 sec) 
Heartbeat CPU 0 instructions: 239000001 cycles: 283545371 heartbeat IPC: 0.67091 cumulative IPC: 0.850817 (Simulation time: 0 hr 10 min 36 sec) 
Heartbeat CPU 0 instructions: 240000002 cycles: 284877561 heartbeat IPC: 0.750644 cumulative IPC: 0.850324 (Simulation time: 0 hr 10 min 39 sec) 
Heartbeat CPU 0 instructions: 241000002 cycles: 286238638 heartbeat IPC: 0.734712 cumulative IPC: 0.849745 (Simulation time: 0 hr 10 min 41 sec) 
Heartbeat CPU 0 instructions: 242000000 cycles: 287352556 heartbeat IPC: 0.89773 cumulative IPC: 0.849941 (Simulation time: 0 hr 10 min 44 sec) 
Heartbeat CPU 0 instructions: 243000002 cycles: 288585582 heartbeat IPC: 0.811015 cumulative IPC: 0.849766 (Simulation time: 0 hr 10 min 46 sec) 
Heartbeat CPU 0 instructions: 244000001 cycles: 289852158 heartbeat IPC: 0.789529 cumulative IPC: 0.849489 (Simulation time: 0 hr 10 min 49 sec) 
Heartbeat CPU 0 instructions: 245000003 cycles: 291092910 heartbeat IPC: 0.805964 cumulative IPC: 0.849294 (Simulation time: 0 hr 10 min 52 sec) 
Heartbeat CPU 0 instructions: 246000000 cycles: 292545824 heartbeat IPC: 0.68827 cumulative IPC: 0.848453 (Simulation time: 0 hr 10 min 54 sec) 
Heartbeat CPU 0 instructions: 247000003 cycles: 293796108 heartbeat IPC: 0.799821 cumulative IPC: 0.848235 (Simulation time: 0 hr 10 min 57 sec) 
Heartbeat CPU 0 instructions: 248000002 cycles: 294988712 heartbeat IPC: 0.8385 cumulative IPC: 0.848194 (Simulation time: 0 hr 10 min 59 sec) 
Heartbeat CPU 0 instructions: 249000000 cycles: 296041043 heartbeat IPC: 0.950269 cumulative IPC: 0.848575 (Simulation time: 0 hr 11 min 1 sec) 
Heartbeat CPU 0 instructions: 250000002 cycles: 296907704 heartbeat IPC: 1.15386 cumulative IPC: 0.849512 (Simulation time: 0 hr 11 min 4 sec) 
Heartbeat CPU 0 instructions: 251000000 cycles: 298241980 heartbeat IPC: 0.749469 cumulative IPC: 0.849041 (Simulation time: 0 hr 11 min 6 sec) 
Heartbeat CPU 0 instructions: 252000002 cycles: 299164880 heartbeat IPC: 1.08354 cumulative IPC: 0.849801 (Simulation time: 0 hr 11 min 8 sec) 
Heartbeat CPU 0 instructions: 253000000 cycles: 300224217 heartbeat IPC: 0.943985 cumulative IPC: 0.85015 (Simulation time: 0 hr 11 min 11 sec) 
Heartbeat CPU 0 instructions: 254000002 cycles: 301391577 heartbeat IPC: 0.856636 cumulative IPC: 0.850177 (Simulation time: 0 hr 11 min 13 sec) 
Heartbeat CPU 0 instructions: 255000001 cycles: 302446974 heartbeat IPC: 0.94751 cumulative IPC: 0.850533 (Simulation time: 0 hr 11 min 16 sec) 
Heartbeat CPU 0 instructions: 256000000 cycles: 303683420 heartbeat IPC: 0.808769 cumulative IPC: 0.850355 (Simulation time: 0 hr 11 min 18 sec) 
Heartbeat CPU 0 instructions: 257000000 cycles: 305002407 heartbeat IPC: 0.758158 cumulative IPC: 0.849936 (Simulation time: 0 hr 11 min 21 sec) 
Heartbeat CPU 0 instructions: 258000001 cycles: 306038380 heartbeat IPC: 0.965277 cumulative IPC: 0.850346 (Simulation time: 0 hr 11 min 24 sec) 
Heartbeat CPU 0 instructions: 259000000 cycles: 307344822 heartbeat IPC: 0.765437 cumulative IPC: 0.849967 (Simulation time: 0 hr 11 min 26 sec) 
Heartbeat CPU 0 instructions: 260000000 cycles: 308681074 heartbeat IPC: 0.748362 cumulative IPC: 0.849506 (Simulation time: 0 hr 11 min 29 sec) 
Finished CPU 0 instructions: 250000000 cycles: 294288659 cumulative IPC: 0.849506 (Simulation time: 0 hr 11 min 29 sec) 

ChampSim completed all CPUs

Region of Interest Statistics

CPU 0 cumulative IPC: 0.849506 instructions: 250000000 cycles: 294288659
L1D TOTAL     ACCESS:   80723976  HIT:   78592597  MISS:    2131379
L1D LOAD      ACCESS:   48817209  HIT:   46923068  MISS:    1894141
L1D RFO       ACCESS:   31906767  HIT:   31669529  MISS:     237238
L1D PREFETCH  ACCESS:          0  HIT:          0  MISS:          0
L1D WRITEBACK ACCESS:          0  HIT:          0  MISS:          0
L1D PREFETCH  REQUESTED:          0  ISSUED:          0  USEFUL:          0  USELESS:          0
L1D AVERAGE MISS LATENCY: 32.687 cycles
L1I TOTAL     ACCESS:   50172820  HIT:   49717454  MISS:     455366
L1I LOAD      ACCESS:   50172820  HIT:   49717454  MISS:     455366
L1I RFO       ACCESS:          0  HIT:          0  MISS:          0
L1I PREFETCH  ACCESS:          0  HIT:          0  MISS:          0
L1I WRITEBACK ACCESS:          0  HIT:          0  MISS:          0
L1I PREFETCH  REQUESTED:          0  ISSUED:          0  USEFUL:          0  USELESS:          0
L1I AVERAGE MISS LATENCY: 41.6064 cycles
L2C TOTAL     ACCESS:    3131374  HIT:    2388239  MISS:     743135
L2C LOAD      ACCESS:    2349411  HIT:    1742403  MISS:     607008
L2C RFO       ACCESS:     237222  HIT:     102267  MISS:     134955
L2C PREFETCH  ACCESS:          0  HIT:          0  MISS:          0
L2C WRITEBACK ACCESS:     544741  HIT:     543569  MISS:       1172
L2C PREFETCH  REQUESTED:          0  ISSUED:          0  USEFUL:          0  USELESS:          0
L2C AVERAGE MISS LATENCY: 69.594 cycles
LLC TOTAL     ACCESS:    1425294  HIT:    1262896  MISS:     162398
LLC LOAD      ACCESS:     607006  HIT:     515408  MISS:      91598
LLC RFO       ACCESS:     134955  HIT:      75104  MISS:      59851
LLC PREFETCH  ACCESS:     444375  HIT:     434016  MISS:      10359
LLC WRITEBACK ACCESS:     238958  HIT:     238368  MISS:        590
LLC PREFETCH  REQUESTED:     449529  ISSUED:     449529  USEFUL:       7910  USELESS:       2036
LLC AVERAGE MISS LATENCY: 188.401 cycles
Major fault: 0 Minor fault: 10059
performance stats:
mapping cache size: 63919
divergence: 307600

DRAM Statistics
 CHANNEL 0
 RQ ROW_BUFFER_HIT:      42312  ROW_BUFFER_MISS:      39008
 DBUS_CONGESTED:      53886
 WQ ROW_BUFFER_HIT:      14928  ROW_BUFFER_MISS:      29104  FULL:          0

 CHANNEL 1
 RQ ROW_BUFFER_HIT:      41993  ROW_BUFFER_MISS:      38488
 DBUS_CONGESTED:      53886
 WQ ROW_BUFFER_HIT:      15012  ROW_BUFFER_MISS:      28545  FULL:          0

 AVG_CONGESTED_CYCLE: 18

CPU 0 Branch Prediction Accuracy: 96.6573% MPKI: 7.17291 Average ROB Occupancy at Mispredict: 50.8852

Branch types
NOT_BRANCH: 196353864 78.5415%
BRANCH_DIRECT_JUMP: 4452375 1.78095%
BRANCH_INDIRECT: 1053207 0.421283%
BRANCH_CONDITIONAL: 39647688 15.8591%
BRANCH_DIRECT_CALL: 4050694 1.62028%
BRANCH_INDIRECT_CALL: 195560 0.078224%
BRANCH_RETURN: 4246253 1.6985%
BRANCH_OTHER: 0 0%

