
*** ChampSim Multicore Out-of-Order Simulator ***

Warmup Instructions: 1000000
Prefetch Warmup Instructions: 10000000
Simulation Instructions: 250000000
Stat Printing Period: 1000000
Number of CPUs: 1
LLC sets: 2048
LLC ways: 16
Off-chip DRAM Size: 32768 MB Channels: 2 Width: 64-bit Data Rate: 1024 MT/s

CPU 0 runs /scratch/cluster/cmolder/ML-DPC/ChampSimTraces/spec17/605.mcf-s7.trace.xz
Read seed: 227
Heartbeat CPU 0 instructions: 1000001 cycles: 452855 heartbeat IPC: 2.20821 cumulative IPC: 2.20821 (Simulation time: 0 hr 0 min 3 sec) 

Warmup complete CPU 0 instructions: 1000001 cycles: 452855 (Simulation time: 0 hr 0 min 3 sec) 

Heartbeat CPU 0 instructions: 2000001 cycles: 6579085 heartbeat IPC: 0.163233 cumulative IPC: 0.163233 (Simulation time: 0 hr 0 min 8 sec) 
Heartbeat CPU 0 instructions: 3000000 cycles: 12711642 heartbeat IPC: 0.163064 cumulative IPC: 0.163148 (Simulation time: 0 hr 0 min 12 sec) 
Heartbeat CPU 0 instructions: 4000001 cycles: 22908147 heartbeat IPC: 0.0980729 cumulative IPC: 0.133599 (Simulation time: 0 hr 0 min 18 sec) 
Heartbeat CPU 0 instructions: 5000000 cycles: 29432399 heartbeat IPC: 0.153274 cumulative IPC: 0.138028 (Simulation time: 0 hr 0 min 23 sec) 
Heartbeat CPU 0 instructions: 6000001 cycles: 35441882 heartbeat IPC: 0.166404 cumulative IPC: 0.142902 (Simulation time: 0 hr 0 min 28 sec) 
Heartbeat CPU 0 instructions: 7000001 cycles: 41351011 heartbeat IPC: 0.16923 cumulative IPC: 0.146706 (Simulation time: 0 hr 0 min 33 sec) 
Heartbeat CPU 0 instructions: 8000002 cycles: 47241790 heartbeat IPC: 0.169757 cumulative IPC: 0.149608 (Simulation time: 0 hr 0 min 37 sec) 
Heartbeat CPU 0 instructions: 9000001 cycles: 53245245 heartbeat IPC: 0.166571 cumulative IPC: 0.151537 (Simulation time: 0 hr 0 min 42 sec) 
Heartbeat CPU 0 instructions: 10000000 cycles: 59323866 heartbeat IPC: 0.164511 cumulative IPC: 0.152877 (Simulation time: 0 hr 0 min 47 sec) 

Warmup complete CPU 0 instructions: 10000002 cycles: 59324074 (Simulation time: 0 hr 0 min 47 sec) 

Heartbeat CPU 0 instructions: 11000000 cycles: 65222111 heartbeat IPC: 0.169542 cumulative IPC: 0.169548 (Simulation time: 0 hr 0 min 52 sec) 
Heartbeat CPU 0 instructions: 12000003 cycles: 71098847 heartbeat IPC: 0.170163 cumulative IPC: 0.169855 (Simulation time: 0 hr 0 min 57 sec) 
Heartbeat CPU 0 instructions: 13000000 cycles: 77155411 heartbeat IPC: 0.16511 cumulative IPC: 0.168243 (Simulation time: 0 hr 1 min 1 sec) 
Heartbeat CPU 0 instructions: 14000000 cycles: 83018454 heartbeat IPC: 0.17056 cumulative IPC: 0.168816 (Simulation time: 0 hr 1 min 6 sec) 
Heartbeat CPU 0 instructions: 15000000 cycles: 88885924 heartbeat IPC: 0.170431 cumulative IPC: 0.169137 (Simulation time: 0 hr 1 min 11 sec) 
Heartbeat CPU 0 instructions: 16000001 cycles: 94621253 heartbeat IPC: 0.174358 cumulative IPC: 0.169985 (Simulation time: 0 hr 1 min 16 sec) 
Heartbeat CPU 0 instructions: 17000001 cycles: 100596922 heartbeat IPC: 0.167345 cumulative IPC: 0.169603 (Simulation time: 0 hr 1 min 21 sec) 
Heartbeat CPU 0 instructions: 18000000 cycles: 106630789 heartbeat IPC: 0.165731 cumulative IPC: 0.169109 (Simulation time: 0 hr 1 min 26 sec) 
Heartbeat CPU 0 instructions: 19000003 cycles: 112669093 heartbeat IPC: 0.16561 cumulative IPC: 0.168713 (Simulation time: 0 hr 1 min 30 sec) 
Heartbeat CPU 0 instructions: 20000000 cycles: 119022189 heartbeat IPC: 0.157403 cumulative IPC: 0.167509 (Simulation time: 0 hr 1 min 35 sec) 
Heartbeat CPU 0 instructions: 21000000 cycles: 125590694 heartbeat IPC: 0.152242 cumulative IPC: 0.165996 (Simulation time: 0 hr 1 min 40 sec) 
Heartbeat CPU 0 instructions: 22000000 cycles: 134301865 heartbeat IPC: 0.114795 cumulative IPC: 0.160047 (Simulation time: 0 hr 1 min 46 sec) 
Heartbeat CPU 0 instructions: 23000002 cycles: 140779850 heartbeat IPC: 0.154369 cumulative IPC: 0.159596 (Simulation time: 0 hr 1 min 51 sec) 
Heartbeat CPU 0 instructions: 24000002 cycles: 147122730 heartbeat IPC: 0.157657 cumulative IPC: 0.159456 (Simulation time: 0 hr 1 min 56 sec) 
Heartbeat CPU 0 instructions: 25000000 cycles: 153394172 heartbeat IPC: 0.159453 cumulative IPC: 0.159456 (Simulation time: 0 hr 2 min 1 sec) 
Heartbeat CPU 0 instructions: 26000003 cycles: 159891315 heartbeat IPC: 0.153914 cumulative IPC: 0.159098 (Simulation time: 0 hr 2 min 6 sec) 
Heartbeat CPU 0 instructions: 27000002 cycles: 166359173 heartbeat IPC: 0.154611 cumulative IPC: 0.158826 (Simulation time: 0 hr 2 min 11 sec) 
Heartbeat CPU 0 instructions: 28000001 cycles: 172942072 heartbeat IPC: 0.151909 cumulative IPC: 0.158426 (Simulation time: 0 hr 2 min 16 sec) 
Heartbeat CPU 0 instructions: 29000002 cycles: 179572897 heartbeat IPC: 0.150811 cumulative IPC: 0.158006 (Simulation time: 0 hr 2 min 21 sec) 
Heartbeat CPU 0 instructions: 30000001 cycles: 186825503 heartbeat IPC: 0.137881 cumulative IPC: 0.156861 (Simulation time: 0 hr 2 min 26 sec) 
Heartbeat CPU 0 instructions: 31000001 cycles: 193662198 heartbeat IPC: 0.14627 cumulative IPC: 0.156322 (Simulation time: 0 hr 2 min 31 sec) 
Heartbeat CPU 0 instructions: 32000000 cycles: 199655759 heartbeat IPC: 0.166846 cumulative IPC: 0.156771 (Simulation time: 0 hr 2 min 36 sec) 
Heartbeat CPU 0 instructions: 33000000 cycles: 207150630 heartbeat IPC: 0.133425 cumulative IPC: 0.155588 (Simulation time: 0 hr 2 min 41 sec) 
Heartbeat CPU 0 instructions: 34000000 cycles: 213003768 heartbeat IPC: 0.170849 cumulative IPC: 0.156169 (Simulation time: 0 hr 2 min 46 sec) 
Heartbeat CPU 0 instructions: 35000002 cycles: 219866143 heartbeat IPC: 0.145722 cumulative IPC: 0.155722 (Simulation time: 0 hr 2 min 51 sec) 
Heartbeat CPU 0 instructions: 36000002 cycles: 227299060 heartbeat IPC: 0.134537 cumulative IPC: 0.154785 (Simulation time: 0 hr 2 min 56 sec) 
Heartbeat CPU 0 instructions: 37000001 cycles: 233815115 heartbeat IPC: 0.153467 cumulative IPC: 0.154736 (Simulation time: 0 hr 3 min 1 sec) 
Heartbeat CPU 0 instructions: 38000000 cycles: 240101404 heartbeat IPC: 0.159076 cumulative IPC: 0.154887 (Simulation time: 0 hr 3 min 7 sec) 
Heartbeat CPU 0 instructions: 39000003 cycles: 246858092 heartbeat IPC: 0.148002 cumulative IPC: 0.154639 (Simulation time: 0 hr 3 min 12 sec) 
Heartbeat CPU 0 instructions: 40000002 cycles: 253180577 heartbeat IPC: 0.158165 cumulative IPC: 0.154754 (Simulation time: 0 hr 3 min 17 sec) 
Heartbeat CPU 0 instructions: 41000001 cycles: 259580853 heartbeat IPC: 0.156243 cumulative IPC: 0.154801 (Simulation time: 0 hr 3 min 25 sec) 
Heartbeat CPU 0 instructions: 42000001 cycles: 270998219 heartbeat IPC: 0.0875859 cumulative IPC: 0.151176 (Simulation time: 0 hr 3 min 37 sec) 
Heartbeat CPU 0 instructions: 43000000 cycles: 277603305 heartbeat IPC: 0.151398 cumulative IPC: 0.151182 (Simulation time: 0 hr 3 min 46 sec) 
Heartbeat CPU 0 instructions: 44000000 cycles: 283777723 heartbeat IPC: 0.161959 cumulative IPC: 0.151479 (Simulation time: 0 hr 3 min 55 sec) 
Heartbeat CPU 0 instructions: 45000000 cycles: 290236665 heartbeat IPC: 0.154824 cumulative IPC: 0.151572 (Simulation time: 0 hr 4 min 4 sec) 
Heartbeat CPU 0 instructions: 46000002 cycles: 296808691 heartbeat IPC: 0.15216 cumulative IPC: 0.151589 (Simulation time: 0 hr 4 min 14 sec) 
Heartbeat CPU 0 instructions: 47000000 cycles: 303309651 heartbeat IPC: 0.153823 cumulative IPC: 0.151648 (Simulation time: 0 hr 4 min 23 sec) 
Heartbeat CPU 0 instructions: 48000001 cycles: 309722631 heartbeat IPC: 0.155934 cumulative IPC: 0.151758 (Simulation time: 0 hr 4 min 31 sec) 
Heartbeat CPU 0 instructions: 49000003 cycles: 316768998 heartbeat IPC: 0.141917 cumulative IPC: 0.151489 (Simulation time: 0 hr 4 min 36 sec) 
Heartbeat CPU 0 instructions: 50000000 cycles: 323099969 heartbeat IPC: 0.157953 cumulative IPC: 0.151644 (Simulation time: 0 hr 4 min 41 sec) 
Heartbeat CPU 0 instructions: 51000002 cycles: 329219532 heartbeat IPC: 0.163411 cumulative IPC: 0.151911 (Simulation time: 0 hr 4 min 46 sec) 
Heartbeat CPU 0 instructions: 52000000 cycles: 335077081 heartbeat IPC: 0.17072 cumulative IPC: 0.15231 (Simulation time: 0 hr 4 min 51 sec) 
Heartbeat CPU 0 instructions: 53000001 cycles: 341138373 heartbeat IPC: 0.164981 cumulative IPC: 0.152583 (Simulation time: 0 hr 4 min 55 sec) 
Heartbeat CPU 0 instructions: 54000003 cycles: 347593918 heartbeat IPC: 0.154906 cumulative IPC: 0.152635 (Simulation time: 0 hr 5 min 0 sec) 
Heartbeat CPU 0 instructions: 55000000 cycles: 354101455 heartbeat IPC: 0.153668 cumulative IPC: 0.152658 (Simulation time: 0 hr 5 min 7 sec) 
Heartbeat CPU 0 instructions: 56000001 cycles: 361132064 heartbeat IPC: 0.142235 cumulative IPC: 0.152415 (Simulation time: 0 hr 5 min 15 sec) 
Heartbeat CPU 0 instructions: 57000001 cycles: 367697027 heartbeat IPC: 0.152324 cumulative IPC: 0.152413 (Simulation time: 0 hr 5 min 24 sec) 
Heartbeat CPU 0 instructions: 58000000 cycles: 373788364 heartbeat IPC: 0.164167 cumulative IPC: 0.152641 (Simulation time: 0 hr 5 min 32 sec) 
Heartbeat CPU 0 instructions: 59000000 cycles: 379833633 heartbeat IPC: 0.165419 cumulative IPC: 0.152882 (Simulation time: 0 hr 5 min 41 sec) 
Heartbeat CPU 0 instructions: 60000000 cycles: 385898097 heartbeat IPC: 0.164895 cumulative IPC: 0.153105 (Simulation time: 0 hr 5 min 49 sec) 
Heartbeat CPU 0 instructions: 61000001 cycles: 392121507 heartbeat IPC: 0.160684 cumulative IPC: 0.153246 (Simulation time: 0 hr 5 min 58 sec) 
Heartbeat CPU 0 instructions: 62000002 cycles: 398235627 heartbeat IPC: 0.163556 cumulative IPC: 0.153432 (Simulation time: 0 hr 6 min 6 sec) 
Heartbeat CPU 0 instructions: 63000000 cycles: 404489892 heartbeat IPC: 0.159891 cumulative IPC: 0.153549 (Simulation time: 0 hr 6 min 15 sec) 
Heartbeat CPU 0 instructions: 64000001 cycles: 410855068 heartbeat IPC: 0.157105 cumulative IPC: 0.153614 (Simulation time: 0 hr 6 min 23 sec) 
Heartbeat CPU 0 instructions: 65000002 cycles: 417525614 heartbeat IPC: 0.149913 cumulative IPC: 0.153545 (Simulation time: 0 hr 6 min 28 sec) 
Heartbeat CPU 0 instructions: 66000000 cycles: 423700698 heartbeat IPC: 0.161941 cumulative IPC: 0.153687 (Simulation time: 0 hr 6 min 34 sec) 
Heartbeat CPU 0 instructions: 67000000 cycles: 429989703 heartbeat IPC: 0.159008 cumulative IPC: 0.153777 (Simulation time: 0 hr 6 min 41 sec) 
Heartbeat CPU 0 instructions: 68000001 cycles: 436011922 heartbeat IPC: 0.166052 cumulative IPC: 0.153974 (Simulation time: 0 hr 6 min 46 sec) 
Heartbeat CPU 0 instructions: 69000002 cycles: 442183184 heartbeat IPC: 0.162042 cumulative IPC: 0.154104 (Simulation time: 0 hr 6 min 52 sec) 
Heartbeat CPU 0 instructions: 70000002 cycles: 448272379 heartbeat IPC: 0.164225 cumulative IPC: 0.154262 (Simulation time: 0 hr 6 min 57 sec) 
Heartbeat CPU 0 instructions: 71000000 cycles: 454399305 heartbeat IPC: 0.163214 cumulative IPC: 0.154401 (Simulation time: 0 hr 7 min 4 sec) 
Heartbeat CPU 0 instructions: 72000001 cycles: 460523070 heartbeat IPC: 0.163298 cumulative IPC: 0.154537 (Simulation time: 0 hr 7 min 13 sec) 
Heartbeat CPU 0 instructions: 73000002 cycles: 466593812 heartbeat IPC: 0.164725 cumulative IPC: 0.154689 (Simulation time: 0 hr 7 min 21 sec) 
Heartbeat CPU 0 instructions: 74000000 cycles: 472823189 heartbeat IPC: 0.160529 cumulative IPC: 0.154777 (Simulation time: 0 hr 7 min 27 sec) 
Heartbeat CPU 0 instructions: 75000000 cycles: 479118868 heartbeat IPC: 0.158839 cumulative IPC: 0.154838 (Simulation time: 0 hr 7 min 32 sec) 
Heartbeat CPU 0 instructions: 76000000 cycles: 485421393 heartbeat IPC: 0.158667 cumulative IPC: 0.154894 (Simulation time: 0 hr 7 min 38 sec) 
Heartbeat CPU 0 instructions: 77000000 cycles: 491736113 heartbeat IPC: 0.15836 cumulative IPC: 0.154945 (Simulation time: 0 hr 7 min 43 sec) 
Heartbeat CPU 0 instructions: 78000000 cycles: 498079199 heartbeat IPC: 0.157652 cumulative IPC: 0.154984 (Simulation time: 0 hr 7 min 48 sec) 
Heartbeat CPU 0 instructions: 79000002 cycles: 504452023 heartbeat IPC: 0.156917 cumulative IPC: 0.155012 (Simulation time: 0 hr 7 min 53 sec) 
Heartbeat CPU 0 instructions: 80000002 cycles: 510707419 heartbeat IPC: 0.159862 cumulative IPC: 0.155079 (Simulation time: 0 hr 7 min 58 sec) 
Heartbeat CPU 0 instructions: 81000001 cycles: 517029728 heartbeat IPC: 0.15817 cumulative IPC: 0.155122 (Simulation time: 0 hr 8 min 3 sec) 
Heartbeat CPU 0 instructions: 82000003 cycles: 523515828 heartbeat IPC: 0.154176 cumulative IPC: 0.155108 (Simulation time: 0 hr 8 min 9 sec) 
Heartbeat CPU 0 instructions: 83000002 cycles: 530031512 heartbeat IPC: 0.153476 cumulative IPC: 0.155086 (Simulation time: 0 hr 8 min 17 sec) 
Heartbeat CPU 0 instructions: 84000001 cycles: 536779108 heartbeat IPC: 0.148201 cumulative IPC: 0.154988 (Simulation time: 0 hr 8 min 22 sec) 
Heartbeat CPU 0 instructions: 85000003 cycles: 543965066 heartbeat IPC: 0.139161 cumulative IPC: 0.154754 (Simulation time: 0 hr 8 min 27 sec) 
Heartbeat CPU 0 instructions: 86000000 cycles: 550607825 heartbeat IPC: 0.150539 cumulative IPC: 0.154697 (Simulation time: 0 hr 8 min 32 sec) 
Heartbeat CPU 0 instructions: 87000001 cycles: 558048815 heartbeat IPC: 0.134391 cumulative IPC: 0.154394 (Simulation time: 0 hr 8 min 38 sec) 
Heartbeat CPU 0 instructions: 88000000 cycles: 564921926 heartbeat IPC: 0.145494 cumulative IPC: 0.154273 (Simulation time: 0 hr 8 min 43 sec) 
Heartbeat CPU 0 instructions: 89000001 cycles: 571345782 heartbeat IPC: 0.15567 cumulative IPC: 0.15429 (Simulation time: 0 hr 8 min 48 sec) 
Heartbeat CPU 0 instructions: 90000000 cycles: 577729920 heartbeat IPC: 0.156638 cumulative IPC: 0.154319 (Simulation time: 0 hr 8 min 53 sec) 
Heartbeat CPU 0 instructions: 91000000 cycles: 588649318 heartbeat IPC: 0.0915801 cumulative IPC: 0.153025 (Simulation time: 0 hr 9 min 0 sec) 
Heartbeat CPU 0 instructions: 92000003 cycles: 594824284 heartbeat IPC: 0.161945 cumulative IPC: 0.153128 (Simulation time: 0 hr 9 min 5 sec) 
Heartbeat CPU 0 instructions: 93000000 cycles: 601237727 heartbeat IPC: 0.155922 cumulative IPC: 0.153161 (Simulation time: 0 hr 9 min 10 sec) 
Heartbeat CPU 0 instructions: 94000001 cycles: 608303083 heartbeat IPC: 0.141536 cumulative IPC: 0.153011 (Simulation time: 0 hr 9 min 15 sec) 
Heartbeat CPU 0 instructions: 95000000 cycles: 614668249 heartbeat IPC: 0.157105 cumulative IPC: 0.153058 (Simulation time: 0 hr 9 min 20 sec) 
Heartbeat CPU 0 instructions: 96000000 cycles: 621157504 heartbeat IPC: 0.154101 cumulative IPC: 0.15307 (Simulation time: 0 hr 9 min 26 sec) 
Heartbeat CPU 0 instructions: 97000001 cycles: 627571384 heartbeat IPC: 0.155912 cumulative IPC: 0.153102 (Simulation time: 0 hr 9 min 31 sec) 
Heartbeat CPU 0 instructions: 98000000 cycles: 634294306 heartbeat IPC: 0.148745 cumulative IPC: 0.153051 (Simulation time: 0 hr 9 min 36 sec) 
Heartbeat CPU 0 instructions: 99000000 cycles: 640988937 heartbeat IPC: 0.149373 cumulative IPC: 0.153009 (Simulation time: 0 hr 9 min 44 sec) 
Heartbeat CPU 0 instructions: 100000001 cycles: 647192015 heartbeat IPC: 0.16121 cumulative IPC: 0.153096 (Simulation time: 0 hr 9 min 50 sec) 
Heartbeat CPU 0 instructions: 101000000 cycles: 653334931 heartbeat IPC: 0.162789 cumulative IPC: 0.153196 (Simulation time: 0 hr 9 min 55 sec) 
Heartbeat CPU 0 instructions: 102000000 cycles: 659415587 heartbeat IPC: 0.164456 cumulative IPC: 0.15331 (Simulation time: 0 hr 10 min 0 sec) 
Heartbeat CPU 0 instructions: 103000002 cycles: 665674515 heartbeat IPC: 0.159772 cumulative IPC: 0.153377 (Simulation time: 0 hr 10 min 5 sec) 
Heartbeat CPU 0 instructions: 104000002 cycles: 671779637 heartbeat IPC: 0.163797 cumulative IPC: 0.153481 (Simulation time: 0 hr 10 min 10 sec) 
Heartbeat CPU 0 instructions: 105000000 cycles: 683315914 heartbeat IPC: 0.0866829 cumulative IPC: 0.152246 (Simulation time: 0 hr 10 min 17 sec) 
Heartbeat CPU 0 instructions: 106000002 cycles: 692433090 heartbeat IPC: 0.109683 cumulative IPC: 0.151633 (Simulation time: 0 hr 10 min 23 sec) 
Heartbeat CPU 0 instructions: 107000002 cycles: 698962041 heartbeat IPC: 0.153164 cumulative IPC: 0.151648 (Simulation time: 0 hr 10 min 29 sec) 
Heartbeat CPU 0 instructions: 108000000 cycles: 705269937 heartbeat IPC: 0.158531 cumulative IPC: 0.151716 (Simulation time: 0 hr 10 min 34 sec) 
Heartbeat CPU 0 instructions: 109000000 cycles: 711727375 heartbeat IPC: 0.15486 cumulative IPC: 0.151747 (Simulation time: 0 hr 10 min 39 sec) 
Heartbeat CPU 0 instructions: 110000000 cycles: 718438907 heartbeat IPC: 0.148997 cumulative IPC: 0.151719 (Simulation time: 0 hr 10 min 44 sec) 
Heartbeat CPU 0 instructions: 111000000 cycles: 726434788 heartbeat IPC: 0.125064 cumulative IPC: 0.151399 (Simulation time: 0 hr 10 min 49 sec) 
Heartbeat CPU 0 instructions: 112000000 cycles: 732967537 heartbeat IPC: 0.153075 cumulative IPC: 0.151415 (Simulation time: 0 hr 10 min 54 sec) 
Heartbeat CPU 0 instructions: 113000000 cycles: 739346147 heartbeat IPC: 0.156774 cumulative IPC: 0.151466 (Simulation time: 0 hr 10 min 59 sec) 
Heartbeat CPU 0 instructions: 114000000 cycles: 745694725 heartbeat IPC: 0.157516 cumulative IPC: 0.151522 (Simulation time: 0 hr 11 min 4 sec) 
Heartbeat CPU 0 instructions: 115000001 cycles: 752927189 heartbeat IPC: 0.138266 cumulative IPC: 0.151383 (Simulation time: 0 hr 11 min 9 sec) 
Heartbeat CPU 0 instructions: 116000001 cycles: 760403595 heartbeat IPC: 0.133754 cumulative IPC: 0.151195 (Simulation time: 0 hr 11 min 15 sec) 
Heartbeat CPU 0 instructions: 117000001 cycles: 766613390 heartbeat IPC: 0.161036 cumulative IPC: 0.151282 (Simulation time: 0 hr 11 min 20 sec) 
Heartbeat CPU 0 instructions: 118000000 cycles: 772832017 heartbeat IPC: 0.160807 cumulative IPC: 0.151365 (Simulation time: 0 hr 11 min 25 sec) 
Heartbeat CPU 0 instructions: 119000000 cycles: 779373867 heartbeat IPC: 0.152862 cumulative IPC: 0.151378 (Simulation time: 0 hr 11 min 30 sec) 
Heartbeat CPU 0 instructions: 120000000 cycles: 785612665 heartbeat IPC: 0.160287 cumulative IPC: 0.151455 (Simulation time: 0 hr 11 min 37 sec) 
Heartbeat CPU 0 instructions: 121000000 cycles: 791920672 heartbeat IPC: 0.158529 cumulative IPC: 0.151516 (Simulation time: 0 hr 11 min 43 sec) 
Heartbeat CPU 0 instructions: 122000001 cycles: 798107438 heartbeat IPC: 0.161636 cumulative IPC: 0.151601 (Simulation time: 0 hr 11 min 48 sec) 
Heartbeat CPU 0 instructions: 123000000 cycles: 804558550 heartbeat IPC: 0.155012 cumulative IPC: 0.15163 (Simulation time: 0 hr 11 min 53 sec) 
Heartbeat CPU 0 instructions: 124000001 cycles: 810889923 heartbeat IPC: 0.157944 cumulative IPC: 0.151683 (Simulation time: 0 hr 11 min 58 sec) 
Heartbeat CPU 0 instructions: 125000000 cycles: 817548520 heartbeat IPC: 0.150182 cumulative IPC: 0.15167 (Simulation time: 0 hr 12 min 4 sec) 
Heartbeat CPU 0 instructions: 126000000 cycles: 824252957 heartbeat IPC: 0.149155 cumulative IPC: 0.151648 (Simulation time: 0 hr 12 min 9 sec) 
Heartbeat CPU 0 instructions: 127000003 cycles: 831211775 heartbeat IPC: 0.143703 cumulative IPC: 0.151576 (Simulation time: 0 hr 12 min 14 sec) 
Heartbeat CPU 0 instructions: 128000002 cycles: 838295076 heartbeat IPC: 0.141177 cumulative IPC: 0.151482 (Simulation time: 0 hr 12 min 20 sec) 
Heartbeat CPU 0 instructions: 129000002 cycles: 844779923 heartbeat IPC: 0.154206 cumulative IPC: 0.151504 (Simulation time: 0 hr 12 min 25 sec) 
Heartbeat CPU 0 instructions: 130000000 cycles: 850951236 heartbeat IPC: 0.16204 cumulative IPC: 0.151587 (Simulation time: 0 hr 12 min 30 sec) 
Heartbeat CPU 0 instructions: 131000001 cycles: 856962227 heartbeat IPC: 0.166362 cumulative IPC: 0.151698 (Simulation time: 0 hr 12 min 35 sec) 
Heartbeat CPU 0 instructions: 132000000 cycles: 862965097 heartbeat IPC: 0.166587 cumulative IPC: 0.151809 (Simulation time: 0 hr 12 min 41 sec) 
Heartbeat CPU 0 instructions: 133000001 cycles: 869603432 heartbeat IPC: 0.15064 cumulative IPC: 0.151799 (Simulation time: 0 hr 12 min 46 sec) 
Heartbeat CPU 0 instructions: 134000001 cycles: 875675994 heartbeat IPC: 0.164675 cumulative IPC: 0.151895 (Simulation time: 0 hr 12 min 51 sec) 
Heartbeat CPU 0 instructions: 135000000 cycles: 881882637 heartbeat IPC: 0.161118 cumulative IPC: 0.151965 (Simulation time: 0 hr 12 min 55 sec) 
Heartbeat CPU 0 instructions: 136000000 cycles: 888132282 heartbeat IPC: 0.160009 cumulative IPC: 0.152026 (Simulation time: 0 hr 13 min 0 sec) 
Heartbeat CPU 0 instructions: 137000000 cycles: 894427327 heartbeat IPC: 0.158855 cumulative IPC: 0.152077 (Simulation time: 0 hr 13 min 5 sec) 
Heartbeat CPU 0 instructions: 138000000 cycles: 900685917 heartbeat IPC: 0.15978 cumulative IPC: 0.152134 (Simulation time: 0 hr 13 min 10 sec) 
Heartbeat CPU 0 instructions: 139000003 cycles: 906931751 heartbeat IPC: 0.160107 cumulative IPC: 0.152193 (Simulation time: 0 hr 13 min 15 sec) 
Heartbeat CPU 0 instructions: 140000001 cycles: 913889539 heartbeat IPC: 0.143724 cumulative IPC: 0.152124 (Simulation time: 0 hr 13 min 20 sec) 
Heartbeat CPU 0 instructions: 141000002 cycles: 920379156 heartbeat IPC: 0.154092 cumulative IPC: 0.152139 (Simulation time: 0 hr 13 min 25 sec) 
Heartbeat CPU 0 instructions: 142000000 cycles: 926497224 heartbeat IPC: 0.16345 cumulative IPC: 0.152219 (Simulation time: 0 hr 13 min 29 sec) 
Heartbeat CPU 0 instructions: 143000000 cycles: 932757525 heartbeat IPC: 0.159737 cumulative IPC: 0.152273 (Simulation time: 0 hr 13 min 34 sec) 
Heartbeat CPU 0 instructions: 144000001 cycles: 939146275 heartbeat IPC: 0.156525 cumulative IPC: 0.152304 (Simulation time: 0 hr 13 min 39 sec) 
Heartbeat CPU 0 instructions: 145000000 cycles: 945457399 heartbeat IPC: 0.15845 cumulative IPC: 0.152347 (Simulation time: 0 hr 13 min 44 sec) 
Heartbeat CPU 0 instructions: 146000002 cycles: 953352013 heartbeat IPC: 0.126669 cumulative IPC: 0.152121 (Simulation time: 0 hr 13 min 49 sec) 
Heartbeat CPU 0 instructions: 147000001 cycles: 959535935 heartbeat IPC: 0.16171 cumulative IPC: 0.152186 (Simulation time: 0 hr 13 min 54 sec) 
Heartbeat CPU 0 instructions: 148000000 cycles: 965598676 heartbeat IPC: 0.164942 cumulative IPC: 0.152272 (Simulation time: 0 hr 13 min 59 sec) 
Heartbeat CPU 0 instructions: 149000001 cycles: 971668379 heartbeat IPC: 0.164753 cumulative IPC: 0.152355 (Simulation time: 0 hr 14 min 4 sec) 
Heartbeat CPU 0 instructions: 150000000 cycles: 978013358 heartbeat IPC: 0.157605 cumulative IPC: 0.152391 (Simulation time: 0 hr 14 min 9 sec) 
Heartbeat CPU 0 instructions: 151000002 cycles: 984731270 heartbeat IPC: 0.148856 cumulative IPC: 0.152365 (Simulation time: 0 hr 14 min 14 sec) 
Heartbeat CPU 0 instructions: 152000001 cycles: 990938317 heartbeat IPC: 0.161107 cumulative IPC: 0.152424 (Simulation time: 0 hr 14 min 19 sec) 
Heartbeat CPU 0 instructions: 153000002 cycles: 997226692 heartbeat IPC: 0.159024 cumulative IPC: 0.152468 (Simulation time: 0 hr 14 min 23 sec) 
Heartbeat CPU 0 instructions: 154000000 cycles: 1003650320 heartbeat IPC: 0.155675 cumulative IPC: 0.15249 (Simulation time: 0 hr 14 min 29 sec) 
Heartbeat CPU 0 instructions: 155000003 cycles: 1010094702 heartbeat IPC: 0.155174 cumulative IPC: 0.152508 (Simulation time: 0 hr 14 min 34 sec) 
Heartbeat CPU 0 instructions: 156000000 cycles: 1016435921 heartbeat IPC: 0.157698 cumulative IPC: 0.152542 (Simulation time: 0 hr 14 min 39 sec) 
Heartbeat CPU 0 instructions: 157000003 cycles: 1023075182 heartbeat IPC: 0.15062 cumulative IPC: 0.152529 (Simulation time: 0 hr 14 min 44 sec) 
Heartbeat CPU 0 instructions: 158000000 cycles: 1030055643 heartbeat IPC: 0.143257 cumulative IPC: 0.152462 (Simulation time: 0 hr 14 min 49 sec) 
Heartbeat CPU 0 instructions: 159000000 cycles: 1036800841 heartbeat IPC: 0.148254 cumulative IPC: 0.152433 (Simulation time: 0 hr 14 min 55 sec) 
Heartbeat CPU 0 instructions: 160000002 cycles: 1043662209 heartbeat IPC: 0.145744 cumulative IPC: 0.152387 (Simulation time: 0 hr 15 min 0 sec) 
Heartbeat CPU 0 instructions: 161000001 cycles: 1050295552 heartbeat IPC: 0.150753 cumulative IPC: 0.152376 (Simulation time: 0 hr 15 min 5 sec) 
Heartbeat CPU 0 instructions: 162000001 cycles: 1057421855 heartbeat IPC: 0.140325 cumulative IPC: 0.15229 (Simulation time: 0 hr 15 min 11 sec) 
Heartbeat CPU 0 instructions: 163000002 cycles: 1064277576 heartbeat IPC: 0.145864 cumulative IPC: 0.152246 (Simulation time: 0 hr 15 min 16 sec) 
Heartbeat CPU 0 instructions: 164000000 cycles: 1071656997 heartbeat IPC: 0.135512 cumulative IPC: 0.152124 (Simulation time: 0 hr 15 min 21 sec) 
Heartbeat CPU 0 instructions: 165000000 cycles: 1078323805 heartbeat IPC: 0.149997 cumulative IPC: 0.15211 (Simulation time: 0 hr 15 min 27 sec) 
Heartbeat CPU 0 instructions: 166000002 cycles: 1084438468 heartbeat IPC: 0.163542 cumulative IPC: 0.152178 (Simulation time: 0 hr 15 min 32 sec) 
Heartbeat CPU 0 instructions: 167000001 cycles: 1091396078 heartbeat IPC: 0.143727 cumulative IPC: 0.152121 (Simulation time: 0 hr 15 min 37 sec) 
Heartbeat CPU 0 instructions: 168000002 cycles: 1097946388 heartbeat IPC: 0.152665 cumulative IPC: 0.152125 (Simulation time: 0 hr 15 min 42 sec) 
Heartbeat CPU 0 instructions: 169000000 cycles: 1104401532 heartbeat IPC: 0.154915 cumulative IPC: 0.152142 (Simulation time: 0 hr 15 min 48 sec) 
Heartbeat CPU 0 instructions: 170000001 cycles: 1110777121 heartbeat IPC: 0.156848 cumulative IPC: 0.15217 (Simulation time: 0 hr 15 min 53 sec) 
Heartbeat CPU 0 instructions: 171000000 cycles: 1116787932 heartbeat IPC: 0.166367 cumulative IPC: 0.152251 (Simulation time: 0 hr 15 min 58 sec) 
Heartbeat CPU 0 instructions: 172000003 cycles: 1123004894 heartbeat IPC: 0.160851 cumulative IPC: 0.152301 (Simulation time: 0 hr 16 min 3 sec) 
Heartbeat CPU 0 instructions: 173000000 cycles: 1129335443 heartbeat IPC: 0.157964 cumulative IPC: 0.152335 (Simulation time: 0 hr 16 min 8 sec) 
Heartbeat CPU 0 instructions: 174000000 cycles: 1136353763 heartbeat IPC: 0.142484 cumulative IPC: 0.152271 (Simulation time: 0 hr 16 min 14 sec) 
Heartbeat CPU 0 instructions: 175000003 cycles: 1143412126 heartbeat IPC: 0.141676 cumulative IPC: 0.152202 (Simulation time: 0 hr 16 min 19 sec) 
Heartbeat CPU 0 instructions: 176000000 cycles: 1150234765 heartbeat IPC: 0.14657 cumulative IPC: 0.152166 (Simulation time: 0 hr 16 min 25 sec) 
Heartbeat CPU 0 instructions: 177000002 cycles: 1156897069 heartbeat IPC: 0.150099 cumulative IPC: 0.152154 (Simulation time: 0 hr 16 min 30 sec) 
Heartbeat CPU 0 instructions: 178000000 cycles: 1163544051 heartbeat IPC: 0.150444 cumulative IPC: 0.152144 (Simulation time: 0 hr 16 min 35 sec) 
Heartbeat CPU 0 instructions: 179000003 cycles: 1169911856 heartbeat IPC: 0.15704 cumulative IPC: 0.152172 (Simulation time: 0 hr 16 min 40 sec) 
Heartbeat CPU 0 instructions: 180000002 cycles: 1176824528 heartbeat IPC: 0.144662 cumulative IPC: 0.152125 (Simulation time: 0 hr 16 min 45 sec) 
Heartbeat CPU 0 instructions: 181000001 cycles: 1183722777 heartbeat IPC: 0.144964 cumulative IPC: 0.152081 (Simulation time: 0 hr 16 min 51 sec) 
Heartbeat CPU 0 instructions: 182000000 cycles: 1190930243 heartbeat IPC: 0.138745 cumulative IPC: 0.151996 (Simulation time: 0 hr 16 min 56 sec) 
Heartbeat CPU 0 instructions: 183000001 cycles: 1197915406 heartbeat IPC: 0.143161 cumulative IPC: 0.151942 (Simulation time: 0 hr 17 min 1 sec) 
Heartbeat CPU 0 instructions: 184000002 cycles: 1205259324 heartbeat IPC: 0.136167 cumulative IPC: 0.151841 (Simulation time: 0 hr 17 min 7 sec) 
Heartbeat CPU 0 instructions: 185000000 cycles: 1212317189 heartbeat IPC: 0.141686 cumulative IPC: 0.151779 (Simulation time: 0 hr 17 min 12 sec) 
Heartbeat CPU 0 instructions: 186000000 cycles: 1219069905 heartbeat IPC: 0.148089 cumulative IPC: 0.151757 (Simulation time: 0 hr 17 min 17 sec) 
Heartbeat CPU 0 instructions: 187000000 cycles: 1225753665 heartbeat IPC: 0.149616 cumulative IPC: 0.151745 (Simulation time: 0 hr 17 min 23 sec) 
Heartbeat CPU 0 instructions: 188000000 cycles: 1232336644 heartbeat IPC: 0.151907 cumulative IPC: 0.151746 (Simulation time: 0 hr 17 min 28 sec) 
Heartbeat CPU 0 instructions: 189000000 cycles: 1243016619 heartbeat IPC: 0.0936332 cumulative IPC: 0.151222 (Simulation time: 0 hr 17 min 35 sec) 
Heartbeat CPU 0 instructions: 190000003 cycles: 1250568981 heartbeat IPC: 0.132409 cumulative IPC: 0.151102 (Simulation time: 0 hr 17 min 40 sec) 
Heartbeat CPU 0 instructions: 191000000 cycles: 1257979604 heartbeat IPC: 0.134941 cumulative IPC: 0.151003 (Simulation time: 0 hr 17 min 46 sec) 
Heartbeat CPU 0 instructions: 192000001 cycles: 1265512643 heartbeat IPC: 0.132749 cumulative IPC: 0.150889 (Simulation time: 0 hr 17 min 51 sec) 
Heartbeat CPU 0 instructions: 193000000 cycles: 1272284694 heartbeat IPC: 0.147666 cumulative IPC: 0.150871 (Simulation time: 0 hr 17 min 56 sec) 
Heartbeat CPU 0 instructions: 194000002 cycles: 1279232234 heartbeat IPC: 0.143936 cumulative IPC: 0.150831 (Simulation time: 0 hr 18 min 1 sec) 
Heartbeat CPU 0 instructions: 195000000 cycles: 1286245088 heartbeat IPC: 0.142595 cumulative IPC: 0.150784 (Simulation time: 0 hr 18 min 6 sec) 
Heartbeat CPU 0 instructions: 196000001 cycles: 1292614702 heartbeat IPC: 0.156996 cumulative IPC: 0.150816 (Simulation time: 0 hr 18 min 11 sec) 
Heartbeat CPU 0 instructions: 197000001 cycles: 1303518443 heartbeat IPC: 0.0917116 cumulative IPC: 0.150298 (Simulation time: 0 hr 18 min 17 sec) 
Heartbeat CPU 0 instructions: 198000000 cycles: 1310441417 heartbeat IPC: 0.144446 cumulative IPC: 0.150266 (Simulation time: 0 hr 18 min 22 sec) 
Heartbeat CPU 0 instructions: 199000000 cycles: 1317588894 heartbeat IPC: 0.13991 cumulative IPC: 0.150207 (Simulation time: 0 hr 18 min 28 sec) 
Heartbeat CPU 0 instructions: 200000002 cycles: 1324537490 heartbeat IPC: 0.143914 cumulative IPC: 0.150172 (Simulation time: 0 hr 18 min 33 sec) 
Heartbeat CPU 0 instructions: 201000000 cycles: 1331536578 heartbeat IPC: 0.142875 cumulative IPC: 0.150132 (Simulation time: 0 hr 18 min 38 sec) 
Heartbeat CPU 0 instructions: 202000001 cycles: 1338988771 heartbeat IPC: 0.134189 cumulative IPC: 0.150039 (Simulation time: 0 hr 18 min 43 sec) 
Heartbeat CPU 0 instructions: 203000001 cycles: 1346064364 heartbeat IPC: 0.141331 cumulative IPC: 0.149991 (Simulation time: 0 hr 18 min 48 sec) 
Heartbeat CPU 0 instructions: 204000000 cycles: 1353639289 heartbeat IPC: 0.132014 cumulative IPC: 0.149886 (Simulation time: 0 hr 18 min 54 sec) 
Heartbeat CPU 0 instructions: 205000001 cycles: 1360788984 heartbeat IPC: 0.139866 cumulative IPC: 0.149831 (Simulation time: 0 hr 18 min 59 sec) 
Heartbeat CPU 0 instructions: 206000001 cycles: 1367716161 heartbeat IPC: 0.144359 cumulative IPC: 0.149802 (Simulation time: 0 hr 19 min 4 sec) 
Heartbeat CPU 0 instructions: 207000001 cycles: 1374284308 heartbeat IPC: 0.15225 cumulative IPC: 0.149814 (Simulation time: 0 hr 19 min 9 sec) 
Heartbeat CPU 0 instructions: 208000000 cycles: 1381225090 heartbeat IPC: 0.144076 cumulative IPC: 0.149784 (Simulation time: 0 hr 19 min 14 sec) 
Heartbeat CPU 0 instructions: 209000000 cycles: 1388032538 heartbeat IPC: 0.146898 cumulative IPC: 0.149769 (Simulation time: 0 hr 19 min 19 sec) 
Heartbeat CPU 0 instructions: 210000003 cycles: 1396379436 heartbeat IPC: 0.119805 cumulative IPC: 0.149582 (Simulation time: 0 hr 19 min 24 sec) 
Heartbeat CPU 0 instructions: 211000000 cycles: 1403375692 heartbeat IPC: 0.142933 cumulative IPC: 0.149548 (Simulation time: 0 hr 19 min 29 sec) 
Heartbeat CPU 0 instructions: 212000000 cycles: 1410142834 heartbeat IPC: 0.147773 cumulative IPC: 0.149539 (Simulation time: 0 hr 19 min 34 sec) 
Heartbeat CPU 0 instructions: 213000001 cycles: 1417377069 heartbeat IPC: 0.138232 cumulative IPC: 0.149479 (Simulation time: 0 hr 19 min 39 sec) 
Heartbeat CPU 0 instructions: 214000002 cycles: 1424313818 heartbeat IPC: 0.14416 cumulative IPC: 0.149452 (Simulation time: 0 hr 19 min 44 sec) 
Heartbeat CPU 0 instructions: 215000001 cycles: 1431629189 heartbeat IPC: 0.136698 cumulative IPC: 0.149384 (Simulation time: 0 hr 19 min 50 sec) 
Heartbeat CPU 0 instructions: 216000000 cycles: 1438286025 heartbeat IPC: 0.150221 cumulative IPC: 0.149388 (Simulation time: 0 hr 19 min 54 sec) 
Heartbeat CPU 0 instructions: 217000000 cycles: 1445706231 heartbeat IPC: 0.134767 cumulative IPC: 0.149309 (Simulation time: 0 hr 20 min 0 sec) 
Heartbeat CPU 0 instructions: 218000000 cycles: 1452658547 heartbeat IPC: 0.143837 cumulative IPC: 0.149282 (Simulation time: 0 hr 20 min 5 sec) 
Heartbeat CPU 0 instructions: 219000000 cycles: 1459877634 heartbeat IPC: 0.138522 cumulative IPC: 0.149227 (Simulation time: 0 hr 20 min 10 sec) 
Heartbeat CPU 0 instructions: 220000000 cycles: 1466613344 heartbeat IPC: 0.148462 cumulative IPC: 0.149223 (Simulation time: 0 hr 20 min 15 sec) 
Heartbeat CPU 0 instructions: 221000000 cycles: 1472943176 heartbeat IPC: 0.157982 cumulative IPC: 0.149262 (Simulation time: 0 hr 20 min 19 sec) 
Heartbeat CPU 0 instructions: 222000000 cycles: 1479082321 heartbeat IPC: 0.162889 cumulative IPC: 0.149321 (Simulation time: 0 hr 20 min 24 sec) 
Heartbeat CPU 0 instructions: 223000001 cycles: 1485378386 heartbeat IPC: 0.15883 cumulative IPC: 0.149363 (Simulation time: 0 hr 20 min 29 sec) 
Heartbeat CPU 0 instructions: 224000001 cycles: 1492235881 heartbeat IPC: 0.145826 cumulative IPC: 0.149346 (Simulation time: 0 hr 20 min 34 sec) 
Heartbeat CPU 0 instructions: 225000001 cycles: 1499299414 heartbeat IPC: 0.141572 cumulative IPC: 0.149308 (Simulation time: 0 hr 20 min 39 sec) 
Heartbeat CPU 0 instructions: 226000003 cycles: 1506330212 heartbeat IPC: 0.142232 cumulative IPC: 0.149274 (Simulation time: 0 hr 20 min 44 sec) 
Heartbeat CPU 0 instructions: 227000003 cycles: 1514002633 heartbeat IPC: 0.130337 cumulative IPC: 0.149174 (Simulation time: 0 hr 20 min 49 sec) 
Heartbeat CPU 0 instructions: 228000000 cycles: 1521542623 heartbeat IPC: 0.132626 cumulative IPC: 0.149089 (Simulation time: 0 hr 20 min 54 sec) 
Heartbeat CPU 0 instructions: 229000000 cycles: 1529023167 heartbeat IPC: 0.13368 cumulative IPC: 0.14901 (Simulation time: 0 hr 20 min 59 sec) 
Heartbeat CPU 0 instructions: 230000001 cycles: 1536599860 heartbeat IPC: 0.131984 cumulative IPC: 0.148923 (Simulation time: 0 hr 21 min 4 sec) 
Heartbeat CPU 0 instructions: 231000000 cycles: 1544219081 heartbeat IPC: 0.131247 cumulative IPC: 0.148832 (Simulation time: 0 hr 21 min 10 sec) 
Heartbeat CPU 0 instructions: 232000000 cycles: 1551685310 heartbeat IPC: 0.133936 cumulative IPC: 0.148758 (Simulation time: 0 hr 21 min 15 sec) 
Heartbeat CPU 0 instructions: 233000000 cycles: 1558201630 heartbeat IPC: 0.153461 cumulative IPC: 0.148778 (Simulation time: 0 hr 21 min 20 sec) 
Heartbeat CPU 0 instructions: 234000000 cycles: 1564408139 heartbeat IPC: 0.161121 cumulative IPC: 0.148829 (Simulation time: 0 hr 21 min 24 sec) 
Heartbeat CPU 0 instructions: 235000001 cycles: 1571104685 heartbeat IPC: 0.149331 cumulative IPC: 0.148831 (Simulation time: 0 hr 21 min 29 sec) 
Heartbeat CPU 0 instructions: 236000003 cycles: 1578662034 heartbeat IPC: 0.132322 cumulative IPC: 0.148749 (Simulation time: 0 hr 21 min 34 sec) 
Heartbeat CPU 0 instructions: 237000000 cycles: 1585926879 heartbeat IPC: 0.137649 cumulative IPC: 0.148696 (Simulation time: 0 hr 21 min 39 sec) 
Heartbeat CPU 0 instructions: 238000000 cycles: 1592181416 heartbeat IPC: 0.159884 cumulative IPC: 0.148742 (Simulation time: 0 hr 21 min 44 sec) 
Heartbeat CPU 0 instructions: 239000000 cycles: 1598645954 heartbeat IPC: 0.15469 cumulative IPC: 0.148767 (Simulation time: 0 hr 21 min 49 sec) 
Heartbeat CPU 0 instructions: 240000003 cycles: 1605026696 heartbeat IPC: 0.156722 cumulative IPC: 0.1488 (Simulation time: 0 hr 21 min 54 sec) 
Heartbeat CPU 0 instructions: 241000001 cycles: 1611552666 heartbeat IPC: 0.153234 cumulative IPC: 0.148818 (Simulation time: 0 hr 21 min 59 sec) 
Heartbeat CPU 0 instructions: 242000000 cycles: 1617917841 heartbeat IPC: 0.157105 cumulative IPC: 0.148852 (Simulation time: 0 hr 22 min 4 sec) 
Heartbeat CPU 0 instructions: 243000000 cycles: 1624123905 heartbeat IPC: 0.161133 cumulative IPC: 0.148901 (Simulation time: 0 hr 22 min 9 sec) 
Heartbeat CPU 0 instructions: 244000000 cycles: 1630758284 heartbeat IPC: 0.15073 cumulative IPC: 0.148909 (Simulation time: 0 hr 22 min 14 sec) 
Heartbeat CPU 0 instructions: 245000002 cycles: 1637360582 heartbeat IPC: 0.151463 cumulative IPC: 0.148919 (Simulation time: 0 hr 22 min 19 sec) 
Heartbeat CPU 0 instructions: 246000000 cycles: 1644352655 heartbeat IPC: 0.143019 cumulative IPC: 0.148893 (Simulation time: 0 hr 22 min 24 sec) 
Heartbeat CPU 0 instructions: 247000002 cycles: 1651462499 heartbeat IPC: 0.14065 cumulative IPC: 0.148856 (Simulation time: 0 hr 22 min 30 sec) 
Heartbeat CPU 0 instructions: 248000000 cycles: 1658734848 heartbeat IPC: 0.137507 cumulative IPC: 0.148805 (Simulation time: 0 hr 22 min 35 sec) 
Heartbeat CPU 0 instructions: 249000003 cycles: 1665366401 heartbeat IPC: 0.150795 cumulative IPC: 0.148813 (Simulation time: 0 hr 22 min 40 sec) 
Heartbeat CPU 0 instructions: 250000003 cycles: 1671558970 heartbeat IPC: 0.161484 cumulative IPC: 0.148862 (Simulation time: 0 hr 22 min 45 sec) 
Heartbeat CPU 0 instructions: 251000002 cycles: 1678936957 heartbeat IPC: 0.135538 cumulative IPC: 0.148801 (Simulation time: 0 hr 22 min 51 sec) 
Heartbeat CPU 0 instructions: 252000000 cycles: 1684990837 heartbeat IPC: 0.165183 cumulative IPC: 0.148862 (Simulation time: 0 hr 22 min 56 sec) 
Heartbeat CPU 0 instructions: 253000000 cycles: 1691001067 heartbeat IPC: 0.166383 cumulative IPC: 0.148927 (Simulation time: 0 hr 23 min 1 sec) 
Heartbeat CPU 0 instructions: 254000002 cycles: 1697053216 heartbeat IPC: 0.165231 cumulative IPC: 0.148987 (Simulation time: 0 hr 23 min 6 sec) 
Heartbeat CPU 0 instructions: 255000003 cycles: 1703335957 heartbeat IPC: 0.159166 cumulative IPC: 0.149026 (Simulation time: 0 hr 23 min 11 sec) 
Heartbeat CPU 0 instructions: 256000001 cycles: 1710354969 heartbeat IPC: 0.14247 cumulative IPC: 0.148998 (Simulation time: 0 hr 23 min 16 sec) 
Heartbeat CPU 0 instructions: 257000002 cycles: 1717164493 heartbeat IPC: 0.146853 cumulative IPC: 0.148989 (Simulation time: 0 hr 23 min 21 sec) 
Heartbeat CPU 0 instructions: 258000002 cycles: 1724179026 heartbeat IPC: 0.142561 cumulative IPC: 0.148962 (Simulation time: 0 hr 23 min 27 sec) 
Heartbeat CPU 0 instructions: 259000001 cycles: 1730811511 heartbeat IPC: 0.150773 cumulative IPC: 0.148969 (Simulation time: 0 hr 23 min 32 sec) 
Heartbeat CPU 0 instructions: 260000002 cycles: 1737404471 heartbeat IPC: 0.151677 cumulative IPC: 0.14898 (Simulation time: 0 hr 23 min 37 sec) 
Finished CPU 0 instructions: 250000000 cycles: 1678080397 cumulative IPC: 0.14898 (Simulation time: 0 hr 23 min 37 sec) 

ChampSim completed all CPUs

Region of Interest Statistics

CPU 0 cumulative IPC: 0.14898 instructions: 250000000 cycles: 1678080397
L1D TOTAL     ACCESS:   55126502  HIT:   16696963  MISS:   38429539
L1D LOAD      ACCESS:   50910578  HIT:   12560092  MISS:   38350486
L1D RFO       ACCESS:    4215924  HIT:    4136871  MISS:      79053
L1D PREFETCH  ACCESS:          0  HIT:          0  MISS:          0
L1D WRITEBACK ACCESS:          0  HIT:          0  MISS:          0
L1D PREFETCH  REQUESTED:          0  ISSUED:          0  USEFUL:          0  USELESS:          0
L1D AVERAGE MISS LATENCY: 122.108 cycles
L1I TOTAL     ACCESS:   42429853  HIT:   42429853  MISS:          0
L1I LOAD      ACCESS:   42429853  HIT:   42429853  MISS:          0
L1I RFO       ACCESS:          0  HIT:          0  MISS:          0
L1I PREFETCH  ACCESS:          0  HIT:          0  MISS:          0
L1I WRITEBACK ACCESS:          0  HIT:          0  MISS:          0
L1I PREFETCH  REQUESTED:          0  ISSUED:          0  USEFUL:          0  USELESS:          0
L1I AVERAGE MISS LATENCY: -nan cycles
L2C TOTAL     ACCESS:   39093110  HIT:    4691320  MISS:   34401790
L2C LOAD      ACCESS:   38350443  HIT:    4017586  MISS:   34332857
L2C RFO       ACCESS:      79052  HIT:      10155  MISS:      68897
L2C PREFETCH  ACCESS:          0  HIT:          0  MISS:          0
L2C WRITEBACK ACCESS:     663615  HIT:     663579  MISS:         36
L2C PREFETCH  REQUESTED:          0  ISSUED:          0  USEFUL:          0  USELESS:          0
L2C AVERAGE MISS LATENCY: 120.266 cycles
LLC TOTAL     ACCESS:   35021647  HIT:   15287938  MISS:   19733709
LLC LOAD      ACCESS:   34332848  HIT:   14611701  MISS:   19721147
LLC RFO       ACCESS:      68897  HIT:      57652  MISS:      11245
LLC PREFETCH  ACCESS:          0  HIT:          0  MISS:          0
LLC WRITEBACK ACCESS:     619902  HIT:     618585  MISS:       1317
LLC PREFETCH  REQUESTED:          0  ISSUED:          0  USEFUL:          0  USELESS:          0
LLC AVERAGE MISS LATENCY: 154.801 cycles
Major fault: 0 Minor fault: 227553

DRAM Statistics
 CHANNEL 0
 RQ ROW_BUFFER_HIT:    7079812  ROW_BUFFER_MISS:    2788445
 DBUS_CONGESTED:    6777180
 WQ ROW_BUFFER_HIT:      62713  ROW_BUFFER_MISS:      68426  FULL:          0

 CHANNEL 1
 RQ ROW_BUFFER_HIT:    7081666  ROW_BUFFER_MISS:    2782392
 DBUS_CONGESTED:    6777180
 WQ ROW_BUFFER_HIT:      64267  ROW_BUFFER_MISS:      70069  FULL:          0

 AVG_CONGESTED_CYCLE: 17

CPU 0 Branch Prediction Accuracy: 96.985% MPKI: 9.21078 Average ROB Occupancy at Mispredict: 64.2794

Branch types
NOT_BRANCH: 173624581 69.4498%
BRANCH_DIRECT_JUMP: 9611291 3.84452%
BRANCH_INDIRECT: 0 0%
BRANCH_CONDITIONAL: 64971699 25.9887%
BRANCH_DIRECT_CALL: 827968 0.331187%
BRANCH_INDIRECT_CALL: 68256 0.0273024%
BRANCH_RETURN: 896224 0.35849%
BRANCH_OTHER: 0 0%

