
*** ChampSim Multicore Out-of-Order Simulator ***

Warmup Instructions: 1000000
Prefetch Warmup Instructions: 10000000
Simulation Instructions: 250000000
Stat Printing Period: 1000000
Number of CPUs: 1
LLC sets: 2048
LLC ways: 16
Off-chip DRAM Size: 32768 MB Channels: 2 Width: 64-bit Data Rate: 1024 MT/s

CPU 0 runs /scratch/cluster/cmolder/ML-DPC/ChampSimTraces/spec17/605.mcf-s0.trace.xz
Read seed: 267
Heartbeat CPU 0 instructions: 1000001 cycles: 418979 heartbeat IPC: 2.38676 cumulative IPC: 2.38676 (Simulation time: 0 hr 0 min 3 sec) 

Warmup complete CPU 0 instructions: 1000001 cycles: 418979 (Simulation time: 0 hr 0 min 3 sec) 

Heartbeat CPU 0 instructions: 2000001 cycles: 3150534 heartbeat IPC: 0.366092 cumulative IPC: 0.366092 (Simulation time: 0 hr 0 min 6 sec) 
Heartbeat CPU 0 instructions: 3000000 cycles: 5872394 heartbeat IPC: 0.367395 cumulative IPC: 0.366742 (Simulation time: 0 hr 0 min 8 sec) 
Heartbeat CPU 0 instructions: 4000001 cycles: 8590399 heartbeat IPC: 0.367917 cumulative IPC: 0.367133 (Simulation time: 0 hr 0 min 11 sec) 
Heartbeat CPU 0 instructions: 5000003 cycles: 11321161 heartbeat IPC: 0.366199 cumulative IPC: 0.366899 (Simulation time: 0 hr 0 min 14 sec) 
Heartbeat CPU 0 instructions: 6000000 cycles: 14030875 heartbeat IPC: 0.369042 cumulative IPC: 0.367326 (Simulation time: 0 hr 0 min 16 sec) 
Heartbeat CPU 0 instructions: 7000001 cycles: 16965060 heartbeat IPC: 0.34081 cumulative IPC: 0.362624 (Simulation time: 0 hr 0 min 19 sec) 
Heartbeat CPU 0 instructions: 8000003 cycles: 19696098 heartbeat IPC: 0.366162 cumulative IPC: 0.363125 (Simulation time: 0 hr 0 min 22 sec) 
Heartbeat CPU 0 instructions: 9000002 cycles: 22380225 heartbeat IPC: 0.37256 cumulative IPC: 0.364278 (Simulation time: 0 hr 0 min 24 sec) 
Heartbeat CPU 0 instructions: 10000002 cycles: 25025555 heartbeat IPC: 0.378025 cumulative IPC: 0.365756 (Simulation time: 0 hr 0 min 27 sec) 

Warmup complete CPU 0 instructions: 10000002 cycles: 25025555 (Simulation time: 0 hr 0 min 27 sec) 

Heartbeat CPU 0 instructions: 11000000 cycles: 27797046 heartbeat IPC: 0.360816 cumulative IPC: 0.360816 (Simulation time: 0 hr 0 min 30 sec) 
Heartbeat CPU 0 instructions: 12000003 cycles: 30633589 heartbeat IPC: 0.352543 cumulative IPC: 0.356631 (Simulation time: 0 hr 0 min 32 sec) 
Heartbeat CPU 0 instructions: 13000003 cycles: 33368842 heartbeat IPC: 0.365597 cumulative IPC: 0.359571 (Simulation time: 0 hr 0 min 35 sec) 
Heartbeat CPU 0 instructions: 14000003 cycles: 35948864 heartbeat IPC: 0.387594 cumulative IPC: 0.366189 (Simulation time: 0 hr 0 min 38 sec) 
Heartbeat CPU 0 instructions: 15000001 cycles: 38507557 heartbeat IPC: 0.390824 cumulative IPC: 0.370865 (Simulation time: 0 hr 0 min 40 sec) 
Heartbeat CPU 0 instructions: 16000000 cycles: 41072579 heartbeat IPC: 0.38986 cumulative IPC: 0.373901 (Simulation time: 0 hr 0 min 43 sec) 
Heartbeat CPU 0 instructions: 17000001 cycles: 43785349 heartbeat IPC: 0.368627 cumulative IPC: 0.373138 (Simulation time: 0 hr 0 min 46 sec) 
Heartbeat CPU 0 instructions: 18000000 cycles: 46720728 heartbeat IPC: 0.340671 cumulative IPC: 0.368746 (Simulation time: 0 hr 0 min 49 sec) 
Heartbeat CPU 0 instructions: 19000000 cycles: 49415725 heartbeat IPC: 0.371058 cumulative IPC: 0.369001 (Simulation time: 0 hr 0 min 51 sec) 
Heartbeat CPU 0 instructions: 20000001 cycles: 52026488 heartbeat IPC: 0.38303 cumulative IPC: 0.370358 (Simulation time: 0 hr 0 min 54 sec) 
Heartbeat CPU 0 instructions: 21000003 cycles: 54623994 heartbeat IPC: 0.384985 cumulative IPC: 0.371641 (Simulation time: 0 hr 0 min 57 sec) 
Heartbeat CPU 0 instructions: 22000000 cycles: 57223167 heartbeat IPC: 0.384737 cumulative IPC: 0.372698 (Simulation time: 0 hr 0 min 59 sec) 
Heartbeat CPU 0 instructions: 23000001 cycles: 59887193 heartbeat IPC: 0.375372 cumulative IPC: 0.372903 (Simulation time: 0 hr 1 min 2 sec) 
Heartbeat CPU 0 instructions: 24000000 cycles: 62797819 heartbeat IPC: 0.343568 cumulative IPC: 0.370642 (Simulation time: 0 hr 1 min 5 sec) 
Heartbeat CPU 0 instructions: 25000002 cycles: 65474731 heartbeat IPC: 0.373566 cumulative IPC: 0.370836 (Simulation time: 0 hr 1 min 7 sec) 
Heartbeat CPU 0 instructions: 26000001 cycles: 68061856 heartbeat IPC: 0.386529 cumulative IPC: 0.371779 (Simulation time: 0 hr 1 min 10 sec) 
Heartbeat CPU 0 instructions: 27000000 cycles: 70651329 heartbeat IPC: 0.386179 cumulative IPC: 0.372596 (Simulation time: 0 hr 1 min 13 sec) 
Heartbeat CPU 0 instructions: 28000000 cycles: 73243289 heartbeat IPC: 0.385808 cumulative IPC: 0.373307 (Simulation time: 0 hr 1 min 15 sec) 
Heartbeat CPU 0 instructions: 29000001 cycles: 75903673 heartbeat IPC: 0.375886 cumulative IPC: 0.373441 (Simulation time: 0 hr 1 min 18 sec) 
Heartbeat CPU 0 instructions: 30000000 cycles: 78489169 heartbeat IPC: 0.386773 cumulative IPC: 0.374086 (Simulation time: 0 hr 1 min 21 sec) 
Heartbeat CPU 0 instructions: 31000002 cycles: 81078138 heartbeat IPC: 0.386255 cumulative IPC: 0.374648 (Simulation time: 0 hr 1 min 23 sec) 
Heartbeat CPU 0 instructions: 32000001 cycles: 83681635 heartbeat IPC: 0.384098 cumulative IPC: 0.375068 (Simulation time: 0 hr 1 min 26 sec) 
Heartbeat CPU 0 instructions: 33000000 cycles: 86269652 heartbeat IPC: 0.386396 cumulative IPC: 0.375546 (Simulation time: 0 hr 1 min 29 sec) 
Heartbeat CPU 0 instructions: 34000000 cycles: 88868536 heartbeat IPC: 0.384781 cumulative IPC: 0.375922 (Simulation time: 0 hr 1 min 31 sec) 
Heartbeat CPU 0 instructions: 35000001 cycles: 91447598 heartbeat IPC: 0.387738 cumulative IPC: 0.376381 (Simulation time: 0 hr 1 min 34 sec) 
Heartbeat CPU 0 instructions: 36000001 cycles: 94151126 heartbeat IPC: 0.369887 cumulative IPC: 0.376127 (Simulation time: 0 hr 1 min 37 sec) 
Heartbeat CPU 0 instructions: 37000000 cycles: 97070274 heartbeat IPC: 0.342565 cumulative IPC: 0.374767 (Simulation time: 0 hr 1 min 40 sec) 
Heartbeat CPU 0 instructions: 38000003 cycles: 99651068 heartbeat IPC: 0.387479 cumulative IPC: 0.375207 (Simulation time: 0 hr 1 min 42 sec) 
Heartbeat CPU 0 instructions: 39000000 cycles: 102240984 heartbeat IPC: 0.386112 cumulative IPC: 0.375573 (Simulation time: 0 hr 1 min 45 sec) 
Heartbeat CPU 0 instructions: 40000001 cycles: 104836315 heartbeat IPC: 0.385308 cumulative IPC: 0.375889 (Simulation time: 0 hr 1 min 47 sec) 
Heartbeat CPU 0 instructions: 41000000 cycles: 107437349 heartbeat IPC: 0.384462 cumulative IPC: 0.37616 (Simulation time: 0 hr 1 min 50 sec) 
Heartbeat CPU 0 instructions: 42000000 cycles: 110146841 heartbeat IPC: 0.369073 cumulative IPC: 0.375934 (Simulation time: 0 hr 1 min 53 sec) 
Heartbeat CPU 0 instructions: 43000000 cycles: 113078873 heartbeat IPC: 0.34106 cumulative IPC: 0.374773 (Simulation time: 0 hr 1 min 56 sec) 
Heartbeat CPU 0 instructions: 44000000 cycles: 115699759 heartbeat IPC: 0.38155 cumulative IPC: 0.374969 (Simulation time: 0 hr 1 min 58 sec) 
Heartbeat CPU 0 instructions: 45000002 cycles: 118253992 heartbeat IPC: 0.391508 cumulative IPC: 0.375422 (Simulation time: 0 hr 2 min 1 sec) 
Heartbeat CPU 0 instructions: 46000000 cycles: 120847573 heartbeat IPC: 0.385567 cumulative IPC: 0.375697 (Simulation time: 0 hr 2 min 4 sec) 
Heartbeat CPU 0 instructions: 47000000 cycles: 123413421 heartbeat IPC: 0.389735 cumulative IPC: 0.376063 (Simulation time: 0 hr 2 min 6 sec) 
Heartbeat CPU 0 instructions: 48000000 cycles: 126122537 heartbeat IPC: 0.369124 cumulative IPC: 0.375877 (Simulation time: 0 hr 2 min 9 sec) 
Heartbeat CPU 0 instructions: 49000001 cycles: 128986139 heartbeat IPC: 0.349211 cumulative IPC: 0.375142 (Simulation time: 0 hr 2 min 12 sec) 
Heartbeat CPU 0 instructions: 50000001 cycles: 131577279 heartbeat IPC: 0.385931 cumulative IPC: 0.375405 (Simulation time: 0 hr 2 min 15 sec) 
Heartbeat CPU 0 instructions: 51000003 cycles: 134112647 heartbeat IPC: 0.394421 cumulative IPC: 0.375847 (Simulation time: 0 hr 2 min 17 sec) 
Heartbeat CPU 0 instructions: 52000000 cycles: 136678837 heartbeat IPC: 0.389682 cumulative IPC: 0.376164 (Simulation time: 0 hr 2 min 20 sec) 
Heartbeat CPU 0 instructions: 53000000 cycles: 139383282 heartbeat IPC: 0.369762 cumulative IPC: 0.376013 (Simulation time: 0 hr 2 min 23 sec) 
Heartbeat CPU 0 instructions: 54000003 cycles: 142166332 heartbeat IPC: 0.359319 cumulative IPC: 0.375616 (Simulation time: 0 hr 2 min 25 sec) 
Heartbeat CPU 0 instructions: 55000000 cycles: 144726056 heartbeat IPC: 0.390666 cumulative IPC: 0.375938 (Simulation time: 0 hr 2 min 28 sec) 
Heartbeat CPU 0 instructions: 56000000 cycles: 147270496 heartbeat IPC: 0.393014 cumulative IPC: 0.376294 (Simulation time: 0 hr 2 min 31 sec) 
Heartbeat CPU 0 instructions: 57000000 cycles: 149888843 heartbeat IPC: 0.38192 cumulative IPC: 0.376412 (Simulation time: 0 hr 2 min 34 sec) 
Heartbeat CPU 0 instructions: 58000000 cycles: 152800951 heartbeat IPC: 0.343394 cumulative IPC: 0.375659 (Simulation time: 0 hr 2 min 36 sec) 
Heartbeat CPU 0 instructions: 59000000 cycles: 155356415 heartbeat IPC: 0.391318 cumulative IPC: 0.375966 (Simulation time: 0 hr 2 min 39 sec) 
Heartbeat CPU 0 instructions: 60000001 cycles: 157905930 heartbeat IPC: 0.392232 cumulative IPC: 0.376278 (Simulation time: 0 hr 2 min 42 sec) 
Heartbeat CPU 0 instructions: 61000002 cycles: 160435104 heartbeat IPC: 0.395386 cumulative IPC: 0.376635 (Simulation time: 0 hr 2 min 44 sec) 
Heartbeat CPU 0 instructions: 62000000 cycles: 163408151 heartbeat IPC: 0.336355 cumulative IPC: 0.37577 (Simulation time: 0 hr 2 min 47 sec) 
Heartbeat CPU 0 instructions: 63000000 cycles: 165998146 heartbeat IPC: 0.386101 cumulative IPC: 0.37596 (Simulation time: 0 hr 2 min 50 sec) 
Heartbeat CPU 0 instructions: 64000001 cycles: 168562568 heartbeat IPC: 0.389952 cumulative IPC: 0.37621 (Simulation time: 0 hr 2 min 53 sec) 
Heartbeat CPU 0 instructions: 65000001 cycles: 171174359 heartbeat IPC: 0.382879 cumulative IPC: 0.376329 (Simulation time: 0 hr 2 min 55 sec) 
Heartbeat CPU 0 instructions: 66000000 cycles: 174201871 heartbeat IPC: 0.330304 cumulative IPC: 0.375395 (Simulation time: 0 hr 2 min 58 sec) 
Heartbeat CPU 0 instructions: 67000002 cycles: 176758821 heartbeat IPC: 0.391092 cumulative IPC: 0.375659 (Simulation time: 0 hr 3 min 1 sec) 
Heartbeat CPU 0 instructions: 68000000 cycles: 179348628 heartbeat IPC: 0.386128 cumulative IPC: 0.375835 (Simulation time: 0 hr 3 min 3 sec) 
Heartbeat CPU 0 instructions: 69000002 cycles: 181982917 heartbeat IPC: 0.37961 cumulative IPC: 0.375898 (Simulation time: 0 hr 3 min 6 sec) 
Heartbeat CPU 0 instructions: 70000001 cycles: 184954609 heartbeat IPC: 0.336508 cumulative IPC: 0.375166 (Simulation time: 0 hr 3 min 9 sec) 
Heartbeat CPU 0 instructions: 71000002 cycles: 187525475 heartbeat IPC: 0.388974 cumulative IPC: 0.375385 (Simulation time: 0 hr 3 min 12 sec) 
Heartbeat CPU 0 instructions: 72000001 cycles: 190064147 heartbeat IPC: 0.393906 cumulative IPC: 0.37567 (Simulation time: 0 hr 3 min 14 sec) 
Heartbeat CPU 0 instructions: 73000003 cycles: 192594969 heartbeat IPC: 0.395129 cumulative IPC: 0.375964 (Simulation time: 0 hr 3 min 17 sec) 
Heartbeat CPU 0 instructions: 74000000 cycles: 195400497 heartbeat IPC: 0.356438 cumulative IPC: 0.375642 (Simulation time: 0 hr 3 min 20 sec) 
Heartbeat CPU 0 instructions: 75000001 cycles: 198147673 heartbeat IPC: 0.364011 cumulative IPC: 0.375457 (Simulation time: 0 hr 3 min 23 sec) 
Heartbeat CPU 0 instructions: 76000002 cycles: 200672661 heartbeat IPC: 0.396042 cumulative IPC: 0.375753 (Simulation time: 0 hr 3 min 25 sec) 
Heartbeat CPU 0 instructions: 77000000 cycles: 203222444 heartbeat IPC: 0.392189 cumulative IPC: 0.375989 (Simulation time: 0 hr 3 min 28 sec) 
Heartbeat CPU 0 instructions: 78000002 cycles: 205788211 heartbeat IPC: 0.389748 cumulative IPC: 0.376184 (Simulation time: 0 hr 3 min 31 sec) 
Heartbeat CPU 0 instructions: 79000001 cycles: 208796926 heartbeat IPC: 0.332367 cumulative IPC: 0.375467 (Simulation time: 0 hr 3 min 33 sec) 
Heartbeat CPU 0 instructions: 80000003 cycles: 211338932 heartbeat IPC: 0.393391 cumulative IPC: 0.375711 (Simulation time: 0 hr 3 min 36 sec) 
Heartbeat CPU 0 instructions: 81000000 cycles: 213885931 heartbeat IPC: 0.392618 cumulative IPC: 0.375939 (Simulation time: 0 hr 3 min 39 sec) 
Heartbeat CPU 0 instructions: 82000000 cycles: 216590245 heartbeat IPC: 0.36978 cumulative IPC: 0.375852 (Simulation time: 0 hr 3 min 41 sec) 
Heartbeat CPU 0 instructions: 83000000 cycles: 219484910 heartbeat IPC: 0.345463 cumulative IPC: 0.3754 (Simulation time: 0 hr 3 min 44 sec) 
Heartbeat CPU 0 instructions: 84000000 cycles: 222022606 heartbeat IPC: 0.394058 cumulative IPC: 0.37564 (Simulation time: 0 hr 3 min 47 sec) 
Heartbeat CPU 0 instructions: 85000002 cycles: 224895621 heartbeat IPC: 0.348067 cumulative IPC: 0.375244 (Simulation time: 0 hr 3 min 50 sec) 
Heartbeat CPU 0 instructions: 86000002 cycles: 227512678 heartbeat IPC: 0.382109 cumulative IPC: 0.375333 (Simulation time: 0 hr 3 min 52 sec) 
Heartbeat CPU 0 instructions: 87000000 cycles: 230051234 heartbeat IPC: 0.393924 cumulative IPC: 0.375563 (Simulation time: 0 hr 3 min 55 sec) 
Heartbeat CPU 0 instructions: 88000000 cycles: 233008263 heartbeat IPC: 0.338177 cumulative IPC: 0.375031 (Simulation time: 0 hr 3 min 58 sec) 
Heartbeat CPU 0 instructions: 89000000 cycles: 235582028 heartbeat IPC: 0.388536 cumulative IPC: 0.375196 (Simulation time: 0 hr 4 min 1 sec) 
Heartbeat CPU 0 instructions: 90000003 cycles: 238148375 heartbeat IPC: 0.38966 cumulative IPC: 0.37537 (Simulation time: 0 hr 4 min 3 sec) 
Heartbeat CPU 0 instructions: 91000002 cycles: 240818362 heartbeat IPC: 0.374533 cumulative IPC: 0.37536 (Simulation time: 0 hr 4 min 6 sec) 
Heartbeat CPU 0 instructions: 92000001 cycles: 243693517 heartbeat IPC: 0.347807 cumulative IPC: 0.374998 (Simulation time: 0 hr 4 min 9 sec) 
Heartbeat CPU 0 instructions: 93000000 cycles: 246249758 heartbeat IPC: 0.391199 cumulative IPC: 0.375185 (Simulation time: 0 hr 4 min 12 sec) 
Heartbeat CPU 0 instructions: 94000000 cycles: 248864068 heartbeat IPC: 0.38251 cumulative IPC: 0.375271 (Simulation time: 0 hr 4 min 14 sec) 
Heartbeat CPU 0 instructions: 95000000 cycles: 251719030 heartbeat IPC: 0.350267 cumulative IPC: 0.374956 (Simulation time: 0 hr 4 min 17 sec) 
Heartbeat CPU 0 instructions: 96000002 cycles: 254284560 heartbeat IPC: 0.389784 cumulative IPC: 0.375122 (Simulation time: 0 hr 4 min 20 sec) 
Heartbeat CPU 0 instructions: 97000000 cycles: 257013852 heartbeat IPC: 0.366395 cumulative IPC: 0.375019 (Simulation time: 0 hr 4 min 23 sec) 
Heartbeat CPU 0 instructions: 98000000 cycles: 259814366 heartbeat IPC: 0.357077 cumulative IPC: 0.374805 (Simulation time: 0 hr 4 min 25 sec) 
Heartbeat CPU 0 instructions: 99000000 cycles: 262464162 heartbeat IPC: 0.377388 cumulative IPC: 0.374834 (Simulation time: 0 hr 4 min 28 sec) 
Heartbeat CPU 0 instructions: 100000001 cycles: 265310005 heartbeat IPC: 0.35139 cumulative IPC: 0.374556 (Simulation time: 0 hr 4 min 31 sec) 
Heartbeat CPU 0 instructions: 101000003 cycles: 267831287 heartbeat IPC: 0.396624 cumulative IPC: 0.374785 (Simulation time: 0 hr 4 min 34 sec) 
Heartbeat CPU 0 instructions: 102000001 cycles: 270773316 heartbeat IPC: 0.339901 cumulative IPC: 0.374368 (Simulation time: 0 hr 4 min 37 sec) 
Heartbeat CPU 0 instructions: 103000001 cycles: 273342184 heartbeat IPC: 0.389277 cumulative IPC: 0.374522 (Simulation time: 0 hr 4 min 39 sec) 
Heartbeat CPU 0 instructions: 104000001 cycles: 276284897 heartbeat IPC: 0.339822 cumulative IPC: 0.374115 (Simulation time: 0 hr 4 min 42 sec) 
Heartbeat CPU 0 instructions: 105000001 cycles: 278933421 heartbeat IPC: 0.377569 cumulative IPC: 0.374151 (Simulation time: 0 hr 4 min 45 sec) 
Heartbeat CPU 0 instructions: 106000000 cycles: 281738406 heartbeat IPC: 0.356508 cumulative IPC: 0.373959 (Simulation time: 0 hr 4 min 48 sec) 
Heartbeat CPU 0 instructions: 107000000 cycles: 284349345 heartbeat IPC: 0.383004 cumulative IPC: 0.37405 (Simulation time: 0 hr 4 min 51 sec) 
Heartbeat CPU 0 instructions: 108000003 cycles: 287103604 heartbeat IPC: 0.363075 cumulative IPC: 0.373934 (Simulation time: 0 hr 4 min 53 sec) 
Heartbeat CPU 0 instructions: 109000000 cycles: 290066026 heartbeat IPC: 0.337561 cumulative IPC: 0.373528 (Simulation time: 0 hr 4 min 56 sec) 
Heartbeat CPU 0 instructions: 110000000 cycles: 292542233 heartbeat IPC: 0.403843 cumulative IPC: 0.373808 (Simulation time: 0 hr 4 min 59 sec) 
Heartbeat CPU 0 instructions: 111000000 cycles: 295474474 heartbeat IPC: 0.341036 cumulative IPC: 0.373453 (Simulation time: 0 hr 5 min 2 sec) 
Heartbeat CPU 0 instructions: 112000001 cycles: 298154951 heartbeat IPC: 0.373068 cumulative IPC: 0.373449 (Simulation time: 0 hr 5 min 5 sec) 
Heartbeat CPU 0 instructions: 113000000 cycles: 300920164 heartbeat IPC: 0.361635 cumulative IPC: 0.373331 (Simulation time: 0 hr 5 min 7 sec) 
Heartbeat CPU 0 instructions: 114000000 cycles: 303821370 heartbeat IPC: 0.344684 cumulative IPC: 0.373033 (Simulation time: 0 hr 5 min 10 sec) 
Heartbeat CPU 0 instructions: 115000001 cycles: 306298473 heartbeat IPC: 0.403698 cumulative IPC: 0.373303 (Simulation time: 0 hr 5 min 13 sec) 
Heartbeat CPU 0 instructions: 116000000 cycles: 309223787 heartbeat IPC: 0.341843 cumulative IPC: 0.372979 (Simulation time: 0 hr 5 min 16 sec) 
Heartbeat CPU 0 instructions: 117000000 cycles: 311686146 heartbeat IPC: 0.406115 cumulative IPC: 0.373264 (Simulation time: 0 hr 5 min 19 sec) 
Heartbeat CPU 0 instructions: 118000000 cycles: 314633660 heartbeat IPC: 0.339269 cumulative IPC: 0.372918 (Simulation time: 0 hr 5 min 22 sec) 
Heartbeat CPU 0 instructions: 119000000 cycles: 317241447 heartbeat IPC: 0.383467 cumulative IPC: 0.373012 (Simulation time: 0 hr 5 min 24 sec) 
Heartbeat CPU 0 instructions: 120000002 cycles: 320074152 heartbeat IPC: 0.35302 cumulative IPC: 0.37282 (Simulation time: 0 hr 5 min 27 sec) 
Heartbeat CPU 0 instructions: 121000000 cycles: 322966979 heartbeat IPC: 0.345682 cumulative IPC: 0.372556 (Simulation time: 0 hr 5 min 30 sec) 
Heartbeat CPU 0 instructions: 122000000 cycles: 325738285 heartbeat IPC: 0.360841 cumulative IPC: 0.372448 (Simulation time: 0 hr 5 min 33 sec) 
Heartbeat CPU 0 instructions: 123000002 cycles: 328335806 heartbeat IPC: 0.384983 cumulative IPC: 0.372556 (Simulation time: 0 hr 5 min 36 sec) 
Heartbeat CPU 0 instructions: 124000001 cycles: 331232860 heartbeat IPC: 0.345178 cumulative IPC: 0.372297 (Simulation time: 0 hr 5 min 39 sec) 
Heartbeat CPU 0 instructions: 125000001 cycles: 334102501 heartbeat IPC: 0.348476 cumulative IPC: 0.372076 (Simulation time: 0 hr 5 min 42 sec) 
Heartbeat CPU 0 instructions: 126000001 cycles: 337019831 heartbeat IPC: 0.342779 cumulative IPC: 0.371802 (Simulation time: 0 hr 5 min 44 sec) 
Heartbeat CPU 0 instructions: 127000001 cycles: 339883973 heartbeat IPC: 0.349145 cumulative IPC: 0.371596 (Simulation time: 0 hr 5 min 47 sec) 
Heartbeat CPU 0 instructions: 128000000 cycles: 342721504 heartbeat IPC: 0.352419 cumulative IPC: 0.371424 (Simulation time: 0 hr 5 min 50 sec) 
Heartbeat CPU 0 instructions: 129000001 cycles: 345544381 heartbeat IPC: 0.354249 cumulative IPC: 0.371273 (Simulation time: 0 hr 5 min 53 sec) 
Heartbeat CPU 0 instructions: 130000002 cycles: 348418729 heartbeat IPC: 0.347905 cumulative IPC: 0.371065 (Simulation time: 0 hr 5 min 56 sec) 
Heartbeat CPU 0 instructions: 131000000 cycles: 351553958 heartbeat IPC: 0.318955 cumulative IPC: 0.370565 (Simulation time: 0 hr 5 min 59 sec) 
Heartbeat CPU 0 instructions: 132000000 cycles: 354381152 heartbeat IPC: 0.353708 cumulative IPC: 0.37042 (Simulation time: 0 hr 6 min 2 sec) 
Heartbeat CPU 0 instructions: 133000001 cycles: 357194691 heartbeat IPC: 0.355425 cumulative IPC: 0.370293 (Simulation time: 0 hr 6 min 5 sec) 
Heartbeat CPU 0 instructions: 134000003 cycles: 360025249 heartbeat IPC: 0.353288 cumulative IPC: 0.37015 (Simulation time: 0 hr 6 min 8 sec) 
Heartbeat CPU 0 instructions: 135000000 cycles: 362879749 heartbeat IPC: 0.350323 cumulative IPC: 0.369982 (Simulation time: 0 hr 6 min 11 sec) 
Heartbeat CPU 0 instructions: 136000002 cycles: 365684493 heartbeat IPC: 0.356539 cumulative IPC: 0.369871 (Simulation time: 0 hr 6 min 14 sec) 
Heartbeat CPU 0 instructions: 137000000 cycles: 368503303 heartbeat IPC: 0.354759 cumulative IPC: 0.369747 (Simulation time: 0 hr 6 min 17 sec) 
Heartbeat CPU 0 instructions: 138000000 cycles: 371347105 heartbeat IPC: 0.351642 cumulative IPC: 0.369599 (Simulation time: 0 hr 6 min 19 sec) 
Heartbeat CPU 0 instructions: 139000001 cycles: 374540572 heartbeat IPC: 0.31314 cumulative IPC: 0.369083 (Simulation time: 0 hr 6 min 23 sec) 
Heartbeat CPU 0 instructions: 140000002 cycles: 377587524 heartbeat IPC: 0.328197 cumulative IPC: 0.36873 (Simulation time: 0 hr 6 min 26 sec) 
Heartbeat CPU 0 instructions: 141000000 cycles: 380694357 heartbeat IPC: 0.321871 cumulative IPC: 0.36832 (Simulation time: 0 hr 6 min 29 sec) 
Heartbeat CPU 0 instructions: 142000003 cycles: 383552043 heartbeat IPC: 0.349935 cumulative IPC: 0.368174 (Simulation time: 0 hr 6 min 32 sec) 
Heartbeat CPU 0 instructions: 143000000 cycles: 386444450 heartbeat IPC: 0.345732 cumulative IPC: 0.367994 (Simulation time: 0 hr 6 min 35 sec) 
Heartbeat CPU 0 instructions: 144000000 cycles: 389507803 heartbeat IPC: 0.32644 cumulative IPC: 0.367645 (Simulation time: 0 hr 6 min 38 sec) 
Heartbeat CPU 0 instructions: 145000003 cycles: 392539794 heartbeat IPC: 0.329817 cumulative IPC: 0.367333 (Simulation time: 0 hr 6 min 41 sec) 
Heartbeat CPU 0 instructions: 146000000 cycles: 395567073 heartbeat IPC: 0.330329 cumulative IPC: 0.36703 (Simulation time: 0 hr 6 min 44 sec) 
Heartbeat CPU 0 instructions: 147000001 cycles: 398427035 heartbeat IPC: 0.349655 cumulative IPC: 0.366897 (Simulation time: 0 hr 6 min 47 sec) 
Heartbeat CPU 0 instructions: 148000001 cycles: 401347327 heartbeat IPC: 0.342432 cumulative IPC: 0.366707 (Simulation time: 0 hr 6 min 50 sec) 
Heartbeat CPU 0 instructions: 149000000 cycles: 404470603 heartbeat IPC: 0.320176 cumulative IPC: 0.366324 (Simulation time: 0 hr 6 min 53 sec) 
Heartbeat CPU 0 instructions: 150000001 cycles: 407532155 heartbeat IPC: 0.326632 cumulative IPC: 0.366007 (Simulation time: 0 hr 6 min 56 sec) 
Heartbeat CPU 0 instructions: 151000001 cycles: 410791934 heartbeat IPC: 0.306769 cumulative IPC: 0.365506 (Simulation time: 0 hr 7 min 0 sec) 
Heartbeat CPU 0 instructions: 152000000 cycles: 413814871 heartbeat IPC: 0.330804 cumulative IPC: 0.365236 (Simulation time: 0 hr 7 min 3 sec) 
Heartbeat CPU 0 instructions: 153000000 cycles: 416790634 heartbeat IPC: 0.336048 cumulative IPC: 0.365015 (Simulation time: 0 hr 7 min 6 sec) 
Heartbeat CPU 0 instructions: 154000000 cycles: 420071530 heartbeat IPC: 0.304795 cumulative IPC: 0.364515 (Simulation time: 0 hr 7 min 9 sec) 
Heartbeat CPU 0 instructions: 155000002 cycles: 423065980 heartbeat IPC: 0.333952 cumulative IPC: 0.364285 (Simulation time: 0 hr 7 min 13 sec) 
Heartbeat CPU 0 instructions: 156000000 cycles: 426364026 heartbeat IPC: 0.303209 cumulative IPC: 0.363783 (Simulation time: 0 hr 7 min 16 sec) 
Heartbeat CPU 0 instructions: 157000000 cycles: 429310617 heartbeat IPC: 0.339375 cumulative IPC: 0.363605 (Simulation time: 0 hr 7 min 19 sec) 
Heartbeat CPU 0 instructions: 158000001 cycles: 432580116 heartbeat IPC: 0.305858 cumulative IPC: 0.363142 (Simulation time: 0 hr 7 min 22 sec) 
Heartbeat CPU 0 instructions: 159000001 cycles: 435470244 heartbeat IPC: 0.346005 cumulative IPC: 0.363021 (Simulation time: 0 hr 7 min 26 sec) 
Heartbeat CPU 0 instructions: 160000001 cycles: 438734109 heartbeat IPC: 0.306385 cumulative IPC: 0.362574 (Simulation time: 0 hr 7 min 29 sec) 
Heartbeat CPU 0 instructions: 161000002 cycles: 441674168 heartbeat IPC: 0.34013 cumulative IPC: 0.362416 (Simulation time: 0 hr 7 min 32 sec) 
Heartbeat CPU 0 instructions: 162000000 cycles: 445007085 heartbeat IPC: 0.300037 cumulative IPC: 0.361921 (Simulation time: 0 hr 7 min 35 sec) 
Heartbeat CPU 0 instructions: 163000002 cycles: 448042086 heartbeat IPC: 0.32949 cumulative IPC: 0.361688 (Simulation time: 0 hr 7 min 39 sec) 
Heartbeat CPU 0 instructions: 164000003 cycles: 451306243 heartbeat IPC: 0.306358 cumulative IPC: 0.361264 (Simulation time: 0 hr 7 min 42 sec) 
Heartbeat CPU 0 instructions: 165000000 cycles: 454446658 heartbeat IPC: 0.318428 cumulative IPC: 0.360951 (Simulation time: 0 hr 7 min 45 sec) 
Heartbeat CPU 0 instructions: 166000002 cycles: 457570077 heartbeat IPC: 0.320163 cumulative IPC: 0.360657 (Simulation time: 0 hr 7 min 49 sec) 
Heartbeat CPU 0 instructions: 167000001 cycles: 461049754 heartbeat IPC: 0.287383 cumulative IPC: 0.360072 (Simulation time: 0 hr 7 min 52 sec) 
Heartbeat CPU 0 instructions: 168000001 cycles: 464583782 heartbeat IPC: 0.282963 cumulative IPC: 0.359452 (Simulation time: 0 hr 7 min 56 sec) 
Heartbeat CPU 0 instructions: 169000000 cycles: 467869715 heartbeat IPC: 0.304327 cumulative IPC: 0.359043 (Simulation time: 0 hr 7 min 59 sec) 
Heartbeat CPU 0 instructions: 170000001 cycles: 471375437 heartbeat IPC: 0.285248 cumulative IPC: 0.358463 (Simulation time: 0 hr 8 min 3 sec) 
Heartbeat CPU 0 instructions: 171000000 cycles: 474642360 heartbeat IPC: 0.306098 cumulative IPC: 0.358083 (Simulation time: 0 hr 8 min 6 sec) 
Heartbeat CPU 0 instructions: 172000000 cycles: 478129547 heartbeat IPC: 0.286764 cumulative IPC: 0.357534 (Simulation time: 0 hr 8 min 10 sec) 
Heartbeat CPU 0 instructions: 173000002 cycles: 481341261 heartbeat IPC: 0.311361 cumulative IPC: 0.357209 (Simulation time: 0 hr 8 min 13 sec) 
Heartbeat CPU 0 instructions: 174000001 cycles: 484708112 heartbeat IPC: 0.297013 cumulative IPC: 0.356768 (Simulation time: 0 hr 8 min 17 sec) 
Heartbeat CPU 0 instructions: 175000001 cycles: 488126061 heartbeat IPC: 0.292573 cumulative IPC: 0.356294 (Simulation time: 0 hr 8 min 20 sec) 
Heartbeat CPU 0 instructions: 176000000 cycles: 491303590 heartbeat IPC: 0.31471 cumulative IPC: 0.356011 (Simulation time: 0 hr 8 min 24 sec) 
Heartbeat CPU 0 instructions: 177000001 cycles: 494540457 heartbeat IPC: 0.308941 cumulative IPC: 0.355686 (Simulation time: 0 hr 8 min 27 sec) 
Heartbeat CPU 0 instructions: 178000001 cycles: 497937078 heartbeat IPC: 0.29441 cumulative IPC: 0.355246 (Simulation time: 0 hr 8 min 31 sec) 
Heartbeat CPU 0 instructions: 179000000 cycles: 501245366 heartbeat IPC: 0.302271 cumulative IPC: 0.354878 (Simulation time: 0 hr 8 min 34 sec) 
Heartbeat CPU 0 instructions: 180000003 cycles: 504638090 heartbeat IPC: 0.294749 cumulative IPC: 0.354453 (Simulation time: 0 hr 8 min 38 sec) 
Heartbeat CPU 0 instructions: 181000001 cycles: 508051200 heartbeat IPC: 0.292987 cumulative IPC: 0.354018 (Simulation time: 0 hr 8 min 42 sec) 
Heartbeat CPU 0 instructions: 182000003 cycles: 511410761 heartbeat IPC: 0.297659 cumulative IPC: 0.353629 (Simulation time: 0 hr 8 min 45 sec) 
Heartbeat CPU 0 instructions: 183000002 cycles: 514854277 heartbeat IPC: 0.290401 cumulative IPC: 0.353185 (Simulation time: 0 hr 8 min 49 sec) 
Heartbeat CPU 0 instructions: 184000002 cycles: 518123113 heartbeat IPC: 0.305919 cumulative IPC: 0.352871 (Simulation time: 0 hr 8 min 52 sec) 
Heartbeat CPU 0 instructions: 185000001 cycles: 521883385 heartbeat IPC: 0.265938 cumulative IPC: 0.352213 (Simulation time: 0 hr 8 min 56 sec) 
Heartbeat CPU 0 instructions: 186000003 cycles: 525134354 heartbeat IPC: 0.307601 cumulative IPC: 0.351923 (Simulation time: 0 hr 8 min 59 sec) 
Heartbeat CPU 0 instructions: 187000000 cycles: 528532045 heartbeat IPC: 0.294317 cumulative IPC: 0.351535 (Simulation time: 0 hr 9 min 3 sec) 
Heartbeat CPU 0 instructions: 188000002 cycles: 532017620 heartbeat IPC: 0.286897 cumulative IPC: 0.35109 (Simulation time: 0 hr 9 min 6 sec) 
Heartbeat CPU 0 instructions: 189000002 cycles: 535264593 heartbeat IPC: 0.307979 cumulative IPC: 0.350816 (Simulation time: 0 hr 9 min 10 sec) 
Heartbeat CPU 0 instructions: 190000000 cycles: 538652291 heartbeat IPC: 0.295185 cumulative IPC: 0.350449 (Simulation time: 0 hr 9 min 13 sec) 
Heartbeat CPU 0 instructions: 191000001 cycles: 542067311 heartbeat IPC: 0.292824 cumulative IPC: 0.350068 (Simulation time: 0 hr 9 min 17 sec) 
Heartbeat CPU 0 instructions: 192000001 cycles: 545341755 heartbeat IPC: 0.305395 cumulative IPC: 0.349787 (Simulation time: 0 hr 9 min 20 sec) 
Heartbeat CPU 0 instructions: 193000001 cycles: 548864532 heartbeat IPC: 0.283867 cumulative IPC: 0.349344 (Simulation time: 0 hr 9 min 24 sec) 
Heartbeat CPU 0 instructions: 194000000 cycles: 552243459 heartbeat IPC: 0.295952 cumulative IPC: 0.349002 (Simulation time: 0 hr 9 min 28 sec) 
Heartbeat CPU 0 instructions: 195000000 cycles: 555947481 heartbeat IPC: 0.269977 cumulative IPC: 0.34845 (Simulation time: 0 hr 9 min 32 sec) 
Heartbeat CPU 0 instructions: 196000002 cycles: 559262398 heartbeat IPC: 0.301667 cumulative IPC: 0.34816 (Simulation time: 0 hr 9 min 36 sec) 
Heartbeat CPU 0 instructions: 197000001 cycles: 562864095 heartbeat IPC: 0.277647 cumulative IPC: 0.347688 (Simulation time: 0 hr 9 min 40 sec) 
Heartbeat CPU 0 instructions: 198000000 cycles: 566233270 heartbeat IPC: 0.296808 cumulative IPC: 0.347371 (Simulation time: 0 hr 9 min 44 sec) 
Heartbeat CPU 0 instructions: 199000000 cycles: 569794679 heartbeat IPC: 0.280788 cumulative IPC: 0.346936 (Simulation time: 0 hr 9 min 48 sec) 
Heartbeat CPU 0 instructions: 200000001 cycles: 573226070 heartbeat IPC: 0.291427 cumulative IPC: 0.346589 (Simulation time: 0 hr 9 min 51 sec) 
Heartbeat CPU 0 instructions: 201000003 cycles: 576575971 heartbeat IPC: 0.298517 cumulative IPC: 0.346297 (Simulation time: 0 hr 9 min 55 sec) 
Heartbeat CPU 0 instructions: 202000003 cycles: 579959803 heartbeat IPC: 0.295523 cumulative IPC: 0.345987 (Simulation time: 0 hr 9 min 58 sec) 
Heartbeat CPU 0 instructions: 203000002 cycles: 583366330 heartbeat IPC: 0.293554 cumulative IPC: 0.345667 (Simulation time: 0 hr 10 min 2 sec) 
Heartbeat CPU 0 instructions: 204000000 cycles: 586757718 heartbeat IPC: 0.294864 cumulative IPC: 0.34536 (Simulation time: 0 hr 10 min 6 sec) 
Heartbeat CPU 0 instructions: 205000001 cycles: 590129256 heartbeat IPC: 0.296601 cumulative IPC: 0.345069 (Simulation time: 0 hr 10 min 9 sec) 
Heartbeat CPU 0 instructions: 206000000 cycles: 593612986 heartbeat IPC: 0.287048 cumulative IPC: 0.344714 (Simulation time: 0 hr 10 min 13 sec) 
Heartbeat CPU 0 instructions: 207000001 cycles: 597175329 heartbeat IPC: 0.280714 cumulative IPC: 0.344315 (Simulation time: 0 hr 10 min 16 sec) 
Heartbeat CPU 0 instructions: 208000003 cycles: 600546086 heartbeat IPC: 0.29667 cumulative IPC: 0.344036 (Simulation time: 0 hr 10 min 20 sec) 
Heartbeat CPU 0 instructions: 209000000 cycles: 603875075 heartbeat IPC: 0.300391 cumulative IPC: 0.343785 (Simulation time: 0 hr 10 min 23 sec) 
Heartbeat CPU 0 instructions: 210000002 cycles: 607470803 heartbeat IPC: 0.278108 cumulative IPC: 0.34338 (Simulation time: 0 hr 10 min 27 sec) 
Heartbeat CPU 0 instructions: 211000003 cycles: 610825848 heartbeat IPC: 0.298059 cumulative IPC: 0.34312 (Simulation time: 0 hr 10 min 30 sec) 
Heartbeat CPU 0 instructions: 212000001 cycles: 614161689 heartbeat IPC: 0.299774 cumulative IPC: 0.342875 (Simulation time: 0 hr 10 min 34 sec) 
Heartbeat CPU 0 instructions: 213000003 cycles: 617520734 heartbeat IPC: 0.297704 cumulative IPC: 0.342619 (Simulation time: 0 hr 10 min 37 sec) 
Heartbeat CPU 0 instructions: 214000002 cycles: 620816614 heartbeat IPC: 0.303409 cumulative IPC: 0.342402 (Simulation time: 0 hr 10 min 41 sec) 
Heartbeat CPU 0 instructions: 215000000 cycles: 624347936 heartbeat IPC: 0.283179 cumulative IPC: 0.342053 (Simulation time: 0 hr 10 min 45 sec) 
Heartbeat CPU 0 instructions: 216000001 cycles: 627461967 heartbeat IPC: 0.321128 cumulative IPC: 0.341945 (Simulation time: 0 hr 10 min 48 sec) 
Heartbeat CPU 0 instructions: 217000001 cycles: 630738378 heartbeat IPC: 0.305212 cumulative IPC: 0.341746 (Simulation time: 0 hr 10 min 51 sec) 
Heartbeat CPU 0 instructions: 218000003 cycles: 634090689 heartbeat IPC: 0.298302 cumulative IPC: 0.341507 (Simulation time: 0 hr 10 min 55 sec) 
Heartbeat CPU 0 instructions: 219000000 cycles: 637400155 heartbeat IPC: 0.302163 cumulative IPC: 0.341294 (Simulation time: 0 hr 10 min 58 sec) 
Heartbeat CPU 0 instructions: 220000000 cycles: 640486671 heartbeat IPC: 0.32399 cumulative IPC: 0.341208 (Simulation time: 0 hr 11 min 2 sec) 
Heartbeat CPU 0 instructions: 221000001 cycles: 643737161 heartbeat IPC: 0.307646 cumulative IPC: 0.341031 (Simulation time: 0 hr 11 min 5 sec) 
Heartbeat CPU 0 instructions: 222000000 cycles: 647113550 heartbeat IPC: 0.296174 cumulative IPC: 0.340788 (Simulation time: 0 hr 11 min 8 sec) 
Heartbeat CPU 0 instructions: 223000000 cycles: 650275571 heartbeat IPC: 0.316253 cumulative IPC: 0.340664 (Simulation time: 0 hr 11 min 12 sec) 
Heartbeat CPU 0 instructions: 224000001 cycles: 653453470 heartbeat IPC: 0.314674 cumulative IPC: 0.340532 (Simulation time: 0 hr 11 min 15 sec) 
Heartbeat CPU 0 instructions: 225000000 cycles: 656821287 heartbeat IPC: 0.296928 cumulative IPC: 0.3403 (Simulation time: 0 hr 11 min 18 sec) 
Heartbeat CPU 0 instructions: 226000002 cycles: 660222685 heartbeat IPC: 0.293997 cumulative IPC: 0.340052 (Simulation time: 0 hr 11 min 22 sec) 
Heartbeat CPU 0 instructions: 227000002 cycles: 663419884 heartbeat IPC: 0.312774 cumulative IPC: 0.339915 (Simulation time: 0 hr 11 min 25 sec) 
Heartbeat CPU 0 instructions: 228000000 cycles: 666629321 heartbeat IPC: 0.311581 cumulative IPC: 0.339774 (Simulation time: 0 hr 11 min 28 sec) 
Heartbeat CPU 0 instructions: 229000003 cycles: 670020529 heartbeat IPC: 0.294881 cumulative IPC: 0.339538 (Simulation time: 0 hr 11 min 32 sec) 
Heartbeat CPU 0 instructions: 230000002 cycles: 673227663 heartbeat IPC: 0.311805 cumulative IPC: 0.3394 (Simulation time: 0 hr 11 min 35 sec) 
Heartbeat CPU 0 instructions: 231000000 cycles: 676422840 heartbeat IPC: 0.312971 cumulative IPC: 0.339271 (Simulation time: 0 hr 11 min 38 sec) 
Heartbeat CPU 0 instructions: 232000000 cycles: 679799813 heartbeat IPC: 0.296123 cumulative IPC: 0.339048 (Simulation time: 0 hr 11 min 42 sec) 
Heartbeat CPU 0 instructions: 233000000 cycles: 683161281 heartbeat IPC: 0.297489 cumulative IPC: 0.338836 (Simulation time: 0 hr 11 min 45 sec) 
Heartbeat CPU 0 instructions: 234000002 cycles: 686328051 heartbeat IPC: 0.31578 cumulative IPC: 0.338725 (Simulation time: 0 hr 11 min 49 sec) 
Heartbeat CPU 0 instructions: 235000001 cycles: 689617508 heartbeat IPC: 0.304001 cumulative IPC: 0.338554 (Simulation time: 0 hr 11 min 52 sec) 
Heartbeat CPU 0 instructions: 236000002 cycles: 692962247 heartbeat IPC: 0.298977 cumulative IPC: 0.338355 (Simulation time: 0 hr 11 min 56 sec) 
Heartbeat CPU 0 instructions: 237000001 cycles: 699661355 heartbeat IPC: 0.149273 cumulative IPC: 0.336478 (Simulation time: 0 hr 12 min 0 sec) 
Heartbeat CPU 0 instructions: 238000001 cycles: 702867321 heartbeat IPC: 0.311918 cumulative IPC: 0.336362 (Simulation time: 0 hr 12 min 4 sec) 
Heartbeat CPU 0 instructions: 239000003 cycles: 706050769 heartbeat IPC: 0.314125 cumulative IPC: 0.336258 (Simulation time: 0 hr 12 min 7 sec) 
Heartbeat CPU 0 instructions: 240000001 cycles: 709410510 heartbeat IPC: 0.297641 cumulative IPC: 0.336068 (Simulation time: 0 hr 12 min 10 sec) 
Heartbeat CPU 0 instructions: 241000000 cycles: 712442809 heartbeat IPC: 0.329782 cumulative IPC: 0.33604 (Simulation time: 0 hr 12 min 13 sec) 
Heartbeat CPU 0 instructions: 242000000 cycles: 715539040 heartbeat IPC: 0.322973 cumulative IPC: 0.335982 (Simulation time: 0 hr 12 min 17 sec) 
Heartbeat CPU 0 instructions: 243000001 cycles: 718608156 heartbeat IPC: 0.325827 cumulative IPC: 0.335937 (Simulation time: 0 hr 12 min 20 sec) 
Heartbeat CPU 0 instructions: 244000003 cycles: 721709827 heartbeat IPC: 0.322408 cumulative IPC: 0.335877 (Simulation time: 0 hr 12 min 23 sec) 
Heartbeat CPU 0 instructions: 245000002 cycles: 725113765 heartbeat IPC: 0.293777 cumulative IPC: 0.335672 (Simulation time: 0 hr 12 min 26 sec) 
Heartbeat CPU 0 instructions: 246000002 cycles: 728128391 heartbeat IPC: 0.331716 cumulative IPC: 0.335655 (Simulation time: 0 hr 12 min 29 sec) 
Heartbeat CPU 0 instructions: 247000002 cycles: 732904648 heartbeat IPC: 0.209369 cumulative IPC: 0.334803 (Simulation time: 0 hr 12 min 33 sec) 
Heartbeat CPU 0 instructions: 248000001 cycles: 735980555 heartbeat IPC: 0.325107 cumulative IPC: 0.334761 (Simulation time: 0 hr 12 min 36 sec) 
Heartbeat CPU 0 instructions: 249000002 cycles: 739236558 heartbeat IPC: 0.307125 cumulative IPC: 0.334635 (Simulation time: 0 hr 12 min 40 sec) 
Heartbeat CPU 0 instructions: 250000001 cycles: 742008463 heartbeat IPC: 0.360762 cumulative IPC: 0.334736 (Simulation time: 0 hr 12 min 42 sec) 
Heartbeat CPU 0 instructions: 251000001 cycles: 745179553 heartbeat IPC: 0.315349 cumulative IPC: 0.334651 (Simulation time: 0 hr 12 min 46 sec) 
Heartbeat CPU 0 instructions: 252000003 cycles: 748040259 heartbeat IPC: 0.349565 cumulative IPC: 0.33471 (Simulation time: 0 hr 12 min 49 sec) 
Heartbeat CPU 0 instructions: 253000000 cycles: 751134214 heartbeat IPC: 0.32321 cumulative IPC: 0.334661 (Simulation time: 0 hr 12 min 52 sec) 
Heartbeat CPU 0 instructions: 254000001 cycles: 754251926 heartbeat IPC: 0.320748 cumulative IPC: 0.334601 (Simulation time: 0 hr 12 min 55 sec) 
Heartbeat CPU 0 instructions: 255000001 cycles: 757183202 heartbeat IPC: 0.341148 cumulative IPC: 0.334627 (Simulation time: 0 hr 12 min 58 sec) 
Heartbeat CPU 0 instructions: 256000002 cycles: 760034559 heartbeat IPC: 0.350711 cumulative IPC: 0.33469 (Simulation time: 0 hr 13 min 1 sec) 
Heartbeat CPU 0 instructions: 257000002 cycles: 763235461 heartbeat IPC: 0.312412 cumulative IPC: 0.334593 (Simulation time: 0 hr 13 min 4 sec) 
Heartbeat CPU 0 instructions: 258000000 cycles: 766365229 heartbeat IPC: 0.319512 cumulative IPC: 0.33453 (Simulation time: 0 hr 13 min 8 sec) 
Heartbeat CPU 0 instructions: 259000002 cycles: 769527172 heartbeat IPC: 0.316262 cumulative IPC: 0.334452 (Simulation time: 0 hr 13 min 11 sec) 
Heartbeat CPU 0 instructions: 260000000 cycles: 772400413 heartbeat IPC: 0.348038 cumulative IPC: 0.334504 (Simulation time: 0 hr 13 min 14 sec) 
Finished CPU 0 instructions: 250000000 cycles: 747374869 cumulative IPC: 0.334504 (Simulation time: 0 hr 13 min 14 sec) 

ChampSim completed all CPUs

Region of Interest Statistics

CPU 0 cumulative IPC: 0.334504 instructions: 250000000 cycles: 747374869
L1D TOTAL     ACCESS:   82487185  HIT:   65968194  MISS:   16518991
L1D LOAD      ACCESS:   61193582  HIT:   45450830  MISS:   15742752
L1D RFO       ACCESS:   21293603  HIT:   20517364  MISS:     776239
L1D PREFETCH  ACCESS:          0  HIT:          0  MISS:          0
L1D WRITEBACK ACCESS:          0  HIT:          0  MISS:          0
L1D PREFETCH  REQUESTED:          0  ISSUED:          0  USEFUL:          0  USELESS:          0
L1D AVERAGE MISS LATENCY: 92.1826 cycles
L1I TOTAL     ACCESS:   45409277  HIT:   45409275  MISS:          2
L1I LOAD      ACCESS:   45409277  HIT:   45409275  MISS:          2
L1I RFO       ACCESS:          0  HIT:          0  MISS:          0
L1I PREFETCH  ACCESS:          0  HIT:          0  MISS:          0
L1I WRITEBACK ACCESS:          0  HIT:          0  MISS:          0
L1I PREFETCH  REQUESTED:          0  ISSUED:          0  USEFUL:          0  USELESS:          0
L1I AVERAGE MISS LATENCY: 306 cycles
L2C TOTAL     ACCESS:   17681111  HIT:    4146805  MISS:   13534306
L2C LOAD      ACCESS:   15742699  HIT:    2549139  MISS:   13193560
L2C RFO       ACCESS:     776235  HIT:     437393  MISS:     338842
L2C PREFETCH  ACCESS:          0  HIT:          0  MISS:          0
L2C WRITEBACK ACCESS:    1162177  HIT:    1160273  MISS:       1904
L2C PREFETCH  REQUESTED:          0  ISSUED:          0  USEFUL:          0  USELESS:          0
L2C AVERAGE MISS LATENCY: 94.8703 cycles
LLC TOTAL     ACCESS:   22351888  HIT:   15614888  MISS:    6737000
LLC LOAD      ACCESS:   13193551  HIT:    7041048  MISS:    6152503
LLC RFO       ACCESS:     338842  HIT:     331196  MISS:       7646
LLC PREFETCH  ACCESS:    8072487  HIT:    7507928  MISS:     564559
LLC WRITEBACK ACCESS:     747008  HIT:     734716  MISS:      12292
LLC PREFETCH  REQUESTED:    8105581  ISSUED:    8105581  USEFUL:     222322  USELESS:     340872
LLC AVERAGE MISS LATENCY: 147.196 cycles
Major fault: 0 Minor fault: 83483
performance stats:
mapping cache size: 5248484
divergence: 6537350

DRAM Statistics
 CHANNEL 0
 RQ ROW_BUFFER_HIT:    2562995  ROW_BUFFER_MISS:     805936
 DBUS_CONGESTED:    2508419
 WQ ROW_BUFFER_HIT:      23017  ROW_BUFFER_MISS:      17845  FULL:          0

 CHANNEL 1
 RQ ROW_BUFFER_HIT:    2559811  ROW_BUFFER_MISS:     795923
 DBUS_CONGESTED:    2508419
 WQ ROW_BUFFER_HIT:      21788  ROW_BUFFER_MISS:      16859  FULL:          0

 AVG_CONGESTED_CYCLE: 15

CPU 0 Branch Prediction Accuracy: 94.4096% MPKI: 14.365 Average ROB Occupancy at Mispredict: 32.9189

Branch types
NOT_BRANCH: 185760203 74.3041%
BRANCH_DIRECT_JUMP: 7184633 2.87385%
BRANCH_INDIRECT: 0 0%
BRANCH_CONDITIONAL: 47004146 18.8017%
BRANCH_DIRECT_CALL: 4706698 1.88268%
BRANCH_INDIRECT_CALL: 318766 0.127506%
BRANCH_RETURN: 5025467 2.01019%
BRANCH_OTHER: 0 0%

