
*** ChampSim Multicore Out-of-Order Simulator ***

Warmup Instructions: 1000000
Prefetch Warmup Instructions: 10000000
Simulation Instructions: 250000000
Stat Printing Period: 1000000
Number of CPUs: 1
LLC sets: 2048
LLC ways: 16
Off-chip DRAM Size: 32768 MB Channels: 2 Width: 64-bit Data Rate: 1024 MT/s

CPU 0 runs /scratch/cluster/cmolder/ML-DPC/ChampSimTraces/spec17/605.mcf-s5.trace.xz
Read seed: 226
Heartbeat CPU 0 instructions: 1000001 cycles: 417980 heartbeat IPC: 2.39246 cumulative IPC: 2.39246 (Simulation time: 0 hr 0 min 3 sec) 

Warmup complete CPU 0 instructions: 1000001 cycles: 417980 (Simulation time: 0 hr 0 min 3 sec) 

Heartbeat CPU 0 instructions: 2000003 cycles: 2162418 heartbeat IPC: 0.573252 cumulative IPC: 0.573252 (Simulation time: 0 hr 0 min 7 sec) 
Heartbeat CPU 0 instructions: 3000001 cycles: 4309026 heartbeat IPC: 0.46585 cumulative IPC: 0.514001 (Simulation time: 0 hr 0 min 11 sec) 
Heartbeat CPU 0 instructions: 4000001 cycles: 6346623 heartbeat IPC: 0.490774 cumulative IPC: 0.506018 (Simulation time: 0 hr 0 min 15 sec) 
Heartbeat CPU 0 instructions: 5000001 cycles: 8696182 heartbeat IPC: 0.425612 cumulative IPC: 0.483197 (Simulation time: 0 hr 0 min 19 sec) 
Heartbeat CPU 0 instructions: 6000000 cycles: 11303360 heartbeat IPC: 0.383556 cumulative IPC: 0.459332 (Simulation time: 0 hr 0 min 24 sec) 
Heartbeat CPU 0 instructions: 7000002 cycles: 15072914 heartbeat IPC: 0.265284 cumulative IPC: 0.409418 (Simulation time: 0 hr 0 min 29 sec) 
Heartbeat CPU 0 instructions: 8000000 cycles: 17672310 heartbeat IPC: 0.384704 cumulative IPC: 0.405695 (Simulation time: 0 hr 0 min 34 sec) 
Heartbeat CPU 0 instructions: 9000000 cycles: 19488686 heartbeat IPC: 0.550547 cumulative IPC: 0.419491 (Simulation time: 0 hr 0 min 38 sec) 
Heartbeat CPU 0 instructions: 10000000 cycles: 21568700 heartbeat IPC: 0.480766 cumulative IPC: 0.425517 (Simulation time: 0 hr 0 min 42 sec) 

Warmup complete CPU 0 instructions: 10000002 cycles: 21568701 (Simulation time: 0 hr 0 min 42 sec) 

Heartbeat CPU 0 instructions: 11000000 cycles: 23756691 heartbeat IPC: 0.45704 cumulative IPC: 0.45704 (Simulation time: 0 hr 0 min 46 sec) 
Heartbeat CPU 0 instructions: 12000000 cycles: 25379938 heartbeat IPC: 0.616049 cumulative IPC: 0.524763 (Simulation time: 0 hr 0 min 50 sec) 
Heartbeat CPU 0 instructions: 13000000 cycles: 26720019 heartbeat IPC: 0.746224 cumulative IPC: 0.582375 (Simulation time: 0 hr 0 min 54 sec) 
Heartbeat CPU 0 instructions: 14000001 cycles: 28057451 heartbeat IPC: 0.747702 cumulative IPC: 0.616451 (Simulation time: 0 hr 0 min 58 sec) 
Heartbeat CPU 0 instructions: 15000000 cycles: 31514750 heartbeat IPC: 0.289243 cumulative IPC: 0.502712 (Simulation time: 0 hr 1 min 5 sec) 
Heartbeat CPU 0 instructions: 16000000 cycles: 34439400 heartbeat IPC: 0.341921 cumulative IPC: 0.466175 (Simulation time: 0 hr 1 min 10 sec) 
Heartbeat CPU 0 instructions: 17000003 cycles: 36918379 heartbeat IPC: 0.403393 cumulative IPC: 0.456036 (Simulation time: 0 hr 1 min 15 sec) 
Heartbeat CPU 0 instructions: 18000001 cycles: 39355590 heartbeat IPC: 0.410304 cumulative IPC: 0.449769 (Simulation time: 0 hr 1 min 19 sec) 
Heartbeat CPU 0 instructions: 19000001 cycles: 41134618 heartbeat IPC: 0.562105 cumulative IPC: 0.459983 (Simulation time: 0 hr 1 min 23 sec) 
Heartbeat CPU 0 instructions: 20000000 cycles: 43394957 heartbeat IPC: 0.442411 cumulative IPC: 0.458164 (Simulation time: 0 hr 1 min 28 sec) 
Heartbeat CPU 0 instructions: 21000000 cycles: 45174144 heartbeat IPC: 0.562054 cumulative IPC: 0.465994 (Simulation time: 0 hr 1 min 32 sec) 
Heartbeat CPU 0 instructions: 22000000 cycles: 46502186 heartbeat IPC: 0.752988 cumulative IPC: 0.48128 (Simulation time: 0 hr 1 min 36 sec) 
Heartbeat CPU 0 instructions: 23000000 cycles: 49624268 heartbeat IPC: 0.320299 cumulative IPC: 0.463366 (Simulation time: 0 hr 1 min 42 sec) 
Heartbeat CPU 0 instructions: 24000002 cycles: 52283204 heartbeat IPC: 0.376091 cumulative IPC: 0.455811 (Simulation time: 0 hr 1 min 47 sec) 
Heartbeat CPU 0 instructions: 25000000 cycles: 53390155 heartbeat IPC: 0.903381 cumulative IPC: 0.47138 (Simulation time: 0 hr 1 min 51 sec) 
Heartbeat CPU 0 instructions: 26000000 cycles: 54497949 heartbeat IPC: 0.902695 cumulative IPC: 0.48589 (Simulation time: 0 hr 1 min 55 sec) 
Heartbeat CPU 0 instructions: 27000000 cycles: 55728822 heartbeat IPC: 0.812432 cumulative IPC: 0.497656 (Simulation time: 0 hr 1 min 58 sec) 
Heartbeat CPU 0 instructions: 28000001 cycles: 57046860 heartbeat IPC: 0.758704 cumulative IPC: 0.507354 (Simulation time: 0 hr 2 min 2 sec) 
Heartbeat CPU 0 instructions: 29000002 cycles: 58354885 heartbeat IPC: 0.764512 cumulative IPC: 0.516498 (Simulation time: 0 hr 2 min 5 sec) 
Heartbeat CPU 0 instructions: 30000000 cycles: 60975442 heartbeat IPC: 0.381597 cumulative IPC: 0.507527 (Simulation time: 0 hr 2 min 10 sec) 
Heartbeat CPU 0 instructions: 31000000 cycles: 62276651 heartbeat IPC: 0.768516 cumulative IPC: 0.51587 (Simulation time: 0 hr 2 min 14 sec) 
Heartbeat CPU 0 instructions: 32000001 cycles: 64171803 heartbeat IPC: 0.527663 cumulative IPC: 0.516394 (Simulation time: 0 hr 2 min 18 sec) 
Heartbeat CPU 0 instructions: 33000000 cycles: 65992815 heartbeat IPC: 0.549145 cumulative IPC: 0.517737 (Simulation time: 0 hr 2 min 22 sec) 
Heartbeat CPU 0 instructions: 34000000 cycles: 67560324 heartbeat IPC: 0.637955 cumulative IPC: 0.521834 (Simulation time: 0 hr 2 min 26 sec) 
Heartbeat CPU 0 instructions: 35000000 cycles: 69508483 heartbeat IPC: 0.513305 cumulative IPC: 0.521488 (Simulation time: 0 hr 2 min 30 sec) 
Heartbeat CPU 0 instructions: 36000002 cycles: 71585841 heartbeat IPC: 0.481382 cumulative IPC: 0.519822 (Simulation time: 0 hr 2 min 34 sec) 
Heartbeat CPU 0 instructions: 37000000 cycles: 74861083 heartbeat IPC: 0.30532 cumulative IPC: 0.506639 (Simulation time: 0 hr 2 min 40 sec) 
Heartbeat CPU 0 instructions: 38000001 cycles: 76696115 heartbeat IPC: 0.54495 cumulative IPC: 0.507914 (Simulation time: 0 hr 2 min 44 sec) 
Heartbeat CPU 0 instructions: 39000000 cycles: 77985358 heartbeat IPC: 0.775648 cumulative IPC: 0.514033 (Simulation time: 0 hr 2 min 48 sec) 
Heartbeat CPU 0 instructions: 40000000 cycles: 80026029 heartbeat IPC: 0.490035 cumulative IPC: 0.513195 (Simulation time: 0 hr 2 min 52 sec) 
Heartbeat CPU 0 instructions: 41000003 cycles: 81429289 heartbeat IPC: 0.712628 cumulative IPC: 0.51787 (Simulation time: 0 hr 2 min 55 sec) 
Heartbeat CPU 0 instructions: 42000000 cycles: 82896325 heartbeat IPC: 0.681644 cumulative IPC: 0.521788 (Simulation time: 0 hr 2 min 59 sec) 
Heartbeat CPU 0 instructions: 43000000 cycles: 84310588 heartbeat IPC: 0.707082 cumulative IPC: 0.525964 (Simulation time: 0 hr 3 min 3 sec) 
Heartbeat CPU 0 instructions: 44000000 cycles: 86481110 heartbeat IPC: 0.460719 cumulative IPC: 0.523783 (Simulation time: 0 hr 3 min 7 sec) 
Heartbeat CPU 0 instructions: 45000003 cycles: 90247073 heartbeat IPC: 0.265537 cumulative IPC: 0.509622 (Simulation time: 0 hr 3 min 14 sec) 
Heartbeat CPU 0 instructions: 46000001 cycles: 92314026 heartbeat IPC: 0.483803 cumulative IPC: 0.508868 (Simulation time: 0 hr 3 min 18 sec) 
Heartbeat CPU 0 instructions: 47000003 cycles: 94328309 heartbeat IPC: 0.496456 cumulative IPC: 0.508524 (Simulation time: 0 hr 3 min 22 sec) 
Heartbeat CPU 0 instructions: 48000000 cycles: 96744016 heartbeat IPC: 0.413956 cumulative IPC: 0.505485 (Simulation time: 0 hr 3 min 27 sec) 
Heartbeat CPU 0 instructions: 49000000 cycles: 98768908 heartbeat IPC: 0.493854 cumulative IPC: 0.50518 (Simulation time: 0 hr 3 min 31 sec) 
Heartbeat CPU 0 instructions: 50000000 cycles: 100224943 heartbeat IPC: 0.686797 cumulative IPC: 0.508542 (Simulation time: 0 hr 3 min 35 sec) 
Heartbeat CPU 0 instructions: 51000003 cycles: 102309234 heartbeat IPC: 0.479781 cumulative IPC: 0.5078 (Simulation time: 0 hr 3 min 39 sec) 
Heartbeat CPU 0 instructions: 52000001 cycles: 104318625 heartbeat IPC: 0.497662 cumulative IPC: 0.507553 (Simulation time: 0 hr 3 min 43 sec) 
Heartbeat CPU 0 instructions: 53000001 cycles: 106774263 heartbeat IPC: 0.407226 cumulative IPC: 0.504662 (Simulation time: 0 hr 3 min 48 sec) 
Heartbeat CPU 0 instructions: 54000002 cycles: 108028356 heartbeat IPC: 0.79739 cumulative IPC: 0.508908 (Simulation time: 0 hr 3 min 51 sec) 
Heartbeat CPU 0 instructions: 55000000 cycles: 109539550 heartbeat IPC: 0.661727 cumulative IPC: 0.511533 (Simulation time: 0 hr 3 min 55 sec) 
Heartbeat CPU 0 instructions: 56000003 cycles: 111014507 heartbeat IPC: 0.677988 cumulative IPC: 0.514278 (Simulation time: 0 hr 3 min 59 sec) 
Heartbeat CPU 0 instructions: 57000000 cycles: 112522808 heartbeat IPC: 0.662996 cumulative IPC: 0.516744 (Simulation time: 0 hr 4 min 3 sec) 
Heartbeat CPU 0 instructions: 58000001 cycles: 113872851 heartbeat IPC: 0.740718 cumulative IPC: 0.52002 (Simulation time: 0 hr 4 min 7 sec) 
Heartbeat CPU 0 instructions: 59000001 cycles: 115898218 heartbeat IPC: 0.493738 cumulative IPC: 0.519456 (Simulation time: 0 hr 4 min 11 sec) 
Heartbeat CPU 0 instructions: 60000003 cycles: 119517089 heartbeat IPC: 0.27633 cumulative IPC: 0.510473 (Simulation time: 0 hr 4 min 17 sec) 
Heartbeat CPU 0 instructions: 61000000 cycles: 123323049 heartbeat IPC: 0.262745 cumulative IPC: 0.501207 (Simulation time: 0 hr 4 min 24 sec) 
Heartbeat CPU 0 instructions: 62000000 cycles: 126556203 heartbeat IPC: 0.309296 cumulative IPC: 0.495297 (Simulation time: 0 hr 4 min 30 sec) 
Heartbeat CPU 0 instructions: 63000001 cycles: 128193589 heartbeat IPC: 0.61073 cumulative IPC: 0.49707 (Simulation time: 0 hr 4 min 34 sec) 
Heartbeat CPU 0 instructions: 64000001 cycles: 129531084 heartbeat IPC: 0.747666 cumulative IPC: 0.500174 (Simulation time: 0 hr 4 min 37 sec) 
Heartbeat CPU 0 instructions: 65000000 cycles: 131369999 heartbeat IPC: 0.543798 cumulative IPC: 0.500905 (Simulation time: 0 hr 4 min 41 sec) 
Heartbeat CPU 0 instructions: 66000000 cycles: 133625365 heartbeat IPC: 0.443387 cumulative IPC: 0.499747 (Simulation time: 0 hr 4 min 46 sec) 
Heartbeat CPU 0 instructions: 67000001 cycles: 135987255 heartbeat IPC: 0.42339 cumulative IPC: 0.498171 (Simulation time: 0 hr 4 min 50 sec) 
Heartbeat CPU 0 instructions: 68000000 cycles: 137422945 heartbeat IPC: 0.696528 cumulative IPC: 0.500629 (Simulation time: 0 hr 4 min 54 sec) 
Heartbeat CPU 0 instructions: 69000002 cycles: 140474995 heartbeat IPC: 0.327649 cumulative IPC: 0.496189 (Simulation time: 0 hr 5 min 0 sec) 
Heartbeat CPU 0 instructions: 70000002 cycles: 143476067 heartbeat IPC: 0.333214 cumulative IPC: 0.492177 (Simulation time: 0 hr 5 min 6 sec) 
Heartbeat CPU 0 instructions: 71000003 cycles: 146020593 heartbeat IPC: 0.393001 cumulative IPC: 0.490149 (Simulation time: 0 hr 5 min 10 sec) 
Heartbeat CPU 0 instructions: 72000003 cycles: 148261654 heartbeat IPC: 0.446217 cumulative IPC: 0.489372 (Simulation time: 0 hr 5 min 14 sec) 
Heartbeat CPU 0 instructions: 73000000 cycles: 151124806 heartbeat IPC: 0.349264 cumulative IPC: 0.486276 (Simulation time: 0 hr 5 min 19 sec) 
Heartbeat CPU 0 instructions: 74000001 cycles: 153392227 heartbeat IPC: 0.44103 cumulative IPC: 0.485498 (Simulation time: 0 hr 5 min 23 sec) 
Heartbeat CPU 0 instructions: 75000000 cycles: 156225666 heartbeat IPC: 0.352928 cumulative IPC: 0.482708 (Simulation time: 0 hr 5 min 28 sec) 
Heartbeat CPU 0 instructions: 76000003 cycles: 159086387 heartbeat IPC: 0.349563 cumulative IPC: 0.479938 (Simulation time: 0 hr 5 min 33 sec) 
Heartbeat CPU 0 instructions: 77000000 cycles: 162655665 heartbeat IPC: 0.280168 cumulative IPC: 0.474884 (Simulation time: 0 hr 5 min 39 sec) 
Heartbeat CPU 0 instructions: 78000000 cycles: 166055637 heartbeat IPC: 0.29412 cumulative IPC: 0.470631 (Simulation time: 0 hr 5 min 44 sec) 
Heartbeat CPU 0 instructions: 79000002 cycles: 167314103 heartbeat IPC: 0.79462 cumulative IPC: 0.473428 (Simulation time: 0 hr 5 min 48 sec) 
Heartbeat CPU 0 instructions: 80000000 cycles: 168551333 heartbeat IPC: 0.808256 cumulative IPC: 0.476247 (Simulation time: 0 hr 5 min 51 sec) 
Heartbeat CPU 0 instructions: 81000002 cycles: 169858107 heartbeat IPC: 0.765245 cumulative IPC: 0.478793 (Simulation time: 0 hr 5 min 55 sec) 
Heartbeat CPU 0 instructions: 82000001 cycles: 171081584 heartbeat IPC: 0.817342 cumulative IPC: 0.481564 (Simulation time: 0 hr 5 min 59 sec) 
Heartbeat CPU 0 instructions: 83000002 cycles: 172304554 heartbeat IPC: 0.817682 cumulative IPC: 0.484291 (Simulation time: 0 hr 6 min 2 sec) 
Heartbeat CPU 0 instructions: 84000001 cycles: 175184678 heartbeat IPC: 0.347207 cumulative IPC: 0.481721 (Simulation time: 0 hr 6 min 8 sec) 
Heartbeat CPU 0 instructions: 85000001 cycles: 178732160 heartbeat IPC: 0.28189 cumulative IPC: 0.47721 (Simulation time: 0 hr 6 min 14 sec) 
Heartbeat CPU 0 instructions: 86000001 cycles: 181394978 heartbeat IPC: 0.375542 cumulative IPC: 0.475516 (Simulation time: 0 hr 6 min 19 sec) 
Heartbeat CPU 0 instructions: 87000001 cycles: 183576205 heartbeat IPC: 0.458458 cumulative IPC: 0.475287 (Simulation time: 0 hr 6 min 23 sec) 
Heartbeat CPU 0 instructions: 88000000 cycles: 185216298 heartbeat IPC: 0.609721 cumulative IPC: 0.476634 (Simulation time: 0 hr 6 min 27 sec) 
Heartbeat CPU 0 instructions: 89000001 cycles: 187489168 heartbeat IPC: 0.439973 cumulative IPC: 0.476132 (Simulation time: 0 hr 6 min 31 sec) 
Heartbeat CPU 0 instructions: 90000001 cycles: 189139210 heartbeat IPC: 0.606045 cumulative IPC: 0.477411 (Simulation time: 0 hr 6 min 35 sec) 
Heartbeat CPU 0 instructions: 91000002 cycles: 190770546 heartbeat IPC: 0.612995 cumulative IPC: 0.478718 (Simulation time: 0 hr 6 min 39 sec) 
Heartbeat CPU 0 instructions: 92000000 cycles: 192790887 heartbeat IPC: 0.494965 cumulative IPC: 0.47891 (Simulation time: 0 hr 6 min 43 sec) 
Heartbeat CPU 0 instructions: 93000001 cycles: 195938500 heartbeat IPC: 0.317701 cumulative IPC: 0.476 (Simulation time: 0 hr 6 min 49 sec) 
Heartbeat CPU 0 instructions: 94000003 cycles: 198983861 heartbeat IPC: 0.328369 cumulative IPC: 0.473466 (Simulation time: 0 hr 6 min 55 sec) 
Heartbeat CPU 0 instructions: 95000000 cycles: 200782846 heartbeat IPC: 0.555867 cumulative IPC: 0.474293 (Simulation time: 0 hr 6 min 58 sec) 
Heartbeat CPU 0 instructions: 96000002 cycles: 202396955 heartbeat IPC: 0.619538 cumulative IPC: 0.475589 (Simulation time: 0 hr 7 min 2 sec) 
Heartbeat CPU 0 instructions: 97000003 cycles: 203770218 heartbeat IPC: 0.728193 cumulative IPC: 0.477493 (Simulation time: 0 hr 7 min 6 sec) 
Heartbeat CPU 0 instructions: 98000000 cycles: 204984235 heartbeat IPC: 0.823709 cumulative IPC: 0.479785 (Simulation time: 0 hr 7 min 10 sec) 
Heartbeat CPU 0 instructions: 99000000 cycles: 206093533 heartbeat IPC: 0.901471 cumulative IPC: 0.48232 (Simulation time: 0 hr 7 min 13 sec) 
Heartbeat CPU 0 instructions: 100000000 cycles: 207180938 heartbeat IPC: 0.919621 cumulative IPC: 0.484882 (Simulation time: 0 hr 7 min 17 sec) 
Heartbeat CPU 0 instructions: 101000002 cycles: 209767923 heartbeat IPC: 0.386551 cumulative IPC: 0.48353 (Simulation time: 0 hr 7 min 22 sec) 
Heartbeat CPU 0 instructions: 102000001 cycles: 212742239 heartbeat IPC: 0.336211 cumulative IPC: 0.481238 (Simulation time: 0 hr 7 min 28 sec) 
Heartbeat CPU 0 instructions: 103000001 cycles: 214015691 heartbeat IPC: 0.785267 cumulative IPC: 0.48325 (Simulation time: 0 hr 7 min 31 sec) 
Heartbeat CPU 0 instructions: 104000002 cycles: 215670581 heartbeat IPC: 0.60427 cumulative IPC: 0.484282 (Simulation time: 0 hr 7 min 35 sec) 
Heartbeat CPU 0 instructions: 105000001 cycles: 217336906 heartbeat IPC: 0.600122 cumulative IPC: 0.485268 (Simulation time: 0 hr 7 min 39 sec) 
Heartbeat CPU 0 instructions: 106000003 cycles: 218850302 heartbeat IPC: 0.660767 cumulative IPC: 0.486614 (Simulation time: 0 hr 7 min 43 sec) 
Heartbeat CPU 0 instructions: 107000002 cycles: 220312741 heartbeat IPC: 0.683789 cumulative IPC: 0.488065 (Simulation time: 0 hr 7 min 47 sec) 
Heartbeat CPU 0 instructions: 108000001 cycles: 221518697 heartbeat IPC: 0.829217 cumulative IPC: 0.490123 (Simulation time: 0 hr 7 min 50 sec) 
Heartbeat CPU 0 instructions: 109000001 cycles: 224085773 heartbeat IPC: 0.389548 cumulative IPC: 0.488848 (Simulation time: 0 hr 7 min 56 sec) 
Heartbeat CPU 0 instructions: 110000000 cycles: 225686495 heartbeat IPC: 0.624717 cumulative IPC: 0.489913 (Simulation time: 0 hr 7 min 59 sec) 
Heartbeat CPU 0 instructions: 111000001 cycles: 226920295 heartbeat IPC: 0.810505 cumulative IPC: 0.491839 (Simulation time: 0 hr 8 min 3 sec) 
Heartbeat CPU 0 instructions: 112000000 cycles: 228316763 heartbeat IPC: 0.716092 cumulative IPC: 0.493354 (Simulation time: 0 hr 8 min 7 sec) 
Heartbeat CPU 0 instructions: 113000000 cycles: 230229407 heartbeat IPC: 0.522836 cumulative IPC: 0.493624 (Simulation time: 0 hr 8 min 11 sec) 
Heartbeat CPU 0 instructions: 114000003 cycles: 231674852 heartbeat IPC: 0.691831 cumulative IPC: 0.494988 (Simulation time: 0 hr 8 min 15 sec) 
Heartbeat CPU 0 instructions: 115000002 cycles: 232978060 heartbeat IPC: 0.767336 cumulative IPC: 0.496667 (Simulation time: 0 hr 8 min 19 sec) 
Heartbeat CPU 0 instructions: 116000000 cycles: 234796484 heartbeat IPC: 0.549926 cumulative IPC: 0.497121 (Simulation time: 0 hr 8 min 23 sec) 
Heartbeat CPU 0 instructions: 117000000 cycles: 236834236 heartbeat IPC: 0.490737 cumulative IPC: 0.497061 (Simulation time: 0 hr 8 min 28 sec) 
Heartbeat CPU 0 instructions: 118000000 cycles: 238146156 heartbeat IPC: 0.762242 cumulative IPC: 0.498667 (Simulation time: 0 hr 8 min 31 sec) 
Heartbeat CPU 0 instructions: 119000002 cycles: 239651372 heartbeat IPC: 0.664358 cumulative IPC: 0.49981 (Simulation time: 0 hr 8 min 35 sec) 
Heartbeat CPU 0 instructions: 120000001 cycles: 241393738 heartbeat IPC: 0.573932 cumulative IPC: 0.500398 (Simulation time: 0 hr 8 min 39 sec) 
Heartbeat CPU 0 instructions: 121000000 cycles: 243103967 heartbeat IPC: 0.584716 cumulative IPC: 0.501049 (Simulation time: 0 hr 8 min 43 sec) 
Heartbeat CPU 0 instructions: 122000000 cycles: 244879009 heartbeat IPC: 0.563367 cumulative IPC: 0.501544 (Simulation time: 0 hr 8 min 47 sec) 
Heartbeat CPU 0 instructions: 123000002 cycles: 246706239 heartbeat IPC: 0.547278 cumulative IPC: 0.501915 (Simulation time: 0 hr 8 min 51 sec) 
Heartbeat CPU 0 instructions: 124000003 cycles: 249343130 heartbeat IPC: 0.379235 cumulative IPC: 0.500495 (Simulation time: 0 hr 8 min 56 sec) 
Heartbeat CPU 0 instructions: 125000003 cycles: 250971644 heartbeat IPC: 0.614057 cumulative IPC: 0.501301 (Simulation time: 0 hr 9 min 0 sec) 
Heartbeat CPU 0 instructions: 126000001 cycles: 252466407 heartbeat IPC: 0.669001 cumulative IPC: 0.502387 (Simulation time: 0 hr 9 min 4 sec) 
Heartbeat CPU 0 instructions: 127000003 cycles: 253755575 heartbeat IPC: 0.775696 cumulative IPC: 0.503904 (Simulation time: 0 hr 9 min 8 sec) 
Heartbeat CPU 0 instructions: 128000001 cycles: 255032498 heartbeat IPC: 0.783131 cumulative IPC: 0.505432 (Simulation time: 0 hr 9 min 12 sec) 
Heartbeat CPU 0 instructions: 129000001 cycles: 256280912 heartbeat IPC: 0.801016 cumulative IPC: 0.507004 (Simulation time: 0 hr 9 min 15 sec) 
Heartbeat CPU 0 instructions: 130000001 cycles: 258205435 heartbeat IPC: 0.519609 cumulative IPC: 0.507106 (Simulation time: 0 hr 9 min 19 sec) 
Heartbeat CPU 0 instructions: 131000000 cycles: 260964379 heartbeat IPC: 0.362457 cumulative IPC: 0.505439 (Simulation time: 0 hr 9 min 24 sec) 
Heartbeat CPU 0 instructions: 132000000 cycles: 264467863 heartbeat IPC: 0.28543 cumulative IPC: 0.502266 (Simulation time: 0 hr 9 min 31 sec) 
Heartbeat CPU 0 instructions: 133000002 cycles: 266002073 heartbeat IPC: 0.651803 cumulative IPC: 0.503205 (Simulation time: 0 hr 9 min 34 sec) 
Heartbeat CPU 0 instructions: 134000000 cycles: 267503332 heartbeat IPC: 0.666106 cumulative IPC: 0.504199 (Simulation time: 0 hr 9 min 38 sec) 
Heartbeat CPU 0 instructions: 135000002 cycles: 268561867 heartbeat IPC: 0.944704 cumulative IPC: 0.506087 (Simulation time: 0 hr 9 min 42 sec) 
Heartbeat CPU 0 instructions: 136000002 cycles: 269668227 heartbeat IPC: 0.903865 cumulative IPC: 0.507861 (Simulation time: 0 hr 9 min 45 sec) 
Heartbeat CPU 0 instructions: 137000002 cycles: 271125487 heartbeat IPC: 0.686219 cumulative IPC: 0.508902 (Simulation time: 0 hr 9 min 49 sec) 
Heartbeat CPU 0 instructions: 138000001 cycles: 272637461 heartbeat IPC: 0.661386 cumulative IPC: 0.509821 (Simulation time: 0 hr 9 min 53 sec) 
Heartbeat CPU 0 instructions: 139000001 cycles: 274623355 heartbeat IPC: 0.503552 cumulative IPC: 0.509771 (Simulation time: 0 hr 9 min 57 sec) 
Heartbeat CPU 0 instructions: 140000000 cycles: 276660802 heartbeat IPC: 0.49081 cumulative IPC: 0.50962 (Simulation time: 0 hr 10 min 2 sec) 
Heartbeat CPU 0 instructions: 141000000 cycles: 277963697 heartbeat IPC: 0.767522 cumulative IPC: 0.51093 (Simulation time: 0 hr 10 min 6 sec) 
Heartbeat CPU 0 instructions: 142000000 cycles: 279177070 heartbeat IPC: 0.824149 cumulative IPC: 0.512406 (Simulation time: 0 hr 10 min 9 sec) 
Heartbeat CPU 0 instructions: 143000000 cycles: 280959459 heartbeat IPC: 0.561045 cumulative IPC: 0.51274 (Simulation time: 0 hr 10 min 13 sec) 
Heartbeat CPU 0 instructions: 144000001 cycles: 282369070 heartbeat IPC: 0.709416 cumulative IPC: 0.513803 (Simulation time: 0 hr 10 min 18 sec) 
Heartbeat CPU 0 instructions: 145000002 cycles: 284501589 heartbeat IPC: 0.468929 cumulative IPC: 0.513439 (Simulation time: 0 hr 10 min 22 sec) 
Heartbeat CPU 0 instructions: 146000002 cycles: 286007280 heartbeat IPC: 0.664147 cumulative IPC: 0.514297 (Simulation time: 0 hr 10 min 26 sec) 
Heartbeat CPU 0 instructions: 147000000 cycles: 288572627 heartbeat IPC: 0.38981 cumulative IPC: 0.513101 (Simulation time: 0 hr 10 min 32 sec) 
Heartbeat CPU 0 instructions: 148000003 cycles: 289750880 heartbeat IPC: 0.848717 cumulative IPC: 0.514576 (Simulation time: 0 hr 10 min 35 sec) 
Heartbeat CPU 0 instructions: 149000003 cycles: 290969620 heartbeat IPC: 0.82052 cumulative IPC: 0.51596 (Simulation time: 0 hr 10 min 39 sec) 
Heartbeat CPU 0 instructions: 150000002 cycles: 292657772 heartbeat IPC: 0.592363 cumulative IPC: 0.516435 (Simulation time: 0 hr 10 min 43 sec) 
Heartbeat CPU 0 instructions: 151000002 cycles: 294224101 heartbeat IPC: 0.638435 cumulative IPC: 0.517136 (Simulation time: 0 hr 10 min 48 sec) 
Heartbeat CPU 0 instructions: 152000000 cycles: 295785002 heartbeat IPC: 0.640654 cumulative IPC: 0.517839 (Simulation time: 0 hr 10 min 52 sec) 
Heartbeat CPU 0 instructions: 153000002 cycles: 297586787 heartbeat IPC: 0.555006 cumulative IPC: 0.518082 (Simulation time: 0 hr 10 min 56 sec) 
Heartbeat CPU 0 instructions: 154000000 cycles: 300705827 heartbeat IPC: 0.320611 cumulative IPC: 0.515875 (Simulation time: 0 hr 11 min 2 sec) 
Heartbeat CPU 0 instructions: 155000001 cycles: 302436048 heartbeat IPC: 0.577961 cumulative IPC: 0.516258 (Simulation time: 0 hr 11 min 6 sec) 
Heartbeat CPU 0 instructions: 156000001 cycles: 303776310 heartbeat IPC: 0.746123 cumulative IPC: 0.51735 (Simulation time: 0 hr 11 min 10 sec) 
Heartbeat CPU 0 instructions: 157000001 cycles: 306119129 heartbeat IPC: 0.426836 cumulative IPC: 0.516604 (Simulation time: 0 hr 11 min 15 sec) 
Heartbeat CPU 0 instructions: 158000001 cycles: 307685811 heartbeat IPC: 0.638292 cumulative IPC: 0.517271 (Simulation time: 0 hr 11 min 19 sec) 
Heartbeat CPU 0 instructions: 159000003 cycles: 309467372 heartbeat IPC: 0.561307 cumulative IPC: 0.517543 (Simulation time: 0 hr 11 min 23 sec) 
Heartbeat CPU 0 instructions: 160000000 cycles: 311404377 heartbeat IPC: 0.516259 cumulative IPC: 0.517535 (Simulation time: 0 hr 11 min 27 sec) 
Heartbeat CPU 0 instructions: 161000003 cycles: 314242511 heartbeat IPC: 0.352345 cumulative IPC: 0.515933 (Simulation time: 0 hr 11 min 32 sec) 
Heartbeat CPU 0 instructions: 162000000 cycles: 318131072 heartbeat IPC: 0.257164 cumulative IPC: 0.51254 (Simulation time: 0 hr 11 min 38 sec) 
Heartbeat CPU 0 instructions: 163000001 cycles: 319893782 heartbeat IPC: 0.567309 cumulative IPC: 0.512863 (Simulation time: 0 hr 11 min 42 sec) 
Heartbeat CPU 0 instructions: 164000002 cycles: 321225487 heartbeat IPC: 0.750918 cumulative IPC: 0.513921 (Simulation time: 0 hr 11 min 46 sec) 
Heartbeat CPU 0 instructions: 165000000 cycles: 322539559 heartbeat IPC: 0.760992 cumulative IPC: 0.515 (Simulation time: 0 hr 11 min 50 sec) 
Heartbeat CPU 0 instructions: 166000001 cycles: 324333153 heartbeat IPC: 0.55754 cumulative IPC: 0.515252 (Simulation time: 0 hr 11 min 54 sec) 
Heartbeat CPU 0 instructions: 167000002 cycles: 325685455 heartbeat IPC: 0.739481 cumulative IPC: 0.516249 (Simulation time: 0 hr 11 min 58 sec) 
Heartbeat CPU 0 instructions: 168000001 cycles: 327208050 heartbeat IPC: 0.656773 cumulative IPC: 0.516949 (Simulation time: 0 hr 12 min 2 sec) 
Heartbeat CPU 0 instructions: 169000000 cycles: 328857732 heartbeat IPC: 0.606177 cumulative IPC: 0.517428 (Simulation time: 0 hr 12 min 5 sec) 
Heartbeat CPU 0 instructions: 170000001 cycles: 331293461 heartbeat IPC: 0.410555 cumulative IPC: 0.516588 (Simulation time: 0 hr 12 min 10 sec) 
Heartbeat CPU 0 instructions: 171000002 cycles: 332780086 heartbeat IPC: 0.672665 cumulative IPC: 0.517333 (Simulation time: 0 hr 12 min 14 sec) 
Heartbeat CPU 0 instructions: 172000003 cycles: 334122533 heartbeat IPC: 0.744909 cumulative IPC: 0.518311 (Simulation time: 0 hr 12 min 18 sec) 
Heartbeat CPU 0 instructions: 173000003 cycles: 335374750 heartbeat IPC: 0.798584 cumulative IPC: 0.519429 (Simulation time: 0 hr 12 min 22 sec) 
Heartbeat CPU 0 instructions: 174000003 cycles: 337361624 heartbeat IPC: 0.503303 cumulative IPC: 0.519328 (Simulation time: 0 hr 12 min 26 sec) 
Heartbeat CPU 0 instructions: 175000000 cycles: 339110876 heartbeat IPC: 0.571671 cumulative IPC: 0.519616 (Simulation time: 0 hr 12 min 30 sec) 
Heartbeat CPU 0 instructions: 176000000 cycles: 342080718 heartbeat IPC: 0.336718 cumulative IPC: 0.517921 (Simulation time: 0 hr 12 min 35 sec) 
Heartbeat CPU 0 instructions: 177000000 cycles: 345188421 heartbeat IPC: 0.321781 cumulative IPC: 0.516038 (Simulation time: 0 hr 12 min 41 sec) 
Heartbeat CPU 0 instructions: 178000001 cycles: 346757277 heartbeat IPC: 0.637408 cumulative IPC: 0.516623 (Simulation time: 0 hr 12 min 44 sec) 
Heartbeat CPU 0 instructions: 179000002 cycles: 348054523 heartbeat IPC: 0.770865 cumulative IPC: 0.517633 (Simulation time: 0 hr 12 min 48 sec) 
Heartbeat CPU 0 instructions: 180000001 cycles: 349397823 heartbeat IPC: 0.744435 cumulative IPC: 0.518563 (Simulation time: 0 hr 12 min 52 sec) 
Heartbeat CPU 0 instructions: 181000000 cycles: 350689241 heartbeat IPC: 0.774342 cumulative IPC: 0.519566 (Simulation time: 0 hr 12 min 55 sec) 
Heartbeat CPU 0 instructions: 182000000 cycles: 352075017 heartbeat IPC: 0.721617 cumulative IPC: 0.520414 (Simulation time: 0 hr 12 min 59 sec) 
Heartbeat CPU 0 instructions: 183000002 cycles: 354542820 heartbeat IPC: 0.40522 cumulative IPC: 0.51956 (Simulation time: 0 hr 13 min 3 sec) 
Heartbeat CPU 0 instructions: 184000000 cycles: 358328114 heartbeat IPC: 0.26418 cumulative IPC: 0.516689 (Simulation time: 0 hr 13 min 10 sec) 
Heartbeat CPU 0 instructions: 185000000 cycles: 359826599 heartbeat IPC: 0.667341 cumulative IPC: 0.517357 (Simulation time: 0 hr 13 min 13 sec) 
Heartbeat CPU 0 instructions: 186000003 cycles: 361164008 heartbeat IPC: 0.747717 cumulative IPC: 0.518264 (Simulation time: 0 hr 13 min 17 sec) 
Heartbeat CPU 0 instructions: 187000000 cycles: 362672186 heartbeat IPC: 0.66305 cumulative IPC: 0.518904 (Simulation time: 0 hr 13 min 21 sec) 
Heartbeat CPU 0 instructions: 188000001 cycles: 364418009 heartbeat IPC: 0.572796 cumulative IPC: 0.519179 (Simulation time: 0 hr 13 min 25 sec) 
Heartbeat CPU 0 instructions: 189000000 cycles: 366072066 heartbeat IPC: 0.604573 cumulative IPC: 0.519589 (Simulation time: 0 hr 13 min 28 sec) 
Heartbeat CPU 0 instructions: 190000001 cycles: 367455056 heartbeat IPC: 0.723072 cumulative IPC: 0.520402 (Simulation time: 0 hr 13 min 32 sec) 
Heartbeat CPU 0 instructions: 191000000 cycles: 370683172 heartbeat IPC: 0.309778 cumulative IPC: 0.518455 (Simulation time: 0 hr 13 min 37 sec) 
Heartbeat CPU 0 instructions: 192000001 cycles: 374319324 heartbeat IPC: 0.275016 cumulative IPC: 0.515945 (Simulation time: 0 hr 13 min 44 sec) 
Heartbeat CPU 0 instructions: 193000001 cycles: 378229338 heartbeat IPC: 0.255754 cumulative IPC: 0.513093 (Simulation time: 0 hr 13 min 50 sec) 
Heartbeat CPU 0 instructions: 194000000 cycles: 380198958 heartbeat IPC: 0.507712 cumulative IPC: 0.513063 (Simulation time: 0 hr 13 min 54 sec) 
Heartbeat CPU 0 instructions: 195000003 cycles: 381342409 heartbeat IPC: 0.874548 cumulative IPC: 0.514212 (Simulation time: 0 hr 13 min 58 sec) 
Heartbeat CPU 0 instructions: 196000001 cycles: 382478594 heartbeat IPC: 0.880137 cumulative IPC: 0.515364 (Simulation time: 0 hr 14 min 1 sec) 
Heartbeat CPU 0 instructions: 197000002 cycles: 383629111 heartbeat IPC: 0.869175 cumulative IPC: 0.516488 (Simulation time: 0 hr 14 min 5 sec) 
Heartbeat CPU 0 instructions: 198000000 cycles: 384803867 heartbeat IPC: 0.851239 cumulative IPC: 0.517571 (Simulation time: 0 hr 14 min 8 sec) 
Heartbeat CPU 0 instructions: 199000000 cycles: 386052251 heartbeat IPC: 0.801036 cumulative IPC: 0.518542 (Simulation time: 0 hr 14 min 12 sec) 
Heartbeat CPU 0 instructions: 200000001 cycles: 389371988 heartbeat IPC: 0.301229 cumulative IPC: 0.51658 (Simulation time: 0 hr 14 min 18 sec) 
Heartbeat CPU 0 instructions: 201000000 cycles: 392120022 heartbeat IPC: 0.363896 cumulative IPC: 0.515448 (Simulation time: 0 hr 14 min 23 sec) 
Heartbeat CPU 0 instructions: 202000000 cycles: 394241103 heartbeat IPC: 0.471458 cumulative IPC: 0.515198 (Simulation time: 0 hr 14 min 27 sec) 
Heartbeat CPU 0 instructions: 203000000 cycles: 395637031 heartbeat IPC: 0.716369 cumulative IPC: 0.515949 (Simulation time: 0 hr 14 min 31 sec) 
Heartbeat CPU 0 instructions: 204000000 cycles: 397531000 heartbeat IPC: 0.527992 cumulative IPC: 0.516009 (Simulation time: 0 hr 14 min 35 sec) 
Heartbeat CPU 0 instructions: 205000000 cycles: 399740141 heartbeat IPC: 0.452665 cumulative IPC: 0.515639 (Simulation time: 0 hr 14 min 39 sec) 
Heartbeat CPU 0 instructions: 206000002 cycles: 402127196 heartbeat IPC: 0.418927 cumulative IPC: 0.515033 (Simulation time: 0 hr 14 min 44 sec) 
Heartbeat CPU 0 instructions: 207000001 cycles: 404523506 heartbeat IPC: 0.417308 cumulative IPC: 0.514421 (Simulation time: 0 hr 14 min 48 sec) 
Heartbeat CPU 0 instructions: 208000001 cycles: 407964953 heartbeat IPC: 0.290575 cumulative IPC: 0.512427 (Simulation time: 0 hr 14 min 54 sec) 
Heartbeat CPU 0 instructions: 209000000 cycles: 411950269 heartbeat IPC: 0.250921 cumulative IPC: 0.509758 (Simulation time: 0 hr 15 min 1 sec) 
Heartbeat CPU 0 instructions: 210000000 cycles: 414390275 heartbeat IPC: 0.409835 cumulative IPC: 0.509137 (Simulation time: 0 hr 15 min 5 sec) 
Heartbeat CPU 0 instructions: 211000003 cycles: 415994840 heartbeat IPC: 0.623224 cumulative IPC: 0.509601 (Simulation time: 0 hr 15 min 9 sec) 
Heartbeat CPU 0 instructions: 212000002 cycles: 417338813 heartbeat IPC: 0.744062 cumulative IPC: 0.510397 (Simulation time: 0 hr 15 min 13 sec) 
Heartbeat CPU 0 instructions: 213000000 cycles: 418638846 heartbeat IPC: 0.76921 cumulative IPC: 0.511245 (Simulation time: 0 hr 15 min 16 sec) 
Heartbeat CPU 0 instructions: 214000000 cycles: 419887065 heartbeat IPC: 0.801141 cumulative IPC: 0.512153 (Simulation time: 0 hr 15 min 20 sec) 
Heartbeat CPU 0 instructions: 215000000 cycles: 421277007 heartbeat IPC: 0.719454 cumulative IPC: 0.512874 (Simulation time: 0 hr 15 min 24 sec) 
Heartbeat CPU 0 instructions: 216000001 cycles: 422844784 heartbeat IPC: 0.637846 cumulative IPC: 0.513362 (Simulation time: 0 hr 15 min 28 sec) 
Heartbeat CPU 0 instructions: 217000003 cycles: 426165733 heartbeat IPC: 0.301119 cumulative IPC: 0.51162 (Simulation time: 0 hr 15 min 34 sec) 
Heartbeat CPU 0 instructions: 218000001 cycles: 428511333 heartbeat IPC: 0.426329 cumulative IPC: 0.511129 (Simulation time: 0 hr 15 min 39 sec) 
Heartbeat CPU 0 instructions: 219000000 cycles: 429687851 heartbeat IPC: 0.849965 cumulative IPC: 0.512105 (Simulation time: 0 hr 15 min 42 sec) 
Heartbeat CPU 0 instructions: 220000000 cycles: 431125836 heartbeat IPC: 0.695418 cumulative IPC: 0.512749 (Simulation time: 0 hr 15 min 46 sec) 
Heartbeat CPU 0 instructions: 221000000 cycles: 433206665 heartbeat IPC: 0.480578 cumulative IPC: 0.512586 (Simulation time: 0 hr 15 min 51 sec) 
Heartbeat CPU 0 instructions: 222000001 cycles: 434591360 heartbeat IPC: 0.722181 cumulative IPC: 0.513289 (Simulation time: 0 hr 15 min 54 sec) 
Heartbeat CPU 0 instructions: 223000000 cycles: 436180899 heartbeat IPC: 0.629113 cumulative IPC: 0.513733 (Simulation time: 0 hr 15 min 58 sec) 
Heartbeat CPU 0 instructions: 224000000 cycles: 437600852 heartbeat IPC: 0.704249 cumulative IPC: 0.514383 (Simulation time: 0 hr 16 min 2 sec) 
Heartbeat CPU 0 instructions: 225000001 cycles: 440281366 heartbeat IPC: 0.373063 cumulative IPC: 0.513479 (Simulation time: 0 hr 16 min 7 sec) 
Heartbeat CPU 0 instructions: 226000002 cycles: 442200251 heartbeat IPC: 0.521137 cumulative IPC: 0.513514 (Simulation time: 0 hr 16 min 11 sec) 
Heartbeat CPU 0 instructions: 227000002 cycles: 443776571 heartbeat IPC: 0.634389 cumulative IPC: 0.513965 (Simulation time: 0 hr 16 min 15 sec) 
Heartbeat CPU 0 instructions: 228000000 cycles: 445631417 heartbeat IPC: 0.539127 cumulative IPC: 0.514075 (Simulation time: 0 hr 16 min 19 sec) 
Heartbeat CPU 0 instructions: 229000000 cycles: 447673320 heartbeat IPC: 0.489739 cumulative IPC: 0.513958 (Simulation time: 0 hr 16 min 23 sec) 
Heartbeat CPU 0 instructions: 230000000 cycles: 449553991 heartbeat IPC: 0.531725 cumulative IPC: 0.514036 (Simulation time: 0 hr 16 min 27 sec) 
Heartbeat CPU 0 instructions: 231000000 cycles: 451247677 heartbeat IPC: 0.590428 cumulative IPC: 0.514337 (Simulation time: 0 hr 16 min 31 sec) 
Heartbeat CPU 0 instructions: 232000000 cycles: 453828622 heartbeat IPC: 0.387455 cumulative IPC: 0.51358 (Simulation time: 0 hr 16 min 36 sec) 
Heartbeat CPU 0 instructions: 233000003 cycles: 455382191 heartbeat IPC: 0.643681 cumulative IPC: 0.514046 (Simulation time: 0 hr 16 min 40 sec) 
Heartbeat CPU 0 instructions: 234000001 cycles: 457096777 heartbeat IPC: 0.58323 cumulative IPC: 0.514318 (Simulation time: 0 hr 16 min 44 sec) 
Heartbeat CPU 0 instructions: 235000000 cycles: 459069595 heartbeat IPC: 0.506889 cumulative IPC: 0.514285 (Simulation time: 0 hr 16 min 48 sec) 
Heartbeat CPU 0 instructions: 236000001 cycles: 461462334 heartbeat IPC: 0.417931 cumulative IPC: 0.513761 (Simulation time: 0 hr 16 min 52 sec) 
Heartbeat CPU 0 instructions: 237000001 cycles: 462742183 heartbeat IPC: 0.781342 cumulative IPC: 0.514537 (Simulation time: 0 hr 16 min 56 sec) 
Heartbeat CPU 0 instructions: 238000000 cycles: 464396008 heartbeat IPC: 0.604658 cumulative IPC: 0.514873 (Simulation time: 0 hr 17 min 0 sec) 
Heartbeat CPU 0 instructions: 239000001 cycles: 467470496 heartbeat IPC: 0.325258 cumulative IPC: 0.513566 (Simulation time: 0 hr 17 min 5 sec) 
Heartbeat CPU 0 instructions: 240000000 cycles: 468722254 heartbeat IPC: 0.798876 cumulative IPC: 0.514365 (Simulation time: 0 hr 17 min 9 sec) 
Heartbeat CPU 0 instructions: 241000001 cycles: 469925533 heartbeat IPC: 0.831063 cumulative IPC: 0.515215 (Simulation time: 0 hr 17 min 13 sec) 
Heartbeat CPU 0 instructions: 242000000 cycles: 471249885 heartbeat IPC: 0.755086 cumulative IPC: 0.515921 (Simulation time: 0 hr 17 min 16 sec) 
Heartbeat CPU 0 instructions: 243000000 cycles: 473454058 heartbeat IPC: 0.453685 cumulative IPC: 0.515617 (Simulation time: 0 hr 17 min 21 sec) 
Heartbeat CPU 0 instructions: 244000001 cycles: 475623479 heartbeat IPC: 0.460953 cumulative IPC: 0.515356 (Simulation time: 0 hr 17 min 25 sec) 
Heartbeat CPU 0 instructions: 245000001 cycles: 477311459 heartbeat IPC: 0.592424 cumulative IPC: 0.515642 (Simulation time: 0 hr 17 min 29 sec) 
Heartbeat CPU 0 instructions: 246000002 cycles: 480484117 heartbeat IPC: 0.315193 cumulative IPC: 0.514256 (Simulation time: 0 hr 17 min 35 sec) 
Heartbeat CPU 0 instructions: 247000001 cycles: 484134171 heartbeat IPC: 0.273968 cumulative IPC: 0.51236 (Simulation time: 0 hr 17 min 41 sec) 
Heartbeat CPU 0 instructions: 248000001 cycles: 486755378 heartbeat IPC: 0.381504 cumulative IPC: 0.511623 (Simulation time: 0 hr 17 min 46 sec) 
Heartbeat CPU 0 instructions: 249000000 cycles: 488168210 heartbeat IPC: 0.707798 cumulative IPC: 0.512217 (Simulation time: 0 hr 17 min 50 sec) 
Heartbeat CPU 0 instructions: 250000001 cycles: 490089499 heartbeat IPC: 0.520484 cumulative IPC: 0.51225 (Simulation time: 0 hr 17 min 54 sec) 
Heartbeat CPU 0 instructions: 251000000 cycles: 491685859 heartbeat IPC: 0.626424 cumulative IPC: 0.512638 (Simulation time: 0 hr 17 min 58 sec) 
Heartbeat CPU 0 instructions: 252000002 cycles: 493190789 heartbeat IPC: 0.664484 cumulative IPC: 0.513123 (Simulation time: 0 hr 18 min 1 sec) 
Heartbeat CPU 0 instructions: 253000000 cycles: 494497748 heartbeat IPC: 0.765133 cumulative IPC: 0.513819 (Simulation time: 0 hr 18 min 5 sec) 
Heartbeat CPU 0 instructions: 254000001 cycles: 496149777 heartbeat IPC: 0.605317 cumulative IPC: 0.514138 (Simulation time: 0 hr 18 min 9 sec) 
Heartbeat CPU 0 instructions: 255000001 cycles: 498213162 heartbeat IPC: 0.484641 cumulative IPC: 0.51401 (Simulation time: 0 hr 18 min 14 sec) 
Heartbeat CPU 0 instructions: 256000000 cycles: 499431145 heartbeat IPC: 0.821029 cumulative IPC: 0.514793 (Simulation time: 0 hr 18 min 17 sec) 
Heartbeat CPU 0 instructions: 257000000 cycles: 500759411 heartbeat IPC: 0.752861 cumulative IPC: 0.515452 (Simulation time: 0 hr 18 min 21 sec) 
Heartbeat CPU 0 instructions: 258000001 cycles: 502587691 heartbeat IPC: 0.546963 cumulative IPC: 0.515572 (Simulation time: 0 hr 18 min 25 sec) 
Heartbeat CPU 0 instructions: 259000002 cycles: 503921977 heartbeat IPC: 0.749465 cumulative IPC: 0.516219 (Simulation time: 0 hr 18 min 29 sec) 
Heartbeat CPU 0 instructions: 260000001 cycles: 505645035 heartbeat IPC: 0.580363 cumulative IPC: 0.516447 (Simulation time: 0 hr 18 min 33 sec) 
Finished CPU 0 instructions: 250000003 cycles: 484076335 cumulative IPC: 0.516447 (Simulation time: 0 hr 18 min 33 sec) 

ChampSim completed all CPUs

Region of Interest Statistics

CPU 0 cumulative IPC: 0.516447 instructions: 250000003 cycles: 484076335
L1D TOTAL     ACCESS:  122710019  HIT:  116171708  MISS:    6538311
L1D LOAD      ACCESS:   53187656  HIT:   47247676  MISS:    5939980
L1D RFO       ACCESS:   69522363  HIT:   68924032  MISS:     598331
L1D PREFETCH  ACCESS:          0  HIT:          0  MISS:          0
L1D WRITEBACK ACCESS:          0  HIT:          0  MISS:          0
L1D PREFETCH  REQUESTED:          0  ISSUED:          0  USEFUL:          0  USELESS:          0
L1D AVERAGE MISS LATENCY: 125.025 cycles
L1I TOTAL     ACCESS:   52091703  HIT:   52091703  MISS:          0
L1I LOAD      ACCESS:   52091703  HIT:   52091703  MISS:          0
L1I RFO       ACCESS:          0  HIT:          0  MISS:          0
L1I PREFETCH  ACCESS:          0  HIT:          0  MISS:          0
L1I WRITEBACK ACCESS:          0  HIT:          0  MISS:          0
L1I PREFETCH  REQUESTED:          0  ISSUED:          0  USEFUL:          0  USELESS:          0
L1I AVERAGE MISS LATENCY: -nan cycles
L2C TOTAL     ACCESS:    8062736  HIT:    1616192  MISS:    6446544
L2C LOAD      ACCESS:    5939911  HIT:      93021  MISS:    5846890
L2C RFO       ACCESS:     598321  HIT:       3489  MISS:     594832
L2C PREFETCH  ACCESS:          0  HIT:          0  MISS:          0
L2C WRITEBACK ACCESS:    1524504  HIT:    1519682  MISS:       4822
L2C PREFETCH  REQUESTED:          0  ISSUED:          0  USEFUL:          0  USELESS:          0
L2C AVERAGE MISS LATENCY: 110.816 cycles
LLC TOTAL     ACCESS:   10308416  HIT:    3870434  MISS:    6437982
LLC LOAD      ACCESS:    5846890  HIT:    2348007  MISS:    3498883
LLC RFO       ACCESS:     594832  HIT:        113  MISS:     594719
LLC PREFETCH  ACCESS:    2412264  HIT:      70440  MISS:    2341824
LLC WRITEBACK ACCESS:    1454430  HIT:    1451874  MISS:       2556
LLC PREFETCH  REQUESTED:    4721733  ISSUED:    4721733  USEFUL:    2338686  USELESS:       3130
LLC AVERAGE MISS LATENCY: 134.65 cycles
Major fault: 0 Minor fault: 61727
performance stats:
mapping cache size: 1270815
divergence: 875016

DRAM Statistics
 CHANNEL 0
 RQ ROW_BUFFER_HIT:    2554587  ROW_BUFFER_MISS:     665878
 DBUS_CONGESTED:    2738112
 WQ ROW_BUFFER_HIT:     511936  ROW_BUFFER_MISS:     211891  FULL:          0

 CHANNEL 1
 RQ ROW_BUFFER_HIT:    2544498  ROW_BUFFER_MISS:     670459
 DBUS_CONGESTED:    2738112
 WQ ROW_BUFFER_HIT:     514320  ROW_BUFFER_MISS:     206946  FULL:          0

 AVG_CONGESTED_CYCLE: 17

CPU 0 Branch Prediction Accuracy: 99.1314% MPKI: 0.85698 Average ROB Occupancy at Mispredict: 272.409

Branch types
NOT_BRANCH: 225335805 90.1343%
BRANCH_DIRECT_JUMP: 1177720 0.471088%
BRANCH_INDIRECT: 0 0%
BRANCH_CONDITIONAL: 23486250 9.3945%
BRANCH_DIRECT_CALL: 112 4.48e-05%
BRANCH_INDIRECT_CALL: 0 0%
BRANCH_RETURN: 112 4.48e-05%
BRANCH_OTHER: 0 0%

