
*** ChampSim Multicore Out-of-Order Simulator ***

Warmup Instructions: 1000000
Prefetch Warmup Instructions: 10000000
Simulation Instructions: 250000000
Stat Printing Period: 1000000
Number of CPUs: 1
LLC sets: 2048
LLC ways: 16
Off-chip DRAM Size: 32768 MB Channels: 2 Width: 64-bit Data Rate: 1024 MT/s

CPU 0 runs /scratch/cluster/cmolder/ML-DPC/ChampSimTraces/spec17/605.mcf-s1.trace.xz
Read seed: 273
Heartbeat CPU 0 instructions: 1000001 cycles: 328000 heartbeat IPC: 3.04878 cumulative IPC: 3.04878 (Simulation time: 0 hr 0 min 3 sec) 

Warmup complete CPU 0 instructions: 1000001 cycles: 328000 (Simulation time: 0 hr 0 min 3 sec) 

Heartbeat CPU 0 instructions: 2000000 cycles: 7178957 heartbeat IPC: 0.145965 cumulative IPC: 0.145965 (Simulation time: 0 hr 0 min 10 sec) 
Heartbeat CPU 0 instructions: 3000001 cycles: 14219197 heartbeat IPC: 0.142041 cumulative IPC: 0.143976 (Simulation time: 0 hr 0 min 20 sec) 
Heartbeat CPU 0 instructions: 4000001 cycles: 21352643 heartbeat IPC: 0.140185 cumulative IPC: 0.14269 (Simulation time: 0 hr 0 min 31 sec) 
Heartbeat CPU 0 instructions: 5000000 cycles: 28499451 heartbeat IPC: 0.139922 cumulative IPC: 0.141988 (Simulation time: 0 hr 0 min 41 sec) 
Heartbeat CPU 0 instructions: 6000000 cycles: 35794735 heartbeat IPC: 0.137075 cumulative IPC: 0.140977 (Simulation time: 0 hr 0 min 51 sec) 
Heartbeat CPU 0 instructions: 7000003 cycles: 42965272 heartbeat IPC: 0.13946 cumulative IPC: 0.140722 (Simulation time: 0 hr 1 min 2 sec) 
Heartbeat CPU 0 instructions: 8000003 cycles: 49961685 heartbeat IPC: 0.14293 cumulative IPC: 0.141033 (Simulation time: 0 hr 1 min 12 sec) 
Heartbeat CPU 0 instructions: 9000000 cycles: 57327261 heartbeat IPC: 0.135766 cumulative IPC: 0.140353 (Simulation time: 0 hr 1 min 23 sec) 
Heartbeat CPU 0 instructions: 10000003 cycles: 64543733 heartbeat IPC: 0.138572 cumulative IPC: 0.140153 (Simulation time: 0 hr 1 min 33 sec) 

Warmup complete CPU 0 instructions: 10000003 cycles: 64543733 (Simulation time: 0 hr 1 min 33 sec) 

Heartbeat CPU 0 instructions: 11000000 cycles: 71845560 heartbeat IPC: 0.136952 cumulative IPC: 0.136952 (Simulation time: 0 hr 1 min 44 sec) 
Heartbeat CPU 0 instructions: 12000000 cycles: 79021802 heartbeat IPC: 0.139349 cumulative IPC: 0.13814 (Simulation time: 0 hr 1 min 54 sec) 
Heartbeat CPU 0 instructions: 13000000 cycles: 86005316 heartbeat IPC: 0.143194 cumulative IPC: 0.139785 (Simulation time: 0 hr 2 min 4 sec) 
Heartbeat CPU 0 instructions: 14000001 cycles: 92975772 heartbeat IPC: 0.143463 cumulative IPC: 0.140686 (Simulation time: 0 hr 2 min 14 sec) 
Heartbeat CPU 0 instructions: 15000002 cycles: 99956681 heartbeat IPC: 0.143248 cumulative IPC: 0.141191 (Simulation time: 0 hr 2 min 25 sec) 
Heartbeat CPU 0 instructions: 16000000 cycles: 106952177 heartbeat IPC: 0.142949 cumulative IPC: 0.141481 (Simulation time: 0 hr 2 min 35 sec) 
Heartbeat CPU 0 instructions: 17000000 cycles: 113966085 heartbeat IPC: 0.142574 cumulative IPC: 0.141636 (Simulation time: 0 hr 2 min 45 sec) 
Heartbeat CPU 0 instructions: 18000000 cycles: 121029470 heartbeat IPC: 0.141575 cumulative IPC: 0.141629 (Simulation time: 0 hr 2 min 56 sec) 
Heartbeat CPU 0 instructions: 19000002 cycles: 128052789 heartbeat IPC: 0.142383 cumulative IPC: 0.141712 (Simulation time: 0 hr 3 min 6 sec) 
Heartbeat CPU 0 instructions: 20000001 cycles: 135025769 heartbeat IPC: 0.143411 cumulative IPC: 0.14188 (Simulation time: 0 hr 3 min 16 sec) 
Heartbeat CPU 0 instructions: 21000000 cycles: 142025558 heartbeat IPC: 0.142861 cumulative IPC: 0.141969 (Simulation time: 0 hr 3 min 26 sec) 
Heartbeat CPU 0 instructions: 22000000 cycles: 149114773 heartbeat IPC: 0.141059 cumulative IPC: 0.141893 (Simulation time: 0 hr 3 min 32 sec) 
Heartbeat CPU 0 instructions: 23000001 cycles: 156162939 heartbeat IPC: 0.141881 cumulative IPC: 0.141892 (Simulation time: 0 hr 3 min 38 sec) 
Heartbeat CPU 0 instructions: 24000000 cycles: 163214618 heartbeat IPC: 0.14181 cumulative IPC: 0.141886 (Simulation time: 0 hr 3 min 44 sec) 
Heartbeat CPU 0 instructions: 25000003 cycles: 170276611 heartbeat IPC: 0.141604 cumulative IPC: 0.141867 (Simulation time: 0 hr 3 min 50 sec) 
Heartbeat CPU 0 instructions: 26000002 cycles: 177291246 heartbeat IPC: 0.142559 cumulative IPC: 0.14191 (Simulation time: 0 hr 3 min 56 sec) 
Heartbeat CPU 0 instructions: 27000001 cycles: 184259861 heartbeat IPC: 0.1435 cumulative IPC: 0.142003 (Simulation time: 0 hr 4 min 2 sec) 
Heartbeat CPU 0 instructions: 28000000 cycles: 191213240 heartbeat IPC: 0.143815 cumulative IPC: 0.142102 (Simulation time: 0 hr 4 min 8 sec) 
Heartbeat CPU 0 instructions: 29000000 cycles: 198174902 heartbeat IPC: 0.143644 cumulative IPC: 0.142182 (Simulation time: 0 hr 4 min 16 sec) 
Heartbeat CPU 0 instructions: 30000002 cycles: 205193004 heartbeat IPC: 0.142489 cumulative IPC: 0.142198 (Simulation time: 0 hr 4 min 24 sec) 
Heartbeat CPU 0 instructions: 31000002 cycles: 212275551 heartbeat IPC: 0.141192 cumulative IPC: 0.142149 (Simulation time: 0 hr 4 min 30 sec) 
Heartbeat CPU 0 instructions: 32000001 cycles: 219462212 heartbeat IPC: 0.139147 cumulative IPC: 0.14201 (Simulation time: 0 hr 4 min 36 sec) 
Heartbeat CPU 0 instructions: 33000000 cycles: 226898111 heartbeat IPC: 0.134483 cumulative IPC: 0.141665 (Simulation time: 0 hr 4 min 42 sec) 
Heartbeat CPU 0 instructions: 34000002 cycles: 234144711 heartbeat IPC: 0.137996 cumulative IPC: 0.141509 (Simulation time: 0 hr 4 min 48 sec) 
Heartbeat CPU 0 instructions: 35000000 cycles: 241443793 heartbeat IPC: 0.137003 cumulative IPC: 0.141323 (Simulation time: 0 hr 4 min 54 sec) 
Heartbeat CPU 0 instructions: 36000003 cycles: 248896969 heartbeat IPC: 0.134171 cumulative IPC: 0.141034 (Simulation time: 0 hr 5 min 1 sec) 
Heartbeat CPU 0 instructions: 37000000 cycles: 256721300 heartbeat IPC: 0.127806 cumulative IPC: 0.140495 (Simulation time: 0 hr 5 min 7 sec) 
Heartbeat CPU 0 instructions: 38000002 cycles: 263931893 heartbeat IPC: 0.138685 cumulative IPC: 0.14043 (Simulation time: 0 hr 5 min 15 sec) 
Heartbeat CPU 0 instructions: 39000001 cycles: 271202152 heartbeat IPC: 0.137547 cumulative IPC: 0.140328 (Simulation time: 0 hr 5 min 23 sec) 
Heartbeat CPU 0 instructions: 40000000 cycles: 278549121 heartbeat IPC: 0.13611 cumulative IPC: 0.140183 (Simulation time: 0 hr 5 min 29 sec) 
Heartbeat CPU 0 instructions: 41000002 cycles: 285882907 heartbeat IPC: 0.136355 cumulative IPC: 0.140057 (Simulation time: 0 hr 5 min 35 sec) 
Heartbeat CPU 0 instructions: 42000003 cycles: 293213978 heartbeat IPC: 0.136406 cumulative IPC: 0.13994 (Simulation time: 0 hr 5 min 41 sec) 
Heartbeat CPU 0 instructions: 43000002 cycles: 300325393 heartbeat IPC: 0.140619 cumulative IPC: 0.13996 (Simulation time: 0 hr 5 min 47 sec) 
Heartbeat CPU 0 instructions: 44000000 cycles: 307467780 heartbeat IPC: 0.140009 cumulative IPC: 0.139961 (Simulation time: 0 hr 5 min 56 sec) 
Heartbeat CPU 0 instructions: 45000000 cycles: 314618845 heartbeat IPC: 0.139839 cumulative IPC: 0.139958 (Simulation time: 0 hr 6 min 2 sec) 
Heartbeat CPU 0 instructions: 46000000 cycles: 321754186 heartbeat IPC: 0.140147 cumulative IPC: 0.139963 (Simulation time: 0 hr 6 min 8 sec) 
Heartbeat CPU 0 instructions: 47000003 cycles: 328937922 heartbeat IPC: 0.139204 cumulative IPC: 0.139943 (Simulation time: 0 hr 6 min 13 sec) 
Heartbeat CPU 0 instructions: 48000002 cycles: 336025418 heartbeat IPC: 0.141093 cumulative IPC: 0.139973 (Simulation time: 0 hr 6 min 19 sec) 
Heartbeat CPU 0 instructions: 49000001 cycles: 343079100 heartbeat IPC: 0.14177 cumulative IPC: 0.140018 (Simulation time: 0 hr 6 min 25 sec) 
Heartbeat CPU 0 instructions: 50000002 cycles: 350128648 heartbeat IPC: 0.141853 cumulative IPC: 0.140063 (Simulation time: 0 hr 6 min 31 sec) 
Heartbeat CPU 0 instructions: 51000002 cycles: 357169693 heartbeat IPC: 0.142024 cumulative IPC: 0.140111 (Simulation time: 0 hr 6 min 37 sec) 
Heartbeat CPU 0 instructions: 52000001 cycles: 364232557 heartbeat IPC: 0.141585 cumulative IPC: 0.140145 (Simulation time: 0 hr 6 min 43 sec) 
Heartbeat CPU 0 instructions: 53000001 cycles: 371268364 heartbeat IPC: 0.14213 cumulative IPC: 0.140191 (Simulation time: 0 hr 6 min 48 sec) 
Heartbeat CPU 0 instructions: 54000003 cycles: 378413002 heartbeat IPC: 0.139965 cumulative IPC: 0.140186 (Simulation time: 0 hr 6 min 55 sec) 
Heartbeat CPU 0 instructions: 55000000 cycles: 385565345 heartbeat IPC: 0.139814 cumulative IPC: 0.140177 (Simulation time: 0 hr 7 min 2 sec) 
Heartbeat CPU 0 instructions: 56000000 cycles: 392839940 heartbeat IPC: 0.137465 cumulative IPC: 0.140117 (Simulation time: 0 hr 7 min 8 sec) 
Heartbeat CPU 0 instructions: 57000000 cycles: 400073234 heartbeat IPC: 0.13825 cumulative IPC: 0.140077 (Simulation time: 0 hr 7 min 14 sec) 
Heartbeat CPU 0 instructions: 58000001 cycles: 407377371 heartbeat IPC: 0.136909 cumulative IPC: 0.14001 (Simulation time: 0 hr 7 min 24 sec) 
Heartbeat CPU 0 instructions: 59000002 cycles: 414746253 heartbeat IPC: 0.135706 cumulative IPC: 0.139919 (Simulation time: 0 hr 7 min 33 sec) 
Heartbeat CPU 0 instructions: 60000002 cycles: 422067280 heartbeat IPC: 0.136593 cumulative IPC: 0.139851 (Simulation time: 0 hr 7 min 40 sec) 
Heartbeat CPU 0 instructions: 61000001 cycles: 429378157 heartbeat IPC: 0.136782 cumulative IPC: 0.139789 (Simulation time: 0 hr 7 min 46 sec) 
Heartbeat CPU 0 instructions: 62000000 cycles: 436621741 heartbeat IPC: 0.138053 cumulative IPC: 0.139756 (Simulation time: 0 hr 7 min 52 sec) 
Heartbeat CPU 0 instructions: 63000000 cycles: 443810684 heartbeat IPC: 0.139103 cumulative IPC: 0.139743 (Simulation time: 0 hr 7 min 58 sec) 
Heartbeat CPU 0 instructions: 64000001 cycles: 451017623 heartbeat IPC: 0.138755 cumulative IPC: 0.139725 (Simulation time: 0 hr 8 min 5 sec) 
Heartbeat CPU 0 instructions: 65000002 cycles: 458204232 heartbeat IPC: 0.139148 cumulative IPC: 0.139714 (Simulation time: 0 hr 8 min 11 sec) 
Heartbeat CPU 0 instructions: 66000000 cycles: 465330110 heartbeat IPC: 0.140333 cumulative IPC: 0.139725 (Simulation time: 0 hr 8 min 16 sec) 
Heartbeat CPU 0 instructions: 67000000 cycles: 472448885 heartbeat IPC: 0.140474 cumulative IPC: 0.139738 (Simulation time: 0 hr 8 min 22 sec) 
Heartbeat CPU 0 instructions: 68000003 cycles: 479702125 heartbeat IPC: 0.13787 cumulative IPC: 0.139706 (Simulation time: 0 hr 8 min 28 sec) 
Heartbeat CPU 0 instructions: 69000000 cycles: 486924722 heartbeat IPC: 0.138454 cumulative IPC: 0.139684 (Simulation time: 0 hr 8 min 35 sec) 
Heartbeat CPU 0 instructions: 70000003 cycles: 494127490 heartbeat IPC: 0.138836 cumulative IPC: 0.13967 (Simulation time: 0 hr 8 min 41 sec) 
Heartbeat CPU 0 instructions: 71000002 cycles: 501280546 heartbeat IPC: 0.1398 cumulative IPC: 0.139672 (Simulation time: 0 hr 8 min 47 sec) 
Heartbeat CPU 0 instructions: 72000000 cycles: 508477244 heartbeat IPC: 0.138952 cumulative IPC: 0.139661 (Simulation time: 0 hr 8 min 54 sec) 
Heartbeat CPU 0 instructions: 73000003 cycles: 515793920 heartbeat IPC: 0.136674 cumulative IPC: 0.139612 (Simulation time: 0 hr 9 min 0 sec) 
Heartbeat CPU 0 instructions: 74000002 cycles: 522999467 heartbeat IPC: 0.138782 cumulative IPC: 0.139599 (Simulation time: 0 hr 9 min 7 sec) 
Heartbeat CPU 0 instructions: 75000002 cycles: 530222176 heartbeat IPC: 0.138452 cumulative IPC: 0.139581 (Simulation time: 0 hr 9 min 15 sec) 
Heartbeat CPU 0 instructions: 76000003 cycles: 537379151 heartbeat IPC: 0.139724 cumulative IPC: 0.139583 (Simulation time: 0 hr 9 min 22 sec) 
Heartbeat CPU 0 instructions: 77000000 cycles: 544568526 heartbeat IPC: 0.139094 cumulative IPC: 0.139576 (Simulation time: 0 hr 9 min 28 sec) 
Heartbeat CPU 0 instructions: 78000000 cycles: 551632918 heartbeat IPC: 0.141555 cumulative IPC: 0.139605 (Simulation time: 0 hr 9 min 33 sec) 
Heartbeat CPU 0 instructions: 79000000 cycles: 558586681 heartbeat IPC: 0.143807 cumulative IPC: 0.139664 (Simulation time: 0 hr 9 min 40 sec) 
Heartbeat CPU 0 instructions: 80000001 cycles: 565625184 heartbeat IPC: 0.142076 cumulative IPC: 0.139698 (Simulation time: 0 hr 9 min 46 sec) 
Heartbeat CPU 0 instructions: 81000002 cycles: 572660854 heartbeat IPC: 0.142133 cumulative IPC: 0.139732 (Simulation time: 0 hr 9 min 53 sec) 
Heartbeat CPU 0 instructions: 82000002 cycles: 579946253 heartbeat IPC: 0.137261 cumulative IPC: 0.139697 (Simulation time: 0 hr 9 min 59 sec) 
Heartbeat CPU 0 instructions: 83000001 cycles: 587041676 heartbeat IPC: 0.140936 cumulative IPC: 0.139713 (Simulation time: 0 hr 10 min 6 sec) 
Heartbeat CPU 0 instructions: 84000003 cycles: 594141385 heartbeat IPC: 0.140851 cumulative IPC: 0.139729 (Simulation time: 0 hr 10 min 12 sec) 
Heartbeat CPU 0 instructions: 85000003 cycles: 601280058 heartbeat IPC: 0.140082 cumulative IPC: 0.139733 (Simulation time: 0 hr 10 min 20 sec) 
Heartbeat CPU 0 instructions: 86000002 cycles: 608363955 heartbeat IPC: 0.141165 cumulative IPC: 0.139752 (Simulation time: 0 hr 10 min 27 sec) 
Heartbeat CPU 0 instructions: 87000001 cycles: 615447908 heartbeat IPC: 0.141164 cumulative IPC: 0.13977 (Simulation time: 0 hr 10 min 33 sec) 
Heartbeat CPU 0 instructions: 88000000 cycles: 622470132 heartbeat IPC: 0.142405 cumulative IPC: 0.139803 (Simulation time: 0 hr 10 min 40 sec) 
Heartbeat CPU 0 instructions: 89000002 cycles: 629756880 heartbeat IPC: 0.137236 cumulative IPC: 0.13977 (Simulation time: 0 hr 10 min 47 sec) 
Heartbeat CPU 0 instructions: 90000000 cycles: 636837749 heartbeat IPC: 0.141225 cumulative IPC: 0.139788 (Simulation time: 0 hr 10 min 53 sec) 
Heartbeat CPU 0 instructions: 91000003 cycles: 643879476 heartbeat IPC: 0.142011 cumulative IPC: 0.139815 (Simulation time: 0 hr 11 min 1 sec) 
Heartbeat CPU 0 instructions: 92000002 cycles: 650912345 heartbeat IPC: 0.142189 cumulative IPC: 0.139844 (Simulation time: 0 hr 11 min 9 sec) 
Heartbeat CPU 0 instructions: 93000001 cycles: 657965596 heartbeat IPC: 0.141778 cumulative IPC: 0.139867 (Simulation time: 0 hr 11 min 15 sec) 
Heartbeat CPU 0 instructions: 94000002 cycles: 665012381 heartbeat IPC: 0.141909 cumulative IPC: 0.139891 (Simulation time: 0 hr 11 min 21 sec) 
Heartbeat CPU 0 instructions: 95000001 cycles: 672290574 heartbeat IPC: 0.137397 cumulative IPC: 0.139861 (Simulation time: 0 hr 11 min 28 sec) 
Heartbeat CPU 0 instructions: 96000001 cycles: 679309076 heartbeat IPC: 0.142481 cumulative IPC: 0.139891 (Simulation time: 0 hr 11 min 36 sec) 
Heartbeat CPU 0 instructions: 97000001 cycles: 686373871 heartbeat IPC: 0.141547 cumulative IPC: 0.13991 (Simulation time: 0 hr 11 min 42 sec) 
Heartbeat CPU 0 instructions: 98000000 cycles: 693492009 heartbeat IPC: 0.140486 cumulative IPC: 0.139916 (Simulation time: 0 hr 11 min 48 sec) 
Heartbeat CPU 0 instructions: 99000000 cycles: 700667803 heartbeat IPC: 0.139357 cumulative IPC: 0.13991 (Simulation time: 0 hr 11 min 54 sec) 
Heartbeat CPU 0 instructions: 100000002 cycles: 708121728 heartbeat IPC: 0.134158 cumulative IPC: 0.139843 (Simulation time: 0 hr 12 min 2 sec) 
Heartbeat CPU 0 instructions: 101000001 cycles: 715421229 heartbeat IPC: 0.136996 cumulative IPC: 0.139811 (Simulation time: 0 hr 12 min 9 sec) 
Heartbeat CPU 0 instructions: 102000000 cycles: 722703639 heartbeat IPC: 0.137317 cumulative IPC: 0.139784 (Simulation time: 0 hr 12 min 15 sec) 
Heartbeat CPU 0 instructions: 103000000 cycles: 729959369 heartbeat IPC: 0.137822 cumulative IPC: 0.139762 (Simulation time: 0 hr 12 min 21 sec) 
Heartbeat CPU 0 instructions: 104000003 cycles: 737170044 heartbeat IPC: 0.138684 cumulative IPC: 0.139751 (Simulation time: 0 hr 12 min 28 sec) 
Heartbeat CPU 0 instructions: 105000002 cycles: 744444590 heartbeat IPC: 0.137465 cumulative IPC: 0.139726 (Simulation time: 0 hr 12 min 34 sec) 
Heartbeat CPU 0 instructions: 106000003 cycles: 751677408 heartbeat IPC: 0.138259 cumulative IPC: 0.139711 (Simulation time: 0 hr 12 min 43 sec) 
Heartbeat CPU 0 instructions: 107000001 cycles: 758879986 heartbeat IPC: 0.138839 cumulative IPC: 0.139702 (Simulation time: 0 hr 12 min 54 sec) 
Heartbeat CPU 0 instructions: 108000001 cycles: 766062216 heartbeat IPC: 0.139233 cumulative IPC: 0.139697 (Simulation time: 0 hr 13 min 2 sec) 
Heartbeat CPU 0 instructions: 109000000 cycles: 773274025 heartbeat IPC: 0.138661 cumulative IPC: 0.139686 (Simulation time: 0 hr 13 min 9 sec) 
Heartbeat CPU 0 instructions: 110000000 cycles: 780461869 heartbeat IPC: 0.139124 cumulative IPC: 0.139681 (Simulation time: 0 hr 13 min 16 sec) 
Heartbeat CPU 0 instructions: 111000001 cycles: 787560369 heartbeat IPC: 0.140875 cumulative IPC: 0.139693 (Simulation time: 0 hr 13 min 23 sec) 
Heartbeat CPU 0 instructions: 112000000 cycles: 794651484 heartbeat IPC: 0.141021 cumulative IPC: 0.139705 (Simulation time: 0 hr 13 min 29 sec) 
Heartbeat CPU 0 instructions: 113000003 cycles: 801970241 heartbeat IPC: 0.136636 cumulative IPC: 0.139675 (Simulation time: 0 hr 13 min 35 sec) 
Heartbeat CPU 0 instructions: 114000002 cycles: 808982116 heartbeat IPC: 0.142615 cumulative IPC: 0.139703 (Simulation time: 0 hr 13 min 42 sec) 
Heartbeat CPU 0 instructions: 115000001 cycles: 816343887 heartbeat IPC: 0.135837 cumulative IPC: 0.139665 (Simulation time: 0 hr 13 min 48 sec) 
Heartbeat CPU 0 instructions: 116000000 cycles: 823395840 heartbeat IPC: 0.141805 cumulative IPC: 0.139685 (Simulation time: 0 hr 13 min 54 sec) 
Heartbeat CPU 0 instructions: 117000002 cycles: 830433095 heartbeat IPC: 0.142101 cumulative IPC: 0.139707 (Simulation time: 0 hr 13 min 59 sec) 
Heartbeat CPU 0 instructions: 118000003 cycles: 837817382 heartbeat IPC: 0.135423 cumulative IPC: 0.139666 (Simulation time: 0 hr 14 min 6 sec) 
Heartbeat CPU 0 instructions: 119000002 cycles: 845014239 heartbeat IPC: 0.138949 cumulative IPC: 0.139659 (Simulation time: 0 hr 14 min 13 sec) 
Heartbeat CPU 0 instructions: 120000000 cycles: 852272812 heartbeat IPC: 0.137768 cumulative IPC: 0.139642 (Simulation time: 0 hr 14 min 18 sec) 
Heartbeat CPU 0 instructions: 121000000 cycles: 859441191 heartbeat IPC: 0.139502 cumulative IPC: 0.139641 (Simulation time: 0 hr 14 min 24 sec) 
Heartbeat CPU 0 instructions: 122000002 cycles: 866648413 heartbeat IPC: 0.13875 cumulative IPC: 0.139633 (Simulation time: 0 hr 14 min 30 sec) 
Heartbeat CPU 0 instructions: 123000000 cycles: 873841935 heartbeat IPC: 0.139014 cumulative IPC: 0.139627 (Simulation time: 0 hr 14 min 36 sec) 
Heartbeat CPU 0 instructions: 124000001 cycles: 880913265 heartbeat IPC: 0.141416 cumulative IPC: 0.139643 (Simulation time: 0 hr 14 min 42 sec) 
Heartbeat CPU 0 instructions: 125000002 cycles: 888029745 heartbeat IPC: 0.140519 cumulative IPC: 0.13965 (Simulation time: 0 hr 14 min 48 sec) 
Heartbeat CPU 0 instructions: 126000001 cycles: 895205787 heartbeat IPC: 0.139352 cumulative IPC: 0.139648 (Simulation time: 0 hr 14 min 54 sec) 
Heartbeat CPU 0 instructions: 127000003 cycles: 902401263 heartbeat IPC: 0.138976 cumulative IPC: 0.139642 (Simulation time: 0 hr 15 min 1 sec) 
Heartbeat CPU 0 instructions: 128000002 cycles: 909574575 heartbeat IPC: 0.139405 cumulative IPC: 0.13964 (Simulation time: 0 hr 15 min 7 sec) 
Heartbeat CPU 0 instructions: 129000001 cycles: 916792299 heartbeat IPC: 0.138548 cumulative IPC: 0.139631 (Simulation time: 0 hr 15 min 13 sec) 
Heartbeat CPU 0 instructions: 130000003 cycles: 924301952 heartbeat IPC: 0.133162 cumulative IPC: 0.139574 (Simulation time: 0 hr 15 min 19 sec) 
Heartbeat CPU 0 instructions: 131000002 cycles: 931382409 heartbeat IPC: 0.141234 cumulative IPC: 0.139588 (Simulation time: 0 hr 15 min 24 sec) 
Heartbeat CPU 0 instructions: 132000000 cycles: 938460160 heartbeat IPC: 0.141288 cumulative IPC: 0.139601 (Simulation time: 0 hr 15 min 31 sec) 
Heartbeat CPU 0 instructions: 133000000 cycles: 945598574 heartbeat IPC: 0.140087 cumulative IPC: 0.139605 (Simulation time: 0 hr 15 min 36 sec) 
Heartbeat CPU 0 instructions: 134000003 cycles: 952806856 heartbeat IPC: 0.13873 cumulative IPC: 0.139598 (Simulation time: 0 hr 15 min 42 sec) 
Heartbeat CPU 0 instructions: 135000002 cycles: 959935716 heartbeat IPC: 0.140275 cumulative IPC: 0.139604 (Simulation time: 0 hr 15 min 48 sec) 
Heartbeat CPU 0 instructions: 136000001 cycles: 967421607 heartbeat IPC: 0.133584 cumulative IPC: 0.139554 (Simulation time: 0 hr 15 min 55 sec) 
Heartbeat CPU 0 instructions: 137000001 cycles: 974575107 heartbeat IPC: 0.139792 cumulative IPC: 0.139556 (Simulation time: 0 hr 16 min 1 sec) 
Heartbeat CPU 0 instructions: 138000003 cycles: 982063725 heartbeat IPC: 0.133536 cumulative IPC: 0.139507 (Simulation time: 0 hr 16 min 7 sec) 
Heartbeat CPU 0 instructions: 139000001 cycles: 989171097 heartbeat IPC: 0.140699 cumulative IPC: 0.139516 (Simulation time: 0 hr 16 min 13 sec) 
Heartbeat CPU 0 instructions: 140000000 cycles: 996684473 heartbeat IPC: 0.133096 cumulative IPC: 0.139464 (Simulation time: 0 hr 16 min 20 sec) 
Heartbeat CPU 0 instructions: 141000003 cycles: 1003700860 heartbeat IPC: 0.142524 cumulative IPC: 0.139487 (Simulation time: 0 hr 16 min 25 sec) 
Heartbeat CPU 0 instructions: 142000000 cycles: 1010718873 heartbeat IPC: 0.14249 cumulative IPC: 0.139509 (Simulation time: 0 hr 16 min 31 sec) 
Heartbeat CPU 0 instructions: 143000000 cycles: 1018125109 heartbeat IPC: 0.135021 cumulative IPC: 0.139474 (Simulation time: 0 hr 16 min 37 sec) 
Heartbeat CPU 0 instructions: 144000003 cycles: 1025121681 heartbeat IPC: 0.142928 cumulative IPC: 0.139499 (Simulation time: 0 hr 16 min 43 sec) 
Heartbeat CPU 0 instructions: 145000002 cycles: 1032170764 heartbeat IPC: 0.141862 cumulative IPC: 0.139517 (Simulation time: 0 hr 16 min 49 sec) 
Heartbeat CPU 0 instructions: 146000001 cycles: 1039342268 heartbeat IPC: 0.139441 cumulative IPC: 0.139516 (Simulation time: 0 hr 16 min 55 sec) 
Heartbeat CPU 0 instructions: 147000000 cycles: 1046955740 heartbeat IPC: 0.131346 cumulative IPC: 0.139453 (Simulation time: 0 hr 17 min 1 sec) 
Heartbeat CPU 0 instructions: 148000003 cycles: 1054110106 heartbeat IPC: 0.139775 cumulative IPC: 0.139455 (Simulation time: 0 hr 17 min 6 sec) 
Heartbeat CPU 0 instructions: 149000000 cycles: 1061203297 heartbeat IPC: 0.14098 cumulative IPC: 0.139466 (Simulation time: 0 hr 17 min 12 sec) 
Heartbeat CPU 0 instructions: 150000000 cycles: 1068285677 heartbeat IPC: 0.141195 cumulative IPC: 0.139478 (Simulation time: 0 hr 17 min 18 sec) 
Heartbeat CPU 0 instructions: 151000003 cycles: 1075383033 heartbeat IPC: 0.140898 cumulative IPC: 0.139488 (Simulation time: 0 hr 17 min 24 sec) 
Heartbeat CPU 0 instructions: 152000003 cycles: 1082435688 heartbeat IPC: 0.141791 cumulative IPC: 0.139504 (Simulation time: 0 hr 17 min 30 sec) 
Heartbeat CPU 0 instructions: 153000002 cycles: 1089534377 heartbeat IPC: 0.140871 cumulative IPC: 0.139513 (Simulation time: 0 hr 17 min 36 sec) 
Heartbeat CPU 0 instructions: 154000000 cycles: 1096591693 heartbeat IPC: 0.141697 cumulative IPC: 0.139528 (Simulation time: 0 hr 17 min 42 sec) 
Heartbeat CPU 0 instructions: 155000002 cycles: 1103724466 heartbeat IPC: 0.140198 cumulative IPC: 0.139533 (Simulation time: 0 hr 17 min 48 sec) 
Heartbeat CPU 0 instructions: 156000001 cycles: 1110847538 heartbeat IPC: 0.140389 cumulative IPC: 0.139539 (Simulation time: 0 hr 17 min 54 sec) 
Heartbeat CPU 0 instructions: 157000003 cycles: 1117985831 heartbeat IPC: 0.14009 cumulative IPC: 0.139543 (Simulation time: 0 hr 17 min 59 sec) 
Heartbeat CPU 0 instructions: 158000002 cycles: 1125127862 heartbeat IPC: 0.140016 cumulative IPC: 0.139546 (Simulation time: 0 hr 18 min 5 sec) 
Heartbeat CPU 0 instructions: 159000001 cycles: 1132360744 heartbeat IPC: 0.138257 cumulative IPC: 0.139537 (Simulation time: 0 hr 18 min 10 sec) 
Heartbeat CPU 0 instructions: 160000000 cycles: 1139589214 heartbeat IPC: 0.138342 cumulative IPC: 0.139529 (Simulation time: 0 hr 18 min 16 sec) 
Heartbeat CPU 0 instructions: 161000003 cycles: 1146877795 heartbeat IPC: 0.137201 cumulative IPC: 0.139513 (Simulation time: 0 hr 18 min 22 sec) 
Heartbeat CPU 0 instructions: 162000002 cycles: 1154190538 heartbeat IPC: 0.136747 cumulative IPC: 0.139495 (Simulation time: 0 hr 18 min 28 sec) 
Heartbeat CPU 0 instructions: 163000001 cycles: 1161472887 heartbeat IPC: 0.137318 cumulative IPC: 0.13948 (Simulation time: 0 hr 18 min 34 sec) 
Heartbeat CPU 0 instructions: 164000000 cycles: 1168707917 heartbeat IPC: 0.138216 cumulative IPC: 0.139472 (Simulation time: 0 hr 18 min 40 sec) 
Heartbeat CPU 0 instructions: 165000000 cycles: 1175902485 heartbeat IPC: 0.138994 cumulative IPC: 0.139469 (Simulation time: 0 hr 18 min 46 sec) 
Heartbeat CPU 0 instructions: 166000001 cycles: 1183004957 heartbeat IPC: 0.140796 cumulative IPC: 0.139477 (Simulation time: 0 hr 18 min 52 sec) 
Heartbeat CPU 0 instructions: 167000000 cycles: 1190120718 heartbeat IPC: 0.140533 cumulative IPC: 0.139484 (Simulation time: 0 hr 18 min 58 sec) 
Heartbeat CPU 0 instructions: 168000002 cycles: 1197394400 heartbeat IPC: 0.137482 cumulative IPC: 0.139471 (Simulation time: 0 hr 19 min 3 sec) 
Heartbeat CPU 0 instructions: 169000003 cycles: 1205123614 heartbeat IPC: 0.129379 cumulative IPC: 0.139403 (Simulation time: 0 hr 19 min 10 sec) 
Heartbeat CPU 0 instructions: 170000002 cycles: 1212312316 heartbeat IPC: 0.139107 cumulative IPC: 0.139401 (Simulation time: 0 hr 19 min 16 sec) 
Heartbeat CPU 0 instructions: 171000003 cycles: 1219549845 heartbeat IPC: 0.138169 cumulative IPC: 0.139393 (Simulation time: 0 hr 19 min 22 sec) 
Heartbeat CPU 0 instructions: 172000000 cycles: 1226771910 heartbeat IPC: 0.138464 cumulative IPC: 0.139387 (Simulation time: 0 hr 19 min 28 sec) 
Heartbeat CPU 0 instructions: 173000002 cycles: 1234120047 heartbeat IPC: 0.136089 cumulative IPC: 0.139367 (Simulation time: 0 hr 19 min 33 sec) 
Heartbeat CPU 0 instructions: 174000001 cycles: 1241550102 heartbeat IPC: 0.134588 cumulative IPC: 0.139337 (Simulation time: 0 hr 19 min 39 sec) 
Heartbeat CPU 0 instructions: 175000000 cycles: 1248843116 heartbeat IPC: 0.137117 cumulative IPC: 0.139323 (Simulation time: 0 hr 19 min 44 sec) 
Heartbeat CPU 0 instructions: 176000000 cycles: 1256095042 heartbeat IPC: 0.137894 cumulative IPC: 0.139314 (Simulation time: 0 hr 19 min 50 sec) 
Heartbeat CPU 0 instructions: 177000001 cycles: 1263358131 heartbeat IPC: 0.137683 cumulative IPC: 0.139304 (Simulation time: 0 hr 19 min 56 sec) 
Heartbeat CPU 0 instructions: 178000000 cycles: 1270639299 heartbeat IPC: 0.13734 cumulative IPC: 0.139292 (Simulation time: 0 hr 20 min 1 sec) 
Heartbeat CPU 0 instructions: 179000003 cycles: 1277901090 heartbeat IPC: 0.137707 cumulative IPC: 0.139283 (Simulation time: 0 hr 20 min 7 sec) 
Heartbeat CPU 0 instructions: 180000002 cycles: 1285141487 heartbeat IPC: 0.138114 cumulative IPC: 0.139276 (Simulation time: 0 hr 20 min 12 sec) 
Heartbeat CPU 0 instructions: 181000001 cycles: 1292359346 heartbeat IPC: 0.138545 cumulative IPC: 0.139272 (Simulation time: 0 hr 20 min 18 sec) 
Heartbeat CPU 0 instructions: 182000000 cycles: 1299601976 heartbeat IPC: 0.138071 cumulative IPC: 0.139265 (Simulation time: 0 hr 20 min 24 sec) 
Heartbeat CPU 0 instructions: 183000001 cycles: 1306787685 heartbeat IPC: 0.139165 cumulative IPC: 0.139264 (Simulation time: 0 hr 20 min 30 sec) 
Heartbeat CPU 0 instructions: 184000001 cycles: 1313844398 heartbeat IPC: 0.141709 cumulative IPC: 0.139278 (Simulation time: 0 hr 20 min 36 sec) 
Heartbeat CPU 0 instructions: 185000001 cycles: 1320992054 heartbeat IPC: 0.139906 cumulative IPC: 0.139281 (Simulation time: 0 hr 20 min 42 sec) 
Heartbeat CPU 0 instructions: 186000000 cycles: 1328204444 heartbeat IPC: 0.13865 cumulative IPC: 0.139278 (Simulation time: 0 hr 20 min 48 sec) 
Heartbeat CPU 0 instructions: 187000000 cycles: 1335347618 heartbeat IPC: 0.139994 cumulative IPC: 0.139282 (Simulation time: 0 hr 20 min 54 sec) 
Heartbeat CPU 0 instructions: 188000002 cycles: 1342632060 heartbeat IPC: 0.137279 cumulative IPC: 0.13927 (Simulation time: 0 hr 21 min 0 sec) 
Heartbeat CPU 0 instructions: 189000001 cycles: 1349945730 heartbeat IPC: 0.13673 cumulative IPC: 0.139256 (Simulation time: 0 hr 21 min 6 sec) 
Heartbeat CPU 0 instructions: 190000000 cycles: 1357177760 heartbeat IPC: 0.138274 cumulative IPC: 0.139251 (Simulation time: 0 hr 21 min 12 sec) 
Heartbeat CPU 0 instructions: 191000000 cycles: 1364507583 heartbeat IPC: 0.136429 cumulative IPC: 0.139235 (Simulation time: 0 hr 21 min 18 sec) 
Heartbeat CPU 0 instructions: 192000001 cycles: 1371843026 heartbeat IPC: 0.136325 cumulative IPC: 0.139218 (Simulation time: 0 hr 21 min 24 sec) 
Heartbeat CPU 0 instructions: 193000000 cycles: 1379150264 heartbeat IPC: 0.13685 cumulative IPC: 0.139205 (Simulation time: 0 hr 21 min 30 sec) 
Heartbeat CPU 0 instructions: 194000001 cycles: 1386875213 heartbeat IPC: 0.129451 cumulative IPC: 0.139148 (Simulation time: 0 hr 21 min 36 sec) 
Heartbeat CPU 0 instructions: 195000001 cycles: 1394051537 heartbeat IPC: 0.139347 cumulative IPC: 0.139149 (Simulation time: 0 hr 21 min 42 sec) 
Heartbeat CPU 0 instructions: 196000003 cycles: 1401374391 heartbeat IPC: 0.136559 cumulative IPC: 0.139135 (Simulation time: 0 hr 21 min 48 sec) 
Heartbeat CPU 0 instructions: 197000002 cycles: 1408671387 heartbeat IPC: 0.137043 cumulative IPC: 0.139124 (Simulation time: 0 hr 21 min 54 sec) 
Heartbeat CPU 0 instructions: 198000000 cycles: 1416045229 heartbeat IPC: 0.135614 cumulative IPC: 0.139105 (Simulation time: 0 hr 22 min 0 sec) 
Heartbeat CPU 0 instructions: 199000000 cycles: 1423348793 heartbeat IPC: 0.136919 cumulative IPC: 0.139093 (Simulation time: 0 hr 22 min 5 sec) 
Heartbeat CPU 0 instructions: 200000002 cycles: 1430661547 heartbeat IPC: 0.136748 cumulative IPC: 0.13908 (Simulation time: 0 hr 22 min 11 sec) 
Heartbeat CPU 0 instructions: 201000000 cycles: 1438024705 heartbeat IPC: 0.135811 cumulative IPC: 0.139063 (Simulation time: 0 hr 22 min 17 sec) 
Heartbeat CPU 0 instructions: 202000001 cycles: 1445275157 heartbeat IPC: 0.137923 cumulative IPC: 0.139057 (Simulation time: 0 hr 22 min 23 sec) 
Heartbeat CPU 0 instructions: 203000000 cycles: 1452450464 heartbeat IPC: 0.139367 cumulative IPC: 0.139058 (Simulation time: 0 hr 22 min 29 sec) 
Heartbeat CPU 0 instructions: 204000000 cycles: 1459681626 heartbeat IPC: 0.13829 cumulative IPC: 0.139054 (Simulation time: 0 hr 22 min 35 sec) 
Heartbeat CPU 0 instructions: 205000002 cycles: 1466893730 heartbeat IPC: 0.138656 cumulative IPC: 0.139052 (Simulation time: 0 hr 22 min 41 sec) 
Heartbeat CPU 0 instructions: 206000002 cycles: 1474125368 heartbeat IPC: 0.138281 cumulative IPC: 0.139048 (Simulation time: 0 hr 22 min 47 sec) 
Heartbeat CPU 0 instructions: 207000002 cycles: 1481421710 heartbeat IPC: 0.137055 cumulative IPC: 0.139038 (Simulation time: 0 hr 22 min 53 sec) 
Heartbeat CPU 0 instructions: 208000002 cycles: 1488739244 heartbeat IPC: 0.136658 cumulative IPC: 0.139026 (Simulation time: 0 hr 22 min 58 sec) 
Heartbeat CPU 0 instructions: 209000000 cycles: 1496106072 heartbeat IPC: 0.135743 cumulative IPC: 0.139009 (Simulation time: 0 hr 23 min 4 sec) 
Heartbeat CPU 0 instructions: 210000000 cycles: 1503429953 heartbeat IPC: 0.13654 cumulative IPC: 0.138996 (Simulation time: 0 hr 23 min 10 sec) 
Heartbeat CPU 0 instructions: 211000002 cycles: 1510748308 heartbeat IPC: 0.136643 cumulative IPC: 0.138984 (Simulation time: 0 hr 23 min 16 sec) 
Heartbeat CPU 0 instructions: 212000001 cycles: 1518122901 heartbeat IPC: 0.135601 cumulative IPC: 0.138967 (Simulation time: 0 hr 23 min 22 sec) 
Heartbeat CPU 0 instructions: 213000000 cycles: 1525409662 heartbeat IPC: 0.137235 cumulative IPC: 0.138959 (Simulation time: 0 hr 23 min 28 sec) 
Heartbeat CPU 0 instructions: 214000003 cycles: 1532708175 heartbeat IPC: 0.137015 cumulative IPC: 0.138949 (Simulation time: 0 hr 23 min 34 sec) 
Heartbeat CPU 0 instructions: 215000002 cycles: 1540008065 heartbeat IPC: 0.136988 cumulative IPC: 0.138939 (Simulation time: 0 hr 23 min 40 sec) 
Heartbeat CPU 0 instructions: 216000001 cycles: 1547303212 heartbeat IPC: 0.137077 cumulative IPC: 0.13893 (Simulation time: 0 hr 23 min 46 sec) 
Heartbeat CPU 0 instructions: 217000000 cycles: 1554556580 heartbeat IPC: 0.137867 cumulative IPC: 0.138925 (Simulation time: 0 hr 23 min 52 sec) 
Heartbeat CPU 0 instructions: 218000000 cycles: 1561808613 heartbeat IPC: 0.137892 cumulative IPC: 0.13892 (Simulation time: 0 hr 23 min 58 sec) 
Heartbeat CPU 0 instructions: 219000002 cycles: 1569119122 heartbeat IPC: 0.13679 cumulative IPC: 0.13891 (Simulation time: 0 hr 24 min 4 sec) 
Heartbeat CPU 0 instructions: 220000000 cycles: 1576461765 heartbeat IPC: 0.13619 cumulative IPC: 0.138896 (Simulation time: 0 hr 24 min 9 sec) 
Heartbeat CPU 0 instructions: 221000000 cycles: 1583838523 heartbeat IPC: 0.135561 cumulative IPC: 0.13888 (Simulation time: 0 hr 24 min 16 sec) 
Heartbeat CPU 0 instructions: 222000001 cycles: 1591263764 heartbeat IPC: 0.134676 cumulative IPC: 0.13886 (Simulation time: 0 hr 24 min 22 sec) 
Heartbeat CPU 0 instructions: 223000002 cycles: 1598627857 heartbeat IPC: 0.135794 cumulative IPC: 0.138845 (Simulation time: 0 hr 24 min 27 sec) 
Heartbeat CPU 0 instructions: 224000000 cycles: 1606004830 heartbeat IPC: 0.135557 cumulative IPC: 0.138829 (Simulation time: 0 hr 24 min 33 sec) 
Heartbeat CPU 0 instructions: 225000001 cycles: 1613307578 heartbeat IPC: 0.136935 cumulative IPC: 0.13882 (Simulation time: 0 hr 24 min 39 sec) 
Heartbeat CPU 0 instructions: 226000000 cycles: 1620659228 heartbeat IPC: 0.136024 cumulative IPC: 0.138807 (Simulation time: 0 hr 24 min 45 sec) 
Heartbeat CPU 0 instructions: 227000002 cycles: 1628088182 heartbeat IPC: 0.134609 cumulative IPC: 0.138787 (Simulation time: 0 hr 24 min 51 sec) 
Heartbeat CPU 0 instructions: 228000002 cycles: 1635573117 heartbeat IPC: 0.133602 cumulative IPC: 0.138763 (Simulation time: 0 hr 24 min 56 sec) 
Heartbeat CPU 0 instructions: 229000001 cycles: 1642987165 heartbeat IPC: 0.134879 cumulative IPC: 0.138744 (Simulation time: 0 hr 25 min 2 sec) 
Heartbeat CPU 0 instructions: 230000000 cycles: 1650362074 heartbeat IPC: 0.135595 cumulative IPC: 0.13873 (Simulation time: 0 hr 25 min 8 sec) 
Heartbeat CPU 0 instructions: 231000000 cycles: 1657766068 heartbeat IPC: 0.135062 cumulative IPC: 0.138713 (Simulation time: 0 hr 25 min 14 sec) 
Heartbeat CPU 0 instructions: 232000001 cycles: 1665139450 heartbeat IPC: 0.135623 cumulative IPC: 0.138698 (Simulation time: 0 hr 25 min 20 sec) 
Heartbeat CPU 0 instructions: 233000000 cycles: 1672377686 heartbeat IPC: 0.138155 cumulative IPC: 0.138696 (Simulation time: 0 hr 25 min 26 sec) 
Heartbeat CPU 0 instructions: 234000003 cycles: 1679693632 heartbeat IPC: 0.136688 cumulative IPC: 0.138687 (Simulation time: 0 hr 25 min 32 sec) 
Heartbeat CPU 0 instructions: 235000002 cycles: 1687079866 heartbeat IPC: 0.135387 cumulative IPC: 0.138672 (Simulation time: 0 hr 25 min 38 sec) 
Heartbeat CPU 0 instructions: 236000001 cycles: 1694528031 heartbeat IPC: 0.134261 cumulative IPC: 0.138652 (Simulation time: 0 hr 25 min 44 sec) 
Heartbeat CPU 0 instructions: 237000000 cycles: 1701982014 heartbeat IPC: 0.134156 cumulative IPC: 0.138631 (Simulation time: 0 hr 25 min 50 sec) 
Heartbeat CPU 0 instructions: 238000000 cycles: 1709415378 heartbeat IPC: 0.134529 cumulative IPC: 0.138613 (Simulation time: 0 hr 25 min 55 sec) 
Heartbeat CPU 0 instructions: 239000002 cycles: 1716785569 heartbeat IPC: 0.135682 cumulative IPC: 0.1386 (Simulation time: 0 hr 26 min 1 sec) 
Heartbeat CPU 0 instructions: 240000001 cycles: 1724116931 heartbeat IPC: 0.1364 cumulative IPC: 0.13859 (Simulation time: 0 hr 26 min 7 sec) 
Heartbeat CPU 0 instructions: 241000000 cycles: 1731483352 heartbeat IPC: 0.135751 cumulative IPC: 0.138577 (Simulation time: 0 hr 26 min 13 sec) 
Heartbeat CPU 0 instructions: 242000000 cycles: 1739355552 heartbeat IPC: 0.127029 cumulative IPC: 0.138523 (Simulation time: 0 hr 26 min 19 sec) 
Heartbeat CPU 0 instructions: 243000000 cycles: 1746687882 heartbeat IPC: 0.136382 cumulative IPC: 0.138514 (Simulation time: 0 hr 26 min 25 sec) 
Heartbeat CPU 0 instructions: 244000003 cycles: 1753954970 heartbeat IPC: 0.137607 cumulative IPC: 0.13851 (Simulation time: 0 hr 26 min 31 sec) 
Heartbeat CPU 0 instructions: 245000002 cycles: 1761280508 heartbeat IPC: 0.136509 cumulative IPC: 0.138501 (Simulation time: 0 hr 26 min 37 sec) 
Heartbeat CPU 0 instructions: 246000003 cycles: 1768582526 heartbeat IPC: 0.136949 cumulative IPC: 0.138495 (Simulation time: 0 hr 26 min 43 sec) 
Heartbeat CPU 0 instructions: 247000000 cycles: 1775926667 heartbeat IPC: 0.136163 cumulative IPC: 0.138484 (Simulation time: 0 hr 26 min 49 sec) 
Heartbeat CPU 0 instructions: 248000003 cycles: 1783356954 heartbeat IPC: 0.134585 cumulative IPC: 0.138468 (Simulation time: 0 hr 26 min 55 sec) 
Heartbeat CPU 0 instructions: 249000001 cycles: 1790761023 heartbeat IPC: 0.135061 cumulative IPC: 0.138453 (Simulation time: 0 hr 27 min 2 sec) 
Heartbeat CPU 0 instructions: 250000000 cycles: 1798167200 heartbeat IPC: 0.135022 cumulative IPC: 0.138438 (Simulation time: 0 hr 27 min 8 sec) 
Heartbeat CPU 0 instructions: 251000000 cycles: 1805588480 heartbeat IPC: 0.134748 cumulative IPC: 0.138423 (Simulation time: 0 hr 27 min 14 sec) 
Heartbeat CPU 0 instructions: 252000003 cycles: 1813085019 heartbeat IPC: 0.133395 cumulative IPC: 0.138401 (Simulation time: 0 hr 27 min 20 sec) 
Heartbeat CPU 0 instructions: 253000000 cycles: 1821027714 heartbeat IPC: 0.125901 cumulative IPC: 0.138345 (Simulation time: 0 hr 27 min 27 sec) 
Heartbeat CPU 0 instructions: 254000001 cycles: 1828366194 heartbeat IPC: 0.136268 cumulative IPC: 0.138336 (Simulation time: 0 hr 27 min 33 sec) 
Heartbeat CPU 0 instructions: 255000000 cycles: 1835786757 heartbeat IPC: 0.134761 cumulative IPC: 0.138321 (Simulation time: 0 hr 27 min 39 sec) 
Heartbeat CPU 0 instructions: 256000003 cycles: 1843184013 heartbeat IPC: 0.135186 cumulative IPC: 0.138308 (Simulation time: 0 hr 27 min 44 sec) 
Heartbeat CPU 0 instructions: 257000002 cycles: 1850527845 heartbeat IPC: 0.136169 cumulative IPC: 0.138299 (Simulation time: 0 hr 27 min 50 sec) 
Heartbeat CPU 0 instructions: 258000001 cycles: 1857767850 heartbeat IPC: 0.138121 cumulative IPC: 0.138298 (Simulation time: 0 hr 27 min 56 sec) 
Heartbeat CPU 0 instructions: 259000003 cycles: 1865399095 heartbeat IPC: 0.13104 cumulative IPC: 0.138268 (Simulation time: 0 hr 28 min 2 sec) 
Heartbeat CPU 0 instructions: 260000002 cycles: 1872772545 heartbeat IPC: 0.135622 cumulative IPC: 0.138257 (Simulation time: 0 hr 28 min 7 sec) 
Finished CPU 0 instructions: 250000003 cycles: 1808228813 cumulative IPC: 0.138257 (Simulation time: 0 hr 28 min 7 sec) 

ChampSim completed all CPUs

Region of Interest Statistics

CPU 0 cumulative IPC: 0.138257 instructions: 250000003 cycles: 1808228813
L1D TOTAL     ACCESS:   46598952  HIT:   33241455  MISS:   13357497
L1D LOAD      ACCESS:   35513310  HIT:   22848802  MISS:   12664508
L1D RFO       ACCESS:   11085642  HIT:   10392653  MISS:     692989
L1D PREFETCH  ACCESS:          0  HIT:          0  MISS:          0
L1D WRITEBACK ACCESS:          0  HIT:          0  MISS:          0
L1D PREFETCH  REQUESTED:          0  ISSUED:          0  USEFUL:          0  USELESS:          0
L1D AVERAGE MISS LATENCY: 139.047 cycles
L1I TOTAL     ACCESS:   49645798  HIT:   49645798  MISS:          0
L1I LOAD      ACCESS:   49645798  HIT:   49645798  MISS:          0
L1I RFO       ACCESS:          0  HIT:          0  MISS:          0
L1I PREFETCH  ACCESS:          0  HIT:          0  MISS:          0
L1I WRITEBACK ACCESS:          0  HIT:          0  MISS:          0
L1I PREFETCH  REQUESTED:          0  ISSUED:          0  USEFUL:          0  USELESS:          0
L1I AVERAGE MISS LATENCY: -nan cycles
L2C TOTAL     ACCESS:   18900417  HIT:   12155651  MISS:    6744766
L2C LOAD      ACCESS:   12664508  HIT:    5976238  MISS:    6688270
L2C RFO       ACCESS:     692989  HIT:     636493  MISS:      56496
L2C PREFETCH  ACCESS:          0  HIT:          0  MISS:          0
L2C WRITEBACK ACCESS:    5542920  HIT:    5542920  MISS:          0
L2C PREFETCH  REQUESTED:          0  ISSUED:          0  USEFUL:          0  USELESS:          0
L2C AVERAGE MISS LATENCY: 231.864 cycles
LLC TOTAL     ACCESS:   12289148  HIT:    5944303  MISS:    6344845
LLC LOAD      ACCESS:    6688270  HIT:     343435  MISS:    6344835
LLC RFO       ACCESS:      56496  HIT:      56486  MISS:         10
LLC PREFETCH  ACCESS:          0  HIT:          0  MISS:          0
LLC WRITEBACK ACCESS:    5544382  HIT:    5544382  MISS:          0
LLC PREFETCH  REQUESTED:          0  ISSUED:          0  USEFUL:          0  USELESS:          0
LLC AVERAGE MISS LATENCY: 211.847 cycles
Major fault: 0 Minor fault: 104671

DRAM Statistics
 CHANNEL 0
 RQ ROW_BUFFER_HIT:    1000780  ROW_BUFFER_MISS:    2171644
 DBUS_CONGESTED:    1365613
 WQ ROW_BUFFER_HIT:     963867  ROW_BUFFER_MISS:    1808799  FULL:          0

 CHANNEL 1
 RQ ROW_BUFFER_HIT:    1000319  ROW_BUFFER_MISS:    2172101
 DBUS_CONGESTED:    1365613
 WQ ROW_BUFFER_HIT:     959507  ROW_BUFFER_MISS:    1813162  FULL:          0

 AVG_CONGESTED_CYCLE: 12

CPU 0 Branch Prediction Accuracy: 99.9869% MPKI: 0.020424 Average ROB Occupancy at Mispredict: 309.458

Branch types
NOT_BRANCH: 211056388 84.4226%
BRANCH_DIRECT_JUMP: 5686722 2.27469%
BRANCH_INDIRECT: 0 0%
BRANCH_CONDITIONAL: 22171263 8.86851%
BRANCH_DIRECT_CALL: 5542816 2.21713%
BRANCH_INDIRECT_CALL: 0 0%
BRANCH_RETURN: 5542816 2.21713%
BRANCH_OTHER: 0 0%

