
*** ChampSim Multicore Out-of-Order Simulator ***

Warmup Instructions: 1000000
Prefetch Warmup Instructions: 10000000
Simulation Instructions: 250000000
Stat Printing Period: 1000000
Number of CPUs: 1
LLC sets: 2048
LLC ways: 16
Off-chip DRAM Size: 32768 MB Channels: 2 Width: 64-bit Data Rate: 1024 MT/s

CPU 0 runs /scratch/cluster/cmolder/ML-DPC/ChampSimTraces/spec17/605.mcf-s2.trace.xz
Read seed: 273
Heartbeat CPU 0 instructions: 1000000 cycles: 462200 heartbeat IPC: 2.16357 cumulative IPC: 2.16357 (Simulation time: 0 hr 0 min 3 sec) 

Warmup complete CPU 0 instructions: 1000004 cycles: 462201 (Simulation time: 0 hr 0 min 3 sec) 

Heartbeat CPU 0 instructions: 2000001 cycles: 7036776 heartbeat IPC: 0.152101 cumulative IPC: 0.152101 (Simulation time: 0 hr 0 min 10 sec) 
Heartbeat CPU 0 instructions: 3000002 cycles: 13242668 heartbeat IPC: 0.161137 cumulative IPC: 0.156489 (Simulation time: 0 hr 0 min 17 sec) 
Heartbeat CPU 0 instructions: 4000002 cycles: 19386352 heartbeat IPC: 0.162769 cumulative IPC: 0.158527 (Simulation time: 0 hr 0 min 23 sec) 
Heartbeat CPU 0 instructions: 5000001 cycles: 26170583 heartbeat IPC: 0.1474 cumulative IPC: 0.155591 (Simulation time: 0 hr 0 min 29 sec) 
Heartbeat CPU 0 instructions: 6000001 cycles: 31878850 heartbeat IPC: 0.175185 cumulative IPC: 0.159151 (Simulation time: 0 hr 0 min 36 sec) 
Heartbeat CPU 0 instructions: 7000002 cycles: 38560079 heartbeat IPC: 0.149673 cumulative IPC: 0.157489 (Simulation time: 0 hr 0 min 43 sec) 
Heartbeat CPU 0 instructions: 8000000 cycles: 44538080 heartbeat IPC: 0.16728 cumulative IPC: 0.158817 (Simulation time: 0 hr 0 min 50 sec) 
Heartbeat CPU 0 instructions: 9000001 cycles: 50975732 heartbeat IPC: 0.155336 cumulative IPC: 0.158373 (Simulation time: 0 hr 0 min 56 sec) 
Heartbeat CPU 0 instructions: 10000001 cycles: 57238063 heartbeat IPC: 0.159685 cumulative IPC: 0.158518 (Simulation time: 0 hr 1 min 3 sec) 

Warmup complete CPU 0 instructions: 10000001 cycles: 57238063 (Simulation time: 0 hr 1 min 3 sec) 

Heartbeat CPU 0 instructions: 11000000 cycles: 62897420 heartbeat IPC: 0.176698 cumulative IPC: 0.176698 (Simulation time: 0 hr 1 min 10 sec) 
Heartbeat CPU 0 instructions: 12000003 cycles: 69885703 heartbeat IPC: 0.143097 cumulative IPC: 0.158132 (Simulation time: 0 hr 1 min 17 sec) 
Heartbeat CPU 0 instructions: 13000000 cycles: 76707808 heartbeat IPC: 0.146582 cumulative IPC: 0.154085 (Simulation time: 0 hr 1 min 24 sec) 
Heartbeat CPU 0 instructions: 14000003 cycles: 82560196 heartbeat IPC: 0.170871 cumulative IPC: 0.157965 (Simulation time: 0 hr 1 min 31 sec) 
Heartbeat CPU 0 instructions: 15000002 cycles: 88391086 heartbeat IPC: 0.1715 cumulative IPC: 0.160498 (Simulation time: 0 hr 1 min 37 sec) 
Heartbeat CPU 0 instructions: 16000001 cycles: 94357948 heartbeat IPC: 0.167592 cumulative IPC: 0.161638 (Simulation time: 0 hr 1 min 44 sec) 
Heartbeat CPU 0 instructions: 17000001 cycles: 100873736 heartbeat IPC: 0.153473 cumulative IPC: 0.160419 (Simulation time: 0 hr 1 min 51 sec) 
Heartbeat CPU 0 instructions: 18000002 cycles: 107218209 heartbeat IPC: 0.157618 cumulative IPC: 0.160064 (Simulation time: 0 hr 1 min 58 sec) 
Heartbeat CPU 0 instructions: 19000000 cycles: 114196547 heartbeat IPC: 0.1433 cumulative IPC: 0.15801 (Simulation time: 0 hr 2 min 5 sec) 
Heartbeat CPU 0 instructions: 20000000 cycles: 119709314 heartbeat IPC: 0.181397 cumulative IPC: 0.160074 (Simulation time: 0 hr 2 min 12 sec) 
Heartbeat CPU 0 instructions: 21000000 cycles: 125640565 heartbeat IPC: 0.168599 cumulative IPC: 0.160813 (Simulation time: 0 hr 2 min 19 sec) 
Heartbeat CPU 0 instructions: 22000000 cycles: 132688145 heartbeat IPC: 0.141893 cumulative IPC: 0.159046 (Simulation time: 0 hr 2 min 25 sec) 
Heartbeat CPU 0 instructions: 23000000 cycles: 138438244 heartbeat IPC: 0.17391 cumulative IPC: 0.160098 (Simulation time: 0 hr 2 min 33 sec) 
Heartbeat CPU 0 instructions: 24000001 cycles: 144155065 heartbeat IPC: 0.174923 cumulative IPC: 0.161073 (Simulation time: 0 hr 2 min 39 sec) 
Heartbeat CPU 0 instructions: 25000000 cycles: 150750578 heartbeat IPC: 0.151618 cumulative IPC: 0.160406 (Simulation time: 0 hr 2 min 46 sec) 
Heartbeat CPU 0 instructions: 26000001 cycles: 156772571 heartbeat IPC: 0.166058 cumulative IPC: 0.160748 (Simulation time: 0 hr 2 min 53 sec) 
Heartbeat CPU 0 instructions: 27000001 cycles: 163484830 heartbeat IPC: 0.148981 cumulative IPC: 0.160005 (Simulation time: 0 hr 3 min 0 sec) 
Heartbeat CPU 0 instructions: 28000001 cycles: 169713364 heartbeat IPC: 0.160551 cumulative IPC: 0.160035 (Simulation time: 0 hr 3 min 7 sec) 
Heartbeat CPU 0 instructions: 29000000 cycles: 175743914 heartbeat IPC: 0.165822 cumulative IPC: 0.16033 (Simulation time: 0 hr 3 min 14 sec) 
Heartbeat CPU 0 instructions: 30000002 cycles: 181598549 heartbeat IPC: 0.170805 cumulative IPC: 0.160823 (Simulation time: 0 hr 3 min 22 sec) 
Heartbeat CPU 0 instructions: 31000002 cycles: 187385842 heartbeat IPC: 0.172792 cumulative IPC: 0.161355 (Simulation time: 0 hr 3 min 28 sec) 
Heartbeat CPU 0 instructions: 32000002 cycles: 193503571 heartbeat IPC: 0.163459 cumulative IPC: 0.16145 (Simulation time: 0 hr 3 min 36 sec) 
Heartbeat CPU 0 instructions: 33000000 cycles: 200327335 heartbeat IPC: 0.146546 cumulative IPC: 0.160739 (Simulation time: 0 hr 3 min 42 sec) 
Heartbeat CPU 0 instructions: 34000000 cycles: 206385746 heartbeat IPC: 0.16506 cumulative IPC: 0.160914 (Simulation time: 0 hr 3 min 50 sec) 
Heartbeat CPU 0 instructions: 35000003 cycles: 212250438 heartbeat IPC: 0.170512 cumulative IPC: 0.161277 (Simulation time: 0 hr 3 min 57 sec) 
Heartbeat CPU 0 instructions: 36000003 cycles: 218848674 heartbeat IPC: 0.151556 cumulative IPC: 0.160881 (Simulation time: 0 hr 4 min 4 sec) 
Heartbeat CPU 0 instructions: 37000000 cycles: 224861734 heartbeat IPC: 0.166304 cumulative IPC: 0.161075 (Simulation time: 0 hr 4 min 11 sec) 
Heartbeat CPU 0 instructions: 38000001 cycles: 231760018 heartbeat IPC: 0.144964 cumulative IPC: 0.160438 (Simulation time: 0 hr 4 min 18 sec) 
Heartbeat CPU 0 instructions: 39000000 cycles: 238116744 heartbeat IPC: 0.157314 cumulative IPC: 0.160328 (Simulation time: 0 hr 4 min 25 sec) 
Heartbeat CPU 0 instructions: 40000001 cycles: 244168233 heartbeat IPC: 0.165249 cumulative IPC: 0.160488 (Simulation time: 0 hr 4 min 32 sec) 
Heartbeat CPU 0 instructions: 41000000 cycles: 250147173 heartbeat IPC: 0.167254 cumulative IPC: 0.160697 (Simulation time: 0 hr 4 min 39 sec) 
Heartbeat CPU 0 instructions: 42000000 cycles: 256986337 heartbeat IPC: 0.146217 cumulative IPC: 0.160202 (Simulation time: 0 hr 4 min 46 sec) 
Heartbeat CPU 0 instructions: 43000003 cycles: 262675342 heartbeat IPC: 0.175778 cumulative IPC: 0.160633 (Simulation time: 0 hr 4 min 53 sec) 
Heartbeat CPU 0 instructions: 44000000 cycles: 268634555 heartbeat IPC: 0.167807 cumulative IPC: 0.160835 (Simulation time: 0 hr 5 min 0 sec) 
Heartbeat CPU 0 instructions: 45000000 cycles: 274814043 heartbeat IPC: 0.161826 cumulative IPC: 0.160863 (Simulation time: 0 hr 5 min 7 sec) 
Heartbeat CPU 0 instructions: 46000001 cycles: 281140411 heartbeat IPC: 0.158069 cumulative IPC: 0.160784 (Simulation time: 0 hr 5 min 14 sec) 
Heartbeat CPU 0 instructions: 47000003 cycles: 287177378 heartbeat IPC: 0.165646 cumulative IPC: 0.160912 (Simulation time: 0 hr 5 min 22 sec) 
Heartbeat CPU 0 instructions: 48000001 cycles: 293298268 heartbeat IPC: 0.163375 cumulative IPC: 0.160976 (Simulation time: 0 hr 5 min 29 sec) 
Heartbeat CPU 0 instructions: 49000000 cycles: 299682659 heartbeat IPC: 0.156632 cumulative IPC: 0.160861 (Simulation time: 0 hr 5 min 36 sec) 
Heartbeat CPU 0 instructions: 50000000 cycles: 306434218 heartbeat IPC: 0.148114 cumulative IPC: 0.160516 (Simulation time: 0 hr 5 min 43 sec) 
Heartbeat CPU 0 instructions: 51000001 cycles: 312163636 heartbeat IPC: 0.174538 cumulative IPC: 0.160831 (Simulation time: 0 hr 5 min 50 sec) 
Heartbeat CPU 0 instructions: 52000003 cycles: 318142314 heartbeat IPC: 0.167261 cumulative IPC: 0.160979 (Simulation time: 0 hr 5 min 58 sec) 
Heartbeat CPU 0 instructions: 53000002 cycles: 323899133 heartbeat IPC: 0.173707 cumulative IPC: 0.161253 (Simulation time: 0 hr 6 min 5 sec) 
Heartbeat CPU 0 instructions: 54000001 cycles: 330868180 heartbeat IPC: 0.143491 cumulative IPC: 0.160801 (Simulation time: 0 hr 6 min 12 sec) 
Heartbeat CPU 0 instructions: 55000000 cycles: 337164480 heartbeat IPC: 0.158823 cumulative IPC: 0.160757 (Simulation time: 0 hr 6 min 19 sec) 
Heartbeat CPU 0 instructions: 56000000 cycles: 343194366 heartbeat IPC: 0.165841 cumulative IPC: 0.160864 (Simulation time: 0 hr 6 min 27 sec) 
Heartbeat CPU 0 instructions: 57000000 cycles: 349167472 heartbeat IPC: 0.167417 cumulative IPC: 0.160998 (Simulation time: 0 hr 6 min 34 sec) 
Heartbeat CPU 0 instructions: 58000001 cycles: 355318243 heartbeat IPC: 0.162581 cumulative IPC: 0.161031 (Simulation time: 0 hr 6 min 41 sec) 
Heartbeat CPU 0 instructions: 59000003 cycles: 362153439 heartbeat IPC: 0.146302 cumulative IPC: 0.1607 (Simulation time: 0 hr 6 min 48 sec) 
Heartbeat CPU 0 instructions: 60000002 cycles: 368788495 heartbeat IPC: 0.150714 cumulative IPC: 0.160488 (Simulation time: 0 hr 6 min 55 sec) 
Heartbeat CPU 0 instructions: 61000001 cycles: 374754377 heartbeat IPC: 0.16762 cumulative IPC: 0.160622 (Simulation time: 0 hr 7 min 2 sec) 
Heartbeat CPU 0 instructions: 62000000 cycles: 381588629 heartbeat IPC: 0.146322 cumulative IPC: 0.16032 (Simulation time: 0 hr 7 min 9 sec) 
Heartbeat CPU 0 instructions: 63000000 cycles: 387999143 heartbeat IPC: 0.155994 cumulative IPC: 0.160237 (Simulation time: 0 hr 7 min 16 sec) 
Heartbeat CPU 0 instructions: 64000002 cycles: 393922215 heartbeat IPC: 0.168832 cumulative IPC: 0.160388 (Simulation time: 0 hr 7 min 23 sec) 
Heartbeat CPU 0 instructions: 65000001 cycles: 400048293 heartbeat IPC: 0.163236 cumulative IPC: 0.160439 (Simulation time: 0 hr 7 min 31 sec) 
Heartbeat CPU 0 instructions: 66000000 cycles: 406547499 heartbeat IPC: 0.153865 cumulative IPC: 0.160316 (Simulation time: 0 hr 7 min 38 sec) 
Heartbeat CPU 0 instructions: 67000000 cycles: 412412024 heartbeat IPC: 0.170517 cumulative IPC: 0.160485 (Simulation time: 0 hr 7 min 45 sec) 
Heartbeat CPU 0 instructions: 68000000 cycles: 418528150 heartbeat IPC: 0.163502 cumulative IPC: 0.160536 (Simulation time: 0 hr 7 min 53 sec) 
Heartbeat CPU 0 instructions: 69000003 cycles: 424913962 heartbeat IPC: 0.156598 cumulative IPC: 0.160467 (Simulation time: 0 hr 7 min 59 sec) 
Heartbeat CPU 0 instructions: 70000000 cycles: 432000671 heartbeat IPC: 0.141109 cumulative IPC: 0.160101 (Simulation time: 0 hr 8 min 6 sec) 
Heartbeat CPU 0 instructions: 71000000 cycles: 438891585 heartbeat IPC: 0.145119 cumulative IPC: 0.159831 (Simulation time: 0 hr 8 min 14 sec) 
Heartbeat CPU 0 instructions: 72000002 cycles: 445327588 heartbeat IPC: 0.155376 cumulative IPC: 0.159757 (Simulation time: 0 hr 8 min 21 sec) 
Heartbeat CPU 0 instructions: 73000002 cycles: 452184087 heartbeat IPC: 0.145847 cumulative IPC: 0.159515 (Simulation time: 0 hr 8 min 28 sec) 
Heartbeat CPU 0 instructions: 74000002 cycles: 458016619 heartbeat IPC: 0.171452 cumulative IPC: 0.159689 (Simulation time: 0 hr 8 min 36 sec) 
Heartbeat CPU 0 instructions: 75000003 cycles: 465247306 heartbeat IPC: 0.1383 cumulative IPC: 0.15931 (Simulation time: 0 hr 8 min 43 sec) 
Heartbeat CPU 0 instructions: 76000000 cycles: 472044637 heartbeat IPC: 0.147116 cumulative IPC: 0.15911 (Simulation time: 0 hr 8 min 50 sec) 
Heartbeat CPU 0 instructions: 77000000 cycles: 478374141 heartbeat IPC: 0.15799 cumulative IPC: 0.159093 (Simulation time: 0 hr 8 min 56 sec) 
Heartbeat CPU 0 instructions: 78000000 cycles: 484622770 heartbeat IPC: 0.160035 cumulative IPC: 0.159107 (Simulation time: 0 hr 9 min 4 sec) 
Heartbeat CPU 0 instructions: 79000001 cycles: 490335825 heartbeat IPC: 0.175038 cumulative IPC: 0.159317 (Simulation time: 0 hr 9 min 12 sec) 
Heartbeat CPU 0 instructions: 80000000 cycles: 496765426 heartbeat IPC: 0.15553 cumulative IPC: 0.159262 (Simulation time: 0 hr 9 min 19 sec) 
Heartbeat CPU 0 instructions: 81000000 cycles: 502639345 heartbeat IPC: 0.170244 cumulative IPC: 0.159407 (Simulation time: 0 hr 9 min 27 sec) 
Heartbeat CPU 0 instructions: 82000001 cycles: 509246569 heartbeat IPC: 0.15135 cumulative IPC: 0.159289 (Simulation time: 0 hr 9 min 34 sec) 
Heartbeat CPU 0 instructions: 83000003 cycles: 515736555 heartbeat IPC: 0.154084 cumulative IPC: 0.159215 (Simulation time: 0 hr 9 min 41 sec) 
Heartbeat CPU 0 instructions: 84000001 cycles: 522071082 heartbeat IPC: 0.157865 cumulative IPC: 0.159197 (Simulation time: 0 hr 9 min 48 sec) 
Heartbeat CPU 0 instructions: 85000000 cycles: 528222630 heartbeat IPC: 0.162561 cumulative IPC: 0.159241 (Simulation time: 0 hr 9 min 56 sec) 
Heartbeat CPU 0 instructions: 86000002 cycles: 534407981 heartbeat IPC: 0.161673 cumulative IPC: 0.159272 (Simulation time: 0 hr 10 min 3 sec) 
Heartbeat CPU 0 instructions: 87000003 cycles: 540662454 heartbeat IPC: 0.159886 cumulative IPC: 0.15928 (Simulation time: 0 hr 10 min 10 sec) 
Heartbeat CPU 0 instructions: 88000000 cycles: 547588735 heartbeat IPC: 0.144377 cumulative IPC: 0.15907 (Simulation time: 0 hr 10 min 18 sec) 
Heartbeat CPU 0 instructions: 89000002 cycles: 553830370 heartbeat IPC: 0.160215 cumulative IPC: 0.159084 (Simulation time: 0 hr 10 min 25 sec) 
Heartbeat CPU 0 instructions: 90000003 cycles: 560227168 heartbeat IPC: 0.156328 cumulative IPC: 0.159049 (Simulation time: 0 hr 10 min 33 sec) 
Heartbeat CPU 0 instructions: 91000002 cycles: 566527034 heartbeat IPC: 0.158733 cumulative IPC: 0.159045 (Simulation time: 0 hr 10 min 39 sec) 
Heartbeat CPU 0 instructions: 92000001 cycles: 572515424 heartbeat IPC: 0.16699 cumulative IPC: 0.159138 (Simulation time: 0 hr 10 min 47 sec) 
Heartbeat CPU 0 instructions: 93000002 cycles: 579280591 heartbeat IPC: 0.147816 cumulative IPC: 0.158991 (Simulation time: 0 hr 10 min 54 sec) 
Heartbeat CPU 0 instructions: 94000003 cycles: 585132052 heartbeat IPC: 0.170898 cumulative IPC: 0.159123 (Simulation time: 0 hr 11 min 2 sec) 
Heartbeat CPU 0 instructions: 95000002 cycles: 590873344 heartbeat IPC: 0.174177 cumulative IPC: 0.159285 (Simulation time: 0 hr 11 min 10 sec) 
Heartbeat CPU 0 instructions: 96000001 cycles: 597582649 heartbeat IPC: 0.149047 cumulative IPC: 0.159158 (Simulation time: 0 hr 11 min 17 sec) 
Heartbeat CPU 0 instructions: 97000000 cycles: 603515858 heartbeat IPC: 0.168543 cumulative IPC: 0.15926 (Simulation time: 0 hr 11 min 24 sec) 
Heartbeat CPU 0 instructions: 98000002 cycles: 609682575 heartbeat IPC: 0.162161 cumulative IPC: 0.159292 (Simulation time: 0 hr 11 min 31 sec) 
Heartbeat CPU 0 instructions: 99000000 cycles: 616313366 heartbeat IPC: 0.150811 cumulative IPC: 0.159191 (Simulation time: 0 hr 11 min 38 sec) 
Heartbeat CPU 0 instructions: 100000000 cycles: 622917616 heartbeat IPC: 0.151418 cumulative IPC: 0.159101 (Simulation time: 0 hr 11 min 45 sec) 
Heartbeat CPU 0 instructions: 101000000 cycles: 629240438 heartbeat IPC: 0.158157 cumulative IPC: 0.15909 (Simulation time: 0 hr 11 min 52 sec) 
Heartbeat CPU 0 instructions: 102000003 cycles: 635792278 heartbeat IPC: 0.152629 cumulative IPC: 0.159017 (Simulation time: 0 hr 11 min 59 sec) 
Heartbeat CPU 0 instructions: 103000001 cycles: 641782248 heartbeat IPC: 0.166945 cumulative IPC: 0.159098 (Simulation time: 0 hr 12 min 7 sec) 
Heartbeat CPU 0 instructions: 104000003 cycles: 648297728 heartbeat IPC: 0.153481 cumulative IPC: 0.159036 (Simulation time: 0 hr 12 min 14 sec) 
Heartbeat CPU 0 instructions: 105000001 cycles: 654437740 heartbeat IPC: 0.162866 cumulative IPC: 0.159076 (Simulation time: 0 hr 12 min 22 sec) 
Heartbeat CPU 0 instructions: 106000002 cycles: 661158755 heartbeat IPC: 0.148787 cumulative IPC: 0.158961 (Simulation time: 0 hr 12 min 29 sec) 
Heartbeat CPU 0 instructions: 107000000 cycles: 667401239 heartbeat IPC: 0.160192 cumulative IPC: 0.158974 (Simulation time: 0 hr 12 min 37 sec) 
Heartbeat CPU 0 instructions: 108000003 cycles: 673256423 heartbeat IPC: 0.170789 cumulative IPC: 0.159086 (Simulation time: 0 hr 12 min 44 sec) 
Heartbeat CPU 0 instructions: 109000002 cycles: 679802942 heartbeat IPC: 0.152753 cumulative IPC: 0.15902 (Simulation time: 0 hr 12 min 52 sec) 
Heartbeat CPU 0 instructions: 110000000 cycles: 686106452 heartbeat IPC: 0.158641 cumulative IPC: 0.159016 (Simulation time: 0 hr 12 min 59 sec) 
Heartbeat CPU 0 instructions: 111000000 cycles: 691891809 heartbeat IPC: 0.17285 cumulative IPC: 0.159142 (Simulation time: 0 hr 13 min 7 sec) 
Heartbeat CPU 0 instructions: 112000002 cycles: 697996540 heartbeat IPC: 0.163808 cumulative IPC: 0.159186 (Simulation time: 0 hr 13 min 15 sec) 
Heartbeat CPU 0 instructions: 113000002 cycles: 704459535 heartbeat IPC: 0.154727 cumulative IPC: 0.159142 (Simulation time: 0 hr 13 min 22 sec) 
Heartbeat CPU 0 instructions: 114000002 cycles: 710828420 heartbeat IPC: 0.157013 cumulative IPC: 0.159121 (Simulation time: 0 hr 13 min 29 sec) 
Heartbeat CPU 0 instructions: 115000001 cycles: 716800600 heartbeat IPC: 0.167443 cumulative IPC: 0.159196 (Simulation time: 0 hr 13 min 37 sec) 
Heartbeat CPU 0 instructions: 116000001 cycles: 722562517 heartbeat IPC: 0.173553 cumulative IPC: 0.159321 (Simulation time: 0 hr 13 min 44 sec) 
Heartbeat CPU 0 instructions: 117000002 cycles: 728946226 heartbeat IPC: 0.156649 cumulative IPC: 0.159295 (Simulation time: 0 hr 13 min 51 sec) 
Heartbeat CPU 0 instructions: 118000000 cycles: 734817221 heartbeat IPC: 0.170329 cumulative IPC: 0.159391 (Simulation time: 0 hr 13 min 59 sec) 
Heartbeat CPU 0 instructions: 119000001 cycles: 740580806 heartbeat IPC: 0.173503 cumulative IPC: 0.15951 (Simulation time: 0 hr 14 min 6 sec) 
Heartbeat CPU 0 instructions: 120000000 cycles: 747464420 heartbeat IPC: 0.145272 cumulative IPC: 0.159368 (Simulation time: 0 hr 14 min 13 sec) 
Heartbeat CPU 0 instructions: 121000000 cycles: 753833487 heartbeat IPC: 0.157009 cumulative IPC: 0.159346 (Simulation time: 0 hr 14 min 20 sec) 
Heartbeat CPU 0 instructions: 122000001 cycles: 759781849 heartbeat IPC: 0.168114 cumulative IPC: 0.159421 (Simulation time: 0 hr 14 min 28 sec) 
Heartbeat CPU 0 instructions: 123000003 cycles: 765995031 heartbeat IPC: 0.160948 cumulative IPC: 0.159434 (Simulation time: 0 hr 14 min 36 sec) 
Heartbeat CPU 0 instructions: 124000001 cycles: 772293155 heartbeat IPC: 0.158777 cumulative IPC: 0.159428 (Simulation time: 0 hr 14 min 43 sec) 
Heartbeat CPU 0 instructions: 125000001 cycles: 778641803 heartbeat IPC: 0.157514 cumulative IPC: 0.159411 (Simulation time: 0 hr 14 min 50 sec) 
Heartbeat CPU 0 instructions: 126000000 cycles: 784826288 heartbeat IPC: 0.161695 cumulative IPC: 0.159431 (Simulation time: 0 hr 14 min 57 sec) 
Heartbeat CPU 0 instructions: 127000003 cycles: 791123978 heartbeat IPC: 0.158789 cumulative IPC: 0.159425 (Simulation time: 0 hr 15 min 3 sec) 
Heartbeat CPU 0 instructions: 128000002 cycles: 797535860 heartbeat IPC: 0.15596 cumulative IPC: 0.159395 (Simulation time: 0 hr 15 min 11 sec) 
Heartbeat CPU 0 instructions: 129000000 cycles: 803670647 heartbeat IPC: 0.163005 cumulative IPC: 0.159425 (Simulation time: 0 hr 15 min 18 sec) 
Heartbeat CPU 0 instructions: 130000000 cycles: 809996769 heartbeat IPC: 0.158075 cumulative IPC: 0.159414 (Simulation time: 0 hr 15 min 25 sec) 
Heartbeat CPU 0 instructions: 131000001 cycles: 815682816 heartbeat IPC: 0.175869 cumulative IPC: 0.159537 (Simulation time: 0 hr 15 min 32 sec) 
Heartbeat CPU 0 instructions: 132000000 cycles: 822421823 heartbeat IPC: 0.14839 cumulative IPC: 0.159439 (Simulation time: 0 hr 15 min 39 sec) 
Heartbeat CPU 0 instructions: 133000002 cycles: 829220917 heartbeat IPC: 0.147079 cumulative IPC: 0.15933 (Simulation time: 0 hr 15 min 46 sec) 
Heartbeat CPU 0 instructions: 134000000 cycles: 836285245 heartbeat IPC: 0.141556 cumulative IPC: 0.159169 (Simulation time: 0 hr 15 min 53 sec) 
Heartbeat CPU 0 instructions: 135000001 cycles: 842618641 heartbeat IPC: 0.157893 cumulative IPC: 0.159159 (Simulation time: 0 hr 16 min 0 sec) 
Heartbeat CPU 0 instructions: 136000001 cycles: 849072262 heartbeat IPC: 0.154952 cumulative IPC: 0.159124 (Simulation time: 0 hr 16 min 7 sec) 
Heartbeat CPU 0 instructions: 137000001 cycles: 854987302 heartbeat IPC: 0.169061 cumulative IPC: 0.159198 (Simulation time: 0 hr 16 min 14 sec) 
Heartbeat CPU 0 instructions: 138000002 cycles: 861666822 heartbeat IPC: 0.149712 cumulative IPC: 0.159119 (Simulation time: 0 hr 16 min 21 sec) 
Heartbeat CPU 0 instructions: 139000002 cycles: 867672496 heartbeat IPC: 0.166509 cumulative IPC: 0.159174 (Simulation time: 0 hr 16 min 29 sec) 
Heartbeat CPU 0 instructions: 140000000 cycles: 873631933 heartbeat IPC: 0.167801 cumulative IPC: 0.159237 (Simulation time: 0 hr 16 min 36 sec) 
Heartbeat CPU 0 instructions: 141000000 cycles: 879855213 heartbeat IPC: 0.160687 cumulative IPC: 0.159248 (Simulation time: 0 hr 16 min 43 sec) 
Heartbeat CPU 0 instructions: 142000001 cycles: 886097412 heartbeat IPC: 0.1602 cumulative IPC: 0.159255 (Simulation time: 0 hr 16 min 50 sec) 
Heartbeat CPU 0 instructions: 143000000 cycles: 892625501 heartbeat IPC: 0.153184 cumulative IPC: 0.159208 (Simulation time: 0 hr 16 min 57 sec) 
Heartbeat CPU 0 instructions: 144000000 cycles: 898533568 heartbeat IPC: 0.16926 cumulative IPC: 0.159278 (Simulation time: 0 hr 17 min 5 sec) 
Heartbeat CPU 0 instructions: 145000000 cycles: 904948759 heartbeat IPC: 0.15588 cumulative IPC: 0.159252 (Simulation time: 0 hr 17 min 12 sec) 
Heartbeat CPU 0 instructions: 146000000 cycles: 911084666 heartbeat IPC: 0.162975 cumulative IPC: 0.159279 (Simulation time: 0 hr 17 min 19 sec) 
Heartbeat CPU 0 instructions: 147000000 cycles: 917049732 heartbeat IPC: 0.167643 cumulative IPC: 0.159337 (Simulation time: 0 hr 17 min 26 sec) 
Heartbeat CPU 0 instructions: 148000001 cycles: 923389659 heartbeat IPC: 0.157731 cumulative IPC: 0.159325 (Simulation time: 0 hr 17 min 33 sec) 
Heartbeat CPU 0 instructions: 149000000 cycles: 929999836 heartbeat IPC: 0.151282 cumulative IPC: 0.159265 (Simulation time: 0 hr 17 min 40 sec) 
Heartbeat CPU 0 instructions: 150000001 cycles: 936003870 heartbeat IPC: 0.166555 cumulative IPC: 0.159314 (Simulation time: 0 hr 17 min 48 sec) 
Heartbeat CPU 0 instructions: 151000001 cycles: 941767342 heartbeat IPC: 0.173507 cumulative IPC: 0.159407 (Simulation time: 0 hr 17 min 55 sec) 
Heartbeat CPU 0 instructions: 152000001 cycles: 947684485 heartbeat IPC: 0.169 cumulative IPC: 0.159471 (Simulation time: 0 hr 18 min 3 sec) 
Heartbeat CPU 0 instructions: 153000000 cycles: 953676986 heartbeat IPC: 0.166875 cumulative IPC: 0.15952 (Simulation time: 0 hr 18 min 10 sec) 
Heartbeat CPU 0 instructions: 154000000 cycles: 959549435 heartbeat IPC: 0.170287 cumulative IPC: 0.15959 (Simulation time: 0 hr 18 min 17 sec) 
Heartbeat CPU 0 instructions: 155000002 cycles: 965460524 heartbeat IPC: 0.169174 cumulative IPC: 0.159653 (Simulation time: 0 hr 18 min 25 sec) 
Heartbeat CPU 0 instructions: 156000003 cycles: 971230319 heartbeat IPC: 0.173317 cumulative IPC: 0.159739 (Simulation time: 0 hr 18 min 32 sec) 
Heartbeat CPU 0 instructions: 157000002 cycles: 978064792 heartbeat IPC: 0.146317 cumulative IPC: 0.159639 (Simulation time: 0 hr 18 min 39 sec) 
Heartbeat CPU 0 instructions: 158000002 cycles: 984635301 heartbeat IPC: 0.152195 cumulative IPC: 0.159586 (Simulation time: 0 hr 18 min 46 sec) 
Heartbeat CPU 0 instructions: 159000001 cycles: 990447929 heartbeat IPC: 0.172039 cumulative IPC: 0.159664 (Simulation time: 0 hr 18 min 53 sec) 
Heartbeat CPU 0 instructions: 160000000 cycles: 997013551 heartbeat IPC: 0.152308 cumulative IPC: 0.159613 (Simulation time: 0 hr 19 min 0 sec) 
Heartbeat CPU 0 instructions: 161000002 cycles: 1003464184 heartbeat IPC: 0.155024 cumulative IPC: 0.159581 (Simulation time: 0 hr 19 min 7 sec) 
Heartbeat CPU 0 instructions: 162000000 cycles: 1010181004 heartbeat IPC: 0.14888 cumulative IPC: 0.159506 (Simulation time: 0 hr 19 min 14 sec) 
Heartbeat CPU 0 instructions: 163000002 cycles: 1016992409 heartbeat IPC: 0.146813 cumulative IPC: 0.159416 (Simulation time: 0 hr 19 min 21 sec) 
Heartbeat CPU 0 instructions: 164000000 cycles: 1023024558 heartbeat IPC: 0.165778 cumulative IPC: 0.159456 (Simulation time: 0 hr 19 min 29 sec) 
Heartbeat CPU 0 instructions: 165000000 cycles: 1029294090 heartbeat IPC: 0.159502 cumulative IPC: 0.159456 (Simulation time: 0 hr 19 min 36 sec) 
Heartbeat CPU 0 instructions: 166000003 cycles: 1035207532 heartbeat IPC: 0.169107 cumulative IPC: 0.159514 (Simulation time: 0 hr 19 min 43 sec) 
Heartbeat CPU 0 instructions: 167000000 cycles: 1041171908 heartbeat IPC: 0.167662 cumulative IPC: 0.159564 (Simulation time: 0 hr 19 min 51 sec) 
Heartbeat CPU 0 instructions: 168000001 cycles: 1047061839 heartbeat IPC: 0.169781 cumulative IPC: 0.159624 (Simulation time: 0 hr 19 min 58 sec) 
Heartbeat CPU 0 instructions: 169000000 cycles: 1052887898 heartbeat IPC: 0.171642 cumulative IPC: 0.159695 (Simulation time: 0 hr 20 min 6 sec) 
Heartbeat CPU 0 instructions: 170000003 cycles: 1058774138 heartbeat IPC: 0.169888 cumulative IPC: 0.159755 (Simulation time: 0 hr 20 min 13 sec) 
Heartbeat CPU 0 instructions: 171000003 cycles: 1065278673 heartbeat IPC: 0.153739 cumulative IPC: 0.159716 (Simulation time: 0 hr 20 min 20 sec) 
Heartbeat CPU 0 instructions: 172000000 cycles: 1071434328 heartbeat IPC: 0.162452 cumulative IPC: 0.159732 (Simulation time: 0 hr 20 min 28 sec) 
Heartbeat CPU 0 instructions: 173000003 cycles: 1077673130 heartbeat IPC: 0.160288 cumulative IPC: 0.159736 (Simulation time: 0 hr 20 min 35 sec) 
Heartbeat CPU 0 instructions: 174000001 cycles: 1083519654 heartbeat IPC: 0.171041 cumulative IPC: 0.1598 (Simulation time: 0 hr 20 min 43 sec) 
Heartbeat CPU 0 instructions: 175000001 cycles: 1089947517 heartbeat IPC: 0.155573 cumulative IPC: 0.159774 (Simulation time: 0 hr 20 min 50 sec) 
Heartbeat CPU 0 instructions: 176000000 cycles: 1095758622 heartbeat IPC: 0.172084 cumulative IPC: 0.159843 (Simulation time: 0 hr 20 min 57 sec) 
Heartbeat CPU 0 instructions: 177000003 cycles: 1101973394 heartbeat IPC: 0.160907 cumulative IPC: 0.159849 (Simulation time: 0 hr 21 min 4 sec) 
Heartbeat CPU 0 instructions: 178000002 cycles: 1108561654 heartbeat IPC: 0.151785 cumulative IPC: 0.159799 (Simulation time: 0 hr 21 min 12 sec) 
Heartbeat CPU 0 instructions: 179000000 cycles: 1114529866 heartbeat IPC: 0.167554 cumulative IPC: 0.159842 (Simulation time: 0 hr 21 min 19 sec) 
Heartbeat CPU 0 instructions: 180000001 cycles: 1120987935 heartbeat IPC: 0.154845 cumulative IPC: 0.159812 (Simulation time: 0 hr 21 min 26 sec) 
Heartbeat CPU 0 instructions: 181000002 cycles: 1128003276 heartbeat IPC: 0.142545 cumulative IPC: 0.159699 (Simulation time: 0 hr 21 min 33 sec) 
Heartbeat CPU 0 instructions: 182000002 cycles: 1133844018 heartbeat IPC: 0.171211 cumulative IPC: 0.159761 (Simulation time: 0 hr 21 min 41 sec) 
Heartbeat CPU 0 instructions: 183000000 cycles: 1139779270 heartbeat IPC: 0.168485 cumulative IPC: 0.159809 (Simulation time: 0 hr 21 min 48 sec) 
Heartbeat CPU 0 instructions: 184000002 cycles: 1146046109 heartbeat IPC: 0.15957 cumulative IPC: 0.159808 (Simulation time: 0 hr 21 min 55 sec) 
Heartbeat CPU 0 instructions: 185000001 cycles: 1151972872 heartbeat IPC: 0.168726 cumulative IPC: 0.159856 (Simulation time: 0 hr 22 min 3 sec) 
Heartbeat CPU 0 instructions: 186000002 cycles: 1157925380 heartbeat IPC: 0.167997 cumulative IPC: 0.1599 (Simulation time: 0 hr 22 min 10 sec) 
Heartbeat CPU 0 instructions: 187000000 cycles: 1163958157 heartbeat IPC: 0.165761 cumulative IPC: 0.159932 (Simulation time: 0 hr 22 min 17 sec) 
Heartbeat CPU 0 instructions: 188000003 cycles: 1169751603 heartbeat IPC: 0.172609 cumulative IPC: 0.159998 (Simulation time: 0 hr 22 min 25 sec) 
Heartbeat CPU 0 instructions: 189000000 cycles: 1175787027 heartbeat IPC: 0.165688 cumulative IPC: 0.160029 (Simulation time: 0 hr 22 min 32 sec) 
Heartbeat CPU 0 instructions: 190000000 cycles: 1181766202 heartbeat IPC: 0.167247 cumulative IPC: 0.160067 (Simulation time: 0 hr 22 min 40 sec) 
Heartbeat CPU 0 instructions: 191000001 cycles: 1188186524 heartbeat IPC: 0.155756 cumulative IPC: 0.160043 (Simulation time: 0 hr 22 min 47 sec) 
Heartbeat CPU 0 instructions: 192000001 cycles: 1194258361 heartbeat IPC: 0.164695 cumulative IPC: 0.160067 (Simulation time: 0 hr 22 min 55 sec) 
Heartbeat CPU 0 instructions: 193000000 cycles: 1200550866 heartbeat IPC: 0.158919 cumulative IPC: 0.160061 (Simulation time: 0 hr 23 min 2 sec) 
Heartbeat CPU 0 instructions: 194000000 cycles: 1206741390 heartbeat IPC: 0.161537 cumulative IPC: 0.160069 (Simulation time: 0 hr 23 min 10 sec) 
Heartbeat CPU 0 instructions: 195000000 cycles: 1212778388 heartbeat IPC: 0.165645 cumulative IPC: 0.160098 (Simulation time: 0 hr 23 min 17 sec) 
Heartbeat CPU 0 instructions: 196000002 cycles: 1218733839 heartbeat IPC: 0.167914 cumulative IPC: 0.160138 (Simulation time: 0 hr 23 min 25 sec) 
Heartbeat CPU 0 instructions: 197000001 cycles: 1224623451 heartbeat IPC: 0.16979 cumulative IPC: 0.160187 (Simulation time: 0 hr 23 min 32 sec) 
Heartbeat CPU 0 instructions: 198000000 cycles: 1230956242 heartbeat IPC: 0.157908 cumulative IPC: 0.160175 (Simulation time: 0 hr 23 min 40 sec) 
Heartbeat CPU 0 instructions: 199000000 cycles: 1237340938 heartbeat IPC: 0.156625 cumulative IPC: 0.160156 (Simulation time: 0 hr 23 min 47 sec) 
Heartbeat CPU 0 instructions: 200000001 cycles: 1243861398 heartbeat IPC: 0.153364 cumulative IPC: 0.160118 (Simulation time: 0 hr 23 min 54 sec) 
Heartbeat CPU 0 instructions: 201000003 cycles: 1250296038 heartbeat IPC: 0.155409 cumulative IPC: 0.160093 (Simulation time: 0 hr 24 min 1 sec) 
Heartbeat CPU 0 instructions: 202000003 cycles: 1256199669 heartbeat IPC: 0.169387 cumulative IPC: 0.160139 (Simulation time: 0 hr 24 min 9 sec) 
Heartbeat CPU 0 instructions: 203000000 cycles: 1262069424 heartbeat IPC: 0.170364 cumulative IPC: 0.160188 (Simulation time: 0 hr 24 min 16 sec) 
Heartbeat CPU 0 instructions: 204000000 cycles: 1268139508 heartbeat IPC: 0.164742 cumulative IPC: 0.160211 (Simulation time: 0 hr 24 min 24 sec) 
Heartbeat CPU 0 instructions: 205000002 cycles: 1275087081 heartbeat IPC: 0.143935 cumulative IPC: 0.160118 (Simulation time: 0 hr 24 min 30 sec) 
Heartbeat CPU 0 instructions: 206000000 cycles: 1281321306 heartbeat IPC: 0.160405 cumulative IPC: 0.16012 (Simulation time: 0 hr 24 min 38 sec) 
Heartbeat CPU 0 instructions: 207000001 cycles: 1287303384 heartbeat IPC: 0.167166 cumulative IPC: 0.160154 (Simulation time: 0 hr 24 min 45 sec) 
Heartbeat CPU 0 instructions: 208000001 cycles: 1293321149 heartbeat IPC: 0.166175 cumulative IPC: 0.160183 (Simulation time: 0 hr 24 min 53 sec) 
Heartbeat CPU 0 instructions: 209000000 cycles: 1299517215 heartbeat IPC: 0.161393 cumulative IPC: 0.160189 (Simulation time: 0 hr 25 min 0 sec) 
Heartbeat CPU 0 instructions: 210000002 cycles: 1306121101 heartbeat IPC: 0.151426 cumulative IPC: 0.160143 (Simulation time: 0 hr 25 min 7 sec) 
Heartbeat CPU 0 instructions: 211000003 cycles: 1312156798 heartbeat IPC: 0.165681 cumulative IPC: 0.16017 (Simulation time: 0 hr 25 min 13 sec) 
Heartbeat CPU 0 instructions: 212000000 cycles: 1319284588 heartbeat IPC: 0.140296 cumulative IPC: 0.160057 (Simulation time: 0 hr 25 min 20 sec) 
Heartbeat CPU 0 instructions: 213000000 cycles: 1325398129 heartbeat IPC: 0.163571 cumulative IPC: 0.160074 (Simulation time: 0 hr 25 min 29 sec) 
Heartbeat CPU 0 instructions: 214000003 cycles: 1331648208 heartbeat IPC: 0.159998 cumulative IPC: 0.160074 (Simulation time: 0 hr 25 min 36 sec) 
Heartbeat CPU 0 instructions: 215000001 cycles: 1337921032 heartbeat IPC: 0.159418 cumulative IPC: 0.160071 (Simulation time: 0 hr 25 min 43 sec) 
Heartbeat CPU 0 instructions: 216000001 cycles: 1343849404 heartbeat IPC: 0.16868 cumulative IPC: 0.160111 (Simulation time: 0 hr 25 min 50 sec) 
Heartbeat CPU 0 instructions: 217000000 cycles: 1349742192 heartbeat IPC: 0.169699 cumulative IPC: 0.160154 (Simulation time: 0 hr 25 min 58 sec) 
Heartbeat CPU 0 instructions: 218000002 cycles: 1356163083 heartbeat IPC: 0.155742 cumulative IPC: 0.160132 (Simulation time: 0 hr 26 min 5 sec) 
Heartbeat CPU 0 instructions: 219000001 cycles: 1362046282 heartbeat IPC: 0.169975 cumulative IPC: 0.160177 (Simulation time: 0 hr 26 min 13 sec) 
Heartbeat CPU 0 instructions: 220000000 cycles: 1368247541 heartbeat IPC: 0.161257 cumulative IPC: 0.160182 (Simulation time: 0 hr 26 min 20 sec) 
Heartbeat CPU 0 instructions: 221000000 cycles: 1374424843 heartbeat IPC: 0.161883 cumulative IPC: 0.16019 (Simulation time: 0 hr 26 min 28 sec) 
Heartbeat CPU 0 instructions: 222000001 cycles: 1380863141 heartbeat IPC: 0.155321 cumulative IPC: 0.160166 (Simulation time: 0 hr 26 min 35 sec) 
Heartbeat CPU 0 instructions: 223000000 cycles: 1387857661 heartbeat IPC: 0.142969 cumulative IPC: 0.160076 (Simulation time: 0 hr 26 min 42 sec) 
Heartbeat CPU 0 instructions: 224000002 cycles: 1393807962 heartbeat IPC: 0.168059 cumulative IPC: 0.160111 (Simulation time: 0 hr 26 min 51 sec) 
Heartbeat CPU 0 instructions: 225000001 cycles: 1399725822 heartbeat IPC: 0.16898 cumulative IPC: 0.16015 (Simulation time: 0 hr 26 min 59 sec) 
Heartbeat CPU 0 instructions: 226000002 cycles: 1405889909 heartbeat IPC: 0.16223 cumulative IPC: 0.16016 (Simulation time: 0 hr 27 min 7 sec) 
Heartbeat CPU 0 instructions: 227000000 cycles: 1411985769 heartbeat IPC: 0.164045 cumulative IPC: 0.160177 (Simulation time: 0 hr 27 min 15 sec) 
Heartbeat CPU 0 instructions: 228000000 cycles: 1417995799 heartbeat IPC: 0.166389 cumulative IPC: 0.160205 (Simulation time: 0 hr 27 min 23 sec) 
Heartbeat CPU 0 instructions: 229000001 cycles: 1424143982 heartbeat IPC: 0.16265 cumulative IPC: 0.160216 (Simulation time: 0 hr 27 min 31 sec) 
Heartbeat CPU 0 instructions: 230000002 cycles: 1430226908 heartbeat IPC: 0.164395 cumulative IPC: 0.160234 (Simulation time: 0 hr 27 min 39 sec) 
Heartbeat CPU 0 instructions: 231000000 cycles: 1436266950 heartbeat IPC: 0.165561 cumulative IPC: 0.160258 (Simulation time: 0 hr 27 min 47 sec) 
Heartbeat CPU 0 instructions: 232000001 cycles: 1442603395 heartbeat IPC: 0.157817 cumulative IPC: 0.160247 (Simulation time: 0 hr 27 min 55 sec) 
Heartbeat CPU 0 instructions: 233000003 cycles: 1449303804 heartbeat IPC: 0.149245 cumulative IPC: 0.160194 (Simulation time: 0 hr 28 min 3 sec) 
Heartbeat CPU 0 instructions: 234000000 cycles: 1455493698 heartbeat IPC: 0.161553 cumulative IPC: 0.1602 (Simulation time: 0 hr 28 min 10 sec) 
Heartbeat CPU 0 instructions: 235000000 cycles: 1461619520 heartbeat IPC: 0.163243 cumulative IPC: 0.160213 (Simulation time: 0 hr 28 min 18 sec) 
Heartbeat CPU 0 instructions: 236000000 cycles: 1468742994 heartbeat IPC: 0.140381 cumulative IPC: 0.160113 (Simulation time: 0 hr 28 min 25 sec) 
Heartbeat CPU 0 instructions: 237000003 cycles: 1474761928 heartbeat IPC: 0.166143 cumulative IPC: 0.160138 (Simulation time: 0 hr 28 min 33 sec) 
Heartbeat CPU 0 instructions: 238000003 cycles: 1480971694 heartbeat IPC: 0.161037 cumulative IPC: 0.160142 (Simulation time: 0 hr 28 min 41 sec) 
Heartbeat CPU 0 instructions: 239000003 cycles: 1487069463 heartbeat IPC: 0.163994 cumulative IPC: 0.160159 (Simulation time: 0 hr 28 min 49 sec) 
Heartbeat CPU 0 instructions: 240000001 cycles: 1493421230 heartbeat IPC: 0.157436 cumulative IPC: 0.160147 (Simulation time: 0 hr 28 min 56 sec) 
Heartbeat CPU 0 instructions: 241000002 cycles: 1499584730 heartbeat IPC: 0.162246 cumulative IPC: 0.160156 (Simulation time: 0 hr 29 min 4 sec) 
Heartbeat CPU 0 instructions: 242000000 cycles: 1505581622 heartbeat IPC: 0.166753 cumulative IPC: 0.160183 (Simulation time: 0 hr 29 min 12 sec) 
Heartbeat CPU 0 instructions: 243000001 cycles: 1511540987 heartbeat IPC: 0.167803 cumulative IPC: 0.160214 (Simulation time: 0 hr 29 min 20 sec) 
Heartbeat CPU 0 instructions: 244000003 cycles: 1517689353 heartbeat IPC: 0.162645 cumulative IPC: 0.160224 (Simulation time: 0 hr 29 min 28 sec) 
Heartbeat CPU 0 instructions: 245000002 cycles: 1524214969 heartbeat IPC: 0.153242 cumulative IPC: 0.160193 (Simulation time: 0 hr 29 min 35 sec) 
Heartbeat CPU 0 instructions: 246000001 cycles: 1530533995 heartbeat IPC: 0.158252 cumulative IPC: 0.160185 (Simulation time: 0 hr 29 min 43 sec) 
Heartbeat CPU 0 instructions: 247000002 cycles: 1536722846 heartbeat IPC: 0.161581 cumulative IPC: 0.160191 (Simulation time: 0 hr 29 min 51 sec) 
Heartbeat CPU 0 instructions: 248000001 cycles: 1543357641 heartbeat IPC: 0.15072 cumulative IPC: 0.160149 (Simulation time: 0 hr 29 min 58 sec) 
Heartbeat CPU 0 instructions: 249000001 cycles: 1550134798 heartbeat IPC: 0.147555 cumulative IPC: 0.160091 (Simulation time: 0 hr 30 min 6 sec) 
Heartbeat CPU 0 instructions: 250000001 cycles: 1556652269 heartbeat IPC: 0.153434 cumulative IPC: 0.160063 (Simulation time: 0 hr 30 min 14 sec) 
Heartbeat CPU 0 instructions: 251000001 cycles: 1562663950 heartbeat IPC: 0.166343 cumulative IPC: 0.160088 (Simulation time: 0 hr 30 min 22 sec) 
Heartbeat CPU 0 instructions: 252000002 cycles: 1568855080 heartbeat IPC: 0.161522 cumulative IPC: 0.160093 (Simulation time: 0 hr 30 min 30 sec) 
Heartbeat CPU 0 instructions: 253000000 cycles: 1575078480 heartbeat IPC: 0.160684 cumulative IPC: 0.160096 (Simulation time: 0 hr 30 min 38 sec) 
Heartbeat CPU 0 instructions: 254000003 cycles: 1581311919 heartbeat IPC: 0.160426 cumulative IPC: 0.160097 (Simulation time: 0 hr 30 min 46 sec) 
Heartbeat CPU 0 instructions: 255000000 cycles: 1587351030 heartbeat IPC: 0.165587 cumulative IPC: 0.160119 (Simulation time: 0 hr 30 min 55 sec) 
Heartbeat CPU 0 instructions: 256000000 cycles: 1593590803 heartbeat IPC: 0.160262 cumulative IPC: 0.160119 (Simulation time: 0 hr 31 min 2 sec) 
Heartbeat CPU 0 instructions: 257000001 cycles: 1599698662 heartbeat IPC: 0.163724 cumulative IPC: 0.160134 (Simulation time: 0 hr 31 min 10 sec) 
Heartbeat CPU 0 instructions: 258000000 cycles: 1606494472 heartbeat IPC: 0.147149 cumulative IPC: 0.160077 (Simulation time: 0 hr 31 min 18 sec) 
Heartbeat CPU 0 instructions: 259000002 cycles: 1612721148 heartbeat IPC: 0.1606 cumulative IPC: 0.160079 (Simulation time: 0 hr 31 min 26 sec) 
Heartbeat CPU 0 instructions: 260000002 cycles: 1618839775 heartbeat IPC: 0.163435 cumulative IPC: 0.160092 (Simulation time: 0 hr 31 min 34 sec) 
Finished CPU 0 instructions: 250000001 cycles: 1561601712 cumulative IPC: 0.160092 (Simulation time: 0 hr 31 min 34 sec) 

ChampSim completed all CPUs

Region of Interest Statistics

CPU 0 cumulative IPC: 0.160092 instructions: 250000001 cycles: 1561601712
L1D TOTAL     ACCESS:   96591887  HIT:   57652478  MISS:   38939409
L1D LOAD      ACCESS:   81018983  HIT:   42624260  MISS:   38394723
L1D RFO       ACCESS:   15572904  HIT:   15028218  MISS:     544686
L1D PREFETCH  ACCESS:          0  HIT:          0  MISS:          0
L1D WRITEBACK ACCESS:          0  HIT:          0  MISS:          0
L1D PREFETCH  REQUESTED:          0  ISSUED:          0  USEFUL:          0  USELESS:          0
L1D AVERAGE MISS LATENCY: 155.63 cycles
L1I TOTAL     ACCESS:   66690239  HIT:   66690239  MISS:          0
L1I LOAD      ACCESS:   66690239  HIT:   66690239  MISS:          0
L1I RFO       ACCESS:          0  HIT:          0  MISS:          0
L1I PREFETCH  ACCESS:          0  HIT:          0  MISS:          0
L1I WRITEBACK ACCESS:          0  HIT:          0  MISS:          0
L1I PREFETCH  REQUESTED:          0  ISSUED:          0  USEFUL:          0  USELESS:          0
L1I AVERAGE MISS LATENCY: -nan cycles
L2C TOTAL     ACCESS:   39644287  HIT:     706788  MISS:   38937499
L2C LOAD      ACCESS:   38394721  HIT:       2345  MISS:   38392376
L2C RFO       ACCESS:     544685  HIT:        882  MISS:     543803
L2C PREFETCH  ACCESS:          0  HIT:          0  MISS:          0
L2C WRITEBACK ACCESS:     704881  HIT:     703561  MISS:       1320
L2C PREFETCH  REQUESTED:          0  ISSUED:          0  USEFUL:          0  USELESS:          0
L2C AVERAGE MISS LATENCY: 141.441 cycles
LLC TOTAL     ACCESS:   39639487  HIT:    4042489  MISS:   35596998
LLC LOAD      ACCESS:   38392376  HIT:    3340319  MISS:   35052057
LLC RFO       ACCESS:     543803  HIT:        175  MISS:     543628
LLC PREFETCH  ACCESS:          0  HIT:          0  MISS:          0
LLC WRITEBACK ACCESS:     703308  HIT:     701995  MISS:       1313
LLC PREFETCH  REQUESTED:          0  ISSUED:          0  USEFUL:          0  USELESS:          0
LLC AVERAGE MISS LATENCY: 120.794 cycles
Major fault: 0 Minor fault: 17425

DRAM Statistics
 CHANNEL 0
 RQ ROW_BUFFER_HIT:   16772862  ROW_BUFFER_MISS:    1087725
 DBUS_CONGESTED:   12112084
 WQ ROW_BUFFER_HIT:     296526  ROW_BUFFER_MISS:      54252  FULL:          0

 CHANNEL 1
 RQ ROW_BUFFER_HIT:   16642668  ROW_BUFFER_MISS:    1092417
 DBUS_CONGESTED:   12112084
 WQ ROW_BUFFER_HIT:     300478  ROW_BUFFER_MISS:      51787  FULL:          0

 AVG_CONGESTED_CYCLE: 17

CPU 0 Branch Prediction Accuracy: 98.7774% MPKI: 2.24078 Average ROB Occupancy at Mispredict: 77.3925

Branch types
NOT_BRANCH: 204179602 81.6718%
BRANCH_DIRECT_JUMP: 10500259 4.2001%
BRANCH_INDIRECT: 0 0%
BRANCH_CONDITIONAL: 35316180 14.1265%
BRANCH_DIRECT_CALL: 1980 0.000792%
BRANCH_INDIRECT_CALL: 0 0%
BRANCH_RETURN: 1980 0.000792%
BRANCH_OTHER: 0 0%

