
*** ChampSim Multicore Out-of-Order Simulator ***

Warmup Instructions: 1000000
Prefetch Warmup Instructions: 10000000
Simulation Instructions: 250000000
Stat Printing Period: 1000000
Number of CPUs: 1
LLC sets: 2048
LLC ways: 16
Off-chip DRAM Size: 32768 MB Channels: 2 Width: 64-bit Data Rate: 1024 MT/s

CPU 0 runs /scratch/cluster/cmolder/ML-DPC/ChampSimTraces/spec17/605.mcf-s3.trace.xz
Read seed: 273
Heartbeat CPU 0 instructions: 1000000 cycles: 713393 heartbeat IPC: 1.40175 cumulative IPC: 1.40175 (Simulation time: 0 hr 0 min 4 sec) 

Warmup complete CPU 0 instructions: 1000001 cycles: 713394 (Simulation time: 0 hr 0 min 4 sec) 

Heartbeat CPU 0 instructions: 2000002 cycles: 6947993 heartbeat IPC: 0.160396 cumulative IPC: 0.160395 (Simulation time: 0 hr 0 min 10 sec) 
Heartbeat CPU 0 instructions: 3000000 cycles: 13268484 heartbeat IPC: 0.158215 cumulative IPC: 0.159298 (Simulation time: 0 hr 0 min 16 sec) 
Heartbeat CPU 0 instructions: 4000001 cycles: 19526317 heartbeat IPC: 0.1598 cumulative IPC: 0.159465 (Simulation time: 0 hr 0 min 22 sec) 
Heartbeat CPU 0 instructions: 5000000 cycles: 25971615 heartbeat IPC: 0.155152 cumulative IPC: 0.158364 (Simulation time: 0 hr 0 min 28 sec) 
Heartbeat CPU 0 instructions: 6000003 cycles: 32391522 heartbeat IPC: 0.155766 cumulative IPC: 0.157838 (Simulation time: 0 hr 0 min 34 sec) 
Heartbeat CPU 0 instructions: 7000001 cycles: 38713759 heartbeat IPC: 0.158172 cumulative IPC: 0.157893 (Simulation time: 0 hr 0 min 40 sec) 
Heartbeat CPU 0 instructions: 8000003 cycles: 45061094 heartbeat IPC: 0.157547 cumulative IPC: 0.157844 (Simulation time: 0 hr 0 min 46 sec) 
Heartbeat CPU 0 instructions: 9000002 cycles: 51358483 heartbeat IPC: 0.158796 cumulative IPC: 0.157962 (Simulation time: 0 hr 0 min 52 sec) 
Heartbeat CPU 0 instructions: 10000003 cycles: 57449931 heartbeat IPC: 0.164165 cumulative IPC: 0.158628 (Simulation time: 0 hr 0 min 58 sec) 

Warmup complete CPU 0 instructions: 10000003 cycles: 57449931 (Simulation time: 0 hr 0 min 58 sec) 

Heartbeat CPU 0 instructions: 11000000 cycles: 62335890 heartbeat IPC: 0.204667 cumulative IPC: 0.204667 (Simulation time: 0 hr 1 min 3 sec) 
Heartbeat CPU 0 instructions: 12000001 cycles: 67274862 heartbeat IPC: 0.202471 cumulative IPC: 0.203564 (Simulation time: 0 hr 1 min 9 sec) 
Heartbeat CPU 0 instructions: 13000003 cycles: 72155086 heartbeat IPC: 0.204909 cumulative IPC: 0.20401 (Simulation time: 0 hr 1 min 14 sec) 
Heartbeat CPU 0 instructions: 14000000 cycles: 77102198 heartbeat IPC: 0.202138 cumulative IPC: 0.203539 (Simulation time: 0 hr 1 min 20 sec) 
Heartbeat CPU 0 instructions: 15000002 cycles: 81944855 heartbeat IPC: 0.206499 cumulative IPC: 0.204124 (Simulation time: 0 hr 1 min 26 sec) 
Heartbeat CPU 0 instructions: 16000000 cycles: 86744915 heartbeat IPC: 0.20833 cumulative IPC: 0.204813 (Simulation time: 0 hr 1 min 31 sec) 
Heartbeat CPU 0 instructions: 17000000 cycles: 91700383 heartbeat IPC: 0.201797 cumulative IPC: 0.204377 (Simulation time: 0 hr 1 min 37 sec) 
Heartbeat CPU 0 instructions: 18000001 cycles: 96511859 heartbeat IPC: 0.207837 cumulative IPC: 0.204803 (Simulation time: 0 hr 1 min 42 sec) 
Heartbeat CPU 0 instructions: 19000001 cycles: 101334342 heartbeat IPC: 0.207362 cumulative IPC: 0.205084 (Simulation time: 0 hr 1 min 47 sec) 
Heartbeat CPU 0 instructions: 20000001 cycles: 106108348 heartbeat IPC: 0.209468 cumulative IPC: 0.205514 (Simulation time: 0 hr 1 min 53 sec) 
Heartbeat CPU 0 instructions: 21000000 cycles: 110894875 heartbeat IPC: 0.20892 cumulative IPC: 0.205819 (Simulation time: 0 hr 1 min 58 sec) 
Heartbeat CPU 0 instructions: 22000000 cycles: 115852982 heartbeat IPC: 0.20169 cumulative IPC: 0.205469 (Simulation time: 0 hr 2 min 3 sec) 
Heartbeat CPU 0 instructions: 23000002 cycles: 120739518 heartbeat IPC: 0.204644 cumulative IPC: 0.205405 (Simulation time: 0 hr 2 min 8 sec) 
Heartbeat CPU 0 instructions: 24000001 cycles: 125645208 heartbeat IPC: 0.203845 cumulative IPC: 0.205293 (Simulation time: 0 hr 2 min 14 sec) 
Heartbeat CPU 0 instructions: 25000003 cycles: 130630765 heartbeat IPC: 0.20058 cumulative IPC: 0.204972 (Simulation time: 0 hr 2 min 19 sec) 
Heartbeat CPU 0 instructions: 26000003 cycles: 135432249 heartbeat IPC: 0.208269 cumulative IPC: 0.205175 (Simulation time: 0 hr 2 min 24 sec) 
Heartbeat CPU 0 instructions: 27000000 cycles: 140151382 heartbeat IPC: 0.211903 cumulative IPC: 0.205559 (Simulation time: 0 hr 2 min 29 sec) 
Heartbeat CPU 0 instructions: 28000003 cycles: 145014858 heartbeat IPC: 0.205615 cumulative IPC: 0.205562 (Simulation time: 0 hr 2 min 35 sec) 
Heartbeat CPU 0 instructions: 29000001 cycles: 149935827 heartbeat IPC: 0.203212 cumulative IPC: 0.205437 (Simulation time: 0 hr 2 min 40 sec) 
Heartbeat CPU 0 instructions: 30000000 cycles: 154940633 heartbeat IPC: 0.199808 cumulative IPC: 0.205148 (Simulation time: 0 hr 2 min 45 sec) 
Heartbeat CPU 0 instructions: 31000003 cycles: 159806616 heartbeat IPC: 0.205509 cumulative IPC: 0.205165 (Simulation time: 0 hr 2 min 50 sec) 
Heartbeat CPU 0 instructions: 32000002 cycles: 164746595 heartbeat IPC: 0.20243 cumulative IPC: 0.205039 (Simulation time: 0 hr 2 min 56 sec) 
Heartbeat CPU 0 instructions: 33000000 cycles: 169756941 heartbeat IPC: 0.199587 cumulative IPC: 0.204796 (Simulation time: 0 hr 3 min 1 sec) 
Heartbeat CPU 0 instructions: 34000001 cycles: 174721885 heartbeat IPC: 0.201412 cumulative IPC: 0.204652 (Simulation time: 0 hr 3 min 6 sec) 
Heartbeat CPU 0 instructions: 35000001 cycles: 179654623 heartbeat IPC: 0.202727 cumulative IPC: 0.204575 (Simulation time: 0 hr 3 min 11 sec) 
Heartbeat CPU 0 instructions: 36000002 cycles: 184594448 heartbeat IPC: 0.202437 cumulative IPC: 0.204492 (Simulation time: 0 hr 3 min 17 sec) 
Heartbeat CPU 0 instructions: 37000002 cycles: 189560761 heartbeat IPC: 0.201357 cumulative IPC: 0.204374 (Simulation time: 0 hr 3 min 22 sec) 
Heartbeat CPU 0 instructions: 38000003 cycles: 194405114 heartbeat IPC: 0.206426 cumulative IPC: 0.204446 (Simulation time: 0 hr 3 min 28 sec) 
Heartbeat CPU 0 instructions: 39000000 cycles: 199374365 heartbeat IPC: 0.201237 cumulative IPC: 0.204334 (Simulation time: 0 hr 3 min 33 sec) 
Heartbeat CPU 0 instructions: 40000000 cycles: 204408684 heartbeat IPC: 0.198637 cumulative IPC: 0.204139 (Simulation time: 0 hr 3 min 38 sec) 
Heartbeat CPU 0 instructions: 41000003 cycles: 209224349 heartbeat IPC: 0.207656 cumulative IPC: 0.20425 (Simulation time: 0 hr 3 min 44 sec) 
Heartbeat CPU 0 instructions: 42000000 cycles: 214162209 heartbeat IPC: 0.202516 cumulative IPC: 0.204196 (Simulation time: 0 hr 3 min 49 sec) 
Heartbeat CPU 0 instructions: 43000003 cycles: 219170769 heartbeat IPC: 0.199659 cumulative IPC: 0.204055 (Simulation time: 0 hr 3 min 55 sec) 
Heartbeat CPU 0 instructions: 44000000 cycles: 224054620 heartbeat IPC: 0.204756 cumulative IPC: 0.204076 (Simulation time: 0 hr 4 min 0 sec) 
Heartbeat CPU 0 instructions: 45000001 cycles: 229048445 heartbeat IPC: 0.200248 cumulative IPC: 0.203964 (Simulation time: 0 hr 4 min 6 sec) 
Heartbeat CPU 0 instructions: 46000001 cycles: 234203264 heartbeat IPC: 0.193993 cumulative IPC: 0.203674 (Simulation time: 0 hr 4 min 11 sec) 
Heartbeat CPU 0 instructions: 47000002 cycles: 239162043 heartbeat IPC: 0.201663 cumulative IPC: 0.203619 (Simulation time: 0 hr 4 min 16 sec) 
Heartbeat CPU 0 instructions: 48000000 cycles: 244201412 heartbeat IPC: 0.198437 cumulative IPC: 0.203479 (Simulation time: 0 hr 4 min 22 sec) 
Heartbeat CPU 0 instructions: 49000000 cycles: 249145191 heartbeat IPC: 0.202274 cumulative IPC: 0.203448 (Simulation time: 0 hr 4 min 27 sec) 
Heartbeat CPU 0 instructions: 50000000 cycles: 254107178 heartbeat IPC: 0.201532 cumulative IPC: 0.2034 (Simulation time: 0 hr 4 min 32 sec) 
Heartbeat CPU 0 instructions: 51000001 cycles: 259102087 heartbeat IPC: 0.200204 cumulative IPC: 0.20332 (Simulation time: 0 hr 4 min 38 sec) 
Heartbeat CPU 0 instructions: 52000003 cycles: 264022668 heartbeat IPC: 0.203228 cumulative IPC: 0.203318 (Simulation time: 0 hr 4 min 43 sec) 
Heartbeat CPU 0 instructions: 53000001 cycles: 268957982 heartbeat IPC: 0.202621 cumulative IPC: 0.203302 (Simulation time: 0 hr 4 min 48 sec) 
Heartbeat CPU 0 instructions: 54000003 cycles: 273837136 heartbeat IPC: 0.204954 cumulative IPC: 0.203339 (Simulation time: 0 hr 4 min 54 sec) 
Heartbeat CPU 0 instructions: 55000000 cycles: 278757245 heartbeat IPC: 0.203247 cumulative IPC: 0.203337 (Simulation time: 0 hr 4 min 59 sec) 
Heartbeat CPU 0 instructions: 56000001 cycles: 283804078 heartbeat IPC: 0.198144 cumulative IPC: 0.203221 (Simulation time: 0 hr 5 min 5 sec) 
Heartbeat CPU 0 instructions: 57000003 cycles: 288755130 heartbeat IPC: 0.201978 cumulative IPC: 0.203195 (Simulation time: 0 hr 5 min 10 sec) 
Heartbeat CPU 0 instructions: 58000001 cycles: 293756458 heartbeat IPC: 0.199946 cumulative IPC: 0.203126 (Simulation time: 0 hr 5 min 15 sec) 
Heartbeat CPU 0 instructions: 59000000 cycles: 298806730 heartbeat IPC: 0.198009 cumulative IPC: 0.203019 (Simulation time: 0 hr 5 min 21 sec) 
Heartbeat CPU 0 instructions: 60000001 cycles: 303656079 heartbeat IPC: 0.206213 cumulative IPC: 0.203082 (Simulation time: 0 hr 5 min 26 sec) 
Heartbeat CPU 0 instructions: 61000002 cycles: 308602506 heartbeat IPC: 0.202166 cumulative IPC: 0.203064 (Simulation time: 0 hr 5 min 32 sec) 
Heartbeat CPU 0 instructions: 62000001 cycles: 313440614 heartbeat IPC: 0.206692 cumulative IPC: 0.203132 (Simulation time: 0 hr 5 min 37 sec) 
Heartbeat CPU 0 instructions: 63000001 cycles: 318649256 heartbeat IPC: 0.191989 cumulative IPC: 0.20291 (Simulation time: 0 hr 5 min 42 sec) 
Heartbeat CPU 0 instructions: 64000001 cycles: 323511343 heartbeat IPC: 0.205673 cumulative IPC: 0.202961 (Simulation time: 0 hr 5 min 48 sec) 
Heartbeat CPU 0 instructions: 65000000 cycles: 328555600 heartbeat IPC: 0.198245 cumulative IPC: 0.202873 (Simulation time: 0 hr 5 min 53 sec) 
Heartbeat CPU 0 instructions: 66000000 cycles: 333414527 heartbeat IPC: 0.205807 cumulative IPC: 0.202925 (Simulation time: 0 hr 5 min 59 sec) 
Heartbeat CPU 0 instructions: 67000002 cycles: 338357355 heartbeat IPC: 0.202314 cumulative IPC: 0.202914 (Simulation time: 0 hr 6 min 4 sec) 
Heartbeat CPU 0 instructions: 68000002 cycles: 343324369 heartbeat IPC: 0.201328 cumulative IPC: 0.202886 (Simulation time: 0 hr 6 min 10 sec) 
Heartbeat CPU 0 instructions: 69000001 cycles: 348238070 heartbeat IPC: 0.203512 cumulative IPC: 0.202897 (Simulation time: 0 hr 6 min 15 sec) 
Heartbeat CPU 0 instructions: 70000003 cycles: 353129005 heartbeat IPC: 0.20446 cumulative IPC: 0.202923 (Simulation time: 0 hr 6 min 21 sec) 
Heartbeat CPU 0 instructions: 71000001 cycles: 358097629 heartbeat IPC: 0.201263 cumulative IPC: 0.202895 (Simulation time: 0 hr 6 min 26 sec) 
Heartbeat CPU 0 instructions: 72000002 cycles: 363088255 heartbeat IPC: 0.200376 cumulative IPC: 0.202854 (Simulation time: 0 hr 6 min 31 sec) 
Heartbeat CPU 0 instructions: 73000000 cycles: 367981218 heartbeat IPC: 0.204375 cumulative IPC: 0.202878 (Simulation time: 0 hr 6 min 37 sec) 
Heartbeat CPU 0 instructions: 74000000 cycles: 372972629 heartbeat IPC: 0.200344 cumulative IPC: 0.202838 (Simulation time: 0 hr 6 min 43 sec) 
Heartbeat CPU 0 instructions: 75000002 cycles: 378020278 heartbeat IPC: 0.198112 cumulative IPC: 0.202764 (Simulation time: 0 hr 6 min 48 sec) 
Heartbeat CPU 0 instructions: 76000000 cycles: 382981490 heartbeat IPC: 0.201563 cumulative IPC: 0.202745 (Simulation time: 0 hr 6 min 54 sec) 
Heartbeat CPU 0 instructions: 77000000 cycles: 387860660 heartbeat IPC: 0.204953 cumulative IPC: 0.202778 (Simulation time: 0 hr 6 min 59 sec) 
Heartbeat CPU 0 instructions: 78000001 cycles: 392741605 heartbeat IPC: 0.204879 cumulative IPC: 0.202808 (Simulation time: 0 hr 7 min 4 sec) 
Heartbeat CPU 0 instructions: 79000002 cycles: 397849104 heartbeat IPC: 0.195791 cumulative IPC: 0.202703 (Simulation time: 0 hr 7 min 10 sec) 
Heartbeat CPU 0 instructions: 80000000 cycles: 402848051 heartbeat IPC: 0.200042 cumulative IPC: 0.202665 (Simulation time: 0 hr 7 min 15 sec) 
Heartbeat CPU 0 instructions: 81000003 cycles: 407769700 heartbeat IPC: 0.203185 cumulative IPC: 0.202672 (Simulation time: 0 hr 7 min 21 sec) 
Heartbeat CPU 0 instructions: 82000001 cycles: 412686613 heartbeat IPC: 0.203379 cumulative IPC: 0.202682 (Simulation time: 0 hr 7 min 26 sec) 
Heartbeat CPU 0 instructions: 83000002 cycles: 417653712 heartbeat IPC: 0.201325 cumulative IPC: 0.202663 (Simulation time: 0 hr 7 min 32 sec) 
Heartbeat CPU 0 instructions: 84000000 cycles: 422688456 heartbeat IPC: 0.198619 cumulative IPC: 0.202607 (Simulation time: 0 hr 7 min 37 sec) 
Heartbeat CPU 0 instructions: 85000002 cycles: 427649427 heartbeat IPC: 0.201574 cumulative IPC: 0.202593 (Simulation time: 0 hr 7 min 43 sec) 
Heartbeat CPU 0 instructions: 86000002 cycles: 432683333 heartbeat IPC: 0.198653 cumulative IPC: 0.202541 (Simulation time: 0 hr 7 min 48 sec) 
Heartbeat CPU 0 instructions: 87000000 cycles: 437547489 heartbeat IPC: 0.205585 cumulative IPC: 0.20258 (Simulation time: 0 hr 7 min 54 sec) 
Heartbeat CPU 0 instructions: 88000000 cycles: 442603899 heartbeat IPC: 0.197769 cumulative IPC: 0.202516 (Simulation time: 0 hr 7 min 59 sec) 
Heartbeat CPU 0 instructions: 89000000 cycles: 447550401 heartbeat IPC: 0.202163 cumulative IPC: 0.202512 (Simulation time: 0 hr 8 min 5 sec) 
Heartbeat CPU 0 instructions: 90000000 cycles: 452512818 heartbeat IPC: 0.201515 cumulative IPC: 0.202499 (Simulation time: 0 hr 8 min 10 sec) 
Heartbeat CPU 0 instructions: 91000003 cycles: 457583677 heartbeat IPC: 0.197206 cumulative IPC: 0.202432 (Simulation time: 0 hr 8 min 16 sec) 
Heartbeat CPU 0 instructions: 92000003 cycles: 462578072 heartbeat IPC: 0.200224 cumulative IPC: 0.202405 (Simulation time: 0 hr 8 min 21 sec) 
Heartbeat CPU 0 instructions: 93000002 cycles: 467593503 heartbeat IPC: 0.199384 cumulative IPC: 0.202368 (Simulation time: 0 hr 8 min 27 sec) 
Heartbeat CPU 0 instructions: 94000002 cycles: 472640285 heartbeat IPC: 0.198146 cumulative IPC: 0.202317 (Simulation time: 0 hr 8 min 32 sec) 
Heartbeat CPU 0 instructions: 95000000 cycles: 477628141 heartbeat IPC: 0.200487 cumulative IPC: 0.202295 (Simulation time: 0 hr 8 min 38 sec) 
Heartbeat CPU 0 instructions: 96000002 cycles: 482629142 heartbeat IPC: 0.19996 cumulative IPC: 0.202268 (Simulation time: 0 hr 8 min 43 sec) 
Heartbeat CPU 0 instructions: 97000002 cycles: 487710652 heartbeat IPC: 0.196792 cumulative IPC: 0.202203 (Simulation time: 0 hr 8 min 49 sec) 
Heartbeat CPU 0 instructions: 98000000 cycles: 492794893 heartbeat IPC: 0.196686 cumulative IPC: 0.202139 (Simulation time: 0 hr 8 min 54 sec) 
Heartbeat CPU 0 instructions: 99000000 cycles: 497929208 heartbeat IPC: 0.194768 cumulative IPC: 0.202053 (Simulation time: 0 hr 9 min 0 sec) 
Heartbeat CPU 0 instructions: 100000001 cycles: 502973960 heartbeat IPC: 0.198226 cumulative IPC: 0.202009 (Simulation time: 0 hr 9 min 5 sec) 
Heartbeat CPU 0 instructions: 101000000 cycles: 508024500 heartbeat IPC: 0.197998 cumulative IPC: 0.201964 (Simulation time: 0 hr 9 min 10 sec) 
Heartbeat CPU 0 instructions: 102000000 cycles: 513177514 heartbeat IPC: 0.194061 cumulative IPC: 0.201875 (Simulation time: 0 hr 9 min 16 sec) 
Heartbeat CPU 0 instructions: 103000001 cycles: 518224854 heartbeat IPC: 0.198124 cumulative IPC: 0.201834 (Simulation time: 0 hr 9 min 22 sec) 
Heartbeat CPU 0 instructions: 104000000 cycles: 523277026 heartbeat IPC: 0.197934 cumulative IPC: 0.201792 (Simulation time: 0 hr 9 min 27 sec) 
Heartbeat CPU 0 instructions: 105000000 cycles: 528430733 heartbeat IPC: 0.194035 cumulative IPC: 0.201707 (Simulation time: 0 hr 9 min 33 sec) 
Heartbeat CPU 0 instructions: 106000003 cycles: 533568407 heartbeat IPC: 0.194641 cumulative IPC: 0.20163 (Simulation time: 0 hr 9 min 39 sec) 
Heartbeat CPU 0 instructions: 107000000 cycles: 538768861 heartbeat IPC: 0.19229 cumulative IPC: 0.20153 (Simulation time: 0 hr 9 min 44 sec) 
Heartbeat CPU 0 instructions: 108000000 cycles: 543831108 heartbeat IPC: 0.197541 cumulative IPC: 0.201488 (Simulation time: 0 hr 9 min 49 sec) 
Heartbeat CPU 0 instructions: 109000003 cycles: 549006455 heartbeat IPC: 0.193224 cumulative IPC: 0.201401 (Simulation time: 0 hr 9 min 55 sec) 
Heartbeat CPU 0 instructions: 110000000 cycles: 554082642 heartbeat IPC: 0.196998 cumulative IPC: 0.201356 (Simulation time: 0 hr 10 min 1 sec) 
Heartbeat CPU 0 instructions: 111000000 cycles: 559292331 heartbeat IPC: 0.19195 cumulative IPC: 0.201258 (Simulation time: 0 hr 10 min 6 sec) 
Heartbeat CPU 0 instructions: 112000000 cycles: 564535053 heartbeat IPC: 0.190741 cumulative IPC: 0.20115 (Simulation time: 0 hr 10 min 12 sec) 
Heartbeat CPU 0 instructions: 113000000 cycles: 569736339 heartbeat IPC: 0.19226 cumulative IPC: 0.201059 (Simulation time: 0 hr 10 min 17 sec) 
Heartbeat CPU 0 instructions: 114000003 cycles: 575065896 heartbeat IPC: 0.187633 cumulative IPC: 0.200921 (Simulation time: 0 hr 10 min 23 sec) 
Heartbeat CPU 0 instructions: 115000000 cycles: 580048868 heartbeat IPC: 0.200683 cumulative IPC: 0.200919 (Simulation time: 0 hr 10 min 29 sec) 
Heartbeat CPU 0 instructions: 116000000 cycles: 585260069 heartbeat IPC: 0.191894 cumulative IPC: 0.20083 (Simulation time: 0 hr 10 min 34 sec) 
Heartbeat CPU 0 instructions: 117000000 cycles: 590271696 heartbeat IPC: 0.199536 cumulative IPC: 0.200818 (Simulation time: 0 hr 10 min 40 sec) 
Heartbeat CPU 0 instructions: 118000000 cycles: 595297344 heartbeat IPC: 0.198979 cumulative IPC: 0.2008 (Simulation time: 0 hr 10 min 45 sec) 
Heartbeat CPU 0 instructions: 119000000 cycles: 600493264 heartbeat IPC: 0.192459 cumulative IPC: 0.200721 (Simulation time: 0 hr 10 min 51 sec) 
Heartbeat CPU 0 instructions: 120000000 cycles: 605544982 heartbeat IPC: 0.197952 cumulative IPC: 0.200695 (Simulation time: 0 hr 10 min 56 sec) 
Heartbeat CPU 0 instructions: 121000000 cycles: 610695541 heartbeat IPC: 0.194154 cumulative IPC: 0.200634 (Simulation time: 0 hr 11 min 2 sec) 
Heartbeat CPU 0 instructions: 122000000 cycles: 615957368 heartbeat IPC: 0.190048 cumulative IPC: 0.200534 (Simulation time: 0 hr 11 min 8 sec) 
Heartbeat CPU 0 instructions: 123000000 cycles: 620992948 heartbeat IPC: 0.198587 cumulative IPC: 0.200517 (Simulation time: 0 hr 11 min 13 sec) 
Heartbeat CPU 0 instructions: 124000000 cycles: 626237282 heartbeat IPC: 0.190682 cumulative IPC: 0.200426 (Simulation time: 0 hr 11 min 19 sec) 
Heartbeat CPU 0 instructions: 125000000 cycles: 631398214 heartbeat IPC: 0.193763 cumulative IPC: 0.200366 (Simulation time: 0 hr 11 min 25 sec) 
Heartbeat CPU 0 instructions: 126000003 cycles: 636514450 heartbeat IPC: 0.195457 cumulative IPC: 0.200323 (Simulation time: 0 hr 11 min 30 sec) 
Heartbeat CPU 0 instructions: 127000000 cycles: 641673295 heartbeat IPC: 0.193841 cumulative IPC: 0.200266 (Simulation time: 0 hr 11 min 36 sec) 
Heartbeat CPU 0 instructions: 128000001 cycles: 646854799 heartbeat IPC: 0.192994 cumulative IPC: 0.200202 (Simulation time: 0 hr 11 min 41 sec) 
Heartbeat CPU 0 instructions: 129000003 cycles: 651951044 heartbeat IPC: 0.196223 cumulative IPC: 0.200168 (Simulation time: 0 hr 11 min 47 sec) 
Heartbeat CPU 0 instructions: 130000000 cycles: 657037783 heartbeat IPC: 0.196589 cumulative IPC: 0.200137 (Simulation time: 0 hr 11 min 52 sec) 
Heartbeat CPU 0 instructions: 131000002 cycles: 662117299 heartbeat IPC: 0.19687 cumulative IPC: 0.20011 (Simulation time: 0 hr 11 min 58 sec) 
Heartbeat CPU 0 instructions: 132000000 cycles: 667298177 heartbeat IPC: 0.193017 cumulative IPC: 0.20005 (Simulation time: 0 hr 12 min 3 sec) 
Heartbeat CPU 0 instructions: 133000002 cycles: 672446187 heartbeat IPC: 0.19425 cumulative IPC: 0.200001 (Simulation time: 0 hr 12 min 9 sec) 
Heartbeat CPU 0 instructions: 134000003 cycles: 677350314 heartbeat IPC: 0.20391 cumulative IPC: 0.200032 (Simulation time: 0 hr 12 min 14 sec) 
Heartbeat CPU 0 instructions: 135000000 cycles: 682360475 heartbeat IPC: 0.199594 cumulative IPC: 0.200029 (Simulation time: 0 hr 12 min 20 sec) 
Heartbeat CPU 0 instructions: 136000002 cycles: 687423648 heartbeat IPC: 0.197505 cumulative IPC: 0.200008 (Simulation time: 0 hr 12 min 25 sec) 
Heartbeat CPU 0 instructions: 137000002 cycles: 692483771 heartbeat IPC: 0.197624 cumulative IPC: 0.199989 (Simulation time: 0 hr 12 min 30 sec) 
Heartbeat CPU 0 instructions: 138000003 cycles: 697563300 heartbeat IPC: 0.196869 cumulative IPC: 0.199965 (Simulation time: 0 hr 12 min 36 sec) 
Heartbeat CPU 0 instructions: 139000001 cycles: 702434618 heartbeat IPC: 0.205283 cumulative IPC: 0.200005 (Simulation time: 0 hr 12 min 41 sec) 
Heartbeat CPU 0 instructions: 140000003 cycles: 707407223 heartbeat IPC: 0.201102 cumulative IPC: 0.200013 (Simulation time: 0 hr 12 min 46 sec) 
Heartbeat CPU 0 instructions: 141000000 cycles: 712290523 heartbeat IPC: 0.204779 cumulative IPC: 0.200049 (Simulation time: 0 hr 12 min 52 sec) 
Heartbeat CPU 0 instructions: 142000003 cycles: 717309867 heartbeat IPC: 0.19923 cumulative IPC: 0.200042 (Simulation time: 0 hr 12 min 57 sec) 
Heartbeat CPU 0 instructions: 143000000 cycles: 722239968 heartbeat IPC: 0.202835 cumulative IPC: 0.200063 (Simulation time: 0 hr 13 min 2 sec) 
Heartbeat CPU 0 instructions: 144000000 cycles: 727086404 heartbeat IPC: 0.206337 cumulative IPC: 0.200109 (Simulation time: 0 hr 13 min 8 sec) 
Heartbeat CPU 0 instructions: 145000000 cycles: 731898749 heartbeat IPC: 0.207799 cumulative IPC: 0.200163 (Simulation time: 0 hr 13 min 13 sec) 
Heartbeat CPU 0 instructions: 146000002 cycles: 736705802 heartbeat IPC: 0.208028 cumulative IPC: 0.200219 (Simulation time: 0 hr 13 min 19 sec) 
Heartbeat CPU 0 instructions: 147000001 cycles: 741441732 heartbeat IPC: 0.211152 cumulative IPC: 0.200295 (Simulation time: 0 hr 13 min 24 sec) 
Heartbeat CPU 0 instructions: 148000001 cycles: 746355486 heartbeat IPC: 0.20351 cumulative IPC: 0.200318 (Simulation time: 0 hr 13 min 29 sec) 
Heartbeat CPU 0 instructions: 149000000 cycles: 751202994 heartbeat IPC: 0.206291 cumulative IPC: 0.200359 (Simulation time: 0 hr 13 min 35 sec) 
Heartbeat CPU 0 instructions: 150000000 cycles: 755939420 heartbeat IPC: 0.21113 cumulative IPC: 0.200433 (Simulation time: 0 hr 13 min 41 sec) 
Heartbeat CPU 0 instructions: 151000002 cycles: 760799720 heartbeat IPC: 0.205749 cumulative IPC: 0.200469 (Simulation time: 0 hr 13 min 46 sec) 
Heartbeat CPU 0 instructions: 152000002 cycles: 765611629 heartbeat IPC: 0.207818 cumulative IPC: 0.200519 (Simulation time: 0 hr 13 min 51 sec) 
Heartbeat CPU 0 instructions: 153000000 cycles: 770415484 heartbeat IPC: 0.208166 cumulative IPC: 0.200571 (Simulation time: 0 hr 13 min 57 sec) 
Heartbeat CPU 0 instructions: 154000000 cycles: 775106617 heartbeat IPC: 0.213168 cumulative IPC: 0.200653 (Simulation time: 0 hr 14 min 2 sec) 
Heartbeat CPU 0 instructions: 155000001 cycles: 779842852 heartbeat IPC: 0.211138 cumulative IPC: 0.200722 (Simulation time: 0 hr 14 min 8 sec) 
Heartbeat CPU 0 instructions: 156000002 cycles: 784491338 heartbeat IPC: 0.215124 cumulative IPC: 0.200814 (Simulation time: 0 hr 14 min 13 sec) 
Heartbeat CPU 0 instructions: 157000000 cycles: 789304702 heartbeat IPC: 0.207754 cumulative IPC: 0.20086 (Simulation time: 0 hr 14 min 19 sec) 
Heartbeat CPU 0 instructions: 158000002 cycles: 793903296 heartbeat IPC: 0.217458 cumulative IPC: 0.200963 (Simulation time: 0 hr 14 min 25 sec) 
Heartbeat CPU 0 instructions: 159000000 cycles: 798941648 heartbeat IPC: 0.198477 cumulative IPC: 0.200946 (Simulation time: 0 hr 14 min 31 sec) 
Heartbeat CPU 0 instructions: 160000002 cycles: 803678480 heartbeat IPC: 0.211112 cumulative IPC: 0.201011 (Simulation time: 0 hr 14 min 36 sec) 
Heartbeat CPU 0 instructions: 161000000 cycles: 808394545 heartbeat IPC: 0.212041 cumulative IPC: 0.20108 (Simulation time: 0 hr 14 min 41 sec) 
Heartbeat CPU 0 instructions: 162000000 cycles: 813105721 heartbeat IPC: 0.212261 cumulative IPC: 0.20115 (Simulation time: 0 hr 14 min 46 sec) 
Heartbeat CPU 0 instructions: 163000000 cycles: 817875172 heartbeat IPC: 0.209668 cumulative IPC: 0.201203 (Simulation time: 0 hr 14 min 51 sec) 
Heartbeat CPU 0 instructions: 164000000 cycles: 822632249 heartbeat IPC: 0.210213 cumulative IPC: 0.201259 (Simulation time: 0 hr 14 min 56 sec) 
Heartbeat CPU 0 instructions: 165000000 cycles: 827438005 heartbeat IPC: 0.208084 cumulative IPC: 0.201302 (Simulation time: 0 hr 15 min 2 sec) 
Heartbeat CPU 0 instructions: 166000003 cycles: 832258278 heartbeat IPC: 0.207458 cumulative IPC: 0.20134 (Simulation time: 0 hr 15 min 7 sec) 
Heartbeat CPU 0 instructions: 167000001 cycles: 837091862 heartbeat IPC: 0.206885 cumulative IPC: 0.201374 (Simulation time: 0 hr 15 min 12 sec) 
Heartbeat CPU 0 instructions: 168000000 cycles: 841807710 heartbeat IPC: 0.212051 cumulative IPC: 0.201439 (Simulation time: 0 hr 15 min 17 sec) 
Heartbeat CPU 0 instructions: 169000000 cycles: 846532084 heartbeat IPC: 0.211668 cumulative IPC: 0.2015 (Simulation time: 0 hr 15 min 22 sec) 
Heartbeat CPU 0 instructions: 170000000 cycles: 851240076 heartbeat IPC: 0.212405 cumulative IPC: 0.201565 (Simulation time: 0 hr 15 min 28 sec) 
Heartbeat CPU 0 instructions: 171000000 cycles: 855974710 heartbeat IPC: 0.21121 cumulative IPC: 0.201622 (Simulation time: 0 hr 15 min 33 sec) 
Heartbeat CPU 0 instructions: 172000001 cycles: 860809875 heartbeat IPC: 0.206818 cumulative IPC: 0.201653 (Simulation time: 0 hr 15 min 38 sec) 
Heartbeat CPU 0 instructions: 173000000 cycles: 865633217 heartbeat IPC: 0.207325 cumulative IPC: 0.201687 (Simulation time: 0 hr 15 min 43 sec) 
Heartbeat CPU 0 instructions: 174000001 cycles: 870415247 heartbeat IPC: 0.209116 cumulative IPC: 0.201731 (Simulation time: 0 hr 15 min 48 sec) 
Heartbeat CPU 0 instructions: 175000001 cycles: 875190651 heartbeat IPC: 0.209406 cumulative IPC: 0.201775 (Simulation time: 0 hr 15 min 53 sec) 
Heartbeat CPU 0 instructions: 176000000 cycles: 880120445 heartbeat IPC: 0.202848 cumulative IPC: 0.201782 (Simulation time: 0 hr 15 min 59 sec) 
Heartbeat CPU 0 instructions: 177000000 cycles: 884856267 heartbeat IPC: 0.211157 cumulative IPC: 0.201836 (Simulation time: 0 hr 16 min 4 sec) 
Heartbeat CPU 0 instructions: 178000000 cycles: 889607642 heartbeat IPC: 0.210465 cumulative IPC: 0.201885 (Simulation time: 0 hr 16 min 9 sec) 
Heartbeat CPU 0 instructions: 179000000 cycles: 894287598 heartbeat IPC: 0.213677 cumulative IPC: 0.201951 (Simulation time: 0 hr 16 min 14 sec) 
Heartbeat CPU 0 instructions: 180000000 cycles: 898911782 heartbeat IPC: 0.216254 cumulative IPC: 0.202029 (Simulation time: 0 hr 16 min 20 sec) 
Heartbeat CPU 0 instructions: 181000001 cycles: 903717423 heartbeat IPC: 0.208089 cumulative IPC: 0.202064 (Simulation time: 0 hr 16 min 25 sec) 
Heartbeat CPU 0 instructions: 182000000 cycles: 908287800 heartbeat IPC: 0.2188 cumulative IPC: 0.202154 (Simulation time: 0 hr 16 min 30 sec) 
Heartbeat CPU 0 instructions: 183000000 cycles: 913003819 heartbeat IPC: 0.212043 cumulative IPC: 0.202208 (Simulation time: 0 hr 16 min 35 sec) 
Heartbeat CPU 0 instructions: 184000000 cycles: 917722654 heartbeat IPC: 0.211917 cumulative IPC: 0.202261 (Simulation time: 0 hr 16 min 41 sec) 
Heartbeat CPU 0 instructions: 185000003 cycles: 922478318 heartbeat IPC: 0.210276 cumulative IPC: 0.202305 (Simulation time: 0 hr 16 min 46 sec) 
Heartbeat CPU 0 instructions: 186000001 cycles: 927393909 heartbeat IPC: 0.203434 cumulative IPC: 0.202312 (Simulation time: 0 hr 16 min 51 sec) 
Heartbeat CPU 0 instructions: 187000000 cycles: 932112009 heartbeat IPC: 0.21195 cumulative IPC: 0.202364 (Simulation time: 0 hr 16 min 56 sec) 
Heartbeat CPU 0 instructions: 188000002 cycles: 936764734 heartbeat IPC: 0.214928 cumulative IPC: 0.20243 (Simulation time: 0 hr 17 min 1 sec) 
Heartbeat CPU 0 instructions: 189000003 cycles: 941561586 heartbeat IPC: 0.20847 cumulative IPC: 0.202463 (Simulation time: 0 hr 17 min 7 sec) 
Heartbeat CPU 0 instructions: 190000000 cycles: 946346008 heartbeat IPC: 0.209011 cumulative IPC: 0.202498 (Simulation time: 0 hr 17 min 12 sec) 
Heartbeat CPU 0 instructions: 191000000 cycles: 951193446 heartbeat IPC: 0.206295 cumulative IPC: 0.202519 (Simulation time: 0 hr 17 min 17 sec) 
Heartbeat CPU 0 instructions: 192000003 cycles: 956104439 heartbeat IPC: 0.203625 cumulative IPC: 0.202525 (Simulation time: 0 hr 17 min 22 sec) 
Heartbeat CPU 0 instructions: 193000000 cycles: 960844649 heartbeat IPC: 0.21096 cumulative IPC: 0.202569 (Simulation time: 0 hr 17 min 27 sec) 
Heartbeat CPU 0 instructions: 194000003 cycles: 965676371 heartbeat IPC: 0.206966 cumulative IPC: 0.202593 (Simulation time: 0 hr 17 min 33 sec) 
Heartbeat CPU 0 instructions: 195000003 cycles: 970569519 heartbeat IPC: 0.204367 cumulative IPC: 0.202602 (Simulation time: 0 hr 17 min 38 sec) 
Heartbeat CPU 0 instructions: 196000002 cycles: 975336846 heartbeat IPC: 0.209761 cumulative IPC: 0.202639 (Simulation time: 0 hr 17 min 43 sec) 
Heartbeat CPU 0 instructions: 197000000 cycles: 980150090 heartbeat IPC: 0.20776 cumulative IPC: 0.202666 (Simulation time: 0 hr 17 min 48 sec) 
Heartbeat CPU 0 instructions: 198000000 cycles: 984921284 heartbeat IPC: 0.209591 cumulative IPC: 0.202702 (Simulation time: 0 hr 17 min 53 sec) 
Heartbeat CPU 0 instructions: 199000000 cycles: 989609822 heartbeat IPC: 0.213286 cumulative IPC: 0.202755 (Simulation time: 0 hr 17 min 58 sec) 
Heartbeat CPU 0 instructions: 200000001 cycles: 994352860 heartbeat IPC: 0.210836 cumulative IPC: 0.202796 (Simulation time: 0 hr 18 min 4 sec) 
Heartbeat CPU 0 instructions: 201000002 cycles: 999076011 heartbeat IPC: 0.211723 cumulative IPC: 0.202841 (Simulation time: 0 hr 18 min 9 sec) 
Heartbeat CPU 0 instructions: 202000001 cycles: 1003864984 heartbeat IPC: 0.208813 cumulative IPC: 0.202871 (Simulation time: 0 hr 18 min 14 sec) 
Heartbeat CPU 0 instructions: 203000002 cycles: 1008636899 heartbeat IPC: 0.20956 cumulative IPC: 0.202904 (Simulation time: 0 hr 18 min 19 sec) 
Heartbeat CPU 0 instructions: 204000001 cycles: 1013392305 heartbeat IPC: 0.210287 cumulative IPC: 0.202941 (Simulation time: 0 hr 18 min 24 sec) 
Heartbeat CPU 0 instructions: 205000000 cycles: 1018244809 heartbeat IPC: 0.206079 cumulative IPC: 0.202957 (Simulation time: 0 hr 18 min 30 sec) 
Heartbeat CPU 0 instructions: 206000000 cycles: 1023111147 heartbeat IPC: 0.205493 cumulative IPC: 0.20297 (Simulation time: 0 hr 18 min 35 sec) 
Heartbeat CPU 0 instructions: 207000003 cycles: 1027833818 heartbeat IPC: 0.211745 cumulative IPC: 0.203012 (Simulation time: 0 hr 18 min 40 sec) 
Heartbeat CPU 0 instructions: 208000002 cycles: 1032639250 heartbeat IPC: 0.208098 cumulative IPC: 0.203038 (Simulation time: 0 hr 18 min 45 sec) 
Heartbeat CPU 0 instructions: 209000000 cycles: 1037481381 heartbeat IPC: 0.20652 cumulative IPC: 0.203055 (Simulation time: 0 hr 18 min 50 sec) 
Heartbeat CPU 0 instructions: 210000000 cycles: 1042305529 heartbeat IPC: 0.20729 cumulative IPC: 0.203075 (Simulation time: 0 hr 18 min 55 sec) 
Heartbeat CPU 0 instructions: 211000001 cycles: 1047193445 heartbeat IPC: 0.204586 cumulative IPC: 0.203083 (Simulation time: 0 hr 19 min 0 sec) 
Heartbeat CPU 0 instructions: 212000002 cycles: 1052046087 heartbeat IPC: 0.206074 cumulative IPC: 0.203098 (Simulation time: 0 hr 19 min 6 sec) 
Heartbeat CPU 0 instructions: 213000003 cycles: 1056873689 heartbeat IPC: 0.207142 cumulative IPC: 0.203117 (Simulation time: 0 hr 19 min 11 sec) 
Heartbeat CPU 0 instructions: 214000001 cycles: 1061596138 heartbeat IPC: 0.211754 cumulative IPC: 0.203158 (Simulation time: 0 hr 19 min 16 sec) 
Heartbeat CPU 0 instructions: 215000000 cycles: 1066271733 heartbeat IPC: 0.213876 cumulative IPC: 0.203207 (Simulation time: 0 hr 19 min 21 sec) 
Heartbeat CPU 0 instructions: 216000001 cycles: 1071174119 heartbeat IPC: 0.203983 cumulative IPC: 0.203211 (Simulation time: 0 hr 19 min 26 sec) 
Heartbeat CPU 0 instructions: 217000003 cycles: 1076025743 heartbeat IPC: 0.206117 cumulative IPC: 0.203225 (Simulation time: 0 hr 19 min 32 sec) 
Heartbeat CPU 0 instructions: 218000001 cycles: 1080913018 heartbeat IPC: 0.204613 cumulative IPC: 0.203232 (Simulation time: 0 hr 19 min 37 sec) 
Heartbeat CPU 0 instructions: 219000001 cycles: 1085802851 heartbeat IPC: 0.204506 cumulative IPC: 0.203238 (Simulation time: 0 hr 19 min 42 sec) 
Heartbeat CPU 0 instructions: 220000000 cycles: 1090577112 heartbeat IPC: 0.209456 cumulative IPC: 0.203266 (Simulation time: 0 hr 19 min 47 sec) 
Heartbeat CPU 0 instructions: 221000002 cycles: 1095353582 heartbeat IPC: 0.20936 cumulative IPC: 0.203294 (Simulation time: 0 hr 19 min 52 sec) 
Heartbeat CPU 0 instructions: 222000002 cycles: 1100110091 heartbeat IPC: 0.210238 cumulative IPC: 0.203326 (Simulation time: 0 hr 19 min 57 sec) 
Heartbeat CPU 0 instructions: 223000000 cycles: 1104820989 heartbeat IPC: 0.212273 cumulative IPC: 0.203366 (Simulation time: 0 hr 20 min 2 sec) 
Heartbeat CPU 0 instructions: 224000000 cycles: 1109561969 heartbeat IPC: 0.210927 cumulative IPC: 0.2034 (Simulation time: 0 hr 20 min 8 sec) 
Heartbeat CPU 0 instructions: 225000003 cycles: 1114438353 heartbeat IPC: 0.205071 cumulative IPC: 0.203408 (Simulation time: 0 hr 20 min 13 sec) 
Heartbeat CPU 0 instructions: 226000000 cycles: 1119304882 heartbeat IPC: 0.205485 cumulative IPC: 0.203418 (Simulation time: 0 hr 20 min 18 sec) 
Heartbeat CPU 0 instructions: 227000000 cycles: 1124140534 heartbeat IPC: 0.206797 cumulative IPC: 0.203433 (Simulation time: 0 hr 20 min 23 sec) 
Heartbeat CPU 0 instructions: 228000001 cycles: 1129044348 heartbeat IPC: 0.203923 cumulative IPC: 0.203435 (Simulation time: 0 hr 20 min 28 sec) 
Heartbeat CPU 0 instructions: 229000000 cycles: 1133861675 heartbeat IPC: 0.207584 cumulative IPC: 0.203454 (Simulation time: 0 hr 20 min 33 sec) 
Heartbeat CPU 0 instructions: 230000000 cycles: 1138529596 heartbeat IPC: 0.214228 cumulative IPC: 0.2035 (Simulation time: 0 hr 20 min 39 sec) 
Heartbeat CPU 0 instructions: 231000000 cycles: 1143389437 heartbeat IPC: 0.205768 cumulative IPC: 0.20351 (Simulation time: 0 hr 20 min 44 sec) 
Heartbeat CPU 0 instructions: 232000000 cycles: 1148257952 heartbeat IPC: 0.205401 cumulative IPC: 0.203519 (Simulation time: 0 hr 20 min 49 sec) 
Heartbeat CPU 0 instructions: 233000000 cycles: 1153038887 heartbeat IPC: 0.209164 cumulative IPC: 0.203543 (Simulation time: 0 hr 20 min 54 sec) 
Heartbeat CPU 0 instructions: 234000000 cycles: 1157815116 heartbeat IPC: 0.20937 cumulative IPC: 0.203569 (Simulation time: 0 hr 20 min 59 sec) 
Heartbeat CPU 0 instructions: 235000002 cycles: 1162578149 heartbeat IPC: 0.209951 cumulative IPC: 0.203596 (Simulation time: 0 hr 21 min 4 sec) 
Heartbeat CPU 0 instructions: 236000001 cycles: 1167355010 heartbeat IPC: 0.209342 cumulative IPC: 0.203621 (Simulation time: 0 hr 21 min 9 sec) 
Heartbeat CPU 0 instructions: 237000001 cycles: 1172186228 heartbeat IPC: 0.206987 cumulative IPC: 0.203636 (Simulation time: 0 hr 21 min 15 sec) 
Heartbeat CPU 0 instructions: 238000003 cycles: 1177076862 heartbeat IPC: 0.204473 cumulative IPC: 0.203639 (Simulation time: 0 hr 21 min 20 sec) 
Heartbeat CPU 0 instructions: 239000000 cycles: 1181883763 heartbeat IPC: 0.208034 cumulative IPC: 0.203658 (Simulation time: 0 hr 21 min 25 sec) 
Heartbeat CPU 0 instructions: 240000001 cycles: 1186620694 heartbeat IPC: 0.211107 cumulative IPC: 0.203689 (Simulation time: 0 hr 21 min 30 sec) 
Heartbeat CPU 0 instructions: 241000002 cycles: 1191517389 heartbeat IPC: 0.20422 cumulative IPC: 0.203692 (Simulation time: 0 hr 21 min 35 sec) 
Heartbeat CPU 0 instructions: 242000000 cycles: 1196247334 heartbeat IPC: 0.211419 cumulative IPC: 0.203724 (Simulation time: 0 hr 21 min 40 sec) 
Heartbeat CPU 0 instructions: 243000001 cycles: 1201212564 heartbeat IPC: 0.201401 cumulative IPC: 0.203714 (Simulation time: 0 hr 21 min 45 sec) 
Heartbeat CPU 0 instructions: 244000000 cycles: 1206106279 heartbeat IPC: 0.204344 cumulative IPC: 0.203716 (Simulation time: 0 hr 21 min 50 sec) 
Heartbeat CPU 0 instructions: 245000001 cycles: 1210950685 heartbeat IPC: 0.206424 cumulative IPC: 0.203728 (Simulation time: 0 hr 21 min 56 sec) 
Heartbeat CPU 0 instructions: 246000000 cycles: 1215771368 heartbeat IPC: 0.207439 cumulative IPC: 0.203743 (Simulation time: 0 hr 22 min 1 sec) 
Heartbeat CPU 0 instructions: 247000002 cycles: 1220687730 heartbeat IPC: 0.203403 cumulative IPC: 0.203742 (Simulation time: 0 hr 22 min 6 sec) 
Heartbeat CPU 0 instructions: 248000000 cycles: 1225413258 heartbeat IPC: 0.211616 cumulative IPC: 0.203774 (Simulation time: 0 hr 22 min 11 sec) 
Heartbeat CPU 0 instructions: 249000000 cycles: 1230123111 heartbeat IPC: 0.212321 cumulative IPC: 0.203808 (Simulation time: 0 hr 22 min 16 sec) 
Heartbeat CPU 0 instructions: 250000001 cycles: 1234933864 heartbeat IPC: 0.207868 cumulative IPC: 0.203824 (Simulation time: 0 hr 22 min 21 sec) 
Heartbeat CPU 0 instructions: 251000001 cycles: 1239828055 heartbeat IPC: 0.204324 cumulative IPC: 0.203827 (Simulation time: 0 hr 22 min 26 sec) 
Heartbeat CPU 0 instructions: 252000003 cycles: 1244662766 heartbeat IPC: 0.206838 cumulative IPC: 0.203839 (Simulation time: 0 hr 22 min 31 sec) 
Heartbeat CPU 0 instructions: 253000000 cycles: 1249459451 heartbeat IPC: 0.208477 cumulative IPC: 0.203857 (Simulation time: 0 hr 22 min 37 sec) 
Heartbeat CPU 0 instructions: 254000000 cycles: 1254308554 heartbeat IPC: 0.206224 cumulative IPC: 0.203867 (Simulation time: 0 hr 22 min 42 sec) 
Heartbeat CPU 0 instructions: 255000002 cycles: 1259205794 heartbeat IPC: 0.204197 cumulative IPC: 0.203868 (Simulation time: 0 hr 22 min 47 sec) 
Heartbeat CPU 0 instructions: 256000002 cycles: 1263985829 heartbeat IPC: 0.209203 cumulative IPC: 0.20389 (Simulation time: 0 hr 22 min 52 sec) 
Heartbeat CPU 0 instructions: 257000000 cycles: 1268814241 heartbeat IPC: 0.207107 cumulative IPC: 0.203902 (Simulation time: 0 hr 22 min 57 sec) 
Heartbeat CPU 0 instructions: 258000001 cycles: 1273528632 heartbeat IPC: 0.212117 cumulative IPC: 0.203934 (Simulation time: 0 hr 23 min 2 sec) 
Heartbeat CPU 0 instructions: 259000001 cycles: 1278203817 heartbeat IPC: 0.213895 cumulative IPC: 0.203972 (Simulation time: 0 hr 23 min 8 sec) 
Heartbeat CPU 0 instructions: 260000000 cycles: 1283025449 heartbeat IPC: 0.207398 cumulative IPC: 0.203986 (Simulation time: 0 hr 23 min 13 sec) 
Finished CPU 0 instructions: 250000003 cycles: 1225575536 cumulative IPC: 0.203986 (Simulation time: 0 hr 23 min 13 sec) 

ChampSim completed all CPUs

Region of Interest Statistics

CPU 0 cumulative IPC: 0.203986 instructions: 250000003 cycles: 1225575536
L1D TOTAL     ACCESS:  124840920  HIT:  102467802  MISS:   22373118
L1D LOAD      ACCESS:   75628422  HIT:   64188276  MISS:   11440146
L1D RFO       ACCESS:   49212498  HIT:   38279526  MISS:   10932972
L1D PREFETCH  ACCESS:          0  HIT:          0  MISS:          0
L1D WRITEBACK ACCESS:          0  HIT:          0  MISS:          0
L1D PREFETCH  REQUESTED:          0  ISSUED:          0  USEFUL:          0  USELESS:          0
L1D AVERAGE MISS LATENCY: 252.712 cycles
L1I TOTAL     ACCESS:   44697145  HIT:   44697145  MISS:          0
L1I LOAD      ACCESS:   44697145  HIT:   44697145  MISS:          0
L1I RFO       ACCESS:          0  HIT:          0  MISS:          0
L1I PREFETCH  ACCESS:          0  HIT:          0  MISS:          0
L1I WRITEBACK ACCESS:          0  HIT:          0  MISS:          0
L1I PREFETCH  REQUESTED:          0  ISSUED:          0  USEFUL:          0  USELESS:          0
L1I AVERAGE MISS LATENCY: -nan cycles
L2C TOTAL     ACCESS:   44745866  HIT:   23981847  MISS:   20764019
L2C LOAD      ACCESS:   11439775  HIT:    1607415  MISS:    9832360
L2C RFO       ACCESS:   10932972  HIT:       7071  MISS:   10925901
L2C PREFETCH  ACCESS:          0  HIT:          0  MISS:          0
L2C WRITEBACK ACCESS:   22373119  HIT:   22367361  MISS:       5758
L2C PREFETCH  REQUESTED:          0  ISSUED:          0  USEFUL:          0  USELESS:          0
L2C AVERAGE MISS LATENCY: 246.458 cycles
LLC TOTAL     ACCESS:   50550207  HIT:   32422396  MISS:   18127811
LLC LOAD      ACCESS:    9832098  HIT:    8251365  MISS:    1580733
LLC RFO       ACCESS:   10925898  HIT:      67477  MISS:   10858421
LLC PREFETCH  ACCESS:    9032729  HIT:    3353694  MISS:    5679035
LLC WRITEBACK ACCESS:   20759482  HIT:   20749860  MISS:       9622
LLC PREFETCH  REQUESTED:    9832098  ISSUED:    9407463  USEFUL:    5409994  USELESS:     268901
LLC AVERAGE MISS LATENCY: 310.95 cycles
Major fault: 0 Minor fault: 321619
performance stats:
mapping cache size: 6430328
divergence: 3530984

DRAM Statistics
 CHANNEL 0
 RQ ROW_BUFFER_HIT:    1094963  ROW_BUFFER_MISS:    7965796
 DBUS_CONGESTED:   22992279
 WQ ROW_BUFFER_HIT:    8833047  ROW_BUFFER_MISS:      94878  FULL:          0

 CHANNEL 1
 RQ ROW_BUFFER_HIT:    1091388  ROW_BUFFER_MISS:    7960268
 DBUS_CONGESTED:   22992279
 WQ ROW_BUFFER_HIT:    8829267  ROW_BUFFER_MISS:      99469  FULL:          0

 AVG_CONGESTED_CYCLE: 21

CPU 0 Branch Prediction Accuracy: 95.2475% MPKI: 5.90592 Average ROB Occupancy at Mispredict: 104.056

Branch types
NOT_BRANCH: 218932001 87.5728%
BRANCH_DIRECT_JUMP: 3735236 1.49409%
BRANCH_INDIRECT: 0 0%
BRANCH_CONDITIONAL: 16399444 6.55978%
BRANCH_DIRECT_CALL: 5466482 2.18659%
BRANCH_INDIRECT_CALL: 0 0%
BRANCH_RETURN: 5466481 2.18659%
BRANCH_OTHER: 0 0%

