
*** ChampSim Multicore Out-of-Order Simulator ***

Warmup Instructions: 1000000
Prefetch Warmup Instructions: 10000000
Simulation Instructions: 250000000
Stat Printing Period: 1000000
Number of CPUs: 1
LLC sets: 2048
LLC ways: 16
Off-chip DRAM Size: 32768 MB Channels: 2 Width: 64-bit Data Rate: 1024 MT/s

CPU 0 runs /scratch/cluster/cmolder/ML-DPC/ChampSimTraces/spec17/605.mcf-s1.trace.xz
Read seed: 273
Heartbeat CPU 0 instructions: 1000001 cycles: 328000 heartbeat IPC: 3.04878 cumulative IPC: 3.04878 (Simulation time: 0 hr 0 min 3 sec) 

Warmup complete CPU 0 instructions: 1000001 cycles: 328000 (Simulation time: 0 hr 0 min 3 sec) 

Heartbeat CPU 0 instructions: 2000000 cycles: 7178957 heartbeat IPC: 0.145965 cumulative IPC: 0.145965 (Simulation time: 0 hr 0 min 8 sec) 
Heartbeat CPU 0 instructions: 3000001 cycles: 14219197 heartbeat IPC: 0.142041 cumulative IPC: 0.143976 (Simulation time: 0 hr 0 min 13 sec) 
Heartbeat CPU 0 instructions: 4000001 cycles: 21352643 heartbeat IPC: 0.140185 cumulative IPC: 0.14269 (Simulation time: 0 hr 0 min 19 sec) 
Heartbeat CPU 0 instructions: 5000000 cycles: 28499451 heartbeat IPC: 0.139922 cumulative IPC: 0.141988 (Simulation time: 0 hr 0 min 24 sec) 
Heartbeat CPU 0 instructions: 6000000 cycles: 35794735 heartbeat IPC: 0.137075 cumulative IPC: 0.140977 (Simulation time: 0 hr 0 min 30 sec) 
Heartbeat CPU 0 instructions: 7000003 cycles: 42965272 heartbeat IPC: 0.13946 cumulative IPC: 0.140722 (Simulation time: 0 hr 0 min 35 sec) 
Heartbeat CPU 0 instructions: 8000003 cycles: 49961685 heartbeat IPC: 0.14293 cumulative IPC: 0.141033 (Simulation time: 0 hr 0 min 41 sec) 
Heartbeat CPU 0 instructions: 9000000 cycles: 57327261 heartbeat IPC: 0.135766 cumulative IPC: 0.140353 (Simulation time: 0 hr 0 min 46 sec) 
Heartbeat CPU 0 instructions: 10000003 cycles: 64543733 heartbeat IPC: 0.138572 cumulative IPC: 0.140153 (Simulation time: 0 hr 0 min 52 sec) 

Warmup complete CPU 0 instructions: 10000003 cycles: 64543733 (Simulation time: 0 hr 0 min 52 sec) 

Heartbeat CPU 0 instructions: 11000000 cycles: 71793001 heartbeat IPC: 0.137945 cumulative IPC: 0.137945 (Simulation time: 0 hr 0 min 58 sec) 
Heartbeat CPU 0 instructions: 12000000 cycles: 78961768 heartbeat IPC: 0.139494 cumulative IPC: 0.138715 (Simulation time: 0 hr 1 min 3 sec) 
Heartbeat CPU 0 instructions: 13000000 cycles: 85945142 heartbeat IPC: 0.143197 cumulative IPC: 0.140178 (Simulation time: 0 hr 1 min 8 sec) 
Heartbeat CPU 0 instructions: 14000001 cycles: 92915481 heartbeat IPC: 0.143465 cumulative IPC: 0.140985 (Simulation time: 0 hr 1 min 14 sec) 
Heartbeat CPU 0 instructions: 15000002 cycles: 99897682 heartbeat IPC: 0.143221 cumulative IPC: 0.141427 (Simulation time: 0 hr 1 min 19 sec) 
Heartbeat CPU 0 instructions: 16000000 cycles: 106892120 heartbeat IPC: 0.14297 cumulative IPC: 0.141682 (Simulation time: 0 hr 1 min 24 sec) 
Heartbeat CPU 0 instructions: 17000000 cycles: 113901351 heartbeat IPC: 0.142669 cumulative IPC: 0.141822 (Simulation time: 0 hr 1 min 30 sec) 
Heartbeat CPU 0 instructions: 18000000 cycles: 120963067 heartbeat IPC: 0.141609 cumulative IPC: 0.141795 (Simulation time: 0 hr 1 min 35 sec) 
Heartbeat CPU 0 instructions: 19000002 cycles: 127986307 heartbeat IPC: 0.142385 cumulative IPC: 0.141861 (Simulation time: 0 hr 1 min 40 sec) 
Heartbeat CPU 0 instructions: 20000001 cycles: 134955538 heartbeat IPC: 0.143488 cumulative IPC: 0.142022 (Simulation time: 0 hr 1 min 45 sec) 
Heartbeat CPU 0 instructions: 21000000 cycles: 141949341 heartbeat IPC: 0.142984 cumulative IPC: 0.142109 (Simulation time: 0 hr 1 min 51 sec) 
Heartbeat CPU 0 instructions: 22000000 cycles: 149036041 heartbeat IPC: 0.141109 cumulative IPC: 0.142025 (Simulation time: 0 hr 1 min 56 sec) 
Heartbeat CPU 0 instructions: 23000001 cycles: 156077747 heartbeat IPC: 0.142011 cumulative IPC: 0.142024 (Simulation time: 0 hr 2 min 1 sec) 
Heartbeat CPU 0 instructions: 24000000 cycles: 163113584 heartbeat IPC: 0.142129 cumulative IPC: 0.142031 (Simulation time: 0 hr 2 min 7 sec) 
Heartbeat CPU 0 instructions: 25000003 cycles: 170162528 heartbeat IPC: 0.141866 cumulative IPC: 0.14202 (Simulation time: 0 hr 2 min 12 sec) 
Heartbeat CPU 0 instructions: 26000002 cycles: 177165837 heartbeat IPC: 0.142789 cumulative IPC: 0.142068 (Simulation time: 0 hr 2 min 17 sec) 
Heartbeat CPU 0 instructions: 27000001 cycles: 184112754 heartbeat IPC: 0.143949 cumulative IPC: 0.142177 (Simulation time: 0 hr 2 min 22 sec) 
Heartbeat CPU 0 instructions: 28000000 cycles: 191049253 heartbeat IPC: 0.144165 cumulative IPC: 0.142286 (Simulation time: 0 hr 2 min 28 sec) 
Heartbeat CPU 0 instructions: 29000000 cycles: 197996485 heartbeat IPC: 0.143942 cumulative IPC: 0.142372 (Simulation time: 0 hr 2 min 33 sec) 
Heartbeat CPU 0 instructions: 30000002 cycles: 204992883 heartbeat IPC: 0.142931 cumulative IPC: 0.1424 (Simulation time: 0 hr 2 min 38 sec) 
Heartbeat CPU 0 instructions: 31000002 cycles: 212050523 heartbeat IPC: 0.14169 cumulative IPC: 0.142366 (Simulation time: 0 hr 2 min 43 sec) 
Heartbeat CPU 0 instructions: 32000001 cycles: 219193798 heartbeat IPC: 0.139992 cumulative IPC: 0.142257 (Simulation time: 0 hr 2 min 49 sec) 
Heartbeat CPU 0 instructions: 33000000 cycles: 226414793 heartbeat IPC: 0.138485 cumulative IPC: 0.142088 (Simulation time: 0 hr 2 min 54 sec) 
Heartbeat CPU 0 instructions: 34000002 cycles: 233559213 heartbeat IPC: 0.13997 cumulative IPC: 0.141999 (Simulation time: 0 hr 3 min 0 sec) 
Heartbeat CPU 0 instructions: 35000000 cycles: 240812829 heartbeat IPC: 0.137862 cumulative IPC: 0.141829 (Simulation time: 0 hr 3 min 5 sec) 
Heartbeat CPU 0 instructions: 36000003 cycles: 248266757 heartbeat IPC: 0.134158 cumulative IPC: 0.141517 (Simulation time: 0 hr 3 min 11 sec) 
Heartbeat CPU 0 instructions: 37000000 cycles: 255930088 heartbeat IPC: 0.130491 cumulative IPC: 0.141076 (Simulation time: 0 hr 3 min 16 sec) 
Heartbeat CPU 0 instructions: 38000002 cycles: 262989965 heartbeat IPC: 0.141646 cumulative IPC: 0.141096 (Simulation time: 0 hr 3 min 22 sec) 
Heartbeat CPU 0 instructions: 39000001 cycles: 270151982 heartbeat IPC: 0.139625 cumulative IPC: 0.141045 (Simulation time: 0 hr 3 min 27 sec) 
Heartbeat CPU 0 instructions: 40000000 cycles: 277401342 heartbeat IPC: 0.137943 cumulative IPC: 0.140939 (Simulation time: 0 hr 3 min 33 sec) 
Heartbeat CPU 0 instructions: 41000002 cycles: 284638443 heartbeat IPC: 0.138177 cumulative IPC: 0.140848 (Simulation time: 0 hr 3 min 38 sec) 
Heartbeat CPU 0 instructions: 42000003 cycles: 291888473 heartbeat IPC: 0.137931 cumulative IPC: 0.140755 (Simulation time: 0 hr 3 min 43 sec) 
Heartbeat CPU 0 instructions: 43000002 cycles: 298992951 heartbeat IPC: 0.140756 cumulative IPC: 0.140755 (Simulation time: 0 hr 3 min 49 sec) 
Heartbeat CPU 0 instructions: 44000000 cycles: 306133275 heartbeat IPC: 0.140049 cumulative IPC: 0.140735 (Simulation time: 0 hr 3 min 54 sec) 
Heartbeat CPU 0 instructions: 45000000 cycles: 313282197 heartbeat IPC: 0.139881 cumulative IPC: 0.14071 (Simulation time: 0 hr 4 min 0 sec) 
Heartbeat CPU 0 instructions: 46000000 cycles: 320415579 heartbeat IPC: 0.140186 cumulative IPC: 0.140695 (Simulation time: 0 hr 4 min 5 sec) 
Heartbeat CPU 0 instructions: 47000003 cycles: 327600338 heartbeat IPC: 0.139184 cumulative IPC: 0.140654 (Simulation time: 0 hr 4 min 10 sec) 
Heartbeat CPU 0 instructions: 48000002 cycles: 334684599 heartbeat IPC: 0.141158 cumulative IPC: 0.140667 (Simulation time: 0 hr 4 min 16 sec) 
Heartbeat CPU 0 instructions: 49000001 cycles: 341739554 heartbeat IPC: 0.141744 cumulative IPC: 0.140695 (Simulation time: 0 hr 4 min 21 sec) 
Heartbeat CPU 0 instructions: 50000002 cycles: 348790170 heartbeat IPC: 0.141832 cumulative IPC: 0.140723 (Simulation time: 0 hr 4 min 26 sec) 
Heartbeat CPU 0 instructions: 51000002 cycles: 355831351 heartbeat IPC: 0.142022 cumulative IPC: 0.140754 (Simulation time: 0 hr 4 min 32 sec) 
Heartbeat CPU 0 instructions: 52000001 cycles: 362892763 heartbeat IPC: 0.141615 cumulative IPC: 0.140775 (Simulation time: 0 hr 4 min 37 sec) 
Heartbeat CPU 0 instructions: 53000001 cycles: 369929978 heartbeat IPC: 0.142102 cumulative IPC: 0.140805 (Simulation time: 0 hr 4 min 42 sec) 
Heartbeat CPU 0 instructions: 54000003 cycles: 377066310 heartbeat IPC: 0.140128 cumulative IPC: 0.14079 (Simulation time: 0 hr 4 min 48 sec) 
Heartbeat CPU 0 instructions: 55000000 cycles: 384218854 heartbeat IPC: 0.13981 cumulative IPC: 0.140768 (Simulation time: 0 hr 4 min 53 sec) 
Heartbeat CPU 0 instructions: 56000000 cycles: 391463986 heartbeat IPC: 0.138024 cumulative IPC: 0.140707 (Simulation time: 0 hr 4 min 59 sec) 
Heartbeat CPU 0 instructions: 57000000 cycles: 398669319 heartbeat IPC: 0.138786 cumulative IPC: 0.140666 (Simulation time: 0 hr 5 min 4 sec) 
Heartbeat CPU 0 instructions: 58000001 cycles: 405971320 heartbeat IPC: 0.136949 cumulative IPC: 0.140586 (Simulation time: 0 hr 5 min 9 sec) 
Heartbeat CPU 0 instructions: 59000002 cycles: 413306524 heartbeat IPC: 0.136329 cumulative IPC: 0.140497 (Simulation time: 0 hr 5 min 15 sec) 
Heartbeat CPU 0 instructions: 60000002 cycles: 420626365 heartbeat IPC: 0.136615 cumulative IPC: 0.140417 (Simulation time: 0 hr 5 min 20 sec) 
Heartbeat CPU 0 instructions: 61000001 cycles: 427940920 heartbeat IPC: 0.136714 cumulative IPC: 0.140342 (Simulation time: 0 hr 5 min 26 sec) 
Heartbeat CPU 0 instructions: 62000000 cycles: 435183970 heartbeat IPC: 0.138063 cumulative IPC: 0.140298 (Simulation time: 0 hr 5 min 31 sec) 
Heartbeat CPU 0 instructions: 63000000 cycles: 442372944 heartbeat IPC: 0.139102 cumulative IPC: 0.140275 (Simulation time: 0 hr 5 min 37 sec) 
Heartbeat CPU 0 instructions: 64000001 cycles: 449583430 heartbeat IPC: 0.138687 cumulative IPC: 0.140245 (Simulation time: 0 hr 5 min 42 sec) 
Heartbeat CPU 0 instructions: 65000002 cycles: 456771820 heartbeat IPC: 0.139113 cumulative IPC: 0.140225 (Simulation time: 0 hr 5 min 47 sec) 
Heartbeat CPU 0 instructions: 66000000 cycles: 463899373 heartbeat IPC: 0.1403 cumulative IPC: 0.140226 (Simulation time: 0 hr 5 min 53 sec) 
Heartbeat CPU 0 instructions: 67000000 cycles: 471018485 heartbeat IPC: 0.140467 cumulative IPC: 0.14023 (Simulation time: 0 hr 5 min 58 sec) 
Heartbeat CPU 0 instructions: 68000003 cycles: 478234337 heartbeat IPC: 0.138584 cumulative IPC: 0.140201 (Simulation time: 0 hr 6 min 3 sec) 
Heartbeat CPU 0 instructions: 69000000 cycles: 485400693 heartbeat IPC: 0.139541 cumulative IPC: 0.14019 (Simulation time: 0 hr 6 min 9 sec) 
Heartbeat CPU 0 instructions: 70000003 cycles: 492599449 heartbeat IPC: 0.138913 cumulative IPC: 0.140169 (Simulation time: 0 hr 6 min 14 sec) 
Heartbeat CPU 0 instructions: 71000002 cycles: 499752641 heartbeat IPC: 0.139798 cumulative IPC: 0.140163 (Simulation time: 0 hr 6 min 20 sec) 
Heartbeat CPU 0 instructions: 72000000 cycles: 506948704 heartbeat IPC: 0.138965 cumulative IPC: 0.140143 (Simulation time: 0 hr 6 min 25 sec) 
Heartbeat CPU 0 instructions: 73000003 cycles: 514209108 heartbeat IPC: 0.137734 cumulative IPC: 0.140104 (Simulation time: 0 hr 6 min 31 sec) 
Heartbeat CPU 0 instructions: 74000002 cycles: 521415462 heartbeat IPC: 0.138766 cumulative IPC: 0.140083 (Simulation time: 0 hr 6 min 36 sec) 
Heartbeat CPU 0 instructions: 75000002 cycles: 528637815 heartbeat IPC: 0.138459 cumulative IPC: 0.140058 (Simulation time: 0 hr 6 min 42 sec) 
Heartbeat CPU 0 instructions: 76000003 cycles: 535795596 heartbeat IPC: 0.139708 cumulative IPC: 0.140052 (Simulation time: 0 hr 6 min 47 sec) 
Heartbeat CPU 0 instructions: 77000000 cycles: 542942531 heartbeat IPC: 0.13992 cumulative IPC: 0.140051 (Simulation time: 0 hr 6 min 52 sec) 
Heartbeat CPU 0 instructions: 78000000 cycles: 549997755 heartbeat IPC: 0.141739 cumulative IPC: 0.140075 (Simulation time: 0 hr 6 min 58 sec) 
Heartbeat CPU 0 instructions: 79000000 cycles: 556951662 heartbeat IPC: 0.143804 cumulative IPC: 0.140128 (Simulation time: 0 hr 7 min 3 sec) 
Heartbeat CPU 0 instructions: 80000001 cycles: 563990927 heartbeat IPC: 0.14206 cumulative IPC: 0.140155 (Simulation time: 0 hr 7 min 8 sec) 
Heartbeat CPU 0 instructions: 81000002 cycles: 571029210 heartbeat IPC: 0.14208 cumulative IPC: 0.140182 (Simulation time: 0 hr 7 min 14 sec) 
Heartbeat CPU 0 instructions: 82000002 cycles: 578253917 heartbeat IPC: 0.138414 cumulative IPC: 0.140157 (Simulation time: 0 hr 7 min 19 sec) 
Heartbeat CPU 0 instructions: 83000001 cycles: 585347398 heartbeat IPC: 0.140974 cumulative IPC: 0.140168 (Simulation time: 0 hr 7 min 24 sec) 
Heartbeat CPU 0 instructions: 84000003 cycles: 592449829 heartbeat IPC: 0.140797 cumulative IPC: 0.140176 (Simulation time: 0 hr 7 min 30 sec) 
Heartbeat CPU 0 instructions: 85000003 cycles: 599588292 heartbeat IPC: 0.140086 cumulative IPC: 0.140175 (Simulation time: 0 hr 7 min 35 sec) 
Heartbeat CPU 0 instructions: 86000002 cycles: 606674919 heartbeat IPC: 0.141111 cumulative IPC: 0.140187 (Simulation time: 0 hr 7 min 40 sec) 
Heartbeat CPU 0 instructions: 87000001 cycles: 613760557 heartbeat IPC: 0.14113 cumulative IPC: 0.1402 (Simulation time: 0 hr 7 min 46 sec) 
Heartbeat CPU 0 instructions: 88000000 cycles: 620786025 heartbeat IPC: 0.142339 cumulative IPC: 0.140227 (Simulation time: 0 hr 7 min 51 sec) 
Heartbeat CPU 0 instructions: 89000002 cycles: 627997205 heartbeat IPC: 0.138674 cumulative IPC: 0.140207 (Simulation time: 0 hr 7 min 57 sec) 
Heartbeat CPU 0 instructions: 90000000 cycles: 635078934 heartbeat IPC: 0.141208 cumulative IPC: 0.140219 (Simulation time: 0 hr 8 min 2 sec) 
Heartbeat CPU 0 instructions: 91000003 cycles: 642124652 heartbeat IPC: 0.141931 cumulative IPC: 0.14024 (Simulation time: 0 hr 8 min 7 sec) 
Heartbeat CPU 0 instructions: 92000002 cycles: 649156549 heartbeat IPC: 0.142209 cumulative IPC: 0.140264 (Simulation time: 0 hr 8 min 13 sec) 
Heartbeat CPU 0 instructions: 93000001 cycles: 656211345 heartbeat IPC: 0.141747 cumulative IPC: 0.140281 (Simulation time: 0 hr 8 min 18 sec) 
Heartbeat CPU 0 instructions: 94000002 cycles: 663260556 heartbeat IPC: 0.14186 cumulative IPC: 0.1403 (Simulation time: 0 hr 8 min 23 sec) 
Heartbeat CPU 0 instructions: 95000000 cycles: 670459295 heartbeat IPC: 0.138913 cumulative IPC: 0.140284 (Simulation time: 0 hr 8 min 29 sec) 
Heartbeat CPU 0 instructions: 96000001 cycles: 677470461 heartbeat IPC: 0.14263 cumulative IPC: 0.14031 (Simulation time: 0 hr 8 min 34 sec) 
Heartbeat CPU 0 instructions: 97000001 cycles: 684535105 heartbeat IPC: 0.14155 cumulative IPC: 0.140325 (Simulation time: 0 hr 8 min 39 sec) 
Heartbeat CPU 0 instructions: 98000000 cycles: 691651009 heartbeat IPC: 0.14053 cumulative IPC: 0.140327 (Simulation time: 0 hr 8 min 45 sec) 
Heartbeat CPU 0 instructions: 99000000 cycles: 698824439 heartbeat IPC: 0.139403 cumulative IPC: 0.140316 (Simulation time: 0 hr 8 min 50 sec) 
Heartbeat CPU 0 instructions: 100000002 cycles: 706201919 heartbeat IPC: 0.135548 cumulative IPC: 0.140262 (Simulation time: 0 hr 8 min 56 sec) 
Heartbeat CPU 0 instructions: 101000001 cycles: 713500704 heartbeat IPC: 0.137009 cumulative IPC: 0.140225 (Simulation time: 0 hr 9 min 1 sec) 
Heartbeat CPU 0 instructions: 102000000 cycles: 720781388 heartbeat IPC: 0.13735 cumulative IPC: 0.140193 (Simulation time: 0 hr 9 min 7 sec) 
Heartbeat CPU 0 instructions: 103000000 cycles: 728037787 heartbeat IPC: 0.137809 cumulative IPC: 0.140167 (Simulation time: 0 hr 9 min 12 sec) 
Heartbeat CPU 0 instructions: 104000003 cycles: 735247736 heartbeat IPC: 0.138698 cumulative IPC: 0.140151 (Simulation time: 0 hr 9 min 18 sec) 
Heartbeat CPU 0 instructions: 105000002 cycles: 742522444 heartbeat IPC: 0.137462 cumulative IPC: 0.140122 (Simulation time: 0 hr 9 min 23 sec) 
Heartbeat CPU 0 instructions: 106000003 cycles: 749756281 heartbeat IPC: 0.138239 cumulative IPC: 0.140103 (Simulation time: 0 hr 9 min 29 sec) 
Heartbeat CPU 0 instructions: 107000001 cycles: 756962013 heartbeat IPC: 0.138778 cumulative IPC: 0.140089 (Simulation time: 0 hr 9 min 34 sec) 
Heartbeat CPU 0 instructions: 108000001 cycles: 764143383 heartbeat IPC: 0.139249 cumulative IPC: 0.14008 (Simulation time: 0 hr 9 min 39 sec) 
Heartbeat CPU 0 instructions: 109000000 cycles: 771355676 heartbeat IPC: 0.138652 cumulative IPC: 0.140066 (Simulation time: 0 hr 9 min 45 sec) 
Heartbeat CPU 0 instructions: 110000000 cycles: 778542356 heartbeat IPC: 0.139146 cumulative IPC: 0.140056 (Simulation time: 0 hr 9 min 50 sec) 
Heartbeat CPU 0 instructions: 111000001 cycles: 785638715 heartbeat IPC: 0.140917 cumulative IPC: 0.140065 (Simulation time: 0 hr 9 min 56 sec) 
Heartbeat CPU 0 instructions: 112000000 cycles: 792731516 heartbeat IPC: 0.140988 cumulative IPC: 0.140074 (Simulation time: 0 hr 10 min 1 sec) 
Heartbeat CPU 0 instructions: 113000003 cycles: 799946698 heartbeat IPC: 0.138597 cumulative IPC: 0.140059 (Simulation time: 0 hr 10 min 6 sec) 
Heartbeat CPU 0 instructions: 114000002 cycles: 806953752 heartbeat IPC: 0.142713 cumulative IPC: 0.140084 (Simulation time: 0 hr 10 min 12 sec) 
Heartbeat CPU 0 instructions: 115000001 cycles: 814194176 heartbeat IPC: 0.138113 cumulative IPC: 0.140065 (Simulation time: 0 hr 10 min 17 sec) 
Heartbeat CPU 0 instructions: 116000000 cycles: 821242243 heartbeat IPC: 0.141883 cumulative IPC: 0.140082 (Simulation time: 0 hr 10 min 23 sec) 
Heartbeat CPU 0 instructions: 117000002 cycles: 828282425 heartbeat IPC: 0.142042 cumulative IPC: 0.1401 (Simulation time: 0 hr 10 min 28 sec) 
Heartbeat CPU 0 instructions: 118000003 cycles: 835541930 heartbeat IPC: 0.137751 cumulative IPC: 0.140078 (Simulation time: 0 hr 10 min 33 sec) 
Heartbeat CPU 0 instructions: 119000002 cycles: 842735620 heartbeat IPC: 0.139011 cumulative IPC: 0.140068 (Simulation time: 0 hr 10 min 39 sec) 
Heartbeat CPU 0 instructions: 120000000 cycles: 849994078 heartbeat IPC: 0.13777 cumulative IPC: 0.140047 (Simulation time: 0 hr 10 min 44 sec) 
Heartbeat CPU 0 instructions: 121000000 cycles: 857167117 heartbeat IPC: 0.139411 cumulative IPC: 0.140041 (Simulation time: 0 hr 10 min 50 sec) 
Heartbeat CPU 0 instructions: 122000002 cycles: 864372165 heartbeat IPC: 0.138792 cumulative IPC: 0.14003 (Simulation time: 0 hr 10 min 55 sec) 
Heartbeat CPU 0 instructions: 123000000 cycles: 871565592 heartbeat IPC: 0.139016 cumulative IPC: 0.140021 (Simulation time: 0 hr 11 min 0 sec) 
Heartbeat CPU 0 instructions: 124000001 cycles: 878641462 heartbeat IPC: 0.141326 cumulative IPC: 0.140032 (Simulation time: 0 hr 11 min 6 sec) 
Heartbeat CPU 0 instructions: 125000002 cycles: 885756848 heartbeat IPC: 0.140541 cumulative IPC: 0.140037 (Simulation time: 0 hr 11 min 11 sec) 
Heartbeat CPU 0 instructions: 126000001 cycles: 892927204 heartbeat IPC: 0.139463 cumulative IPC: 0.140032 (Simulation time: 0 hr 11 min 16 sec) 
Heartbeat CPU 0 instructions: 127000003 cycles: 900121148 heartbeat IPC: 0.139006 cumulative IPC: 0.140023 (Simulation time: 0 hr 11 min 22 sec) 
Heartbeat CPU 0 instructions: 128000002 cycles: 907292723 heartbeat IPC: 0.139439 cumulative IPC: 0.140018 (Simulation time: 0 hr 11 min 27 sec) 
Heartbeat CPU 0 instructions: 129000001 cycles: 914509206 heartbeat IPC: 0.138572 cumulative IPC: 0.140006 (Simulation time: 0 hr 11 min 32 sec) 
Heartbeat CPU 0 instructions: 130000003 cycles: 921882404 heartbeat IPC: 0.135627 cumulative IPC: 0.139968 (Simulation time: 0 hr 11 min 38 sec) 
Heartbeat CPU 0 instructions: 131000002 cycles: 928965057 heartbeat IPC: 0.14119 cumulative IPC: 0.139978 (Simulation time: 0 hr 11 min 43 sec) 
Heartbeat CPU 0 instructions: 132000000 cycles: 936046829 heartbeat IPC: 0.141207 cumulative IPC: 0.139988 (Simulation time: 0 hr 11 min 48 sec) 
Heartbeat CPU 0 instructions: 133000000 cycles: 943186631 heartbeat IPC: 0.14006 cumulative IPC: 0.139989 (Simulation time: 0 hr 11 min 54 sec) 
Heartbeat CPU 0 instructions: 134000003 cycles: 950393008 heartbeat IPC: 0.138766 cumulative IPC: 0.139979 (Simulation time: 0 hr 11 min 59 sec) 
Heartbeat CPU 0 instructions: 135000002 cycles: 957523175 heartbeat IPC: 0.140249 cumulative IPC: 0.139981 (Simulation time: 0 hr 12 min 4 sec) 
Heartbeat CPU 0 instructions: 136000001 cycles: 964847689 heartbeat IPC: 0.136528 cumulative IPC: 0.139953 (Simulation time: 0 hr 12 min 10 sec) 
Heartbeat CPU 0 instructions: 137000001 cycles: 971997033 heartbeat IPC: 0.139873 cumulative IPC: 0.139952 (Simulation time: 0 hr 12 min 15 sec) 
Heartbeat CPU 0 instructions: 138000003 cycles: 979311286 heartbeat IPC: 0.13672 cumulative IPC: 0.139926 (Simulation time: 0 hr 12 min 20 sec) 
Heartbeat CPU 0 instructions: 139000001 cycles: 986416406 heartbeat IPC: 0.140743 cumulative IPC: 0.139933 (Simulation time: 0 hr 12 min 25 sec) 
Heartbeat CPU 0 instructions: 140000000 cycles: 993772812 heartbeat IPC: 0.135936 cumulative IPC: 0.139901 (Simulation time: 0 hr 12 min 31 sec) 
Heartbeat CPU 0 instructions: 141000003 cycles: 1000793106 heartbeat IPC: 0.142445 cumulative IPC: 0.13992 (Simulation time: 0 hr 12 min 36 sec) 
Heartbeat CPU 0 instructions: 142000000 cycles: 1007804160 heartbeat IPC: 0.142631 cumulative IPC: 0.13994 (Simulation time: 0 hr 12 min 41 sec) 
Heartbeat CPU 0 instructions: 143000000 cycles: 1015037311 heartbeat IPC: 0.138252 cumulative IPC: 0.139927 (Simulation time: 0 hr 12 min 47 sec) 
Heartbeat CPU 0 instructions: 144000003 cycles: 1022035157 heartbeat IPC: 0.142902 cumulative IPC: 0.139949 (Simulation time: 0 hr 12 min 52 sec) 
Heartbeat CPU 0 instructions: 145000002 cycles: 1029085147 heartbeat IPC: 0.141844 cumulative IPC: 0.139963 (Simulation time: 0 hr 12 min 57 sec) 
Heartbeat CPU 0 instructions: 146000001 cycles: 1036259370 heartbeat IPC: 0.139388 cumulative IPC: 0.139959 (Simulation time: 0 hr 13 min 2 sec) 
Heartbeat CPU 0 instructions: 147000000 cycles: 1043706798 heartbeat IPC: 0.134274 cumulative IPC: 0.139915 (Simulation time: 0 hr 13 min 8 sec) 
Heartbeat CPU 0 instructions: 148000003 cycles: 1050854798 heartbeat IPC: 0.1399 cumulative IPC: 0.139915 (Simulation time: 0 hr 13 min 13 sec) 
Heartbeat CPU 0 instructions: 149000000 cycles: 1057950196 heartbeat IPC: 0.140936 cumulative IPC: 0.139923 (Simulation time: 0 hr 13 min 19 sec) 
Heartbeat CPU 0 instructions: 150000000 cycles: 1065028217 heartbeat IPC: 0.141282 cumulative IPC: 0.139932 (Simulation time: 0 hr 13 min 24 sec) 
Heartbeat CPU 0 instructions: 151000003 cycles: 1072125556 heartbeat IPC: 0.140898 cumulative IPC: 0.139939 (Simulation time: 0 hr 13 min 29 sec) 
Heartbeat CPU 0 instructions: 152000003 cycles: 1079177697 heartbeat IPC: 0.141801 cumulative IPC: 0.139952 (Simulation time: 0 hr 13 min 34 sec) 
Heartbeat CPU 0 instructions: 153000002 cycles: 1086276514 heartbeat IPC: 0.140868 cumulative IPC: 0.139958 (Simulation time: 0 hr 13 min 40 sec) 
Heartbeat CPU 0 instructions: 154000000 cycles: 1093333805 heartbeat IPC: 0.141697 cumulative IPC: 0.13997 (Simulation time: 0 hr 13 min 45 sec) 
Heartbeat CPU 0 instructions: 155000002 cycles: 1100469023 heartbeat IPC: 0.14015 cumulative IPC: 0.139971 (Simulation time: 0 hr 13 min 50 sec) 
Heartbeat CPU 0 instructions: 156000001 cycles: 1107591497 heartbeat IPC: 0.140401 cumulative IPC: 0.139974 (Simulation time: 0 hr 13 min 55 sec) 
Heartbeat CPU 0 instructions: 157000003 cycles: 1114735209 heartbeat IPC: 0.139984 cumulative IPC: 0.139974 (Simulation time: 0 hr 14 min 0 sec) 
Heartbeat CPU 0 instructions: 158000002 cycles: 1121875181 heartbeat IPC: 0.140056 cumulative IPC: 0.139975 (Simulation time: 0 hr 14 min 6 sec) 
Heartbeat CPU 0 instructions: 159000001 cycles: 1129111027 heartbeat IPC: 0.138201 cumulative IPC: 0.139963 (Simulation time: 0 hr 14 min 11 sec) 
Heartbeat CPU 0 instructions: 160000000 cycles: 1136338718 heartbeat IPC: 0.138357 cumulative IPC: 0.139952 (Simulation time: 0 hr 14 min 16 sec) 
Heartbeat CPU 0 instructions: 161000003 cycles: 1143627845 heartbeat IPC: 0.137191 cumulative IPC: 0.139933 (Simulation time: 0 hr 14 min 21 sec) 
Heartbeat CPU 0 instructions: 162000002 cycles: 1150941726 heartbeat IPC: 0.136726 cumulative IPC: 0.139912 (Simulation time: 0 hr 14 min 27 sec) 
Heartbeat CPU 0 instructions: 163000001 cycles: 1158226980 heartbeat IPC: 0.137263 cumulative IPC: 0.139894 (Simulation time: 0 hr 14 min 32 sec) 
Heartbeat CPU 0 instructions: 164000000 cycles: 1165463593 heartbeat IPC: 0.138186 cumulative IPC: 0.139883 (Simulation time: 0 hr 14 min 37 sec) 
Heartbeat CPU 0 instructions: 165000000 cycles: 1172660363 heartbeat IPC: 0.138951 cumulative IPC: 0.139877 (Simulation time: 0 hr 14 min 43 sec) 
Heartbeat CPU 0 instructions: 166000001 cycles: 1179761673 heartbeat IPC: 0.140819 cumulative IPC: 0.139883 (Simulation time: 0 hr 14 min 48 sec) 
Heartbeat CPU 0 instructions: 167000000 cycles: 1186874105 heartbeat IPC: 0.140599 cumulative IPC: 0.139888 (Simulation time: 0 hr 14 min 53 sec) 
Heartbeat CPU 0 instructions: 168000002 cycles: 1194151217 heartbeat IPC: 0.137417 cumulative IPC: 0.139872 (Simulation time: 0 hr 14 min 59 sec) 
Heartbeat CPU 0 instructions: 169000003 cycles: 1201677303 heartbeat IPC: 0.132871 cumulative IPC: 0.139825 (Simulation time: 0 hr 15 min 4 sec) 
Heartbeat CPU 0 instructions: 170000002 cycles: 1208872505 heartbeat IPC: 0.138981 cumulative IPC: 0.13982 (Simulation time: 0 hr 15 min 9 sec) 
Heartbeat CPU 0 instructions: 171000003 cycles: 1216107079 heartbeat IPC: 0.138225 cumulative IPC: 0.13981 (Simulation time: 0 hr 15 min 15 sec) 
Heartbeat CPU 0 instructions: 172000000 cycles: 1223329964 heartbeat IPC: 0.138448 cumulative IPC: 0.139801 (Simulation time: 0 hr 15 min 20 sec) 
Heartbeat CPU 0 instructions: 173000002 cycles: 1230684558 heartbeat IPC: 0.13597 cumulative IPC: 0.139777 (Simulation time: 0 hr 15 min 25 sec) 
Heartbeat CPU 0 instructions: 174000001 cycles: 1238115298 heartbeat IPC: 0.134576 cumulative IPC: 0.139744 (Simulation time: 0 hr 15 min 30 sec) 
Heartbeat CPU 0 instructions: 175000000 cycles: 1245407780 heartbeat IPC: 0.137127 cumulative IPC: 0.139728 (Simulation time: 0 hr 15 min 36 sec) 
Heartbeat CPU 0 instructions: 176000000 cycles: 1252658940 heartbeat IPC: 0.137909 cumulative IPC: 0.139717 (Simulation time: 0 hr 15 min 41 sec) 
Heartbeat CPU 0 instructions: 177000001 cycles: 1259926125 heartbeat IPC: 0.137605 cumulative IPC: 0.139704 (Simulation time: 0 hr 15 min 46 sec) 
Heartbeat CPU 0 instructions: 178000000 cycles: 1267206948 heartbeat IPC: 0.137347 cumulative IPC: 0.13969 (Simulation time: 0 hr 15 min 52 sec) 
Heartbeat CPU 0 instructions: 179000003 cycles: 1274467277 heartbeat IPC: 0.137735 cumulative IPC: 0.139678 (Simulation time: 0 hr 15 min 57 sec) 
Heartbeat CPU 0 instructions: 180000002 cycles: 1281709114 heartbeat IPC: 0.138086 cumulative IPC: 0.139669 (Simulation time: 0 hr 16 min 2 sec) 
Heartbeat CPU 0 instructions: 181000001 cycles: 1288926742 heartbeat IPC: 0.13855 cumulative IPC: 0.139662 (Simulation time: 0 hr 16 min 7 sec) 
Heartbeat CPU 0 instructions: 182000000 cycles: 1296165258 heartbeat IPC: 0.13815 cumulative IPC: 0.139653 (Simulation time: 0 hr 16 min 13 sec) 
Heartbeat CPU 0 instructions: 183000001 cycles: 1303352088 heartbeat IPC: 0.139144 cumulative IPC: 0.13965 (Simulation time: 0 hr 16 min 18 sec) 
Heartbeat CPU 0 instructions: 184000001 cycles: 1310417141 heartbeat IPC: 0.141542 cumulative IPC: 0.139661 (Simulation time: 0 hr 16 min 23 sec) 
Heartbeat CPU 0 instructions: 185000001 cycles: 1317569412 heartbeat IPC: 0.139816 cumulative IPC: 0.139662 (Simulation time: 0 hr 16 min 28 sec) 
Heartbeat CPU 0 instructions: 186000000 cycles: 1324782200 heartbeat IPC: 0.138643 cumulative IPC: 0.139656 (Simulation time: 0 hr 16 min 33 sec) 
Heartbeat CPU 0 instructions: 187000000 cycles: 1331926529 heartbeat IPC: 0.139971 cumulative IPC: 0.139658 (Simulation time: 0 hr 16 min 39 sec) 
Heartbeat CPU 0 instructions: 188000002 cycles: 1339205135 heartbeat IPC: 0.137389 cumulative IPC: 0.139645 (Simulation time: 0 hr 16 min 44 sec) 
Heartbeat CPU 0 instructions: 189000001 cycles: 1346520883 heartbeat IPC: 0.136691 cumulative IPC: 0.139628 (Simulation time: 0 hr 16 min 49 sec) 
Heartbeat CPU 0 instructions: 190000000 cycles: 1353747665 heartbeat IPC: 0.138374 cumulative IPC: 0.139621 (Simulation time: 0 hr 16 min 54 sec) 
Heartbeat CPU 0 instructions: 191000000 cycles: 1361076044 heartbeat IPC: 0.136456 cumulative IPC: 0.139603 (Simulation time: 0 hr 17 min 0 sec) 
Heartbeat CPU 0 instructions: 192000001 cycles: 1368415138 heartbeat IPC: 0.136257 cumulative IPC: 0.139584 (Simulation time: 0 hr 17 min 5 sec) 
Heartbeat CPU 0 instructions: 193000000 cycles: 1375717552 heartbeat IPC: 0.136941 cumulative IPC: 0.13957 (Simulation time: 0 hr 17 min 10 sec) 
Heartbeat CPU 0 instructions: 194000001 cycles: 1383228095 heartbeat IPC: 0.133146 cumulative IPC: 0.139533 (Simulation time: 0 hr 17 min 16 sec) 
Heartbeat CPU 0 instructions: 195000001 cycles: 1390401956 heartbeat IPC: 0.139395 cumulative IPC: 0.139532 (Simulation time: 0 hr 17 min 21 sec) 
Heartbeat CPU 0 instructions: 196000003 cycles: 1397718888 heartbeat IPC: 0.13667 cumulative IPC: 0.139517 (Simulation time: 0 hr 17 min 26 sec) 
Heartbeat CPU 0 instructions: 197000002 cycles: 1405013556 heartbeat IPC: 0.137086 cumulative IPC: 0.139503 (Simulation time: 0 hr 17 min 31 sec) 
Heartbeat CPU 0 instructions: 198000000 cycles: 1412382134 heartbeat IPC: 0.135711 cumulative IPC: 0.139483 (Simulation time: 0 hr 17 min 37 sec) 
Heartbeat CPU 0 instructions: 199000000 cycles: 1419686364 heartbeat IPC: 0.136907 cumulative IPC: 0.139469 (Simulation time: 0 hr 17 min 42 sec) 
Heartbeat CPU 0 instructions: 200000002 cycles: 1427004682 heartbeat IPC: 0.136644 cumulative IPC: 0.139454 (Simulation time: 0 hr 17 min 47 sec) 
Heartbeat CPU 0 instructions: 201000000 cycles: 1434372268 heartbeat IPC: 0.135729 cumulative IPC: 0.139434 (Simulation time: 0 hr 17 min 53 sec) 
Heartbeat CPU 0 instructions: 202000001 cycles: 1441624790 heartbeat IPC: 0.137883 cumulative IPC: 0.139425 (Simulation time: 0 hr 17 min 58 sec) 
Heartbeat CPU 0 instructions: 203000000 cycles: 1448803041 heartbeat IPC: 0.13931 cumulative IPC: 0.139425 (Simulation time: 0 hr 18 min 3 sec) 
Heartbeat CPU 0 instructions: 204000000 cycles: 1456040917 heartbeat IPC: 0.138162 cumulative IPC: 0.139418 (Simulation time: 0 hr 18 min 8 sec) 
Heartbeat CPU 0 instructions: 205000002 cycles: 1463260150 heartbeat IPC: 0.138519 cumulative IPC: 0.139414 (Simulation time: 0 hr 18 min 14 sec) 
Heartbeat CPU 0 instructions: 206000002 cycles: 1470491133 heartbeat IPC: 0.138294 cumulative IPC: 0.139408 (Simulation time: 0 hr 18 min 19 sec) 
Heartbeat CPU 0 instructions: 207000002 cycles: 1477787604 heartbeat IPC: 0.137053 cumulative IPC: 0.139396 (Simulation time: 0 hr 18 min 24 sec) 
Heartbeat CPU 0 instructions: 208000002 cycles: 1485105500 heartbeat IPC: 0.136651 cumulative IPC: 0.139381 (Simulation time: 0 hr 18 min 30 sec) 
Heartbeat CPU 0 instructions: 209000000 cycles: 1492475638 heartbeat IPC: 0.135682 cumulative IPC: 0.139362 (Simulation time: 0 hr 18 min 35 sec) 
Heartbeat CPU 0 instructions: 210000000 cycles: 1499797179 heartbeat IPC: 0.136583 cumulative IPC: 0.139348 (Simulation time: 0 hr 18 min 40 sec) 
Heartbeat CPU 0 instructions: 211000002 cycles: 1507113615 heartbeat IPC: 0.136679 cumulative IPC: 0.139335 (Simulation time: 0 hr 18 min 45 sec) 
Heartbeat CPU 0 instructions: 212000001 cycles: 1514492924 heartbeat IPC: 0.135514 cumulative IPC: 0.139315 (Simulation time: 0 hr 18 min 51 sec) 
Heartbeat CPU 0 instructions: 213000000 cycles: 1521779852 heartbeat IPC: 0.137232 cumulative IPC: 0.139305 (Simulation time: 0 hr 18 min 56 sec) 
Heartbeat CPU 0 instructions: 214000003 cycles: 1529069803 heartbeat IPC: 0.137176 cumulative IPC: 0.139294 (Simulation time: 0 hr 19 min 1 sec) 
Heartbeat CPU 0 instructions: 215000002 cycles: 1536365299 heartbeat IPC: 0.137071 cumulative IPC: 0.139283 (Simulation time: 0 hr 19 min 7 sec) 
Heartbeat CPU 0 instructions: 216000001 cycles: 1543659343 heartbeat IPC: 0.137098 cumulative IPC: 0.139272 (Simulation time: 0 hr 19 min 12 sec) 
Heartbeat CPU 0 instructions: 217000000 cycles: 1550906603 heartbeat IPC: 0.137983 cumulative IPC: 0.139266 (Simulation time: 0 hr 19 min 17 sec) 
Heartbeat CPU 0 instructions: 218000000 cycles: 1558148329 heartbeat IPC: 0.138089 cumulative IPC: 0.13926 (Simulation time: 0 hr 19 min 23 sec) 
Heartbeat CPU 0 instructions: 219000002 cycles: 1565450945 heartbeat IPC: 0.136937 cumulative IPC: 0.139249 (Simulation time: 0 hr 19 min 28 sec) 
Heartbeat CPU 0 instructions: 220000000 cycles: 1572785595 heartbeat IPC: 0.136339 cumulative IPC: 0.139235 (Simulation time: 0 hr 19 min 33 sec) 
Heartbeat CPU 0 instructions: 221000000 cycles: 1580161169 heartbeat IPC: 0.135583 cumulative IPC: 0.139217 (Simulation time: 0 hr 19 min 39 sec) 
Heartbeat CPU 0 instructions: 222000001 cycles: 1587579771 heartbeat IPC: 0.134796 cumulative IPC: 0.139196 (Simulation time: 0 hr 19 min 44 sec) 
Heartbeat CPU 0 instructions: 223000002 cycles: 1594946672 heartbeat IPC: 0.135742 cumulative IPC: 0.139179 (Simulation time: 0 hr 19 min 49 sec) 
Heartbeat CPU 0 instructions: 224000000 cycles: 1602323106 heartbeat IPC: 0.135567 cumulative IPC: 0.139162 (Simulation time: 0 hr 19 min 55 sec) 
Heartbeat CPU 0 instructions: 225000001 cycles: 1609616699 heartbeat IPC: 0.137107 cumulative IPC: 0.139152 (Simulation time: 0 hr 20 min 0 sec) 
Heartbeat CPU 0 instructions: 226000000 cycles: 1616954671 heartbeat IPC: 0.136277 cumulative IPC: 0.139138 (Simulation time: 0 hr 20 min 5 sec) 
Heartbeat CPU 0 instructions: 227000002 cycles: 1624371960 heartbeat IPC: 0.13482 cumulative IPC: 0.139118 (Simulation time: 0 hr 20 min 11 sec) 
Heartbeat CPU 0 instructions: 228000002 cycles: 1631853201 heartbeat IPC: 0.133668 cumulative IPC: 0.139092 (Simulation time: 0 hr 20 min 16 sec) 
Heartbeat CPU 0 instructions: 229000001 cycles: 1639263782 heartbeat IPC: 0.134942 cumulative IPC: 0.139072 (Simulation time: 0 hr 20 min 21 sec) 
Heartbeat CPU 0 instructions: 230000000 cycles: 1646634679 heartbeat IPC: 0.135669 cumulative IPC: 0.139056 (Simulation time: 0 hr 20 min 27 sec) 
Heartbeat CPU 0 instructions: 231000000 cycles: 1654033846 heartbeat IPC: 0.13515 cumulative IPC: 0.139038 (Simulation time: 0 hr 20 min 32 sec) 
Heartbeat CPU 0 instructions: 232000001 cycles: 1661401643 heartbeat IPC: 0.135726 cumulative IPC: 0.139023 (Simulation time: 0 hr 20 min 38 sec) 
Heartbeat CPU 0 instructions: 233000000 cycles: 1668647049 heartbeat IPC: 0.138018 cumulative IPC: 0.139018 (Simulation time: 0 hr 20 min 43 sec) 
Heartbeat CPU 0 instructions: 234000003 cycles: 1675958623 heartbeat IPC: 0.13677 cumulative IPC: 0.139008 (Simulation time: 0 hr 20 min 48 sec) 
Heartbeat CPU 0 instructions: 235000002 cycles: 1683339351 heartbeat IPC: 0.135488 cumulative IPC: 0.138992 (Simulation time: 0 hr 20 min 54 sec) 
Heartbeat CPU 0 instructions: 236000001 cycles: 1690775082 heartbeat IPC: 0.134486 cumulative IPC: 0.138972 (Simulation time: 0 hr 20 min 59 sec) 
Heartbeat CPU 0 instructions: 237000000 cycles: 1698225063 heartbeat IPC: 0.134228 cumulative IPC: 0.13895 (Simulation time: 0 hr 21 min 4 sec) 
Heartbeat CPU 0 instructions: 238000000 cycles: 1705657753 heartbeat IPC: 0.134541 cumulative IPC: 0.13893 (Simulation time: 0 hr 21 min 10 sec) 
Heartbeat CPU 0 instructions: 239000002 cycles: 1713015749 heartbeat IPC: 0.135907 cumulative IPC: 0.138917 (Simulation time: 0 hr 21 min 15 sec) 
Heartbeat CPU 0 instructions: 240000001 cycles: 1720347589 heartbeat IPC: 0.136391 cumulative IPC: 0.138905 (Simulation time: 0 hr 21 min 21 sec) 
Heartbeat CPU 0 instructions: 241000000 cycles: 1727706123 heartbeat IPC: 0.135897 cumulative IPC: 0.138892 (Simulation time: 0 hr 21 min 26 sec) 
Heartbeat CPU 0 instructions: 242000000 cycles: 1735393268 heartbeat IPC: 0.130087 cumulative IPC: 0.138852 (Simulation time: 0 hr 21 min 32 sec) 
Heartbeat CPU 0 instructions: 243000000 cycles: 1742718726 heartbeat IPC: 0.13651 cumulative IPC: 0.138841 (Simulation time: 0 hr 21 min 37 sec) 
Heartbeat CPU 0 instructions: 244000003 cycles: 1749977850 heartbeat IPC: 0.137758 cumulative IPC: 0.138837 (Simulation time: 0 hr 21 min 42 sec) 
Heartbeat CPU 0 instructions: 245000002 cycles: 1757294433 heartbeat IPC: 0.136676 cumulative IPC: 0.138827 (Simulation time: 0 hr 21 min 48 sec) 
Heartbeat CPU 0 instructions: 246000003 cycles: 1764585662 heartbeat IPC: 0.137151 cumulative IPC: 0.13882 (Simulation time: 0 hr 21 min 53 sec) 
Heartbeat CPU 0 instructions: 247000000 cycles: 1771921691 heartbeat IPC: 0.136313 cumulative IPC: 0.138809 (Simulation time: 0 hr 21 min 58 sec) 
Heartbeat CPU 0 instructions: 248000003 cycles: 1779349325 heartbeat IPC: 0.134633 cumulative IPC: 0.138791 (Simulation time: 0 hr 22 min 4 sec) 
Heartbeat CPU 0 instructions: 249000001 cycles: 1786749432 heartbeat IPC: 0.135133 cumulative IPC: 0.138776 (Simulation time: 0 hr 22 min 9 sec) 
Heartbeat CPU 0 instructions: 250000000 cycles: 1794142547 heartbeat IPC: 0.135261 cumulative IPC: 0.138761 (Simulation time: 0 hr 22 min 14 sec) 
Heartbeat CPU 0 instructions: 251000000 cycles: 1801552728 heartbeat IPC: 0.134949 cumulative IPC: 0.138744 (Simulation time: 0 hr 22 min 20 sec) 
Heartbeat CPU 0 instructions: 252000003 cycles: 1809040768 heartbeat IPC: 0.133547 cumulative IPC: 0.138722 (Simulation time: 0 hr 22 min 25 sec) 
Heartbeat CPU 0 instructions: 253000000 cycles: 1816759387 heartbeat IPC: 0.129556 cumulative IPC: 0.138682 (Simulation time: 0 hr 22 min 31 sec) 
Heartbeat CPU 0 instructions: 254000001 cycles: 1824094755 heartbeat IPC: 0.136326 cumulative IPC: 0.138672 (Simulation time: 0 hr 22 min 36 sec) 
Heartbeat CPU 0 instructions: 255000000 cycles: 1831493460 heartbeat IPC: 0.135159 cumulative IPC: 0.138657 (Simulation time: 0 hr 22 min 42 sec) 
Heartbeat CPU 0 instructions: 256000003 cycles: 1838874702 heartbeat IPC: 0.135479 cumulative IPC: 0.138644 (Simulation time: 0 hr 22 min 47 sec) 
Heartbeat CPU 0 instructions: 257000002 cycles: 1846207378 heartbeat IPC: 0.136376 cumulative IPC: 0.138634 (Simulation time: 0 hr 22 min 53 sec) 
Heartbeat CPU 0 instructions: 258000001 cycles: 1853440880 heartbeat IPC: 0.138245 cumulative IPC: 0.138633 (Simulation time: 0 hr 22 min 58 sec) 
Heartbeat CPU 0 instructions: 259000003 cycles: 1860850319 heartbeat IPC: 0.134963 cumulative IPC: 0.138618 (Simulation time: 0 hr 23 min 4 sec) 
Heartbeat CPU 0 instructions: 260000002 cycles: 1868196484 heartbeat IPC: 0.136125 cumulative IPC: 0.138608 (Simulation time: 0 hr 23 min 9 sec) 
Finished CPU 0 instructions: 250000003 cycles: 1803652752 cumulative IPC: 0.138608 (Simulation time: 0 hr 23 min 9 sec) 

ChampSim completed all CPUs

Region of Interest Statistics

CPU 0 cumulative IPC: 0.138608 instructions: 250000003 cycles: 1803652752
L1D TOTAL     ACCESS:   46601783  HIT:   33244285  MISS:   13357498
L1D LOAD      ACCESS:   35516141  HIT:   22851632  MISS:   12664509
L1D RFO       ACCESS:   11085642  HIT:   10392653  MISS:     692989
L1D PREFETCH  ACCESS:          0  HIT:          0  MISS:          0
L1D WRITEBACK ACCESS:          0  HIT:          0  MISS:          0
L1D PREFETCH  REQUESTED:          0  ISSUED:          0  USEFUL:          0  USELESS:          0
L1D AVERAGE MISS LATENCY: 138.308 cycles
L1I TOTAL     ACCESS:   49645843  HIT:   49645843  MISS:          0
L1I LOAD      ACCESS:   49645843  HIT:   49645843  MISS:          0
L1I RFO       ACCESS:          0  HIT:          0  MISS:          0
L1I PREFETCH  ACCESS:          0  HIT:          0  MISS:          0
L1I WRITEBACK ACCESS:          0  HIT:          0  MISS:          0
L1I PREFETCH  REQUESTED:          0  ISSUED:          0  USEFUL:          0  USELESS:          0
L1I AVERAGE MISS LATENCY: -nan cycles
L2C TOTAL     ACCESS:   18900418  HIT:   12155649  MISS:    6744769
L2C LOAD      ACCESS:   12664509  HIT:    5976236  MISS:    6688273
L2C RFO       ACCESS:     692989  HIT:     636493  MISS:      56496
L2C PREFETCH  ACCESS:          0  HIT:          0  MISS:          0
L2C WRITEBACK ACCESS:    5542920  HIT:    5542920  MISS:          0
L2C PREFETCH  REQUESTED:          0  ISSUED:          0  USEFUL:          0  USELESS:          0
L2C AVERAGE MISS LATENCY: 230.389 cycles
LLC TOTAL     ACCESS:   12714481  HIT:    6366718  MISS:    6347763
LLC LOAD      ACCESS:    6688273  HIT:     398375  MISS:    6289898
LLC RFO       ACCESS:      56496  HIT:      56486  MISS:         10
LLC PREFETCH  ACCESS:     425330  HIT:     367475  MISS:      57855
LLC WRITEBACK ACCESS:    5544382  HIT:    5544382  MISS:          0
LLC PREFETCH  REQUESTED:     510102  ISSUED:     436964  USEFUL:      51202  USELESS:       6640
LLC AVERAGE MISS LATENCY: 211.841 cycles
Major fault: 0 Minor fault: 104671
performance stats:
mapping cache size: 6504865
divergence: 312020

DRAM Statistics
 CHANNEL 0
 RQ ROW_BUFFER_HIT:     999978  ROW_BUFFER_MISS:    2173913
 DBUS_CONGESTED:    1381959
 WQ ROW_BUFFER_HIT:     953636  ROW_BUFFER_MISS:    1819000  FULL:          0

 CHANNEL 1
 RQ ROW_BUFFER_HIT:     999606  ROW_BUFFER_MISS:    2174265
 DBUS_CONGESTED:    1381959
 WQ ROW_BUFFER_HIT:     950061  ROW_BUFFER_MISS:    1822582  FULL:          0

 AVG_CONGESTED_CYCLE: 12

CPU 0 Branch Prediction Accuracy: 99.9869% MPKI: 0.020424 Average ROB Occupancy at Mispredict: 309.511

Branch types
NOT_BRANCH: 211056388 84.4226%
BRANCH_DIRECT_JUMP: 5686722 2.27469%
BRANCH_INDIRECT: 0 0%
BRANCH_CONDITIONAL: 22171263 8.86851%
BRANCH_DIRECT_CALL: 5542816 2.21713%
BRANCH_INDIRECT_CALL: 0 0%
BRANCH_RETURN: 5542816 2.21713%
BRANCH_OTHER: 0 0%

