
*** ChampSim Multicore Out-of-Order Simulator ***

Warmup Instructions: 1000000
Prefetch Warmup Instructions: 10000000
Simulation Instructions: 250000000
Stat Printing Period: 1000000
Number of CPUs: 1
LLC sets: 2048
LLC ways: 16
Off-chip DRAM Size: 32768 MB Channels: 2 Width: 64-bit Data Rate: 1024 MT/s

CPU 0 runs /scratch/cluster/cmolder/ML-DPC/ChampSimTraces/spec17/605.mcf-s4.trace.xz
Read seed: 223
Heartbeat CPU 0 instructions: 1000002 cycles: 415473 heartbeat IPC: 2.4069 cumulative IPC: 2.4069 (Simulation time: 0 hr 0 min 3 sec) 

Warmup complete CPU 0 instructions: 1000002 cycles: 415473 (Simulation time: 0 hr 0 min 3 sec) 

Heartbeat CPU 0 instructions: 2000000 cycles: 4209893 heartbeat IPC: 0.263544 cumulative IPC: 0.263544 (Simulation time: 0 hr 0 min 8 sec) 
Heartbeat CPU 0 instructions: 3000000 cycles: 6109865 heartbeat IPC: 0.526324 cumulative IPC: 0.351222 (Simulation time: 0 hr 0 min 12 sec) 
Heartbeat CPU 0 instructions: 4000000 cycles: 8521478 heartbeat IPC: 0.41466 cumulative IPC: 0.370096 (Simulation time: 0 hr 0 min 16 sec) 
Heartbeat CPU 0 instructions: 5000000 cycles: 12370585 heartbeat IPC: 0.259801 cumulative IPC: 0.334585 (Simulation time: 0 hr 0 min 21 sec) 
Heartbeat CPU 0 instructions: 6000001 cycles: 14141270 heartbeat IPC: 0.564754 cumulative IPC: 0.364278 (Simulation time: 0 hr 0 min 25 sec) 
Heartbeat CPU 0 instructions: 7000002 cycles: 17180131 heartbeat IPC: 0.329071 cumulative IPC: 0.357896 (Simulation time: 0 hr 0 min 30 sec) 
Heartbeat CPU 0 instructions: 8000000 cycles: 19783201 heartbeat IPC: 0.384161 cumulative IPC: 0.361426 (Simulation time: 0 hr 0 min 34 sec) 
Heartbeat CPU 0 instructions: 9000001 cycles: 22034946 heartbeat IPC: 0.4441 cumulative IPC: 0.370037 (Simulation time: 0 hr 0 min 38 sec) 
Heartbeat CPU 0 instructions: 10000001 cycles: 25324400 heartbeat IPC: 0.304002 cumulative IPC: 0.361316 (Simulation time: 0 hr 0 min 43 sec) 

Warmup complete CPU 0 instructions: 10000001 cycles: 25324400 (Simulation time: 0 hr 0 min 43 sec) 

Heartbeat CPU 0 instructions: 11000000 cycles: 27449162 heartbeat IPC: 0.47064 cumulative IPC: 0.47064 (Simulation time: 0 hr 0 min 47 sec) 
Heartbeat CPU 0 instructions: 12000002 cycles: 33405975 heartbeat IPC: 0.167875 cumulative IPC: 0.247477 (Simulation time: 0 hr 0 min 54 sec) 
Heartbeat CPU 0 instructions: 13000001 cycles: 35377304 heartbeat IPC: 0.507271 cumulative IPC: 0.298421 (Simulation time: 0 hr 0 min 58 sec) 
Heartbeat CPU 0 instructions: 14000002 cycles: 39521030 heartbeat IPC: 0.241329 cumulative IPC: 0.281757 (Simulation time: 0 hr 1 min 3 sec) 
Heartbeat CPU 0 instructions: 15000000 cycles: 43916824 heartbeat IPC: 0.22749 cumulative IPC: 0.268927 (Simulation time: 0 hr 1 min 9 sec) 
Heartbeat CPU 0 instructions: 16000000 cycles: 46247588 heartbeat IPC: 0.429044 cumulative IPC: 0.286763 (Simulation time: 0 hr 1 min 13 sec) 
Heartbeat CPU 0 instructions: 17000001 cycles: 51435995 heartbeat IPC: 0.192738 cumulative IPC: 0.26808 (Simulation time: 0 hr 1 min 19 sec) 
Heartbeat CPU 0 instructions: 18000003 cycles: 57869766 heartbeat IPC: 0.15543 cumulative IPC: 0.245811 (Simulation time: 0 hr 1 min 26 sec) 
Heartbeat CPU 0 instructions: 19000000 cycles: 63623174 heartbeat IPC: 0.173809 cumulative IPC: 0.234994 (Simulation time: 0 hr 1 min 33 sec) 
Heartbeat CPU 0 instructions: 20000000 cycles: 65403024 heartbeat IPC: 0.561845 cumulative IPC: 0.24951 (Simulation time: 0 hr 1 min 37 sec) 
Heartbeat CPU 0 instructions: 21000000 cycles: 68013480 heartbeat IPC: 0.383075 cumulative IPC: 0.257677 (Simulation time: 0 hr 1 min 41 sec) 
Heartbeat CPU 0 instructions: 22000000 cycles: 72936299 heartbeat IPC: 0.203136 cumulative IPC: 0.252038 (Simulation time: 0 hr 1 min 47 sec) 
Heartbeat CPU 0 instructions: 23000000 cycles: 79114239 heartbeat IPC: 0.161866 cumulative IPC: 0.241681 (Simulation time: 0 hr 1 min 55 sec) 
Heartbeat CPU 0 instructions: 24000002 cycles: 85223971 heartbeat IPC: 0.163674 cumulative IPC: 0.233725 (Simulation time: 0 hr 2 min 2 sec) 
Heartbeat CPU 0 instructions: 25000000 cycles: 91419993 heartbeat IPC: 0.161394 cumulative IPC: 0.226944 (Simulation time: 0 hr 2 min 9 sec) 
Heartbeat CPU 0 instructions: 26000000 cycles: 97530836 heartbeat IPC: 0.163644 cumulative IPC: 0.221587 (Simulation time: 0 hr 2 min 16 sec) 
Heartbeat CPU 0 instructions: 27000000 cycles: 103615170 heartbeat IPC: 0.164357 cumulative IPC: 0.217139 (Simulation time: 0 hr 2 min 24 sec) 
Heartbeat CPU 0 instructions: 28000001 cycles: 105806882 heartbeat IPC: 0.456265 cumulative IPC: 0.223651 (Simulation time: 0 hr 2 min 29 sec) 
Heartbeat CPU 0 instructions: 29000001 cycles: 107593351 heartbeat IPC: 0.559763 cumulative IPC: 0.23095 (Simulation time: 0 hr 2 min 33 sec) 
Heartbeat CPU 0 instructions: 30000002 cycles: 110920921 heartbeat IPC: 0.30052 cumulative IPC: 0.233654 (Simulation time: 0 hr 2 min 38 sec) 
Heartbeat CPU 0 instructions: 31000003 cycles: 113276697 heartbeat IPC: 0.424489 cumulative IPC: 0.238766 (Simulation time: 0 hr 2 min 42 sec) 
Heartbeat CPU 0 instructions: 32000000 cycles: 115205876 heartbeat IPC: 0.518354 cumulative IPC: 0.244767 (Simulation time: 0 hr 2 min 46 sec) 
Heartbeat CPU 0 instructions: 33000000 cycles: 119274306 heartbeat IPC: 0.245795 cumulative IPC: 0.244811 (Simulation time: 0 hr 2 min 51 sec) 
Heartbeat CPU 0 instructions: 34000000 cycles: 121743868 heartbeat IPC: 0.40493 cumulative IPC: 0.248912 (Simulation time: 0 hr 2 min 56 sec) 
Heartbeat CPU 0 instructions: 35000001 cycles: 124103139 heartbeat IPC: 0.42386 cumulative IPC: 0.253091 (Simulation time: 0 hr 3 min 0 sec) 
Heartbeat CPU 0 instructions: 36000000 cycles: 128021348 heartbeat IPC: 0.255218 cumulative IPC: 0.253172 (Simulation time: 0 hr 3 min 6 sec) 
Heartbeat CPU 0 instructions: 37000001 cycles: 129622798 heartbeat IPC: 0.624435 cumulative IPC: 0.258873 (Simulation time: 0 hr 3 min 10 sec) 
Heartbeat CPU 0 instructions: 38000000 cycles: 132679183 heartbeat IPC: 0.327184 cumulative IPC: 0.260817 (Simulation time: 0 hr 3 min 16 sec) 
Heartbeat CPU 0 instructions: 39000000 cycles: 137138220 heartbeat IPC: 0.224264 cumulative IPC: 0.25936 (Simulation time: 0 hr 3 min 22 sec) 
Heartbeat CPU 0 instructions: 40000000 cycles: 139357681 heartbeat IPC: 0.45056 cumulative IPC: 0.263081 (Simulation time: 0 hr 3 min 27 sec) 
Heartbeat CPU 0 instructions: 41000001 cycles: 141987771 heartbeat IPC: 0.380215 cumulative IPC: 0.265722 (Simulation time: 0 hr 3 min 32 sec) 
Heartbeat CPU 0 instructions: 42000003 cycles: 145958340 heartbeat IPC: 0.251854 cumulative IPC: 0.265265 (Simulation time: 0 hr 3 min 38 sec) 
Heartbeat CPU 0 instructions: 43000000 cycles: 147601336 heartbeat IPC: 0.608642 cumulative IPC: 0.269879 (Simulation time: 0 hr 3 min 42 sec) 
Heartbeat CPU 0 instructions: 44000000 cycles: 151247878 heartbeat IPC: 0.274232 cumulative IPC: 0.270005 (Simulation time: 0 hr 3 min 47 sec) 
Heartbeat CPU 0 instructions: 45000002 cycles: 152780981 heartbeat IPC: 0.652273 cumulative IPC: 0.274603 (Simulation time: 0 hr 3 min 50 sec) 
Heartbeat CPU 0 instructions: 46000002 cycles: 156276603 heartbeat IPC: 0.286072 cumulative IPC: 0.274909 (Simulation time: 0 hr 3 min 56 sec) 
Heartbeat CPU 0 instructions: 47000000 cycles: 158783694 heartbeat IPC: 0.398868 cumulative IPC: 0.277238 (Simulation time: 0 hr 4 min 1 sec) 
Heartbeat CPU 0 instructions: 48000003 cycles: 160361350 heartbeat IPC: 0.633854 cumulative IPC: 0.281404 (Simulation time: 0 hr 4 min 5 sec) 
Heartbeat CPU 0 instructions: 49000001 cycles: 164183010 heartbeat IPC: 0.261666 cumulative IPC: 0.280861 (Simulation time: 0 hr 4 min 11 sec) 
Heartbeat CPU 0 instructions: 50000001 cycles: 170101747 heartbeat IPC: 0.168955 cumulative IPC: 0.276286 (Simulation time: 0 hr 4 min 19 sec) 
Heartbeat CPU 0 instructions: 51000002 cycles: 171929038 heartbeat IPC: 0.547259 cumulative IPC: 0.279664 (Simulation time: 0 hr 4 min 23 sec) 
Heartbeat CPU 0 instructions: 52000000 cycles: 173530316 heartbeat IPC: 0.6245 cumulative IPC: 0.283389 (Simulation time: 0 hr 4 min 26 sec) 
Heartbeat CPU 0 instructions: 53000000 cycles: 177149882 heartbeat IPC: 0.276276 cumulative IPC: 0.28322 (Simulation time: 0 hr 4 min 32 sec) 
Heartbeat CPU 0 instructions: 54000000 cycles: 178799060 heartbeat IPC: 0.606363 cumulative IPC: 0.286692 (Simulation time: 0 hr 4 min 36 sec) 
Heartbeat CPU 0 instructions: 55000000 cycles: 180466391 heartbeat IPC: 0.599761 cumulative IPC: 0.290057 (Simulation time: 0 hr 4 min 40 sec) 
Heartbeat CPU 0 instructions: 56000000 cycles: 185752716 heartbeat IPC: 0.189167 cumulative IPC: 0.286732 (Simulation time: 0 hr 4 min 47 sec) 
Heartbeat CPU 0 instructions: 57000003 cycles: 190241680 heartbeat IPC: 0.222769 cumulative IPC: 0.284991 (Simulation time: 0 hr 4 min 53 sec) 
Heartbeat CPU 0 instructions: 58000000 cycles: 191865655 heartbeat IPC: 0.615771 cumulative IPC: 0.288217 (Simulation time: 0 hr 4 min 57 sec) 
Heartbeat CPU 0 instructions: 59000000 cycles: 195971441 heartbeat IPC: 0.243559 cumulative IPC: 0.287142 (Simulation time: 0 hr 5 min 3 sec) 
Heartbeat CPU 0 instructions: 60000001 cycles: 200244972 heartbeat IPC: 0.233999 cumulative IPC: 0.285844 (Simulation time: 0 hr 5 min 8 sec) 
Heartbeat CPU 0 instructions: 61000002 cycles: 202169899 heartbeat IPC: 0.519501 cumulative IPC: 0.288387 (Simulation time: 0 hr 5 min 12 sec) 
Heartbeat CPU 0 instructions: 62000000 cycles: 206076300 heartbeat IPC: 0.25599 cumulative IPC: 0.287687 (Simulation time: 0 hr 5 min 18 sec) 
Heartbeat CPU 0 instructions: 63000003 cycles: 207950161 heartbeat IPC: 0.533659 cumulative IPC: 0.290211 (Simulation time: 0 hr 5 min 22 sec) 
Heartbeat CPU 0 instructions: 64000001 cycles: 211815674 heartbeat IPC: 0.258697 cumulative IPC: 0.289558 (Simulation time: 0 hr 5 min 27 sec) 
Heartbeat CPU 0 instructions: 65000001 cycles: 213777418 heartbeat IPC: 0.50975 cumulative IPC: 0.29185 (Simulation time: 0 hr 5 min 32 sec) 
Heartbeat CPU 0 instructions: 66000000 cycles: 217519562 heartbeat IPC: 0.267226 cumulative IPC: 0.29137 (Simulation time: 0 hr 5 min 37 sec) 
Heartbeat CPU 0 instructions: 67000000 cycles: 219210122 heartbeat IPC: 0.59152 cumulative IPC: 0.293988 (Simulation time: 0 hr 5 min 41 sec) 
Heartbeat CPU 0 instructions: 68000000 cycles: 224013430 heartbeat IPC: 0.20819 cumulative IPC: 0.291913 (Simulation time: 0 hr 5 min 47 sec) 
Heartbeat CPU 0 instructions: 69000000 cycles: 226803359 heartbeat IPC: 0.358432 cumulative IPC: 0.292835 (Simulation time: 0 hr 5 min 51 sec) 
Heartbeat CPU 0 instructions: 70000002 cycles: 228445142 heartbeat IPC: 0.609095 cumulative IPC: 0.295391 (Simulation time: 0 hr 5 min 55 sec) 
Heartbeat CPU 0 instructions: 71000000 cycles: 231724051 heartbeat IPC: 0.304979 cumulative IPC: 0.295543 (Simulation time: 0 hr 6 min 0 sec) 
Heartbeat CPU 0 instructions: 72000000 cycles: 234377759 heartbeat IPC: 0.376831 cumulative IPC: 0.296575 (Simulation time: 0 hr 6 min 5 sec) 
Heartbeat CPU 0 instructions: 73000000 cycles: 237436801 heartbeat IPC: 0.3269 cumulative IPC: 0.297012 (Simulation time: 0 hr 6 min 9 sec) 
Heartbeat CPU 0 instructions: 74000002 cycles: 243546878 heartbeat IPC: 0.163664 cumulative IPC: 0.293279 (Simulation time: 0 hr 6 min 16 sec) 
Heartbeat CPU 0 instructions: 75000001 cycles: 246611781 heartbeat IPC: 0.326274 cumulative IPC: 0.293736 (Simulation time: 0 hr 6 min 21 sec) 
Heartbeat CPU 0 instructions: 76000000 cycles: 249747005 heartbeat IPC: 0.318956 cumulative IPC: 0.294088 (Simulation time: 0 hr 6 min 26 sec) 
Heartbeat CPU 0 instructions: 77000000 cycles: 254967872 heartbeat IPC: 0.191539 cumulative IPC: 0.291757 (Simulation time: 0 hr 6 min 33 sec) 
Heartbeat CPU 0 instructions: 78000003 cycles: 256816932 heartbeat IPC: 0.540817 cumulative IPC: 0.293746 (Simulation time: 0 hr 6 min 37 sec) 
Heartbeat CPU 0 instructions: 79000003 cycles: 261154488 heartbeat IPC: 0.230545 cumulative IPC: 0.292584 (Simulation time: 0 hr 6 min 42 sec) 
Heartbeat CPU 0 instructions: 80000002 cycles: 266791462 heartbeat IPC: 0.1774 cumulative IPC: 0.289895 (Simulation time: 0 hr 6 min 50 sec) 
Heartbeat CPU 0 instructions: 81000000 cycles: 268342240 heartbeat IPC: 0.644836 cumulative IPC: 0.29216 (Simulation time: 0 hr 6 min 54 sec) 
Heartbeat CPU 0 instructions: 82000000 cycles: 269863590 heartbeat IPC: 0.657311 cumulative IPC: 0.294431 (Simulation time: 0 hr 6 min 57 sec) 
Heartbeat CPU 0 instructions: 83000001 cycles: 275001636 heartbeat IPC: 0.194627 cumulative IPC: 0.292377 (Simulation time: 0 hr 7 min 4 sec) 
Heartbeat CPU 0 instructions: 84000002 cycles: 277116994 heartbeat IPC: 0.472734 cumulative IPC: 0.293893 (Simulation time: 0 hr 7 min 9 sec) 
Heartbeat CPU 0 instructions: 85000000 cycles: 280005518 heartbeat IPC: 0.346197 cumulative IPC: 0.294486 (Simulation time: 0 hr 7 min 13 sec) 
Heartbeat CPU 0 instructions: 86000000 cycles: 282386706 heartbeat IPC: 0.419958 cumulative IPC: 0.295648 (Simulation time: 0 hr 7 min 18 sec) 
Heartbeat CPU 0 instructions: 87000000 cycles: 285005811 heartbeat IPC: 0.38181 cumulative IPC: 0.296517 (Simulation time: 0 hr 7 min 22 sec) 
Heartbeat CPU 0 instructions: 88000000 cycles: 290382536 heartbeat IPC: 0.185987 cumulative IPC: 0.294275 (Simulation time: 0 hr 7 min 29 sec) 
Heartbeat CPU 0 instructions: 89000000 cycles: 292306933 heartbeat IPC: 0.519643 cumulative IPC: 0.2959 (Simulation time: 0 hr 7 min 33 sec) 
Heartbeat CPU 0 instructions: 90000000 cycles: 293985809 heartbeat IPC: 0.595637 cumulative IPC: 0.297773 (Simulation time: 0 hr 7 min 37 sec) 
Heartbeat CPU 0 instructions: 91000000 cycles: 297458325 heartbeat IPC: 0.287976 cumulative IPC: 0.297648 (Simulation time: 0 hr 7 min 42 sec) 
Heartbeat CPU 0 instructions: 92000002 cycles: 299012440 heartbeat IPC: 0.643454 cumulative IPC: 0.299611 (Simulation time: 0 hr 7 min 46 sec) 
Heartbeat CPU 0 instructions: 93000000 cycles: 303891421 heartbeat IPC: 0.20496 cumulative IPC: 0.297953 (Simulation time: 0 hr 7 min 52 sec) 
Heartbeat CPU 0 instructions: 94000001 cycles: 308926535 heartbeat IPC: 0.198605 cumulative IPC: 0.29619 (Simulation time: 0 hr 7 min 58 sec) 
Heartbeat CPU 0 instructions: 95000001 cycles: 310670544 heartbeat IPC: 0.573392 cumulative IPC: 0.297884 (Simulation time: 0 hr 8 min 2 sec) 
Heartbeat CPU 0 instructions: 96000002 cycles: 315125793 heartbeat IPC: 0.224455 cumulative IPC: 0.296755 (Simulation time: 0 hr 8 min 8 sec) 
Heartbeat CPU 0 instructions: 97000000 cycles: 320757629 heartbeat IPC: 0.177562 cumulative IPC: 0.294483 (Simulation time: 0 hr 8 min 15 sec) 
Heartbeat CPU 0 instructions: 98000003 cycles: 322708253 heartbeat IPC: 0.512658 cumulative IPC: 0.295914 (Simulation time: 0 hr 8 min 19 sec) 
Heartbeat CPU 0 instructions: 99000000 cycles: 324826978 heartbeat IPC: 0.471981 cumulative IPC: 0.297159 (Simulation time: 0 hr 8 min 23 sec) 
Heartbeat CPU 0 instructions: 100000002 cycles: 328656134 heartbeat IPC: 0.261155 cumulative IPC: 0.296705 (Simulation time: 0 hr 8 min 29 sec) 
Heartbeat CPU 0 instructions: 101000003 cycles: 331148729 heartbeat IPC: 0.401189 cumulative IPC: 0.297556 (Simulation time: 0 hr 8 min 34 sec) 
Heartbeat CPU 0 instructions: 102000000 cycles: 333400027 heartbeat IPC: 0.444187 cumulative IPC: 0.298628 (Simulation time: 0 hr 8 min 38 sec) 
Heartbeat CPU 0 instructions: 103000000 cycles: 337315269 heartbeat IPC: 0.255412 cumulative IPC: 0.298086 (Simulation time: 0 hr 8 min 44 sec) 
Heartbeat CPU 0 instructions: 104000001 cycles: 339156574 heartbeat IPC: 0.543094 cumulative IPC: 0.299523 (Simulation time: 0 hr 8 min 48 sec) 
Heartbeat CPU 0 instructions: 105000000 cycles: 342890633 heartbeat IPC: 0.267805 cumulative IPC: 0.29915 (Simulation time: 0 hr 8 min 54 sec) 
Heartbeat CPU 0 instructions: 106000000 cycles: 344593794 heartbeat IPC: 0.587144 cumulative IPC: 0.300687 (Simulation time: 0 hr 8 min 58 sec) 
Heartbeat CPU 0 instructions: 107000003 cycles: 346094280 heartbeat IPC: 0.666453 cumulative IPC: 0.302397 (Simulation time: 0 hr 9 min 2 sec) 
Heartbeat CPU 0 instructions: 108000001 cycles: 349704998 heartbeat IPC: 0.276953 cumulative IPC: 0.302114 (Simulation time: 0 hr 9 min 7 sec) 
Heartbeat CPU 0 instructions: 109000003 cycles: 353662705 heartbeat IPC: 0.252672 cumulative IPC: 0.301518 (Simulation time: 0 hr 9 min 13 sec) 
Heartbeat CPU 0 instructions: 110000000 cycles: 355851881 heartbeat IPC: 0.456791 cumulative IPC: 0.302547 (Simulation time: 0 hr 9 min 17 sec) 
Heartbeat CPU 0 instructions: 111000001 cycles: 360609718 heartbeat IPC: 0.21018 cumulative IPC: 0.301236 (Simulation time: 0 hr 9 min 24 sec) 
Heartbeat CPU 0 instructions: 112000002 cycles: 363490166 heartbeat IPC: 0.347169 cumulative IPC: 0.301627 (Simulation time: 0 hr 9 min 29 sec) 
Heartbeat CPU 0 instructions: 113000002 cycles: 365319065 heartbeat IPC: 0.546777 cumulative IPC: 0.302946 (Simulation time: 0 hr 9 min 33 sec) 
Heartbeat CPU 0 instructions: 114000000 cycles: 368880047 heartbeat IPC: 0.280821 cumulative IPC: 0.302717 (Simulation time: 0 hr 9 min 38 sec) 
Heartbeat CPU 0 instructions: 115000001 cycles: 370571568 heartbeat IPC: 0.591184 cumulative IPC: 0.30413 (Simulation time: 0 hr 9 min 42 sec) 
Heartbeat CPU 0 instructions: 116000003 cycles: 374893028 heartbeat IPC: 0.231404 cumulative IPC: 0.303231 (Simulation time: 0 hr 9 min 48 sec) 
Heartbeat CPU 0 instructions: 117000000 cycles: 376666584 heartbeat IPC: 0.563837 cumulative IPC: 0.304546 (Simulation time: 0 hr 9 min 52 sec) 
Heartbeat CPU 0 instructions: 118000002 cycles: 380651979 heartbeat IPC: 0.250917 cumulative IPC: 0.303945 (Simulation time: 0 hr 9 min 57 sec) 
Heartbeat CPU 0 instructions: 119000000 cycles: 385334969 heartbeat IPC: 0.213538 cumulative IPC: 0.302769 (Simulation time: 0 hr 10 min 4 sec) 
Heartbeat CPU 0 instructions: 120000002 cycles: 387369451 heartbeat IPC: 0.491527 cumulative IPC: 0.30383 (Simulation time: 0 hr 10 min 8 sec) 
Heartbeat CPU 0 instructions: 121000000 cycles: 390138400 heartbeat IPC: 0.361147 cumulative IPC: 0.304265 (Simulation time: 0 hr 10 min 12 sec) 
Heartbeat CPU 0 instructions: 122000001 cycles: 395226376 heartbeat IPC: 0.196542 cumulative IPC: 0.302783 (Simulation time: 0 hr 10 min 19 sec) 
Heartbeat CPU 0 instructions: 123000000 cycles: 396690434 heartbeat IPC: 0.683032 cumulative IPC: 0.304282 (Simulation time: 0 hr 10 min 23 sec) 
Heartbeat CPU 0 instructions: 124000000 cycles: 398192255 heartbeat IPC: 0.665858 cumulative IPC: 0.305738 (Simulation time: 0 hr 10 min 27 sec) 
Heartbeat CPU 0 instructions: 125000002 cycles: 403444365 heartbeat IPC: 0.1904 cumulative IPC: 0.304136 (Simulation time: 0 hr 10 min 34 sec) 
Heartbeat CPU 0 instructions: 126000001 cycles: 407945338 heartbeat IPC: 0.222174 cumulative IPC: 0.303172 (Simulation time: 0 hr 10 min 40 sec) 
Heartbeat CPU 0 instructions: 127000001 cycles: 409979445 heartbeat IPC: 0.491616 cumulative IPC: 0.304169 (Simulation time: 0 hr 10 min 44 sec) 
Heartbeat CPU 0 instructions: 128000000 cycles: 412591880 heartbeat IPC: 0.382784 cumulative IPC: 0.304699 (Simulation time: 0 hr 10 min 48 sec) 
Heartbeat CPU 0 instructions: 129000003 cycles: 418040468 heartbeat IPC: 0.183534 cumulative IPC: 0.303018 (Simulation time: 0 hr 10 min 56 sec) 
Heartbeat CPU 0 instructions: 130000003 cycles: 420756387 heartbeat IPC: 0.368199 cumulative IPC: 0.303466 (Simulation time: 0 hr 11 min 0 sec) 
Heartbeat CPU 0 instructions: 131000000 cycles: 423414310 heartbeat IPC: 0.376233 cumulative IPC: 0.303951 (Simulation time: 0 hr 11 min 5 sec) 
Heartbeat CPU 0 instructions: 132000000 cycles: 427248524 heartbeat IPC: 0.26081 cumulative IPC: 0.30354 (Simulation time: 0 hr 11 min 10 sec) 
Heartbeat CPU 0 instructions: 133000001 cycles: 429076871 heartbeat IPC: 0.546943 cumulative IPC: 0.304642 (Simulation time: 0 hr 11 min 14 sec) 
Heartbeat CPU 0 instructions: 134000003 cycles: 434309423 heartbeat IPC: 0.191112 cumulative IPC: 0.30319 (Simulation time: 0 hr 11 min 21 sec) 
Heartbeat CPU 0 instructions: 135000000 cycles: 438957810 heartbeat IPC: 0.215128 cumulative IPC: 0.3022 (Simulation time: 0 hr 11 min 27 sec) 
Heartbeat CPU 0 instructions: 136000003 cycles: 440546107 heartbeat IPC: 0.629607 cumulative IPC: 0.303452 (Simulation time: 0 hr 11 min 31 sec) 
Heartbeat CPU 0 instructions: 137000000 cycles: 444006413 heartbeat IPC: 0.288991 cumulative IPC: 0.303333 (Simulation time: 0 hr 11 min 36 sec) 
Heartbeat CPU 0 instructions: 138000001 cycles: 449919076 heartbeat IPC: 0.169129 cumulative IPC: 0.301464 (Simulation time: 0 hr 11 min 43 sec) 
Heartbeat CPU 0 instructions: 139000001 cycles: 452678795 heartbeat IPC: 0.362356 cumulative IPC: 0.301857 (Simulation time: 0 hr 11 min 48 sec) 
Heartbeat CPU 0 instructions: 140000002 cycles: 455126937 heartbeat IPC: 0.408473 cumulative IPC: 0.302464 (Simulation time: 0 hr 11 min 52 sec) 
Heartbeat CPU 0 instructions: 141000000 cycles: 458146834 heartbeat IPC: 0.331136 cumulative IPC: 0.302665 (Simulation time: 0 hr 11 min 57 sec) 
Heartbeat CPU 0 instructions: 142000003 cycles: 460073257 heartbeat IPC: 0.519098 cumulative IPC: 0.303624 (Simulation time: 0 hr 12 min 1 sec) 
Heartbeat CPU 0 instructions: 143000000 cycles: 465605610 heartbeat IPC: 0.180754 cumulative IPC: 0.30208 (Simulation time: 0 hr 12 min 8 sec) 
Heartbeat CPU 0 instructions: 144000001 cycles: 469692136 heartbeat IPC: 0.244707 cumulative IPC: 0.301552 (Simulation time: 0 hr 12 min 14 sec) 
Heartbeat CPU 0 instructions: 145000001 cycles: 471560894 heartbeat IPC: 0.535115 cumulative IPC: 0.30253 (Simulation time: 0 hr 12 min 18 sec) 
Heartbeat CPU 0 instructions: 146000002 cycles: 476478083 heartbeat IPC: 0.203368 cumulative IPC: 0.301449 (Simulation time: 0 hr 12 min 24 sec) 
Heartbeat CPU 0 instructions: 147000000 cycles: 479050843 heartbeat IPC: 0.388687 cumulative IPC: 0.301944 (Simulation time: 0 hr 12 min 29 sec) 
Heartbeat CPU 0 instructions: 148000000 cycles: 481645087 heartbeat IPC: 0.385469 cumulative IPC: 0.302419 (Simulation time: 0 hr 12 min 33 sec) 
Heartbeat CPU 0 instructions: 149000003 cycles: 487424160 heartbeat IPC: 0.173039 cumulative IPC: 0.300801 (Simulation time: 0 hr 12 min 41 sec) 
Heartbeat CPU 0 instructions: 150000001 cycles: 489450734 heartbeat IPC: 0.493443 cumulative IPC: 0.301642 (Simulation time: 0 hr 12 min 45 sec) 
Heartbeat CPU 0 instructions: 151000001 cycles: 491600293 heartbeat IPC: 0.465212 cumulative IPC: 0.302396 (Simulation time: 0 hr 12 min 49 sec) 
Heartbeat CPU 0 instructions: 152000002 cycles: 495811674 heartbeat IPC: 0.237452 cumulative IPC: 0.301815 (Simulation time: 0 hr 12 min 55 sec) 
Heartbeat CPU 0 instructions: 153000002 cycles: 499701550 heartbeat IPC: 0.257078 cumulative IPC: 0.301448 (Simulation time: 0 hr 13 min 1 sec) 
Heartbeat CPU 0 instructions: 154000000 cycles: 501534534 heartbeat IPC: 0.545557 cumulative IPC: 0.302388 (Simulation time: 0 hr 13 min 5 sec) 
Heartbeat CPU 0 instructions: 155000003 cycles: 506556232 heartbeat IPC: 0.199136 cumulative IPC: 0.30131 (Simulation time: 0 hr 13 min 12 sec) 
Heartbeat CPU 0 instructions: 156000001 cycles: 509179825 heartbeat IPC: 0.381156 cumulative IPC: 0.301743 (Simulation time: 0 hr 13 min 16 sec) 
Heartbeat CPU 0 instructions: 157000000 cycles: 512018340 heartbeat IPC: 0.352297 cumulative IPC: 0.302038 (Simulation time: 0 hr 13 min 21 sec) 
Heartbeat CPU 0 instructions: 158000002 cycles: 514612401 heartbeat IPC: 0.385497 cumulative IPC: 0.30248 (Simulation time: 0 hr 13 min 26 sec) 
Heartbeat CPU 0 instructions: 159000000 cycles: 517512537 heartbeat IPC: 0.344811 cumulative IPC: 0.30273 (Simulation time: 0 hr 13 min 31 sec) 
Heartbeat CPU 0 instructions: 160000002 cycles: 520756215 heartbeat IPC: 0.308293 cumulative IPC: 0.302766 (Simulation time: 0 hr 13 min 37 sec) 
Heartbeat CPU 0 instructions: 161000002 cycles: 525607513 heartbeat IPC: 0.20613 cumulative IPC: 0.301829 (Simulation time: 0 hr 13 min 43 sec) 
Heartbeat CPU 0 instructions: 162000001 cycles: 527147059 heartbeat IPC: 0.649541 cumulative IPC: 0.302896 (Simulation time: 0 hr 13 min 47 sec) 
Heartbeat CPU 0 instructions: 163000000 cycles: 530507733 heartbeat IPC: 0.297559 cumulative IPC: 0.30286 (Simulation time: 0 hr 13 min 52 sec) 
Heartbeat CPU 0 instructions: 164000000 cycles: 533338032 heartbeat IPC: 0.35332 cumulative IPC: 0.303141 (Simulation time: 0 hr 13 min 57 sec) 
Heartbeat CPU 0 instructions: 165000000 cycles: 535946393 heartbeat IPC: 0.383383 cumulative IPC: 0.303551 (Simulation time: 0 hr 14 min 2 sec) 
Heartbeat CPU 0 instructions: 166000002 cycles: 539019814 heartbeat IPC: 0.325371 cumulative IPC: 0.303682 (Simulation time: 0 hr 14 min 7 sec) 
Heartbeat CPU 0 instructions: 167000000 cycles: 540991802 heartbeat IPC: 0.507101 cumulative IPC: 0.30446 (Simulation time: 0 hr 14 min 11 sec) 
Heartbeat CPU 0 instructions: 168000000 cycles: 544674111 heartbeat IPC: 0.271569 cumulative IPC: 0.304227 (Simulation time: 0 hr 14 min 16 sec) 
Heartbeat CPU 0 instructions: 169000003 cycles: 547086306 heartbeat IPC: 0.414561 cumulative IPC: 0.304737 (Simulation time: 0 hr 14 min 21 sec) 
Heartbeat CPU 0 instructions: 170000001 cycles: 549606600 heartbeat IPC: 0.396778 cumulative IPC: 0.305179 (Simulation time: 0 hr 14 min 25 sec) 
Heartbeat CPU 0 instructions: 171000000 cycles: 553086243 heartbeat IPC: 0.287386 cumulative IPC: 0.305062 (Simulation time: 0 hr 14 min 31 sec) 
Heartbeat CPU 0 instructions: 172000000 cycles: 555077708 heartbeat IPC: 0.502143 cumulative IPC: 0.305803 (Simulation time: 0 hr 14 min 35 sec) 
Heartbeat CPU 0 instructions: 173000002 cycles: 558571544 heartbeat IPC: 0.286219 cumulative IPC: 0.305674 (Simulation time: 0 hr 14 min 40 sec) 
Heartbeat CPU 0 instructions: 174000001 cycles: 560341218 heartbeat IPC: 0.565075 cumulative IPC: 0.306532 (Simulation time: 0 hr 14 min 44 sec) 
Heartbeat CPU 0 instructions: 175000002 cycles: 563947399 heartbeat IPC: 0.277302 cumulative IPC: 0.306337 (Simulation time: 0 hr 14 min 50 sec) 
Heartbeat CPU 0 instructions: 176000000 cycles: 565727493 heartbeat IPC: 0.561767 cumulative IPC: 0.307178 (Simulation time: 0 hr 14 min 53 sec) 
Heartbeat CPU 0 instructions: 177000003 cycles: 569285149 heartbeat IPC: 0.281085 cumulative IPC: 0.307007 (Simulation time: 0 hr 14 min 59 sec) 
Heartbeat CPU 0 instructions: 178000001 cycles: 570934622 heartbeat IPC: 0.606253 cumulative IPC: 0.307912 (Simulation time: 0 hr 15 min 2 sec) 
Heartbeat CPU 0 instructions: 179000000 cycles: 574524830 heartbeat IPC: 0.278535 cumulative IPC: 0.30772 (Simulation time: 0 hr 15 min 8 sec) 
Heartbeat CPU 0 instructions: 180000000 cycles: 576244090 heartbeat IPC: 0.581646 cumulative IPC: 0.308575 (Simulation time: 0 hr 15 min 11 sec) 
Heartbeat CPU 0 instructions: 181000001 cycles: 579353581 heartbeat IPC: 0.321596 cumulative IPC: 0.308648 (Simulation time: 0 hr 15 min 16 sec) 
Heartbeat CPU 0 instructions: 182000003 cycles: 585365781 heartbeat IPC: 0.166329 cumulative IPC: 0.30712 (Simulation time: 0 hr 15 min 24 sec) 
Heartbeat CPU 0 instructions: 183000003 cycles: 591366574 heartbeat IPC: 0.166645 cumulative IPC: 0.305631 (Simulation time: 0 hr 15 min 31 sec) 
Heartbeat CPU 0 instructions: 184000000 cycles: 594299015 heartbeat IPC: 0.341012 cumulative IPC: 0.305813 (Simulation time: 0 hr 15 min 36 sec) 
Heartbeat CPU 0 instructions: 185000001 cycles: 596226205 heartbeat IPC: 0.518891 cumulative IPC: 0.306533 (Simulation time: 0 hr 15 min 40 sec) 
Heartbeat CPU 0 instructions: 186000000 cycles: 600178905 heartbeat IPC: 0.252991 cumulative IPC: 0.306164 (Simulation time: 0 hr 15 min 45 sec) 
Heartbeat CPU 0 instructions: 187000000 cycles: 602711864 heartbeat IPC: 0.394795 cumulative IPC: 0.306553 (Simulation time: 0 hr 15 min 50 sec) 
Heartbeat CPU 0 instructions: 188000000 cycles: 604581398 heartbeat IPC: 0.534893 cumulative IPC: 0.30729 (Simulation time: 0 hr 15 min 54 sec) 
Heartbeat CPU 0 instructions: 189000003 cycles: 610357532 heartbeat IPC: 0.173127 cumulative IPC: 0.305966 (Simulation time: 0 hr 16 min 2 sec) 
Heartbeat CPU 0 instructions: 190000000 cycles: 616235763 heartbeat IPC: 0.170119 cumulative IPC: 0.304614 (Simulation time: 0 hr 16 min 10 sec) 
Heartbeat CPU 0 instructions: 191000000 cycles: 618302337 heartbeat IPC: 0.483893 cumulative IPC: 0.305239 (Simulation time: 0 hr 16 min 14 sec) 
Heartbeat CPU 0 instructions: 192000001 cycles: 621119084 heartbeat IPC: 0.35502 cumulative IPC: 0.305474 (Simulation time: 0 hr 16 min 19 sec) 
Heartbeat CPU 0 instructions: 193000000 cycles: 623676921 heartbeat IPC: 0.390955 cumulative IPC: 0.30584 (Simulation time: 0 hr 16 min 23 sec) 
Heartbeat CPU 0 instructions: 194000003 cycles: 626486176 heartbeat IPC: 0.355967 cumulative IPC: 0.306074 (Simulation time: 0 hr 16 min 28 sec) 
Heartbeat CPU 0 instructions: 195000001 cycles: 632071356 heartbeat IPC: 0.179045 cumulative IPC: 0.304905 (Simulation time: 0 hr 16 min 35 sec) 
Heartbeat CPU 0 instructions: 196000000 cycles: 633715629 heartbeat IPC: 0.608171 cumulative IPC: 0.305724 (Simulation time: 0 hr 16 min 39 sec) 
Heartbeat CPU 0 instructions: 197000001 cycles: 635300906 heartbeat IPC: 0.630805 cumulative IPC: 0.306569 (Simulation time: 0 hr 16 min 43 sec) 
Heartbeat CPU 0 instructions: 198000000 cycles: 640357507 heartbeat IPC: 0.197761 cumulative IPC: 0.305675 (Simulation time: 0 hr 16 min 50 sec) 
Heartbeat CPU 0 instructions: 199000003 cycles: 645313824 heartbeat IPC: 0.201763 cumulative IPC: 0.304844 (Simulation time: 0 hr 16 min 57 sec) 
Heartbeat CPU 0 instructions: 200000001 cycles: 647111901 heartbeat IPC: 0.556149 cumulative IPC: 0.305571 (Simulation time: 0 hr 17 min 1 sec) 
Heartbeat CPU 0 instructions: 201000000 cycles: 651407177 heartbeat IPC: 0.232814 cumulative IPC: 0.305071 (Simulation time: 0 hr 17 min 7 sec) 
Heartbeat CPU 0 instructions: 202000002 cycles: 655083177 heartbeat IPC: 0.272035 cumulative IPC: 0.304879 (Simulation time: 0 hr 17 min 13 sec) 
Heartbeat CPU 0 instructions: 203000000 cycles: 657469978 heartbeat IPC: 0.41897 cumulative IPC: 0.305309 (Simulation time: 0 hr 17 min 17 sec) 
Heartbeat CPU 0 instructions: 204000000 cycles: 660068688 heartbeat IPC: 0.384806 cumulative IPC: 0.305635 (Simulation time: 0 hr 17 min 22 sec) 
Heartbeat CPU 0 instructions: 205000000 cycles: 663097212 heartbeat IPC: 0.330194 cumulative IPC: 0.305752 (Simulation time: 0 hr 17 min 27 sec) 
Heartbeat CPU 0 instructions: 206000003 cycles: 665048809 heartbeat IPC: 0.512402 cumulative IPC: 0.306382 (Simulation time: 0 hr 17 min 31 sec) 
Heartbeat CPU 0 instructions: 207000000 cycles: 667671566 heartbeat IPC: 0.381277 cumulative IPC: 0.306688 (Simulation time: 0 hr 17 min 35 sec) 
Heartbeat CPU 0 instructions: 208000000 cycles: 670608653 heartbeat IPC: 0.340473 cumulative IPC: 0.306842 (Simulation time: 0 hr 17 min 40 sec) 
Heartbeat CPU 0 instructions: 209000000 cycles: 672683003 heartbeat IPC: 0.482079 cumulative IPC: 0.307403 (Simulation time: 0 hr 17 min 44 sec) 
Heartbeat CPU 0 instructions: 210000001 cycles: 676538197 heartbeat IPC: 0.259391 cumulative IPC: 0.307119 (Simulation time: 0 hr 17 min 50 sec) 
Heartbeat CPU 0 instructions: 211000001 cycles: 678753774 heartbeat IPC: 0.45135 cumulative IPC: 0.307608 (Simulation time: 0 hr 17 min 54 sec) 
Heartbeat CPU 0 instructions: 212000000 cycles: 683022697 heartbeat IPC: 0.234251 cumulative IPC: 0.307132 (Simulation time: 0 hr 18 min 0 sec) 
Heartbeat CPU 0 instructions: 213000001 cycles: 689288364 heartbeat IPC: 0.1596 cumulative IPC: 0.305739 (Simulation time: 0 hr 18 min 8 sec) 
Heartbeat CPU 0 instructions: 214000002 cycles: 694970328 heartbeat IPC: 0.175996 cumulative IPC: 0.304639 (Simulation time: 0 hr 18 min 15 sec) 
Heartbeat CPU 0 instructions: 215000003 cycles: 696673585 heartbeat IPC: 0.587111 cumulative IPC: 0.305355 (Simulation time: 0 hr 18 min 19 sec) 
Heartbeat CPU 0 instructions: 216000003 cycles: 699934074 heartbeat IPC: 0.306702 cumulative IPC: 0.305362 (Simulation time: 0 hr 18 min 24 sec) 
Heartbeat CPU 0 instructions: 217000001 cycles: 702524162 heartbeat IPC: 0.386086 cumulative IPC: 0.305671 (Simulation time: 0 hr 18 min 29 sec) 
Heartbeat CPU 0 instructions: 218000002 cycles: 704474870 heartbeat IPC: 0.512635 cumulative IPC: 0.306265 (Simulation time: 0 hr 18 min 33 sec) 
Heartbeat CPU 0 instructions: 219000001 cycles: 707925134 heartbeat IPC: 0.289833 cumulative IPC: 0.306182 (Simulation time: 0 hr 18 min 38 sec) 
Heartbeat CPU 0 instructions: 220000000 cycles: 709658002 heartbeat IPC: 0.577077 cumulative IPC: 0.306868 (Simulation time: 0 hr 18 min 42 sec) 
Heartbeat CPU 0 instructions: 221000001 cycles: 714254177 heartbeat IPC: 0.217572 cumulative IPC: 0.306272 (Simulation time: 0 hr 18 min 49 sec) 
Heartbeat CPU 0 instructions: 222000001 cycles: 717153882 heartbeat IPC: 0.344863 cumulative IPC: 0.306434 (Simulation time: 0 hr 18 min 54 sec) 
Heartbeat CPU 0 instructions: 223000000 cycles: 718846387 heartbeat IPC: 0.59084 cumulative IPC: 0.307128 (Simulation time: 0 hr 18 min 58 sec) 
Heartbeat CPU 0 instructions: 224000000 cycles: 722039187 heartbeat IPC: 0.313205 cumulative IPC: 0.307156 (Simulation time: 0 hr 19 min 4 sec) 
Heartbeat CPU 0 instructions: 225000001 cycles: 726307106 heartbeat IPC: 0.234306 cumulative IPC: 0.306712 (Simulation time: 0 hr 19 min 10 sec) 
Heartbeat CPU 0 instructions: 226000000 cycles: 728065504 heartbeat IPC: 0.568699 cumulative IPC: 0.307368 (Simulation time: 0 hr 19 min 14 sec) 
Heartbeat CPU 0 instructions: 227000003 cycles: 731629024 heartbeat IPC: 0.280622 cumulative IPC: 0.307233 (Simulation time: 0 hr 19 min 20 sec) 
Heartbeat CPU 0 instructions: 228000001 cycles: 734112892 heartbeat IPC: 0.402597 cumulative IPC: 0.307567 (Simulation time: 0 hr 19 min 25 sec) 
Heartbeat CPU 0 instructions: 229000003 cycles: 736520369 heartbeat IPC: 0.415373 cumulative IPC: 0.307932 (Simulation time: 0 hr 19 min 29 sec) 
Heartbeat CPU 0 instructions: 230000002 cycles: 741814895 heartbeat IPC: 0.188874 cumulative IPC: 0.307052 (Simulation time: 0 hr 19 min 36 sec) 
Heartbeat CPU 0 instructions: 231000000 cycles: 748029399 heartbeat IPC: 0.160914 cumulative IPC: 0.305796 (Simulation time: 0 hr 19 min 44 sec) 
Heartbeat CPU 0 instructions: 232000000 cycles: 750339638 heartbeat IPC: 0.432856 cumulative IPC: 0.3062 (Simulation time: 0 hr 19 min 48 sec) 
Heartbeat CPU 0 instructions: 233000002 cycles: 752591386 heartbeat IPC: 0.4441 cumulative IPC: 0.306627 (Simulation time: 0 hr 19 min 52 sec) 
Heartbeat CPU 0 instructions: 234000001 cycles: 756889680 heartbeat IPC: 0.23265 cumulative IPC: 0.306193 (Simulation time: 0 hr 19 min 58 sec) 
Heartbeat CPU 0 instructions: 235000000 cycles: 759385180 heartbeat IPC: 0.400721 cumulative IPC: 0.306514 (Simulation time: 0 hr 20 min 2 sec) 
Heartbeat CPU 0 instructions: 236000000 cycles: 762975330 heartbeat IPC: 0.27854 cumulative IPC: 0.306378 (Simulation time: 0 hr 20 min 7 sec) 
Heartbeat CPU 0 instructions: 237000001 cycles: 767350037 heartbeat IPC: 0.228587 cumulative IPC: 0.305919 (Simulation time: 0 hr 20 min 14 sec) 
Heartbeat CPU 0 instructions: 238000003 cycles: 769178742 heartbeat IPC: 0.546836 cumulative IPC: 0.306512 (Simulation time: 0 hr 20 min 18 sec) 
Heartbeat CPU 0 instructions: 239000001 cycles: 771012387 heartbeat IPC: 0.545361 cumulative IPC: 0.307099 (Simulation time: 0 hr 20 min 22 sec) 
Heartbeat CPU 0 instructions: 240000002 cycles: 772844630 heartbeat IPC: 0.54578 cumulative IPC: 0.307684 (Simulation time: 0 hr 20 min 27 sec) 
Heartbeat CPU 0 instructions: 241000002 cycles: 774686659 heartbeat IPC: 0.54288 cumulative IPC: 0.308262 (Simulation time: 0 hr 20 min 31 sec) 
Heartbeat CPU 0 instructions: 242000000 cycles: 776515737 heartbeat IPC: 0.546722 cumulative IPC: 0.308843 (Simulation time: 0 hr 20 min 35 sec) 
Heartbeat CPU 0 instructions: 243000003 cycles: 778346937 heartbeat IPC: 0.546092 cumulative IPC: 0.30942 (Simulation time: 0 hr 20 min 40 sec) 
Heartbeat CPU 0 instructions: 244000000 cycles: 780184914 heartbeat IPC: 0.544075 cumulative IPC: 0.309991 (Simulation time: 0 hr 20 min 44 sec) 
Heartbeat CPU 0 instructions: 245000000 cycles: 782017234 heartbeat IPC: 0.545756 cumulative IPC: 0.310562 (Simulation time: 0 hr 20 min 48 sec) 
Heartbeat CPU 0 instructions: 246000000 cycles: 783873722 heartbeat IPC: 0.538651 cumulative IPC: 0.31112 (Simulation time: 0 hr 20 min 52 sec) 
Heartbeat CPU 0 instructions: 247000000 cycles: 785769939 heartbeat IPC: 0.527366 cumulative IPC: 0.311659 (Simulation time: 0 hr 20 min 56 sec) 
Heartbeat CPU 0 instructions: 248000001 cycles: 787596656 heartbeat IPC: 0.547431 cumulative IPC: 0.312224 (Simulation time: 0 hr 21 min 0 sec) 
Heartbeat CPU 0 instructions: 249000000 cycles: 789514695 heartbeat IPC: 0.521365 cumulative IPC: 0.312749 (Simulation time: 0 hr 21 min 4 sec) 
Heartbeat CPU 0 instructions: 250000000 cycles: 791370138 heartbeat IPC: 0.538955 cumulative IPC: 0.313297 (Simulation time: 0 hr 21 min 8 sec) 
Heartbeat CPU 0 instructions: 251000000 cycles: 793309649 heartbeat IPC: 0.515594 cumulative IPC: 0.313808 (Simulation time: 0 hr 21 min 12 sec) 
Heartbeat CPU 0 instructions: 252000003 cycles: 795157468 heartbeat IPC: 0.54118 cumulative IPC: 0.314354 (Simulation time: 0 hr 21 min 17 sec) 
Heartbeat CPU 0 instructions: 253000000 cycles: 797015261 heartbeat IPC: 0.538271 cumulative IPC: 0.314893 (Simulation time: 0 hr 21 min 21 sec) 
Heartbeat CPU 0 instructions: 254000000 cycles: 798882860 heartbeat IPC: 0.535447 cumulative IPC: 0.315425 (Simulation time: 0 hr 21 min 25 sec) 
Heartbeat CPU 0 instructions: 255000002 cycles: 800731957 heartbeat IPC: 0.540806 cumulative IPC: 0.315963 (Simulation time: 0 hr 21 min 29 sec) 
Heartbeat CPU 0 instructions: 256000003 cycles: 802944259 heartbeat IPC: 0.452018 cumulative IPC: 0.31635 (Simulation time: 0 hr 21 min 34 sec) 
Heartbeat CPU 0 instructions: 257000001 cycles: 804821005 heartbeat IPC: 0.532836 cumulative IPC: 0.316871 (Simulation time: 0 hr 21 min 38 sec) 
Heartbeat CPU 0 instructions: 258000000 cycles: 806711493 heartbeat IPC: 0.528963 cumulative IPC: 0.317384 (Simulation time: 0 hr 21 min 42 sec) 
Heartbeat CPU 0 instructions: 259000000 cycles: 808626924 heartbeat IPC: 0.522076 cumulative IPC: 0.317885 (Simulation time: 0 hr 21 min 46 sec) 
Heartbeat CPU 0 instructions: 260000000 cycles: 810822466 heartbeat IPC: 0.455468 cumulative IPC: 0.318269 (Simulation time: 0 hr 21 min 50 sec) 
Finished CPU 0 instructions: 250000000 cycles: 785498069 cumulative IPC: 0.318269 (Simulation time: 0 hr 21 min 50 sec) 

ChampSim completed all CPUs

Region of Interest Statistics

CPU 0 cumulative IPC: 0.318269 instructions: 250000000 cycles: 785498069
L1D TOTAL     ACCESS:  112206382  HIT:   98482431  MISS:   13723951
L1D LOAD      ACCESS:   58667044  HIT:   45486790  MISS:   13180254
L1D RFO       ACCESS:   53539338  HIT:   52995641  MISS:     543697
L1D PREFETCH  ACCESS:          0  HIT:          0  MISS:          0
L1D WRITEBACK ACCESS:          0  HIT:          0  MISS:          0
L1D PREFETCH  REQUESTED:          0  ISSUED:          0  USEFUL:          0  USELESS:          0
L1D AVERAGE MISS LATENCY: 175.223 cycles
L1I TOTAL     ACCESS:   57198971  HIT:   57198965  MISS:          6
L1I LOAD      ACCESS:   57198971  HIT:   57198965  MISS:          6
L1I RFO       ACCESS:          0  HIT:          0  MISS:          0
L1I PREFETCH  ACCESS:          0  HIT:          0  MISS:          0
L1I WRITEBACK ACCESS:          0  HIT:          0  MISS:          0
L1I PREFETCH  REQUESTED:          0  ISSUED:          0  USEFUL:          0  USELESS:          0
L1I AVERAGE MISS LATENCY: 199.333 cycles
L2C TOTAL     ACCESS:   14882750  HIT:    1272532  MISS:   13610218
L2C LOAD      ACCESS:   13180208  HIT:     114791  MISS:   13065417
L2C RFO       ACCESS:     543675  HIT:       7415  MISS:     536260
L2C PREFETCH  ACCESS:          0  HIT:          0  MISS:          0
L2C WRITEBACK ACCESS:    1158867  HIT:    1150326  MISS:       8541
L2C PREFETCH  REQUESTED:          0  ISSUED:          0  USEFUL:          0  USELESS:          0
L2C AVERAGE MISS LATENCY: 160.345 cycles
LLC TOTAL     ACCESS:   14675130  HIT:    1080548  MISS:   13594582
LLC LOAD      ACCESS:   13065417  HIT:      11026  MISS:   13054391
LLC RFO       ACCESS:     536259  HIT:        384  MISS:     535875
LLC PREFETCH  ACCESS:          0  HIT:          0  MISS:          0
LLC WRITEBACK ACCESS:    1073454  HIT:    1069138  MISS:       4316
LLC PREFETCH  REQUESTED:          0  ISSUED:          0  USEFUL:          0  USELESS:          0
LLC AVERAGE MISS LATENCY: 127.461 cycles
Major fault: 0 Minor fault: 78384

DRAM Statistics
 CHANNEL 0
 RQ ROW_BUFFER_HIT:    6205348  ROW_BUFFER_MISS:     591683
 DBUS_CONGESTED:    5629372
 WQ ROW_BUFFER_HIT:     434495  ROW_BUFFER_MISS:      98774  FULL:          0

 CHANNEL 1
 RQ ROW_BUFFER_HIT:    6190617  ROW_BUFFER_MISS:     602619
 DBUS_CONGESTED:    5629372
 WQ ROW_BUFFER_HIT:     442780  ROW_BUFFER_MISS:      88250  FULL:          0

 AVG_CONGESTED_CYCLE: 17

CPU 0 Branch Prediction Accuracy: 99.1872% MPKI: 1.10228 Average ROB Occupancy at Mispredict: 226.641

Branch types
NOT_BRANCH: 216095214 86.4381%
BRANCH_DIRECT_JUMP: 2652051 1.06082%
BRANCH_INDIRECT: 0 0%
BRANCH_CONDITIONAL: 31252172 12.5009%
BRANCH_DIRECT_CALL: 301 0.0001204%
BRANCH_INDIRECT_CALL: 0 0%
BRANCH_RETURN: 300 0.00012%
BRANCH_OTHER: 0 0%

