
*** ChampSim Multicore Out-of-Order Simulator ***

Warmup Instructions: 1000000
Prefetch Warmup Instructions: 10000000
Simulation Instructions: 250000000
Stat Printing Period: 1000000
Number of CPUs: 1
LLC sets: 2048
LLC ways: 16
Off-chip DRAM Size: 32768 MB Channels: 2 Width: 64-bit Data Rate: 1024 MT/s

CPU 0 runs /scratch/cluster/cmolder/ML-DPC/ChampSimTraces/spec17/605.mcf-s2.trace.xz
Read seed: 273
Heartbeat CPU 0 instructions: 1000000 cycles: 462200 heartbeat IPC: 2.16357 cumulative IPC: 2.16357 (Simulation time: 0 hr 0 min 4 sec) 

Warmup complete CPU 0 instructions: 1000004 cycles: 462201 (Simulation time: 0 hr 0 min 4 sec) 

Heartbeat CPU 0 instructions: 2000001 cycles: 7036776 heartbeat IPC: 0.152101 cumulative IPC: 0.152101 (Simulation time: 0 hr 0 min 11 sec) 
Heartbeat CPU 0 instructions: 3000002 cycles: 13242668 heartbeat IPC: 0.161137 cumulative IPC: 0.156489 (Simulation time: 0 hr 0 min 17 sec) 
Heartbeat CPU 0 instructions: 4000002 cycles: 19386352 heartbeat IPC: 0.162769 cumulative IPC: 0.158527 (Simulation time: 0 hr 0 min 24 sec) 
Heartbeat CPU 0 instructions: 5000001 cycles: 26170583 heartbeat IPC: 0.1474 cumulative IPC: 0.155591 (Simulation time: 0 hr 0 min 30 sec) 
Heartbeat CPU 0 instructions: 6000001 cycles: 31878850 heartbeat IPC: 0.175185 cumulative IPC: 0.159151 (Simulation time: 0 hr 0 min 37 sec) 
Heartbeat CPU 0 instructions: 7000002 cycles: 38560079 heartbeat IPC: 0.149673 cumulative IPC: 0.157489 (Simulation time: 0 hr 0 min 44 sec) 
Heartbeat CPU 0 instructions: 8000000 cycles: 44538080 heartbeat IPC: 0.16728 cumulative IPC: 0.158817 (Simulation time: 0 hr 0 min 51 sec) 
Heartbeat CPU 0 instructions: 9000001 cycles: 50975732 heartbeat IPC: 0.155336 cumulative IPC: 0.158373 (Simulation time: 0 hr 0 min 58 sec) 
Heartbeat CPU 0 instructions: 10000001 cycles: 57238063 heartbeat IPC: 0.159685 cumulative IPC: 0.158518 (Simulation time: 0 hr 1 min 4 sec) 

Warmup complete CPU 0 instructions: 10000001 cycles: 57238063 (Simulation time: 0 hr 1 min 4 sec) 

Heartbeat CPU 0 instructions: 11000000 cycles: 60843340 heartbeat IPC: 0.277371 cumulative IPC: 0.277371 (Simulation time: 0 hr 1 min 10 sec) 
Heartbeat CPU 0 instructions: 12000003 cycles: 65082465 heartbeat IPC: 0.235898 cumulative IPC: 0.254959 (Simulation time: 0 hr 1 min 16 sec) 
Heartbeat CPU 0 instructions: 13000002 cycles: 69217721 heartbeat IPC: 0.241823 cumulative IPC: 0.250425 (Simulation time: 0 hr 1 min 22 sec) 
Heartbeat CPU 0 instructions: 14000002 cycles: 72913448 heartbeat IPC: 0.270583 cumulative IPC: 0.255177 (Simulation time: 0 hr 1 min 28 sec) 
Heartbeat CPU 0 instructions: 15000003 cycles: 76631108 heartbeat IPC: 0.268987 cumulative IPC: 0.257824 (Simulation time: 0 hr 1 min 34 sec) 
Heartbeat CPU 0 instructions: 16000001 cycles: 80451537 heartbeat IPC: 0.26175 cumulative IPC: 0.258471 (Simulation time: 0 hr 1 min 40 sec) 
Heartbeat CPU 0 instructions: 17000001 cycles: 84438647 heartbeat IPC: 0.250808 cumulative IPC: 0.257347 (Simulation time: 0 hr 1 min 46 sec) 
Heartbeat CPU 0 instructions: 18000002 cycles: 88354010 heartbeat IPC: 0.255404 cumulative IPC: 0.257103 (Simulation time: 0 hr 1 min 51 sec) 
Heartbeat CPU 0 instructions: 19000002 cycles: 92600941 heartbeat IPC: 0.235464 cumulative IPC: 0.254504 (Simulation time: 0 hr 1 min 57 sec) 
Heartbeat CPU 0 instructions: 20000000 cycles: 96162998 heartbeat IPC: 0.280736 cumulative IPC: 0.256905 (Simulation time: 0 hr 2 min 3 sec) 
Heartbeat CPU 0 instructions: 21000001 cycles: 99903251 heartbeat IPC: 0.267362 cumulative IPC: 0.257821 (Simulation time: 0 hr 2 min 10 sec) 
Heartbeat CPU 0 instructions: 22000000 cycles: 104119748 heartbeat IPC: 0.237163 cumulative IPC: 0.255963 (Simulation time: 0 hr 2 min 16 sec) 
Heartbeat CPU 0 instructions: 23000000 cycles: 107843543 heartbeat IPC: 0.268543 cumulative IPC: 0.256889 (Simulation time: 0 hr 2 min 22 sec) 
Heartbeat CPU 0 instructions: 24000001 cycles: 111464987 heartbeat IPC: 0.276133 cumulative IPC: 0.258174 (Simulation time: 0 hr 2 min 29 sec) 
Heartbeat CPU 0 instructions: 25000001 cycles: 115501429 heartbeat IPC: 0.247743 cumulative IPC: 0.257452 (Simulation time: 0 hr 2 min 35 sec) 
Heartbeat CPU 0 instructions: 26000001 cycles: 119298562 heartbeat IPC: 0.263357 cumulative IPC: 0.257813 (Simulation time: 0 hr 2 min 41 sec) 
Heartbeat CPU 0 instructions: 27000000 cycles: 123398390 heartbeat IPC: 0.243912 cumulative IPC: 0.256952 (Simulation time: 0 hr 2 min 47 sec) 
Heartbeat CPU 0 instructions: 28000001 cycles: 127335425 heartbeat IPC: 0.253999 cumulative IPC: 0.256786 (Simulation time: 0 hr 2 min 54 sec) 
Heartbeat CPU 0 instructions: 29000000 cycles: 131188498 heartbeat IPC: 0.259533 cumulative IPC: 0.256929 (Simulation time: 0 hr 3 min 0 sec) 
Heartbeat CPU 0 instructions: 30000000 cycles: 134892656 heartbeat IPC: 0.269967 cumulative IPC: 0.257551 (Simulation time: 0 hr 3 min 7 sec) 
Heartbeat CPU 0 instructions: 31000002 cycles: 138508645 heartbeat IPC: 0.27655 cumulative IPC: 0.258396 (Simulation time: 0 hr 3 min 12 sec) 
Heartbeat CPU 0 instructions: 32000002 cycles: 142399904 heartbeat IPC: 0.256986 cumulative IPC: 0.258332 (Simulation time: 0 hr 3 min 19 sec) 
Heartbeat CPU 0 instructions: 33000000 cycles: 146573305 heartbeat IPC: 0.239612 cumulative IPC: 0.257457 (Simulation time: 0 hr 3 min 25 sec) 
Heartbeat CPU 0 instructions: 34000000 cycles: 150419164 heartbeat IPC: 0.26002 cumulative IPC: 0.257563 (Simulation time: 0 hr 3 min 31 sec) 
Heartbeat CPU 0 instructions: 35000002 cycles: 154138615 heartbeat IPC: 0.268857 cumulative IPC: 0.257996 (Simulation time: 0 hr 3 min 38 sec) 
Heartbeat CPU 0 instructions: 36000002 cycles: 158210194 heartbeat IPC: 0.245605 cumulative IPC: 0.257497 (Simulation time: 0 hr 3 min 44 sec) 
Heartbeat CPU 0 instructions: 37000001 cycles: 161968079 heartbeat IPC: 0.266107 cumulative IPC: 0.257806 (Simulation time: 0 hr 3 min 50 sec) 
Heartbeat CPU 0 instructions: 38000001 cycles: 166117670 heartbeat IPC: 0.240988 cumulative IPC: 0.257165 (Simulation time: 0 hr 3 min 56 sec) 
Heartbeat CPU 0 instructions: 39000001 cycles: 170082250 heartbeat IPC: 0.252234 cumulative IPC: 0.256992 (Simulation time: 0 hr 4 min 3 sec) 
Heartbeat CPU 0 instructions: 40000000 cycles: 173895832 heartbeat IPC: 0.26222 cumulative IPC: 0.257162 (Simulation time: 0 hr 4 min 9 sec) 
Heartbeat CPU 0 instructions: 41000001 cycles: 177668500 heartbeat IPC: 0.265065 cumulative IPC: 0.25741 (Simulation time: 0 hr 4 min 15 sec) 
Heartbeat CPU 0 instructions: 42000001 cycles: 181824269 heartbeat IPC: 0.240629 cumulative IPC: 0.25685 (Simulation time: 0 hr 4 min 21 sec) 
Heartbeat CPU 0 instructions: 43000003 cycles: 185487129 heartbeat IPC: 0.273011 cumulative IPC: 0.257312 (Simulation time: 0 hr 4 min 28 sec) 
Heartbeat CPU 0 instructions: 44000000 cycles: 189252966 heartbeat IPC: 0.265544 cumulative IPC: 0.257547 (Simulation time: 0 hr 4 min 34 sec) 
Heartbeat CPU 0 instructions: 45000001 cycles: 193070571 heartbeat IPC: 0.261945 cumulative IPC: 0.25767 (Simulation time: 0 hr 4 min 40 sec) 
Heartbeat CPU 0 instructions: 46000001 cycles: 197006258 heartbeat IPC: 0.254085 cumulative IPC: 0.257569 (Simulation time: 0 hr 4 min 46 sec) 
Heartbeat CPU 0 instructions: 47000003 cycles: 200898169 heartbeat IPC: 0.256944 cumulative IPC: 0.257552 (Simulation time: 0 hr 4 min 53 sec) 
Heartbeat CPU 0 instructions: 48000001 cycles: 204704349 heartbeat IPC: 0.26273 cumulative IPC: 0.257686 (Simulation time: 0 hr 4 min 59 sec) 
Heartbeat CPU 0 instructions: 49000001 cycles: 208679920 heartbeat IPC: 0.251536 cumulative IPC: 0.257525 (Simulation time: 0 hr 5 min 6 sec) 
Heartbeat CPU 0 instructions: 50000000 cycles: 212784363 heartbeat IPC: 0.243638 cumulative IPC: 0.257158 (Simulation time: 0 hr 5 min 12 sec) 
Heartbeat CPU 0 instructions: 51000002 cycles: 216468171 heartbeat IPC: 0.271459 cumulative IPC: 0.257489 (Simulation time: 0 hr 5 min 19 sec) 
Heartbeat CPU 0 instructions: 52000003 cycles: 220251059 heartbeat IPC: 0.264349 cumulative IPC: 0.257648 (Simulation time: 0 hr 5 min 25 sec) 
Heartbeat CPU 0 instructions: 53000000 cycles: 223950736 heartbeat IPC: 0.270293 cumulative IPC: 0.257929 (Simulation time: 0 hr 5 min 32 sec) 
Heartbeat CPU 0 instructions: 54000002 cycles: 228137607 heartbeat IPC: 0.238842 cumulative IPC: 0.257461 (Simulation time: 0 hr 5 min 37 sec) 
Heartbeat CPU 0 instructions: 55000000 cycles: 232076301 heartbeat IPC: 0.253891 cumulative IPC: 0.257381 (Simulation time: 0 hr 5 min 44 sec) 
Heartbeat CPU 0 instructions: 56000000 cycles: 235862071 heartbeat IPC: 0.264147 cumulative IPC: 0.257524 (Simulation time: 0 hr 5 min 50 sec) 
Heartbeat CPU 0 instructions: 57000000 cycles: 239651479 heartbeat IPC: 0.263893 cumulative IPC: 0.257656 (Simulation time: 0 hr 5 min 57 sec) 
Heartbeat CPU 0 instructions: 58000001 cycles: 243540709 heartbeat IPC: 0.257121 cumulative IPC: 0.257645 (Simulation time: 0 hr 6 min 3 sec) 
Heartbeat CPU 0 instructions: 59000003 cycles: 247649352 heartbeat IPC: 0.24339 cumulative IPC: 0.257338 (Simulation time: 0 hr 6 min 10 sec) 
Heartbeat CPU 0 instructions: 60000002 cycles: 251700182 heartbeat IPC: 0.246863 cumulative IPC: 0.257119 (Simulation time: 0 hr 6 min 16 sec) 
Heartbeat CPU 0 instructions: 61000000 cycles: 255429700 heartbeat IPC: 0.268131 cumulative IPC: 0.257327 (Simulation time: 0 hr 6 min 23 sec) 
Heartbeat CPU 0 instructions: 62000000 cycles: 259609783 heartbeat IPC: 0.23923 cumulative IPC: 0.256953 (Simulation time: 0 hr 6 min 29 sec) 
Heartbeat CPU 0 instructions: 63000000 cycles: 263589130 heartbeat IPC: 0.251298 cumulative IPC: 0.256844 (Simulation time: 0 hr 6 min 35 sec) 
Heartbeat CPU 0 instructions: 64000002 cycles: 267379534 heartbeat IPC: 0.263825 cumulative IPC: 0.25697 (Simulation time: 0 hr 6 min 42 sec) 
Heartbeat CPU 0 instructions: 65000001 cycles: 271240204 heartbeat IPC: 0.259022 cumulative IPC: 0.257007 (Simulation time: 0 hr 6 min 48 sec) 
Heartbeat CPU 0 instructions: 66000000 cycles: 275264335 heartbeat IPC: 0.248501 cumulative IPC: 0.25685 (Simulation time: 0 hr 6 min 55 sec) 
Heartbeat CPU 0 instructions: 67000000 cycles: 278957180 heartbeat IPC: 0.270794 cumulative IPC: 0.257082 (Simulation time: 0 hr 7 min 1 sec) 
Heartbeat CPU 0 instructions: 68000000 cycles: 282806106 heartbeat IPC: 0.259813 cumulative IPC: 0.257129 (Simulation time: 0 hr 7 min 8 sec) 
Heartbeat CPU 0 instructions: 69000003 cycles: 286789248 heartbeat IPC: 0.251059 cumulative IPC: 0.257023 (Simulation time: 0 hr 7 min 14 sec) 
Heartbeat CPU 0 instructions: 70000001 cycles: 291005573 heartbeat IPC: 0.237173 cumulative IPC: 0.256665 (Simulation time: 0 hr 7 min 20 sec) 
Heartbeat CPU 0 instructions: 71000000 cycles: 295230721 heartbeat IPC: 0.236678 cumulative IPC: 0.25631 (Simulation time: 0 hr 7 min 27 sec) 
Heartbeat CPU 0 instructions: 72000003 cycles: 299220996 heartbeat IPC: 0.25061 cumulative IPC: 0.256216 (Simulation time: 0 hr 7 min 33 sec) 
Heartbeat CPU 0 instructions: 73000002 cycles: 303390475 heartbeat IPC: 0.239838 cumulative IPC: 0.255939 (Simulation time: 0 hr 7 min 39 sec) 
Heartbeat CPU 0 instructions: 74000002 cycles: 307124829 heartbeat IPC: 0.267784 cumulative IPC: 0.256116 (Simulation time: 0 hr 7 min 46 sec) 
Heartbeat CPU 0 instructions: 75000000 cycles: 311389760 heartbeat IPC: 0.23447 cumulative IPC: 0.255753 (Simulation time: 0 hr 7 min 52 sec) 
Heartbeat CPU 0 instructions: 76000000 cycles: 315574744 heartbeat IPC: 0.23895 cumulative IPC: 0.255481 (Simulation time: 0 hr 7 min 58 sec) 
Heartbeat CPU 0 instructions: 77000000 cycles: 319460254 heartbeat IPC: 0.257366 cumulative IPC: 0.255509 (Simulation time: 0 hr 8 min 4 sec) 
Heartbeat CPU 0 instructions: 78000000 cycles: 323378203 heartbeat IPC: 0.255236 cumulative IPC: 0.255504 (Simulation time: 0 hr 8 min 11 sec) 
Heartbeat CPU 0 instructions: 79000002 cycles: 327015908 heartbeat IPC: 0.274899 cumulative IPC: 0.255766 (Simulation time: 0 hr 8 min 17 sec) 
Heartbeat CPU 0 instructions: 80000002 cycles: 330955036 heartbeat IPC: 0.253863 cumulative IPC: 0.255739 (Simulation time: 0 hr 8 min 24 sec) 
Heartbeat CPU 0 instructions: 81000000 cycles: 334744522 heartbeat IPC: 0.263887 cumulative IPC: 0.25585 (Simulation time: 0 hr 8 min 31 sec) 
Heartbeat CPU 0 instructions: 82000000 cycles: 338805561 heartbeat IPC: 0.246242 cumulative IPC: 0.255711 (Simulation time: 0 hr 8 min 37 sec) 
Heartbeat CPU 0 instructions: 83000000 cycles: 342836768 heartbeat IPC: 0.248065 cumulative IPC: 0.255603 (Simulation time: 0 hr 8 min 44 sec) 
Heartbeat CPU 0 instructions: 84000001 cycles: 346827828 heartbeat IPC: 0.25056 cumulative IPC: 0.255534 (Simulation time: 0 hr 8 min 50 sec) 
Heartbeat CPU 0 instructions: 85000001 cycles: 350664296 heartbeat IPC: 0.260656 cumulative IPC: 0.255601 (Simulation time: 0 hr 8 min 57 sec) 
Heartbeat CPU 0 instructions: 86000002 cycles: 354578639 heartbeat IPC: 0.255471 cumulative IPC: 0.255599 (Simulation time: 0 hr 9 min 3 sec) 
Heartbeat CPU 0 instructions: 87000003 cycles: 358398675 heartbeat IPC: 0.261778 cumulative IPC: 0.255678 (Simulation time: 0 hr 9 min 9 sec) 
Heartbeat CPU 0 instructions: 88000000 cycles: 362593259 heartbeat IPC: 0.238402 cumulative IPC: 0.25544 (Simulation time: 0 hr 9 min 16 sec) 
Heartbeat CPU 0 instructions: 89000002 cycles: 366482033 heartbeat IPC: 0.257151 cumulative IPC: 0.255462 (Simulation time: 0 hr 9 min 22 sec) 
Heartbeat CPU 0 instructions: 90000000 cycles: 370509936 heartbeat IPC: 0.248268 cumulative IPC: 0.255369 (Simulation time: 0 hr 9 min 29 sec) 
Heartbeat CPU 0 instructions: 91000001 cycles: 374322622 heartbeat IPC: 0.262283 cumulative IPC: 0.255452 (Simulation time: 0 hr 9 min 35 sec) 
Heartbeat CPU 0 instructions: 92000001 cycles: 378123247 heartbeat IPC: 0.263115 cumulative IPC: 0.255543 (Simulation time: 0 hr 9 min 42 sec) 
Heartbeat CPU 0 instructions: 93000002 cycles: 382234118 heartbeat IPC: 0.243258 cumulative IPC: 0.255388 (Simulation time: 0 hr 9 min 48 sec) 
Heartbeat CPU 0 instructions: 94000000 cycles: 386000402 heartbeat IPC: 0.265513 cumulative IPC: 0.255504 (Simulation time: 0 hr 9 min 55 sec) 
Heartbeat CPU 0 instructions: 95000002 cycles: 389631426 heartbeat IPC: 0.275405 cumulative IPC: 0.255721 (Simulation time: 0 hr 10 min 2 sec) 
Heartbeat CPU 0 instructions: 96000003 cycles: 393760746 heartbeat IPC: 0.242171 cumulative IPC: 0.255555 (Simulation time: 0 hr 10 min 8 sec) 
Heartbeat CPU 0 instructions: 97000002 cycles: 397492898 heartbeat IPC: 0.267942 cumulative IPC: 0.255691 (Simulation time: 0 hr 10 min 14 sec) 
Heartbeat CPU 0 instructions: 98000002 cycles: 401321643 heartbeat IPC: 0.261182 cumulative IPC: 0.255752 (Simulation time: 0 hr 10 min 21 sec) 
Heartbeat CPU 0 instructions: 99000000 cycles: 405414852 heartbeat IPC: 0.244307 cumulative IPC: 0.255617 (Simulation time: 0 hr 10 min 27 sec) 
Heartbeat CPU 0 instructions: 100000000 cycles: 409420639 heartbeat IPC: 0.249639 cumulative IPC: 0.255549 (Simulation time: 0 hr 10 min 33 sec) 
Heartbeat CPU 0 instructions: 101000000 cycles: 413263023 heartbeat IPC: 0.260255 cumulative IPC: 0.2556 (Simulation time: 0 hr 10 min 39 sec) 
Heartbeat CPU 0 instructions: 102000002 cycles: 417268423 heartbeat IPC: 0.249663 cumulative IPC: 0.255534 (Simulation time: 0 hr 10 min 45 sec) 
Heartbeat CPU 0 instructions: 103000002 cycles: 421121139 heartbeat IPC: 0.259557 cumulative IPC: 0.255577 (Simulation time: 0 hr 10 min 52 sec) 
Heartbeat CPU 0 instructions: 104000002 cycles: 425110665 heartbeat IPC: 0.250656 cumulative IPC: 0.255523 (Simulation time: 0 hr 10 min 58 sec) 
Heartbeat CPU 0 instructions: 105000002 cycles: 428939063 heartbeat IPC: 0.261206 cumulative IPC: 0.255582 (Simulation time: 0 hr 11 min 4 sec) 
Heartbeat CPU 0 instructions: 106000003 cycles: 433084263 heartbeat IPC: 0.241243 cumulative IPC: 0.255424 (Simulation time: 0 hr 11 min 11 sec) 
Heartbeat CPU 0 instructions: 107000002 cycles: 437087337 heartbeat IPC: 0.249808 cumulative IPC: 0.255364 (Simulation time: 0 hr 11 min 17 sec) 
Heartbeat CPU 0 instructions: 108000003 cycles: 440794322 heartbeat IPC: 0.269761 cumulative IPC: 0.255504 (Simulation time: 0 hr 11 min 24 sec) 
Heartbeat CPU 0 instructions: 109000002 cycles: 444793673 heartbeat IPC: 0.25004 cumulative IPC: 0.255447 (Simulation time: 0 hr 11 min 30 sec) 
Heartbeat CPU 0 instructions: 110000000 cycles: 448733188 heartbeat IPC: 0.253838 cumulative IPC: 0.255431 (Simulation time: 0 hr 11 min 37 sec) 
Heartbeat CPU 0 instructions: 111000000 cycles: 452408395 heartbeat IPC: 0.272094 cumulative IPC: 0.255586 (Simulation time: 0 hr 11 min 43 sec) 
Heartbeat CPU 0 instructions: 112000003 cycles: 456221370 heartbeat IPC: 0.262263 cumulative IPC: 0.25565 (Simulation time: 0 hr 11 min 50 sec) 
Heartbeat CPU 0 instructions: 113000000 cycles: 460152454 heartbeat IPC: 0.254382 cumulative IPC: 0.255637 (Simulation time: 0 hr 11 min 56 sec) 
Heartbeat CPU 0 instructions: 114000002 cycles: 464157951 heartbeat IPC: 0.249657 cumulative IPC: 0.255579 (Simulation time: 0 hr 12 min 2 sec) 
Heartbeat CPU 0 instructions: 115000002 cycles: 467903623 heartbeat IPC: 0.266975 cumulative IPC: 0.255682 (Simulation time: 0 hr 12 min 9 sec) 
Heartbeat CPU 0 instructions: 116000001 cycles: 471551440 heartbeat IPC: 0.274136 cumulative IPC: 0.255845 (Simulation time: 0 hr 12 min 16 sec) 
Heartbeat CPU 0 instructions: 117000000 cycles: 475385923 heartbeat IPC: 0.260791 cumulative IPC: 0.25589 (Simulation time: 0 hr 12 min 22 sec) 
Heartbeat CPU 0 instructions: 118000000 cycles: 479099247 heartbeat IPC: 0.2693 cumulative IPC: 0.256008 (Simulation time: 0 hr 12 min 29 sec) 
Heartbeat CPU 0 instructions: 119000002 cycles: 482742191 heartbeat IPC: 0.274504 cumulative IPC: 0.256167 (Simulation time: 0 hr 12 min 36 sec) 
Heartbeat CPU 0 instructions: 120000001 cycles: 486935110 heartbeat IPC: 0.238497 cumulative IPC: 0.255994 (Simulation time: 0 hr 12 min 43 sec) 
Heartbeat CPU 0 instructions: 121000000 cycles: 490784285 heartbeat IPC: 0.259796 cumulative IPC: 0.256028 (Simulation time: 0 hr 12 min 49 sec) 
Heartbeat CPU 0 instructions: 122000001 cycles: 494561552 heartbeat IPC: 0.264742 cumulative IPC: 0.256103 (Simulation time: 0 hr 12 min 56 sec) 
Heartbeat CPU 0 instructions: 123000003 cycles: 498464178 heartbeat IPC: 0.256238 cumulative IPC: 0.256105 (Simulation time: 0 hr 13 min 3 sec) 
Heartbeat CPU 0 instructions: 124000001 cycles: 502432528 heartbeat IPC: 0.251993 cumulative IPC: 0.256068 (Simulation time: 0 hr 13 min 9 sec) 
Heartbeat CPU 0 instructions: 125000002 cycles: 506378780 heartbeat IPC: 0.253405 cumulative IPC: 0.256044 (Simulation time: 0 hr 13 min 16 sec) 
Heartbeat CPU 0 instructions: 126000000 cycles: 510219135 heartbeat IPC: 0.260392 cumulative IPC: 0.256081 (Simulation time: 0 hr 13 min 22 sec) 
Heartbeat CPU 0 instructions: 127000001 cycles: 514029208 heartbeat IPC: 0.262462 cumulative IPC: 0.256135 (Simulation time: 0 hr 13 min 28 sec) 
Heartbeat CPU 0 instructions: 128000003 cycles: 518049886 heartbeat IPC: 0.248715 cumulative IPC: 0.25607 (Simulation time: 0 hr 13 min 35 sec) 
Heartbeat CPU 0 instructions: 129000000 cycles: 521843629 heartbeat IPC: 0.263591 cumulative IPC: 0.256131 (Simulation time: 0 hr 13 min 41 sec) 
Heartbeat CPU 0 instructions: 130000000 cycles: 525823531 heartbeat IPC: 0.251262 cumulative IPC: 0.25609 (Simulation time: 0 hr 13 min 48 sec) 
Heartbeat CPU 0 instructions: 131000001 cycles: 529417823 heartbeat IPC: 0.278219 cumulative IPC: 0.256258 (Simulation time: 0 hr 13 min 55 sec) 
Heartbeat CPU 0 instructions: 132000000 cycles: 533492661 heartbeat IPC: 0.245408 cumulative IPC: 0.256166 (Simulation time: 0 hr 14 min 1 sec) 
Heartbeat CPU 0 instructions: 133000002 cycles: 537592692 heartbeat IPC: 0.243901 cumulative IPC: 0.256061 (Simulation time: 0 hr 14 min 7 sec) 
Heartbeat CPU 0 instructions: 134000002 cycles: 541807903 heartbeat IPC: 0.237236 cumulative IPC: 0.255897 (Simulation time: 0 hr 14 min 13 sec) 
Heartbeat CPU 0 instructions: 135000001 cycles: 545708329 heartbeat IPC: 0.256382 cumulative IPC: 0.255901 (Simulation time: 0 hr 14 min 20 sec) 
Heartbeat CPU 0 instructions: 136000000 cycles: 549804672 heartbeat IPC: 0.24412 cumulative IPC: 0.255803 (Simulation time: 0 hr 14 min 27 sec) 
Heartbeat CPU 0 instructions: 137000002 cycles: 553513244 heartbeat IPC: 0.269646 cumulative IPC: 0.255906 (Simulation time: 0 hr 14 min 34 sec) 
Heartbeat CPU 0 instructions: 138000002 cycles: 557550416 heartbeat IPC: 0.247698 cumulative IPC: 0.25584 (Simulation time: 0 hr 14 min 40 sec) 
Heartbeat CPU 0 instructions: 139000001 cycles: 561406074 heartbeat IPC: 0.259359 cumulative IPC: 0.255867 (Simulation time: 0 hr 14 min 47 sec) 
Heartbeat CPU 0 instructions: 140000000 cycles: 565133918 heartbeat IPC: 0.268251 cumulative IPC: 0.255958 (Simulation time: 0 hr 14 min 54 sec) 
Heartbeat CPU 0 instructions: 141000000 cycles: 569011403 heartbeat IPC: 0.257899 cumulative IPC: 0.255973 (Simulation time: 0 hr 15 min 0 sec) 
Heartbeat CPU 0 instructions: 142000001 cycles: 572874422 heartbeat IPC: 0.258865 cumulative IPC: 0.255994 (Simulation time: 0 hr 15 min 7 sec) 
Heartbeat CPU 0 instructions: 143000000 cycles: 576907832 heartbeat IPC: 0.247929 cumulative IPC: 0.255932 (Simulation time: 0 hr 15 min 13 sec) 
Heartbeat CPU 0 instructions: 144000000 cycles: 580617163 heartbeat IPC: 0.26959 cumulative IPC: 0.256029 (Simulation time: 0 hr 15 min 20 sec) 
Heartbeat CPU 0 instructions: 145000000 cycles: 584575780 heartbeat IPC: 0.252613 cumulative IPC: 0.256003 (Simulation time: 0 hr 15 min 26 sec) 
Heartbeat CPU 0 instructions: 146000001 cycles: 588420419 heartbeat IPC: 0.260103 cumulative IPC: 0.256033 (Simulation time: 0 hr 15 min 33 sec) 
Heartbeat CPU 0 instructions: 147000000 cycles: 592153076 heartbeat IPC: 0.267905 cumulative IPC: 0.256115 (Simulation time: 0 hr 15 min 40 sec) 
Heartbeat CPU 0 instructions: 148000002 cycles: 596097597 heartbeat IPC: 0.253517 cumulative IPC: 0.256096 (Simulation time: 0 hr 15 min 46 sec) 
Heartbeat CPU 0 instructions: 149000000 cycles: 600085250 heartbeat IPC: 0.250774 cumulative IPC: 0.256057 (Simulation time: 0 hr 15 min 52 sec) 
Heartbeat CPU 0 instructions: 150000002 cycles: 603891332 heartbeat IPC: 0.262738 cumulative IPC: 0.256104 (Simulation time: 0 hr 15 min 59 sec) 
Heartbeat CPU 0 instructions: 151000002 cycles: 607536599 heartbeat IPC: 0.274328 cumulative IPC: 0.256225 (Simulation time: 0 hr 16 min 6 sec) 
Heartbeat CPU 0 instructions: 152000001 cycles: 611257040 heartbeat IPC: 0.268785 cumulative IPC: 0.256309 (Simulation time: 0 hr 16 min 13 sec) 
Heartbeat CPU 0 instructions: 153000000 cycles: 614989670 heartbeat IPC: 0.267907 cumulative IPC: 0.256387 (Simulation time: 0 hr 16 min 20 sec) 
Heartbeat CPU 0 instructions: 154000000 cycles: 618680503 heartbeat IPC: 0.270942 cumulative IPC: 0.256482 (Simulation time: 0 hr 16 min 26 sec) 
Heartbeat CPU 0 instructions: 155000002 cycles: 622391215 heartbeat IPC: 0.269491 cumulative IPC: 0.256568 (Simulation time: 0 hr 16 min 33 sec) 
Heartbeat CPU 0 instructions: 156000003 cycles: 626034478 heartbeat IPC: 0.27448 cumulative IPC: 0.256682 (Simulation time: 0 hr 16 min 40 sec) 
Heartbeat CPU 0 instructions: 157000003 cycles: 630145850 heartbeat IPC: 0.243228 cumulative IPC: 0.256586 (Simulation time: 0 hr 16 min 46 sec) 
Heartbeat CPU 0 instructions: 158000002 cycles: 634130229 heartbeat IPC: 0.25098 cumulative IPC: 0.256547 (Simulation time: 0 hr 16 min 52 sec) 
Heartbeat CPU 0 instructions: 159000002 cycles: 637834290 heartbeat IPC: 0.269974 cumulative IPC: 0.256633 (Simulation time: 0 hr 16 min 58 sec) 
Heartbeat CPU 0 instructions: 160000000 cycles: 641718961 heartbeat IPC: 0.257422 cumulative IPC: 0.256638 (Simulation time: 0 hr 17 min 4 sec) 
Heartbeat CPU 0 instructions: 161000002 cycles: 645732172 heartbeat IPC: 0.249178 cumulative IPC: 0.256587 (Simulation time: 0 hr 17 min 11 sec) 
Heartbeat CPU 0 instructions: 162000000 cycles: 649863089 heartbeat IPC: 0.242077 cumulative IPC: 0.256486 (Simulation time: 0 hr 17 min 17 sec) 
Heartbeat CPU 0 instructions: 163000000 cycles: 653976344 heartbeat IPC: 0.243116 cumulative IPC: 0.256394 (Simulation time: 0 hr 17 min 23 sec) 
Heartbeat CPU 0 instructions: 164000000 cycles: 657820159 heartbeat IPC: 0.260158 cumulative IPC: 0.256418 (Simulation time: 0 hr 17 min 30 sec) 
Heartbeat CPU 0 instructions: 165000000 cycles: 661687117 heartbeat IPC: 0.258601 cumulative IPC: 0.256432 (Simulation time: 0 hr 17 min 36 sec) 
Heartbeat CPU 0 instructions: 166000001 cycles: 665397521 heartbeat IPC: 0.269513 cumulative IPC: 0.256512 (Simulation time: 0 hr 17 min 43 sec) 
Heartbeat CPU 0 instructions: 167000000 cycles: 669143989 heartbeat IPC: 0.266918 cumulative IPC: 0.256575 (Simulation time: 0 hr 17 min 49 sec) 
Heartbeat CPU 0 instructions: 168000002 cycles: 672840625 heartbeat IPC: 0.270517 cumulative IPC: 0.256659 (Simulation time: 0 hr 17 min 56 sec) 
Heartbeat CPU 0 instructions: 169000000 cycles: 676502133 heartbeat IPC: 0.273111 cumulative IPC: 0.256756 (Simulation time: 0 hr 18 min 2 sec) 
Heartbeat CPU 0 instructions: 170000003 cycles: 680204093 heartbeat IPC: 0.270128 cumulative IPC: 0.256836 (Simulation time: 0 hr 18 min 9 sec) 
Heartbeat CPU 0 instructions: 171000002 cycles: 684156934 heartbeat IPC: 0.252982 cumulative IPC: 0.256812 (Simulation time: 0 hr 18 min 16 sec) 
Heartbeat CPU 0 instructions: 172000000 cycles: 687929558 heartbeat IPC: 0.265067 cumulative IPC: 0.256861 (Simulation time: 0 hr 18 min 22 sec) 
Heartbeat CPU 0 instructions: 173000000 cycles: 691865054 heartbeat IPC: 0.254098 cumulative IPC: 0.256844 (Simulation time: 0 hr 18 min 29 sec) 
Heartbeat CPU 0 instructions: 174000002 cycles: 695541478 heartbeat IPC: 0.272004 cumulative IPC: 0.256931 (Simulation time: 0 hr 18 min 36 sec) 
Heartbeat CPU 0 instructions: 175000001 cycles: 699528492 heartbeat IPC: 0.250814 cumulative IPC: 0.256893 (Simulation time: 0 hr 18 min 42 sec) 
Heartbeat CPU 0 instructions: 176000000 cycles: 703207284 heartbeat IPC: 0.271828 cumulative IPC: 0.256978 (Simulation time: 0 hr 18 min 49 sec) 
Heartbeat CPU 0 instructions: 177000000 cycles: 707009429 heartbeat IPC: 0.263009 cumulative IPC: 0.257013 (Simulation time: 0 hr 18 min 56 sec) 
Heartbeat CPU 0 instructions: 178000003 cycles: 711014672 heartbeat IPC: 0.249673 cumulative IPC: 0.256968 (Simulation time: 0 hr 19 min 2 sec) 
Heartbeat CPU 0 instructions: 179000000 cycles: 714764413 heartbeat IPC: 0.266684 cumulative IPC: 0.257024 (Simulation time: 0 hr 19 min 9 sec) 
Heartbeat CPU 0 instructions: 180000002 cycles: 718754586 heartbeat IPC: 0.250616 cumulative IPC: 0.256985 (Simulation time: 0 hr 19 min 16 sec) 
Heartbeat CPU 0 instructions: 181000002 cycles: 722969955 heartbeat IPC: 0.237227 cumulative IPC: 0.25686 (Simulation time: 0 hr 19 min 22 sec) 
Heartbeat CPU 0 instructions: 182000002 cycles: 726647183 heartbeat IPC: 0.271944 cumulative IPC: 0.256943 (Simulation time: 0 hr 19 min 29 sec) 
Heartbeat CPU 0 instructions: 183000000 cycles: 730367146 heartbeat IPC: 0.268819 cumulative IPC: 0.257009 (Simulation time: 0 hr 19 min 36 sec) 
Heartbeat CPU 0 instructions: 184000002 cycles: 734245283 heartbeat IPC: 0.257856 cumulative IPC: 0.257013 (Simulation time: 0 hr 19 min 42 sec) 
Heartbeat CPU 0 instructions: 185000001 cycles: 737975098 heartbeat IPC: 0.26811 cumulative IPC: 0.257074 (Simulation time: 0 hr 19 min 49 sec) 
Heartbeat CPU 0 instructions: 186000002 cycles: 741621293 heartbeat IPC: 0.274259 cumulative IPC: 0.257166 (Simulation time: 0 hr 19 min 56 sec) 
Heartbeat CPU 0 instructions: 187000000 cycles: 745436560 heartbeat IPC: 0.262104 cumulative IPC: 0.257193 (Simulation time: 0 hr 20 min 2 sec) 
Heartbeat CPU 0 instructions: 188000003 cycles: 749086265 heartbeat IPC: 0.273996 cumulative IPC: 0.257282 (Simulation time: 0 hr 20 min 9 sec) 
Heartbeat CPU 0 instructions: 189000000 cycles: 752842083 heartbeat IPC: 0.266253 cumulative IPC: 0.25733 (Simulation time: 0 hr 20 min 16 sec) 
Heartbeat CPU 0 instructions: 190000001 cycles: 756591715 heartbeat IPC: 0.266693 cumulative IPC: 0.257381 (Simulation time: 0 hr 20 min 23 sec) 
Heartbeat CPU 0 instructions: 191000001 cycles: 760488310 heartbeat IPC: 0.256634 cumulative IPC: 0.257376 (Simulation time: 0 hr 20 min 30 sec) 
Heartbeat CPU 0 instructions: 192000003 cycles: 764343098 heartbeat IPC: 0.259418 cumulative IPC: 0.257388 (Simulation time: 0 hr 20 min 37 sec) 
Heartbeat CPU 0 instructions: 193000000 cycles: 768180144 heartbeat IPC: 0.260616 cumulative IPC: 0.257405 (Simulation time: 0 hr 20 min 43 sec) 
Heartbeat CPU 0 instructions: 194000000 cycles: 772092699 heartbeat IPC: 0.255587 cumulative IPC: 0.257395 (Simulation time: 0 hr 20 min 50 sec) 
Heartbeat CPU 0 instructions: 195000000 cycles: 775854665 heartbeat IPC: 0.265818 cumulative IPC: 0.257439 (Simulation time: 0 hr 20 min 57 sec) 
Heartbeat CPU 0 instructions: 196000002 cycles: 779579405 heartbeat IPC: 0.268476 cumulative IPC: 0.257496 (Simulation time: 0 hr 21 min 4 sec) 
Heartbeat CPU 0 instructions: 197000001 cycles: 783291687 heartbeat IPC: 0.269376 cumulative IPC: 0.257557 (Simulation time: 0 hr 21 min 11 sec) 
Heartbeat CPU 0 instructions: 198000000 cycles: 787193949 heartbeat IPC: 0.256261 cumulative IPC: 0.25755 (Simulation time: 0 hr 21 min 18 sec) 
Heartbeat CPU 0 instructions: 199000001 cycles: 791126669 heartbeat IPC: 0.254277 cumulative IPC: 0.257532 (Simulation time: 0 hr 21 min 24 sec) 
Heartbeat CPU 0 instructions: 200000002 cycles: 795139603 heartbeat IPC: 0.249194 cumulative IPC: 0.257487 (Simulation time: 0 hr 21 min 31 sec) 
Heartbeat CPU 0 instructions: 201000003 cycles: 799094260 heartbeat IPC: 0.252867 cumulative IPC: 0.257462 (Simulation time: 0 hr 21 min 37 sec) 
Heartbeat CPU 0 instructions: 202000003 cycles: 802804052 heartbeat IPC: 0.269557 cumulative IPC: 0.257522 (Simulation time: 0 hr 21 min 44 sec) 
Heartbeat CPU 0 instructions: 203000000 cycles: 806489522 heartbeat IPC: 0.271335 cumulative IPC: 0.25759 (Simulation time: 0 hr 21 min 51 sec) 
Heartbeat CPU 0 instructions: 204000001 cycles: 810257257 heartbeat IPC: 0.265412 cumulative IPC: 0.25763 (Simulation time: 0 hr 21 min 57 sec) 
Heartbeat CPU 0 instructions: 205000002 cycles: 814217559 heartbeat IPC: 0.252506 cumulative IPC: 0.257603 (Simulation time: 0 hr 22 min 2 sec) 
Heartbeat CPU 0 instructions: 206000000 cycles: 818117478 heartbeat IPC: 0.256415 cumulative IPC: 0.257597 (Simulation time: 0 hr 22 min 9 sec) 
Heartbeat CPU 0 instructions: 207000001 cycles: 821845875 heartbeat IPC: 0.268212 cumulative IPC: 0.257648 (Simulation time: 0 hr 22 min 15 sec) 
Heartbeat CPU 0 instructions: 208000000 cycles: 825620224 heartbeat IPC: 0.264946 cumulative IPC: 0.257684 (Simulation time: 0 hr 22 min 21 sec) 
Heartbeat CPU 0 instructions: 209000000 cycles: 829433799 heartbeat IPC: 0.262221 cumulative IPC: 0.257707 (Simulation time: 0 hr 22 min 27 sec) 
Heartbeat CPU 0 instructions: 210000002 cycles: 833492760 heartbeat IPC: 0.246369 cumulative IPC: 0.257647 (Simulation time: 0 hr 22 min 33 sec) 
Heartbeat CPU 0 instructions: 211000000 cycles: 837116475 heartbeat IPC: 0.275959 cumulative IPC: 0.257732 (Simulation time: 0 hr 22 min 39 sec) 
Heartbeat CPU 0 instructions: 212000000 cycles: 841253186 heartbeat IPC: 0.241738 cumulative IPC: 0.257648 (Simulation time: 0 hr 22 min 45 sec) 
Heartbeat CPU 0 instructions: 213000001 cycles: 845137417 heartbeat IPC: 0.257451 cumulative IPC: 0.257647 (Simulation time: 0 hr 22 min 51 sec) 
Heartbeat CPU 0 instructions: 214000003 cycles: 848961487 heartbeat IPC: 0.261502 cumulative IPC: 0.257666 (Simulation time: 0 hr 22 min 57 sec) 
Heartbeat CPU 0 instructions: 215000003 cycles: 852825078 heartbeat IPC: 0.258827 cumulative IPC: 0.257671 (Simulation time: 0 hr 23 min 3 sec) 
Heartbeat CPU 0 instructions: 216000001 cycles: 856539147 heartbeat IPC: 0.269246 cumulative IPC: 0.257725 (Simulation time: 0 hr 23 min 10 sec) 
Heartbeat CPU 0 instructions: 217000000 cycles: 860236111 heartbeat IPC: 0.270492 cumulative IPC: 0.257784 (Simulation time: 0 hr 23 min 16 sec) 
Heartbeat CPU 0 instructions: 218000002 cycles: 864160098 heartbeat IPC: 0.254843 cumulative IPC: 0.25777 (Simulation time: 0 hr 23 min 22 sec) 
Heartbeat CPU 0 instructions: 219000003 cycles: 867835689 heartbeat IPC: 0.272065 cumulative IPC: 0.257834 (Simulation time: 0 hr 23 min 29 sec) 
Heartbeat CPU 0 instructions: 220000000 cycles: 871691576 heartbeat IPC: 0.259343 cumulative IPC: 0.257842 (Simulation time: 0 hr 23 min 35 sec) 
Heartbeat CPU 0 instructions: 221000000 cycles: 875507828 heartbeat IPC: 0.262037 cumulative IPC: 0.257861 (Simulation time: 0 hr 23 min 42 sec) 
Heartbeat CPU 0 instructions: 222000001 cycles: 879460241 heartbeat IPC: 0.25301 cumulative IPC: 0.257838 (Simulation time: 0 hr 23 min 48 sec) 
Heartbeat CPU 0 instructions: 223000000 cycles: 883745188 heartbeat IPC: 0.233375 cumulative IPC: 0.257711 (Simulation time: 0 hr 23 min 54 sec) 
Heartbeat CPU 0 instructions: 224000003 cycles: 887463337 heartbeat IPC: 0.268952 cumulative IPC: 0.257761 (Simulation time: 0 hr 24 min 1 sec) 
Heartbeat CPU 0 instructions: 225000002 cycles: 891166393 heartbeat IPC: 0.270047 cumulative IPC: 0.257816 (Simulation time: 0 hr 24 min 7 sec) 
Heartbeat CPU 0 instructions: 226000002 cycles: 895001611 heartbeat IPC: 0.260741 cumulative IPC: 0.257829 (Simulation time: 0 hr 24 min 14 sec) 
Heartbeat CPU 0 instructions: 227000001 cycles: 898786878 heartbeat IPC: 0.264182 cumulative IPC: 0.257858 (Simulation time: 0 hr 24 min 21 sec) 
Heartbeat CPU 0 instructions: 228000002 cycles: 902531141 heartbeat IPC: 0.267076 cumulative IPC: 0.257899 (Simulation time: 0 hr 24 min 28 sec) 
Heartbeat CPU 0 instructions: 229000000 cycles: 906337224 heartbeat IPC: 0.262737 cumulative IPC: 0.25792 (Simulation time: 0 hr 24 min 34 sec) 
Heartbeat CPU 0 instructions: 230000001 cycles: 910147021 heartbeat IPC: 0.262481 cumulative IPC: 0.257941 (Simulation time: 0 hr 24 min 41 sec) 
Heartbeat CPU 0 instructions: 231000000 cycles: 913794057 heartbeat IPC: 0.274195 cumulative IPC: 0.25801 (Simulation time: 0 hr 24 min 47 sec) 
Heartbeat CPU 0 instructions: 232000001 cycles: 917818306 heartbeat IPC: 0.248494 cumulative IPC: 0.257965 (Simulation time: 0 hr 24 min 53 sec) 
Heartbeat CPU 0 instructions: 233000001 cycles: 921870118 heartbeat IPC: 0.246803 cumulative IPC: 0.257913 (Simulation time: 0 hr 25 min 0 sec) 
Heartbeat CPU 0 instructions: 234000000 cycles: 925632007 heartbeat IPC: 0.265824 cumulative IPC: 0.257947 (Simulation time: 0 hr 25 min 6 sec) 
Heartbeat CPU 0 instructions: 235000003 cycles: 929505001 heartbeat IPC: 0.258199 cumulative IPC: 0.257949 (Simulation time: 0 hr 25 min 13 sec) 
Heartbeat CPU 0 instructions: 236000000 cycles: 933738540 heartbeat IPC: 0.236208 cumulative IPC: 0.257844 (Simulation time: 0 hr 25 min 19 sec) 
Heartbeat CPU 0 instructions: 237000003 cycles: 937488767 heartbeat IPC: 0.266651 cumulative IPC: 0.257881 (Simulation time: 0 hr 25 min 26 sec) 
Heartbeat CPU 0 instructions: 238000003 cycles: 941349744 heartbeat IPC: 0.259002 cumulative IPC: 0.257886 (Simulation time: 0 hr 25 min 32 sec) 
Heartbeat CPU 0 instructions: 239000003 cycles: 945139851 heartbeat IPC: 0.263845 cumulative IPC: 0.257911 (Simulation time: 0 hr 25 min 39 sec) 
Heartbeat CPU 0 instructions: 240000001 cycles: 948820325 heartbeat IPC: 0.271704 cumulative IPC: 0.257968 (Simulation time: 0 hr 25 min 44 sec) 
Heartbeat CPU 0 instructions: 241000002 cycles: 952736879 heartbeat IPC: 0.255327 cumulative IPC: 0.257957 (Simulation time: 0 hr 25 min 51 sec) 
Heartbeat CPU 0 instructions: 242000000 cycles: 956477326 heartbeat IPC: 0.267347 cumulative IPC: 0.257996 (Simulation time: 0 hr 25 min 58 sec) 
Heartbeat CPU 0 instructions: 243000001 cycles: 960193254 heartbeat IPC: 0.269112 cumulative IPC: 0.258042 (Simulation time: 0 hr 26 min 5 sec) 
Heartbeat CPU 0 instructions: 244000003 cycles: 963984536 heartbeat IPC: 0.263764 cumulative IPC: 0.258066 (Simulation time: 0 hr 26 min 12 sec) 
Heartbeat CPU 0 instructions: 245000002 cycles: 967853969 heartbeat IPC: 0.258436 cumulative IPC: 0.258067 (Simulation time: 0 hr 26 min 18 sec) 
Heartbeat CPU 0 instructions: 246000001 cycles: 971729089 heartbeat IPC: 0.258056 cumulative IPC: 0.258067 (Simulation time: 0 hr 26 min 24 sec) 
Heartbeat CPU 0 instructions: 247000002 cycles: 975423971 heartbeat IPC: 0.270645 cumulative IPC: 0.258118 (Simulation time: 0 hr 26 min 30 sec) 
Heartbeat CPU 0 instructions: 248000001 cycles: 979510843 heartbeat IPC: 0.244686 cumulative IPC: 0.258058 (Simulation time: 0 hr 26 min 37 sec) 
Heartbeat CPU 0 instructions: 249000001 cycles: 983701235 heartbeat IPC: 0.238641 cumulative IPC: 0.25797 (Simulation time: 0 hr 26 min 44 sec) 
Heartbeat CPU 0 instructions: 250000000 cycles: 987712990 heartbeat IPC: 0.249267 cumulative IPC: 0.257933 (Simulation time: 0 hr 26 min 50 sec) 
Heartbeat CPU 0 instructions: 251000002 cycles: 991460117 heartbeat IPC: 0.266872 cumulative IPC: 0.257969 (Simulation time: 0 hr 26 min 57 sec) 
Heartbeat CPU 0 instructions: 252000002 cycles: 995287021 heartbeat IPC: 0.261308 cumulative IPC: 0.257982 (Simulation time: 0 hr 27 min 4 sec) 
Heartbeat CPU 0 instructions: 253000000 cycles: 999128009 heartbeat IPC: 0.260349 cumulative IPC: 0.257992 (Simulation time: 0 hr 27 min 10 sec) 
Heartbeat CPU 0 instructions: 254000003 cycles: 1002995171 heartbeat IPC: 0.258588 cumulative IPC: 0.257994 (Simulation time: 0 hr 27 min 17 sec) 
Heartbeat CPU 0 instructions: 255000000 cycles: 1006755740 heartbeat IPC: 0.265916 cumulative IPC: 0.258026 (Simulation time: 0 hr 27 min 24 sec) 
Heartbeat CPU 0 instructions: 256000001 cycles: 1010559656 heartbeat IPC: 0.262887 cumulative IPC: 0.258045 (Simulation time: 0 hr 27 min 30 sec) 
Heartbeat CPU 0 instructions: 257000000 cycles: 1014344052 heartbeat IPC: 0.264243 cumulative IPC: 0.25807 (Simulation time: 0 hr 27 min 37 sec) 
Heartbeat CPU 0 instructions: 258000003 cycles: 1018412047 heartbeat IPC: 0.245822 cumulative IPC: 0.258018 (Simulation time: 0 hr 27 min 43 sec) 
Heartbeat CPU 0 instructions: 259000003 cycles: 1022242490 heartbeat IPC: 0.261066 cumulative IPC: 0.25803 (Simulation time: 0 hr 27 min 50 sec) 
Heartbeat CPU 0 instructions: 260000002 cycles: 1026031502 heartbeat IPC: 0.263921 cumulative IPC: 0.258053 (Simulation time: 0 hr 27 min 56 sec) 
Finished CPU 0 instructions: 250000001 cycles: 968793439 cumulative IPC: 0.258053 (Simulation time: 0 hr 27 min 56 sec) 

ChampSim completed all CPUs

Region of Interest Statistics

CPU 0 cumulative IPC: 0.258053 instructions: 250000001 cycles: 968793439
L1D TOTAL     ACCESS:   97338176  HIT:   58398769  MISS:   38939407
L1D LOAD      ACCESS:   81893471  HIT:   43498746  MISS:   38394725
L1D RFO       ACCESS:   15444705  HIT:   14900023  MISS:     544682
L1D PREFETCH  ACCESS:          0  HIT:          0  MISS:          0
L1D WRITEBACK ACCESS:          0  HIT:          0  MISS:          0
L1D PREFETCH  REQUESTED:          0  ISSUED:          0  USEFUL:          0  USELESS:          0
L1D AVERAGE MISS LATENCY: 101.948 cycles
L1I TOTAL     ACCESS:   67328214  HIT:   67328214  MISS:          0
L1I LOAD      ACCESS:   67328214  HIT:   67328214  MISS:          0
L1I RFO       ACCESS:          0  HIT:          0  MISS:          0
L1I PREFETCH  ACCESS:          0  HIT:          0  MISS:          0
L1I WRITEBACK ACCESS:          0  HIT:          0  MISS:          0
L1I PREFETCH  REQUESTED:          0  ISSUED:          0  USEFUL:          0  USELESS:          0
L1I AVERAGE MISS LATENCY: -nan cycles
L2C TOTAL     ACCESS:   39644280  HIT:     706778  MISS:   38937502
L2C LOAD      ACCESS:   38394724  HIT:       2344  MISS:   38392380
L2C RFO       ACCESS:     544681  HIT:        878  MISS:     543803
L2C PREFETCH  ACCESS:          0  HIT:          0  MISS:          0
L2C WRITEBACK ACCESS:     704875  HIT:     703556  MISS:       1319
L2C PREFETCH  REQUESTED:          0  ISSUED:          0  USEFUL:          0  USELESS:          0
L2C AVERAGE MISS LATENCY: 87.7796 cycles
LLC TOTAL     ACCESS:   53704992  HIT:   18107941  MISS:   35597051
LLC LOAD      ACCESS:   38392380  HIT:   13641066  MISS:   24751314
LLC RFO       ACCESS:     543803  HIT:        175  MISS:     543628
LLC PREFETCH  ACCESS:   14065502  HIT:    3764705  MISS:   10300797
LLC WRITEBACK ACCESS:     703307  HIT:     701995  MISS:       1312
LLC PREFETCH  REQUESTED:   38392382  ISSUED:   38068430  USEFUL:   10300706  USELESS:         91
LLC AVERAGE MISS LATENCY: 106.128 cycles
Major fault: 0 Minor fault: 17425
performance stats:
mapping cache size: 380027
divergence: 8130478

DRAM Statistics
 CHANNEL 0
 RQ ROW_BUFFER_HIT:   16567573  ROW_BUFFER_MISS:    1292817
 DBUS_CONGESTED:   15832445
 WQ ROW_BUFFER_HIT:     332271  ROW_BUFFER_MISS:      18506  FULL:          0

 CHANNEL 1
 RQ ROW_BUFFER_HIT:   16444269  ROW_BUFFER_MISS:    1290702
 DBUS_CONGESTED:   15832445
 WQ ROW_BUFFER_HIT:     332640  ROW_BUFFER_MISS:      19625  FULL:          0

 AVG_CONGESTED_CYCLE: 15

CPU 0 Branch Prediction Accuracy: 98.7774% MPKI: 2.24078 Average ROB Occupancy at Mispredict: 77.0378

Branch types
NOT_BRANCH: 204179602 81.6718%
BRANCH_DIRECT_JUMP: 10500259 4.2001%
BRANCH_INDIRECT: 0 0%
BRANCH_CONDITIONAL: 35316180 14.1265%
BRANCH_DIRECT_CALL: 1980 0.000792%
BRANCH_INDIRECT_CALL: 0 0%
BRANCH_RETURN: 1980 0.000792%
BRANCH_OTHER: 0 0%

