
*** ChampSim Multicore Out-of-Order Simulator ***

Warmup Instructions: 1000000
Prefetch Warmup Instructions: 10000000
Simulation Instructions: 250000000
Stat Printing Period: 1000000
Number of CPUs: 1
LLC sets: 2048
LLC ways: 16
Off-chip DRAM Size: 32768 MB Channels: 2 Width: 64-bit Data Rate: 1024 MT/s

CPU 0 runs /scratch/cluster/cmolder/ML-DPC/ChampSimTraces/spec17/605.mcf-s5.trace.xz
Read seed: 226
Heartbeat CPU 0 instructions: 1000001 cycles: 417980 heartbeat IPC: 2.39246 cumulative IPC: 2.39246 (Simulation time: 0 hr 0 min 3 sec) 

Warmup complete CPU 0 instructions: 1000001 cycles: 417980 (Simulation time: 0 hr 0 min 3 sec) 

Heartbeat CPU 0 instructions: 2000003 cycles: 2162418 heartbeat IPC: 0.573252 cumulative IPC: 0.573252 (Simulation time: 0 hr 0 min 7 sec) 
Heartbeat CPU 0 instructions: 3000001 cycles: 4309026 heartbeat IPC: 0.46585 cumulative IPC: 0.514001 (Simulation time: 0 hr 0 min 11 sec) 
Heartbeat CPU 0 instructions: 4000001 cycles: 6346623 heartbeat IPC: 0.490774 cumulative IPC: 0.506018 (Simulation time: 0 hr 0 min 15 sec) 
Heartbeat CPU 0 instructions: 5000001 cycles: 8696182 heartbeat IPC: 0.425612 cumulative IPC: 0.483197 (Simulation time: 0 hr 0 min 20 sec) 
Heartbeat CPU 0 instructions: 6000000 cycles: 11303360 heartbeat IPC: 0.383556 cumulative IPC: 0.459332 (Simulation time: 0 hr 0 min 24 sec) 
Heartbeat CPU 0 instructions: 7000002 cycles: 15072914 heartbeat IPC: 0.265284 cumulative IPC: 0.409418 (Simulation time: 0 hr 0 min 29 sec) 
Heartbeat CPU 0 instructions: 8000000 cycles: 17672310 heartbeat IPC: 0.384704 cumulative IPC: 0.405695 (Simulation time: 0 hr 0 min 34 sec) 
Heartbeat CPU 0 instructions: 9000000 cycles: 19488686 heartbeat IPC: 0.550547 cumulative IPC: 0.419491 (Simulation time: 0 hr 0 min 38 sec) 
Heartbeat CPU 0 instructions: 10000000 cycles: 21568700 heartbeat IPC: 0.480766 cumulative IPC: 0.425517 (Simulation time: 0 hr 0 min 42 sec) 

Warmup complete CPU 0 instructions: 10000002 cycles: 21568701 (Simulation time: 0 hr 0 min 42 sec) 

Heartbeat CPU 0 instructions: 11000000 cycles: 23625994 heartbeat IPC: 0.486075 cumulative IPC: 0.486075 (Simulation time: 0 hr 0 min 46 sec) 
Heartbeat CPU 0 instructions: 12000000 cycles: 25413550 heartbeat IPC: 0.559423 cumulative IPC: 0.520176 (Simulation time: 0 hr 0 min 50 sec) 
Heartbeat CPU 0 instructions: 13000000 cycles: 27114056 heartbeat IPC: 0.58806 cumulative IPC: 0.540993 (Simulation time: 0 hr 0 min 54 sec) 
Heartbeat CPU 0 instructions: 14000001 cycles: 28921780 heartbeat IPC: 0.553182 cumulative IPC: 0.54399 (Simulation time: 0 hr 0 min 58 sec) 
Heartbeat CPU 0 instructions: 15000001 cycles: 34339013 heartbeat IPC: 0.184596 cumulative IPC: 0.391533 (Simulation time: 0 hr 1 min 4 sec) 
Heartbeat CPU 0 instructions: 16000000 cycles: 38022624 heartbeat IPC: 0.271472 cumulative IPC: 0.364655 (Simulation time: 0 hr 1 min 10 sec) 
Heartbeat CPU 0 instructions: 17000003 cycles: 40317447 heartbeat IPC: 0.435765 cumulative IPC: 0.373358 (Simulation time: 0 hr 1 min 14 sec) 
Heartbeat CPU 0 instructions: 18000001 cycles: 42525010 heartbeat IPC: 0.452987 cumulative IPC: 0.381747 (Simulation time: 0 hr 1 min 18 sec) 
Heartbeat CPU 0 instructions: 19000001 cycles: 44504033 heartbeat IPC: 0.5053 cumulative IPC: 0.392408 (Simulation time: 0 hr 1 min 22 sec) 
Heartbeat CPU 0 instructions: 20000000 cycles: 46864920 heartbeat IPC: 0.423569 cumulative IPC: 0.395316 (Simulation time: 0 hr 1 min 27 sec) 
Heartbeat CPU 0 instructions: 21000000 cycles: 48713292 heartbeat IPC: 0.541017 cumulative IPC: 0.405237 (Simulation time: 0 hr 1 min 31 sec) 
Heartbeat CPU 0 instructions: 22000000 cycles: 50377161 heartbeat IPC: 0.601009 cumulative IPC: 0.416544 (Simulation time: 0 hr 1 min 35 sec) 
Heartbeat CPU 0 instructions: 23000000 cycles: 55147922 heartbeat IPC: 0.20961 cumulative IPC: 0.387144 (Simulation time: 0 hr 1 min 41 sec) 
Heartbeat CPU 0 instructions: 24000002 cycles: 59090677 heartbeat IPC: 0.25363 cumulative IPC: 0.373115 (Simulation time: 0 hr 1 min 47 sec) 
Heartbeat CPU 0 instructions: 25000000 cycles: 60572750 heartbeat IPC: 0.674729 cumulative IPC: 0.384575 (Simulation time: 0 hr 1 min 50 sec) 
Heartbeat CPU 0 instructions: 26000000 cycles: 62027401 heartbeat IPC: 0.68745 cumulative IPC: 0.395465 (Simulation time: 0 hr 1 min 54 sec) 
Heartbeat CPU 0 instructions: 27000000 cycles: 63649250 heartbeat IPC: 0.61658 cumulative IPC: 0.403987 (Simulation time: 0 hr 1 min 58 sec) 
Heartbeat CPU 0 instructions: 28000001 cycles: 65434155 heartbeat IPC: 0.560254 cumulative IPC: 0.410346 (Simulation time: 0 hr 2 min 1 sec) 
Heartbeat CPU 0 instructions: 29000002 cycles: 67319203 heartbeat IPC: 0.530491 cumulative IPC: 0.415296 (Simulation time: 0 hr 2 min 5 sec) 
Heartbeat CPU 0 instructions: 30000000 cycles: 71077457 heartbeat IPC: 0.26608 cumulative IPC: 0.403969 (Simulation time: 0 hr 2 min 11 sec) 
Heartbeat CPU 0 instructions: 31000000 cycles: 72717256 heartbeat IPC: 0.609831 cumulative IPC: 0.410569 (Simulation time: 0 hr 2 min 14 sec) 
Heartbeat CPU 0 instructions: 32000001 cycles: 74572648 heartbeat IPC: 0.53897 cumulative IPC: 0.415063 (Simulation time: 0 hr 2 min 19 sec) 
Heartbeat CPU 0 instructions: 33000000 cycles: 76471582 heartbeat IPC: 0.526611 cumulative IPC: 0.418922 (Simulation time: 0 hr 2 min 23 sec) 
Heartbeat CPU 0 instructions: 34000000 cycles: 78276368 heartbeat IPC: 0.554082 cumulative IPC: 0.423223 (Simulation time: 0 hr 2 min 27 sec) 
Heartbeat CPU 0 instructions: 35000000 cycles: 80291383 heartbeat IPC: 0.496274 cumulative IPC: 0.42573 (Simulation time: 0 hr 2 min 31 sec) 
Heartbeat CPU 0 instructions: 36000000 cycles: 82414696 heartbeat IPC: 0.470962 cumulative IPC: 0.427308 (Simulation time: 0 hr 2 min 35 sec) 
Heartbeat CPU 0 instructions: 37000000 cycles: 86783993 heartbeat IPC: 0.22887 cumulative IPC: 0.414013 (Simulation time: 0 hr 2 min 41 sec) 
Heartbeat CPU 0 instructions: 38000001 cycles: 89049540 heartbeat IPC: 0.441395 cumulative IPC: 0.414933 (Simulation time: 0 hr 2 min 45 sec) 
Heartbeat CPU 0 instructions: 39000000 cycles: 90584300 heartbeat IPC: 0.651567 cumulative IPC: 0.420195 (Simulation time: 0 hr 2 min 49 sec) 
Heartbeat CPU 0 instructions: 40000000 cycles: 92708720 heartbeat IPC: 0.470717 cumulative IPC: 0.421704 (Simulation time: 0 hr 2 min 53 sec) 
Heartbeat CPU 0 instructions: 41000003 cycles: 94450912 heartbeat IPC: 0.573991 cumulative IPC: 0.425344 (Simulation time: 0 hr 2 min 57 sec) 
Heartbeat CPU 0 instructions: 42000001 cycles: 96317895 heartbeat IPC: 0.535622 cumulative IPC: 0.428098 (Simulation time: 0 hr 3 min 1 sec) 
Heartbeat CPU 0 instructions: 43000000 cycles: 98088626 heartbeat IPC: 0.564738 cumulative IPC: 0.43126 (Simulation time: 0 hr 3 min 5 sec) 
Heartbeat CPU 0 instructions: 44000000 cycles: 100799075 heartbeat IPC: 0.368943 cumulative IPC: 0.429128 (Simulation time: 0 hr 3 min 9 sec) 
Heartbeat CPU 0 instructions: 45000002 cycles: 106583886 heartbeat IPC: 0.172867 cumulative IPC: 0.411691 (Simulation time: 0 hr 3 min 16 sec) 
Heartbeat CPU 0 instructions: 46000001 cycles: 109236583 heartbeat IPC: 0.376974 cumulative IPC: 0.410641 (Simulation time: 0 hr 3 min 21 sec) 
Heartbeat CPU 0 instructions: 47000003 cycles: 111296140 heartbeat IPC: 0.485542 cumulative IPC: 0.41236 (Simulation time: 0 hr 3 min 25 sec) 
Heartbeat CPU 0 instructions: 48000000 cycles: 113525800 heartbeat IPC: 0.448498 cumulative IPC: 0.413236 (Simulation time: 0 hr 3 min 29 sec) 
Heartbeat CPU 0 instructions: 49000000 cycles: 115495909 heartbeat IPC: 0.507586 cumulative IPC: 0.415215 (Simulation time: 0 hr 3 min 33 sec) 
Heartbeat CPU 0 instructions: 50000000 cycles: 117225030 heartbeat IPC: 0.578329 cumulative IPC: 0.418164 (Simulation time: 0 hr 3 min 37 sec) 
Heartbeat CPU 0 instructions: 51000003 cycles: 119271024 heartbeat IPC: 0.488761 cumulative IPC: 0.419642 (Simulation time: 0 hr 3 min 41 sec) 
Heartbeat CPU 0 instructions: 52000001 cycles: 121510148 heartbeat IPC: 0.446602 cumulative IPC: 0.420246 (Simulation time: 0 hr 3 min 45 sec) 
Heartbeat CPU 0 instructions: 53000001 cycles: 124899925 heartbeat IPC: 0.295005 cumulative IPC: 0.416138 (Simulation time: 0 hr 3 min 51 sec) 
Heartbeat CPU 0 instructions: 54000002 cycles: 126474275 heartbeat IPC: 0.635183 cumulative IPC: 0.419425 (Simulation time: 0 hr 3 min 54 sec) 
Heartbeat CPU 0 instructions: 55000000 cycles: 128084318 heartbeat IPC: 0.6211 cumulative IPC: 0.422473 (Simulation time: 0 hr 3 min 58 sec) 
Heartbeat CPU 0 instructions: 56000003 cycles: 129881157 heartbeat IPC: 0.556535 cumulative IPC: 0.424697 (Simulation time: 0 hr 4 min 2 sec) 
Heartbeat CPU 0 instructions: 57000000 cycles: 131573639 heartbeat IPC: 0.590846 cumulative IPC: 0.427254 (Simulation time: 0 hr 4 min 6 sec) 
Heartbeat CPU 0 instructions: 58000001 cycles: 133139970 heartbeat IPC: 0.638435 cumulative IPC: 0.430218 (Simulation time: 0 hr 4 min 10 sec) 
Heartbeat CPU 0 instructions: 59000001 cycles: 135573488 heartbeat IPC: 0.410928 cumulative IPC: 0.429807 (Simulation time: 0 hr 4 min 15 sec) 
Heartbeat CPU 0 instructions: 60000003 cycles: 140678813 heartbeat IPC: 0.195874 cumulative IPC: 0.41978 (Simulation time: 0 hr 4 min 21 sec) 
Heartbeat CPU 0 instructions: 61000000 cycles: 146722600 heartbeat IPC: 0.165459 cumulative IPC: 0.407498 (Simulation time: 0 hr 4 min 28 sec) 
Heartbeat CPU 0 instructions: 62000000 cycles: 150942614 heartbeat IPC: 0.236966 cumulative IPC: 0.401936 (Simulation time: 0 hr 4 min 34 sec) 
Heartbeat CPU 0 instructions: 63000001 cycles: 152621282 heartbeat IPC: 0.595711 cumulative IPC: 0.404418 (Simulation time: 0 hr 4 min 38 sec) 
Heartbeat CPU 0 instructions: 64000001 cycles: 154212412 heartbeat IPC: 0.628484 cumulative IPC: 0.407106 (Simulation time: 0 hr 4 min 42 sec) 
Heartbeat CPU 0 instructions: 65000000 cycles: 156256280 heartbeat IPC: 0.489268 cumulative IPC: 0.408352 (Simulation time: 0 hr 4 min 46 sec) 
Heartbeat CPU 0 instructions: 66000000 cycles: 158368354 heartbeat IPC: 0.473468 cumulative IPC: 0.409358 (Simulation time: 0 hr 4 min 50 sec) 
Heartbeat CPU 0 instructions: 67000001 cycles: 160657770 heartbeat IPC: 0.436793 cumulative IPC: 0.409809 (Simulation time: 0 hr 4 min 54 sec) 
Heartbeat CPU 0 instructions: 68000000 cycles: 162388091 heartbeat IPC: 0.577927 cumulative IPC: 0.411875 (Simulation time: 0 hr 4 min 58 sec) 
Heartbeat CPU 0 instructions: 69000002 cycles: 166799308 heartbeat IPC: 0.226695 cumulative IPC: 0.40625 (Simulation time: 0 hr 5 min 4 sec) 
Heartbeat CPU 0 instructions: 70000002 cycles: 171311928 heartbeat IPC: 0.221601 cumulative IPC: 0.400686 (Simulation time: 0 hr 5 min 10 sec) 
Heartbeat CPU 0 instructions: 71000003 cycles: 173608734 heartbeat IPC: 0.435388 cumulative IPC: 0.40121 (Simulation time: 0 hr 5 min 15 sec) 
Heartbeat CPU 0 instructions: 72000003 cycles: 175680954 heartbeat IPC: 0.482574 cumulative IPC: 0.402304 (Simulation time: 0 hr 5 min 19 sec) 
Heartbeat CPU 0 instructions: 73000000 cycles: 178204250 heartbeat IPC: 0.396306 cumulative IPC: 0.402208 (Simulation time: 0 hr 5 min 23 sec) 
Heartbeat CPU 0 instructions: 74000001 cycles: 180504803 heartbeat IPC: 0.434679 cumulative IPC: 0.402678 (Simulation time: 0 hr 5 min 28 sec) 
Heartbeat CPU 0 instructions: 75000000 cycles: 183170089 heartbeat IPC: 0.375194 cumulative IPC: 0.402224 (Simulation time: 0 hr 5 min 32 sec) 
Heartbeat CPU 0 instructions: 76000003 cycles: 185718863 heartbeat IPC: 0.392347 cumulative IPC: 0.402071 (Simulation time: 0 hr 5 min 37 sec) 
Heartbeat CPU 0 instructions: 77000000 cycles: 190232494 heartbeat IPC: 0.22155 cumulative IPC: 0.39724 (Simulation time: 0 hr 5 min 43 sec) 
Heartbeat CPU 0 instructions: 78000000 cycles: 195507048 heartbeat IPC: 0.189589 cumulative IPC: 0.390943 (Simulation time: 0 hr 5 min 49 sec) 
Heartbeat CPU 0 instructions: 79000002 cycles: 197163322 heartbeat IPC: 0.603766 cumulative IPC: 0.392951 (Simulation time: 0 hr 5 min 53 sec) 
Heartbeat CPU 0 instructions: 80000000 cycles: 198678729 heartbeat IPC: 0.659887 cumulative IPC: 0.395235 (Simulation time: 0 hr 5 min 57 sec) 
Heartbeat CPU 0 instructions: 81000002 cycles: 200316973 heartbeat IPC: 0.610411 cumulative IPC: 0.397207 (Simulation time: 0 hr 6 min 1 sec) 
Heartbeat CPU 0 instructions: 82000001 cycles: 202001011 heartbeat IPC: 0.59381 cumulative IPC: 0.399042 (Simulation time: 0 hr 6 min 5 sec) 
Heartbeat CPU 0 instructions: 83000002 cycles: 203784196 heartbeat IPC: 0.560795 cumulative IPC: 0.400625 (Simulation time: 0 hr 6 min 8 sec) 
Heartbeat CPU 0 instructions: 84000000 cycles: 208178910 heartbeat IPC: 0.227546 cumulative IPC: 0.396549 (Simulation time: 0 hr 6 min 14 sec) 
Heartbeat CPU 0 instructions: 85000001 cycles: 213862773 heartbeat IPC: 0.175937 cumulative IPC: 0.390028 (Simulation time: 0 hr 6 min 21 sec) 
Heartbeat CPU 0 instructions: 86000001 cycles: 217605648 heartbeat IPC: 0.267174 cumulative IPC: 0.387682 (Simulation time: 0 hr 6 min 27 sec) 
Heartbeat CPU 0 instructions: 87000001 cycles: 219921450 heartbeat IPC: 0.431816 cumulative IPC: 0.388197 (Simulation time: 0 hr 6 min 31 sec) 
Heartbeat CPU 0 instructions: 88000000 cycles: 221524786 heartbeat IPC: 0.623699 cumulative IPC: 0.390086 (Simulation time: 0 hr 6 min 35 sec) 
Heartbeat CPU 0 instructions: 89000001 cycles: 223893148 heartbeat IPC: 0.422233 cumulative IPC: 0.390462 (Simulation time: 0 hr 6 min 39 sec) 
Heartbeat CPU 0 instructions: 90000001 cycles: 225689560 heartbeat IPC: 0.556665 cumulative IPC: 0.391925 (Simulation time: 0 hr 6 min 43 sec) 
Heartbeat CPU 0 instructions: 91000002 cycles: 227538520 heartbeat IPC: 0.540845 cumulative IPC: 0.393261 (Simulation time: 0 hr 6 min 47 sec) 
Heartbeat CPU 0 instructions: 92000000 cycles: 229736059 heartbeat IPC: 0.455054 cumulative IPC: 0.393914 (Simulation time: 0 hr 6 min 52 sec) 
Heartbeat CPU 0 instructions: 93000001 cycles: 234314849 heartbeat IPC: 0.218399 cumulative IPC: 0.390136 (Simulation time: 0 hr 6 min 58 sec) 
Heartbeat CPU 0 instructions: 94000003 cycles: 238719311 heartbeat IPC: 0.227043 cumulative IPC: 0.386828 (Simulation time: 0 hr 7 min 5 sec) 
Heartbeat CPU 0 instructions: 95000000 cycles: 240689324 heartbeat IPC: 0.507609 cumulative IPC: 0.387914 (Simulation time: 0 hr 7 min 9 sec) 
Heartbeat CPU 0 instructions: 96000002 cycles: 242313911 heartbeat IPC: 0.615542 cumulative IPC: 0.389589 (Simulation time: 0 hr 7 min 13 sec) 
Heartbeat CPU 0 instructions: 97000003 cycles: 244000478 heartbeat IPC: 0.592921 cumulative IPC: 0.391131 (Simulation time: 0 hr 7 min 17 sec) 
Heartbeat CPU 0 instructions: 98000000 cycles: 245557956 heartbeat IPC: 0.642062 cumulative IPC: 0.392876 (Simulation time: 0 hr 7 min 20 sec) 
Heartbeat CPU 0 instructions: 99000000 cycles: 247091954 heartbeat IPC: 0.651891 cumulative IPC: 0.394638 (Simulation time: 0 hr 7 min 24 sec) 
Heartbeat CPU 0 instructions: 100000000 cycles: 248601107 heartbeat IPC: 0.662623 cumulative IPC: 0.396419 (Simulation time: 0 hr 7 min 28 sec) 
Heartbeat CPU 0 instructions: 101000002 cycles: 252486665 heartbeat IPC: 0.257364 cumulative IPC: 0.394079 (Simulation time: 0 hr 7 min 34 sec) 
Heartbeat CPU 0 instructions: 102000001 cycles: 257099272 heartbeat IPC: 0.216797 cumulative IPC: 0.390607 (Simulation time: 0 hr 7 min 41 sec) 
Heartbeat CPU 0 instructions: 103000001 cycles: 258712287 heartbeat IPC: 0.619957 cumulative IPC: 0.392167 (Simulation time: 0 hr 7 min 45 sec) 
Heartbeat CPU 0 instructions: 104000002 cycles: 260492655 heartbeat IPC: 0.561682 cumulative IPC: 0.393431 (Simulation time: 0 hr 7 min 49 sec) 
Heartbeat CPU 0 instructions: 105000001 cycles: 262257628 heartbeat IPC: 0.56658 cumulative IPC: 0.3947 (Simulation time: 0 hr 7 min 53 sec) 
Heartbeat CPU 0 instructions: 106000001 cycles: 263974777 heartbeat IPC: 0.582361 cumulative IPC: 0.39603 (Simulation time: 0 hr 7 min 57 sec) 
Heartbeat CPU 0 instructions: 107000002 cycles: 265577480 heartbeat IPC: 0.623947 cumulative IPC: 0.397527 (Simulation time: 0 hr 8 min 1 sec) 
Heartbeat CPU 0 instructions: 108000001 cycles: 267196313 heartbeat IPC: 0.617728 cumulative IPC: 0.398978 (Simulation time: 0 hr 8 min 6 sec) 
Heartbeat CPU 0 instructions: 109000001 cycles: 270873462 heartbeat IPC: 0.27195 cumulative IPC: 0.397104 (Simulation time: 0 hr 8 min 11 sec) 
Heartbeat CPU 0 instructions: 110000000 cycles: 272693022 heartbeat IPC: 0.549583 cumulative IPC: 0.398209 (Simulation time: 0 hr 8 min 15 sec) 
Heartbeat CPU 0 instructions: 111000001 cycles: 274109110 heartbeat IPC: 0.706172 cumulative IPC: 0.399936 (Simulation time: 0 hr 8 min 19 sec) 
Heartbeat CPU 0 instructions: 112000000 cycles: 275772653 heartbeat IPC: 0.601126 cumulative IPC: 0.401253 (Simulation time: 0 hr 8 min 23 sec) 
Heartbeat CPU 0 instructions: 113000000 cycles: 277815768 heartbeat IPC: 0.489449 cumulative IPC: 0.401956 (Simulation time: 0 hr 8 min 28 sec) 
Heartbeat CPU 0 instructions: 114000003 cycles: 279486202 heartbeat IPC: 0.598649 cumulative IPC: 0.40323 (Simulation time: 0 hr 8 min 32 sec) 
Heartbeat CPU 0 instructions: 115000002 cycles: 281196875 heartbeat IPC: 0.584565 cumulative IPC: 0.404425 (Simulation time: 0 hr 8 min 36 sec) 
Heartbeat CPU 0 instructions: 116000000 cycles: 283708446 heartbeat IPC: 0.398156 cumulative IPC: 0.404364 (Simulation time: 0 hr 8 min 41 sec) 
Heartbeat CPU 0 instructions: 117000000 cycles: 286524202 heartbeat IPC: 0.355144 cumulative IPC: 0.403841 (Simulation time: 0 hr 8 min 46 sec) 
Heartbeat CPU 0 instructions: 118000000 cycles: 288020629 heartbeat IPC: 0.668258 cumulative IPC: 0.405326 (Simulation time: 0 hr 8 min 50 sec) 
Heartbeat CPU 0 instructions: 119000002 cycles: 289646805 heartbeat IPC: 0.614941 cumulative IPC: 0.406598 (Simulation time: 0 hr 8 min 54 sec) 
Heartbeat CPU 0 instructions: 120000001 cycles: 291593813 heartbeat IPC: 0.513608 cumulative IPC: 0.40737 (Simulation time: 0 hr 8 min 59 sec) 
Heartbeat CPU 0 instructions: 121000000 cycles: 293429776 heartbeat IPC: 0.544673 cumulative IPC: 0.408297 (Simulation time: 0 hr 9 min 3 sec) 
Heartbeat CPU 0 instructions: 122000000 cycles: 295349419 heartbeat IPC: 0.52093 cumulative IPC: 0.409086 (Simulation time: 0 hr 9 min 7 sec) 
Heartbeat CPU 0 instructions: 123000002 cycles: 297422059 heartbeat IPC: 0.482477 cumulative IPC: 0.409638 (Simulation time: 0 hr 9 min 11 sec) 
Heartbeat CPU 0 instructions: 124000003 cycles: 301064603 heartbeat IPC: 0.274534 cumulative IPC: 0.407877 (Simulation time: 0 hr 9 min 17 sec) 
Heartbeat CPU 0 instructions: 125000002 cycles: 302957250 heartbeat IPC: 0.52836 cumulative IPC: 0.408688 (Simulation time: 0 hr 9 min 21 sec) 
Heartbeat CPU 0 instructions: 126000001 cycles: 304585352 heartbeat IPC: 0.614211 cumulative IPC: 0.40987 (Simulation time: 0 hr 9 min 25 sec) 
Heartbeat CPU 0 instructions: 127000003 cycles: 306115802 heartbeat IPC: 0.653404 cumulative IPC: 0.41118 (Simulation time: 0 hr 9 min 29 sec) 
Heartbeat CPU 0 instructions: 128000001 cycles: 307806548 heartbeat IPC: 0.591454 cumulative IPC: 0.412245 (Simulation time: 0 hr 9 min 32 sec) 
Heartbeat CPU 0 instructions: 129000001 cycles: 309474494 heartbeat IPC: 0.59954 cumulative IPC: 0.41333 (Simulation time: 0 hr 9 min 36 sec) 
Heartbeat CPU 0 instructions: 130000001 cycles: 311511976 heartbeat IPC: 0.490802 cumulative IPC: 0.413874 (Simulation time: 0 hr 9 min 40 sec) 
Heartbeat CPU 0 instructions: 131000003 cycles: 315145499 heartbeat IPC: 0.275216 cumulative IPC: 0.412158 (Simulation time: 0 hr 9 min 46 sec) 
Heartbeat CPU 0 instructions: 132000000 cycles: 320531853 heartbeat IPC: 0.185654 cumulative IPC: 0.408077 (Simulation time: 0 hr 9 min 53 sec) 
Heartbeat CPU 0 instructions: 133000002 cycles: 322261344 heartbeat IPC: 0.578206 cumulative IPC: 0.409056 (Simulation time: 0 hr 9 min 57 sec) 
Heartbeat CPU 0 instructions: 134000000 cycles: 323841524 heartbeat IPC: 0.632838 cumulative IPC: 0.410225 (Simulation time: 0 hr 10 min 0 sec) 
Heartbeat CPU 0 instructions: 135000002 cycles: 325255484 heartbeat IPC: 0.707235 cumulative IPC: 0.411608 (Simulation time: 0 hr 10 min 4 sec) 
Heartbeat CPU 0 instructions: 136000002 cycles: 326758085 heartbeat IPC: 0.665513 cumulative IPC: 0.412858 (Simulation time: 0 hr 10 min 8 sec) 
Heartbeat CPU 0 instructions: 137000002 cycles: 328536333 heartbeat IPC: 0.562351 cumulative IPC: 0.413724 (Simulation time: 0 hr 10 min 12 sec) 
Heartbeat CPU 0 instructions: 138000001 cycles: 330368167 heartbeat IPC: 0.5459 cumulative IPC: 0.414508 (Simulation time: 0 hr 10 min 16 sec) 
Heartbeat CPU 0 instructions: 139000001 cycles: 332997826 heartbeat IPC: 0.380277 cumulative IPC: 0.414219 (Simulation time: 0 hr 10 min 20 sec) 
Heartbeat CPU 0 instructions: 140000000 cycles: 335726297 heartbeat IPC: 0.366505 cumulative IPC: 0.413805 (Simulation time: 0 hr 10 min 25 sec) 
Heartbeat CPU 0 instructions: 141000000 cycles: 337206754 heartbeat IPC: 0.675467 cumulative IPC: 0.415032 (Simulation time: 0 hr 10 min 29 sec) 
Heartbeat CPU 0 instructions: 142000000 cycles: 338739571 heartbeat IPC: 0.652394 cumulative IPC: 0.416179 (Simulation time: 0 hr 10 min 33 sec) 
Heartbeat CPU 0 instructions: 143000000 cycles: 340541762 heartbeat IPC: 0.55488 cumulative IPC: 0.416963 (Simulation time: 0 hr 10 min 37 sec) 
Heartbeat CPU 0 instructions: 144000001 cycles: 342189515 heartbeat IPC: 0.606888 cumulative IPC: 0.417939 (Simulation time: 0 hr 10 min 41 sec) 
Heartbeat CPU 0 instructions: 145000003 cycles: 344231153 heartbeat IPC: 0.489804 cumulative IPC: 0.418394 (Simulation time: 0 hr 10 min 45 sec) 
Heartbeat CPU 0 instructions: 146000002 cycles: 346146601 heartbeat IPC: 0.522071 cumulative IPC: 0.419006 (Simulation time: 0 hr 10 min 49 sec) 
Heartbeat CPU 0 instructions: 147000000 cycles: 349713979 heartbeat IPC: 0.280317 cumulative IPC: 0.417498 (Simulation time: 0 hr 10 min 54 sec) 
Heartbeat CPU 0 instructions: 148000003 cycles: 351260128 heartbeat IPC: 0.64677 cumulative IPC: 0.418573 (Simulation time: 0 hr 10 min 58 sec) 
Heartbeat CPU 0 instructions: 149000003 cycles: 352724106 heartbeat IPC: 0.68307 cumulative IPC: 0.419743 (Simulation time: 0 hr 11 min 2 sec) 
Heartbeat CPU 0 instructions: 150000002 cycles: 354416047 heartbeat IPC: 0.591037 cumulative IPC: 0.420613 (Simulation time: 0 hr 11 min 5 sec) 
Heartbeat CPU 0 instructions: 151000002 cycles: 356161472 heartbeat IPC: 0.572926 cumulative IPC: 0.421408 (Simulation time: 0 hr 11 min 9 sec) 
Heartbeat CPU 0 instructions: 152000000 cycles: 357957232 heartbeat IPC: 0.556866 cumulative IPC: 0.422131 (Simulation time: 0 hr 11 min 14 sec) 
Heartbeat CPU 0 instructions: 153000002 cycles: 359883631 heartbeat IPC: 0.519104 cumulative IPC: 0.422683 (Simulation time: 0 hr 11 min 18 sec) 
Heartbeat CPU 0 instructions: 154000000 cycles: 363980106 heartbeat IPC: 0.244112 cumulative IPC: 0.420547 (Simulation time: 0 hr 11 min 23 sec) 
Heartbeat CPU 0 instructions: 155000001 cycles: 365944657 heartbeat IPC: 0.509023 cumulative IPC: 0.421051 (Simulation time: 0 hr 11 min 27 sec) 
Heartbeat CPU 0 instructions: 156000001 cycles: 367517637 heartbeat IPC: 0.635736 cumulative IPC: 0.422028 (Simulation time: 0 hr 11 min 31 sec) 
Heartbeat CPU 0 instructions: 157000001 cycles: 369725834 heartbeat IPC: 0.452858 cumulative IPC: 0.422223 (Simulation time: 0 hr 11 min 35 sec) 
Heartbeat CPU 0 instructions: 158000001 cycles: 371584508 heartbeat IPC: 0.538018 cumulative IPC: 0.422838 (Simulation time: 0 hr 11 min 39 sec) 
Heartbeat CPU 0 instructions: 159000003 cycles: 373584630 heartbeat IPC: 0.49997 cumulative IPC: 0.423276 (Simulation time: 0 hr 11 min 44 sec) 
Heartbeat CPU 0 instructions: 160000001 cycles: 375654741 heartbeat IPC: 0.483065 cumulative IPC: 0.423626 (Simulation time: 0 hr 11 min 48 sec) 
Heartbeat CPU 0 instructions: 161000003 cycles: 378919611 heartbeat IPC: 0.306292 cumulative IPC: 0.422554 (Simulation time: 0 hr 11 min 53 sec) 
Heartbeat CPU 0 instructions: 162000000 cycles: 384770210 heartbeat IPC: 0.170922 cumulative IPC: 0.4185 (Simulation time: 0 hr 12 min 0 sec) 
Heartbeat CPU 0 instructions: 163000001 cycles: 387032257 heartbeat IPC: 0.442078 cumulative IPC: 0.418646 (Simulation time: 0 hr 12 min 4 sec) 
Heartbeat CPU 0 instructions: 164000002 cycles: 388526867 heartbeat IPC: 0.669072 cumulative IPC: 0.419666 (Simulation time: 0 hr 12 min 8 sec) 
Heartbeat CPU 0 instructions: 165000000 cycles: 390069495 heartbeat IPC: 0.648243 cumulative IPC: 0.420623 (Simulation time: 0 hr 12 min 12 sec) 
Heartbeat CPU 0 instructions: 166000001 cycles: 391996892 heartbeat IPC: 0.518835 cumulative IPC: 0.421134 (Simulation time: 0 hr 12 min 16 sec) 
Heartbeat CPU 0 instructions: 167000002 cycles: 393599514 heartbeat IPC: 0.623978 cumulative IPC: 0.422008 (Simulation time: 0 hr 12 min 20 sec) 
Heartbeat CPU 0 instructions: 168000001 cycles: 395412992 heartbeat IPC: 0.551426 cumulative IPC: 0.422636 (Simulation time: 0 hr 12 min 24 sec) 
Heartbeat CPU 0 instructions: 169000000 cycles: 397449515 heartbeat IPC: 0.491033 cumulative IPC: 0.423006 (Simulation time: 0 hr 12 min 28 sec) 
Heartbeat CPU 0 instructions: 170000001 cycles: 400773201 heartbeat IPC: 0.300871 cumulative IPC: 0.421936 (Simulation time: 0 hr 12 min 33 sec) 
Heartbeat CPU 0 instructions: 171000002 cycles: 402510081 heartbeat IPC: 0.575746 cumulative IPC: 0.422637 (Simulation time: 0 hr 12 min 37 sec) 
Heartbeat CPU 0 instructions: 172000003 cycles: 404073849 heartbeat IPC: 0.639482 cumulative IPC: 0.423524 (Simulation time: 0 hr 12 min 41 sec) 
Heartbeat CPU 0 instructions: 173000000 cycles: 405584010 heartbeat IPC: 0.662179 cumulative IPC: 0.424462 (Simulation time: 0 hr 12 min 44 sec) 
Heartbeat CPU 0 instructions: 174000003 cycles: 407683118 heartbeat IPC: 0.476394 cumulative IPC: 0.424745 (Simulation time: 0 hr 12 min 48 sec) 
Heartbeat CPU 0 instructions: 175000000 cycles: 409680892 heartbeat IPC: 0.500556 cumulative IPC: 0.425135 (Simulation time: 0 hr 12 min 52 sec) 
Heartbeat CPU 0 instructions: 176000000 cycles: 413975870 heartbeat IPC: 0.23283 cumulative IPC: 0.42303 (Simulation time: 0 hr 12 min 58 sec) 
Heartbeat CPU 0 instructions: 177000000 cycles: 418743277 heartbeat IPC: 0.209758 cumulative IPC: 0.42047 (Simulation time: 0 hr 13 min 5 sec) 
Heartbeat CPU 0 instructions: 178000001 cycles: 420610197 heartbeat IPC: 0.535642 cumulative IPC: 0.421009 (Simulation time: 0 hr 13 min 8 sec) 
Heartbeat CPU 0 instructions: 179000002 cycles: 422066131 heartbeat IPC: 0.686845 cumulative IPC: 0.421975 (Simulation time: 0 hr 13 min 12 sec) 
Heartbeat CPU 0 instructions: 180000001 cycles: 423676368 heartbeat IPC: 0.621026 cumulative IPC: 0.422772 (Simulation time: 0 hr 13 min 16 sec) 
Heartbeat CPU 0 instructions: 181000000 cycles: 425211656 heartbeat IPC: 0.651343 cumulative IPC: 0.423642 (Simulation time: 0 hr 13 min 20 sec) 
Heartbeat CPU 0 instructions: 182000000 cycles: 426893001 heartbeat IPC: 0.594762 cumulative IPC: 0.424352 (Simulation time: 0 hr 13 min 24 sec) 
Heartbeat CPU 0 instructions: 183000003 cycles: 430172741 heartbeat IPC: 0.304903 cumulative IPC: 0.423393 (Simulation time: 0 hr 13 min 28 sec) 
Heartbeat CPU 0 instructions: 184000000 cycles: 435909713 heartbeat IPC: 0.174307 cumulative IPC: 0.419944 (Simulation time: 0 hr 13 min 36 sec) 
Heartbeat CPU 0 instructions: 185000000 cycles: 437926174 heartbeat IPC: 0.495918 cumulative IPC: 0.420312 (Simulation time: 0 hr 13 min 40 sec) 
Heartbeat CPU 0 instructions: 186000003 cycles: 439505779 heartbeat IPC: 0.633072 cumulative IPC: 0.421116 (Simulation time: 0 hr 13 min 43 sec) 
Heartbeat CPU 0 instructions: 187000000 cycles: 441135584 heartbeat IPC: 0.613568 cumulative IPC: 0.421864 (Simulation time: 0 hr 13 min 47 sec) 
Heartbeat CPU 0 instructions: 188000001 cycles: 443062680 heartbeat IPC: 0.518916 cumulative IPC: 0.422307 (Simulation time: 0 hr 13 min 51 sec) 
Heartbeat CPU 0 instructions: 189000000 cycles: 445022196 heartbeat IPC: 0.51033 cumulative IPC: 0.422715 (Simulation time: 0 hr 13 min 55 sec) 
Heartbeat CPU 0 instructions: 190000001 cycles: 446908575 heartbeat IPC: 0.530117 cumulative IPC: 0.423191 (Simulation time: 0 hr 13 min 59 sec) 
Heartbeat CPU 0 instructions: 191000000 cycles: 451642081 heartbeat IPC: 0.21126 cumulative IPC: 0.420858 (Simulation time: 0 hr 14 min 6 sec) 
Heartbeat CPU 0 instructions: 192000001 cycles: 457437942 heartbeat IPC: 0.172537 cumulative IPC: 0.417556 (Simulation time: 0 hr 14 min 13 sec) 
Heartbeat CPU 0 instructions: 193000001 cycles: 463485718 heartbeat IPC: 0.16535 cumulative IPC: 0.414105 (Simulation time: 0 hr 14 min 20 sec) 
Heartbeat CPU 0 instructions: 194000000 cycles: 466225492 heartbeat IPC: 0.364993 cumulative IPC: 0.413802 (Simulation time: 0 hr 14 min 25 sec) 
Heartbeat CPU 0 instructions: 195000001 cycles: 467634446 heartbeat IPC: 0.709747 cumulative IPC: 0.414737 (Simulation time: 0 hr 14 min 29 sec) 
Heartbeat CPU 0 instructions: 196000001 cycles: 469070715 heartbeat IPC: 0.696248 cumulative IPC: 0.415641 (Simulation time: 0 hr 14 min 33 sec) 
Heartbeat CPU 0 instructions: 197000002 cycles: 470613782 heartbeat IPC: 0.648061 cumulative IPC: 0.416439 (Simulation time: 0 hr 14 min 36 sec) 
Heartbeat CPU 0 instructions: 198000000 cycles: 472230300 heartbeat IPC: 0.618612 cumulative IPC: 0.417164 (Simulation time: 0 hr 14 min 41 sec) 
Heartbeat CPU 0 instructions: 199000000 cycles: 474049797 heartbeat IPC: 0.549602 cumulative IPC: 0.417697 (Simulation time: 0 hr 14 min 45 sec) 
Heartbeat CPU 0 instructions: 200000002 cycles: 479302725 heartbeat IPC: 0.19037 cumulative IPC: 0.415088 (Simulation time: 0 hr 14 min 51 sec) 
Heartbeat CPU 0 instructions: 201000000 cycles: 482883933 heartbeat IPC: 0.279235 cumulative IPC: 0.414034 (Simulation time: 0 hr 14 min 57 sec) 
Heartbeat CPU 0 instructions: 202000000 cycles: 484920691 heartbeat IPC: 0.490976 cumulative IPC: 0.414372 (Simulation time: 0 hr 15 min 1 sec) 
Heartbeat CPU 0 instructions: 203000000 cycles: 486514651 heartbeat IPC: 0.627368 cumulative IPC: 0.415102 (Simulation time: 0 hr 15 min 5 sec) 
Heartbeat CPU 0 instructions: 204000000 cycles: 488510577 heartbeat IPC: 0.501021 cumulative IPC: 0.415469 (Simulation time: 0 hr 15 min 9 sec) 
Heartbeat CPU 0 instructions: 205000000 cycles: 490529573 heartbeat IPC: 0.495296 cumulative IPC: 0.415813 (Simulation time: 0 hr 15 min 13 sec) 
Heartbeat CPU 0 instructions: 206000000 cycles: 492918664 heartbeat IPC: 0.418569 cumulative IPC: 0.415827 (Simulation time: 0 hr 15 min 17 sec) 
Heartbeat CPU 0 instructions: 207000001 cycles: 495328211 heartbeat IPC: 0.415016 cumulative IPC: 0.415823 (Simulation time: 0 hr 15 min 22 sec) 
Heartbeat CPU 0 instructions: 208000001 cycles: 500464553 heartbeat IPC: 0.194691 cumulative IPC: 0.413451 (Simulation time: 0 hr 15 min 29 sec) 
Heartbeat CPU 0 instructions: 209000000 cycles: 506570704 heartbeat IPC: 0.163769 cumulative IPC: 0.410308 (Simulation time: 0 hr 15 min 36 sec) 
Heartbeat CPU 0 instructions: 210000000 cycles: 509548935 heartbeat IPC: 0.33577 cumulative IPC: 0.409853 (Simulation time: 0 hr 15 min 41 sec) 
Heartbeat CPU 0 instructions: 211000003 cycles: 511208267 heartbeat IPC: 0.602654 cumulative IPC: 0.410506 (Simulation time: 0 hr 15 min 44 sec) 
Heartbeat CPU 0 instructions: 212000002 cycles: 512826039 heartbeat IPC: 0.618133 cumulative IPC: 0.41119 (Simulation time: 0 hr 15 min 48 sec) 
Heartbeat CPU 0 instructions: 213000000 cycles: 514493813 heartbeat IPC: 0.5996 cumulative IPC: 0.411827 (Simulation time: 0 hr 15 min 52 sec) 
Heartbeat CPU 0 instructions: 214000000 cycles: 516141318 heartbeat IPC: 0.606978 cumulative IPC: 0.412477 (Simulation time: 0 hr 15 min 56 sec) 
Heartbeat CPU 0 instructions: 215000000 cycles: 517801079 heartbeat IPC: 0.602496 cumulative IPC: 0.413113 (Simulation time: 0 hr 16 min 0 sec) 
Heartbeat CPU 0 instructions: 216000001 cycles: 519864734 heartbeat IPC: 0.484578 cumulative IPC: 0.413409 (Simulation time: 0 hr 16 min 4 sec) 
Heartbeat CPU 0 instructions: 217000003 cycles: 525049750 heartbeat IPC: 0.192864 cumulative IPC: 0.411138 (Simulation time: 0 hr 16 min 10 sec) 
Heartbeat CPU 0 instructions: 218000001 cycles: 528326561 heartbeat IPC: 0.305174 cumulative IPC: 0.410452 (Simulation time: 0 hr 16 min 16 sec) 
Heartbeat CPU 0 instructions: 219000000 cycles: 529840412 heartbeat IPC: 0.660566 cumulative IPC: 0.411197 (Simulation time: 0 hr 16 min 20 sec) 
Heartbeat CPU 0 instructions: 220000000 cycles: 531587404 heartbeat IPC: 0.572412 cumulative IPC: 0.41175 (Simulation time: 0 hr 16 min 23 sec) 
Heartbeat CPU 0 instructions: 221000000 cycles: 533763535 heartbeat IPC: 0.459531 cumulative IPC: 0.411953 (Simulation time: 0 hr 16 min 28 sec) 
Heartbeat CPU 0 instructions: 222000001 cycles: 535464734 heartbeat IPC: 0.587821 cumulative IPC: 0.412535 (Simulation time: 0 hr 16 min 32 sec) 
Heartbeat CPU 0 instructions: 223000000 cycles: 537363121 heartbeat IPC: 0.526762 cumulative IPC: 0.412955 (Simulation time: 0 hr 16 min 36 sec) 
Heartbeat CPU 0 instructions: 224000000 cycles: 539103787 heartbeat IPC: 0.574493 cumulative IPC: 0.413499 (Simulation time: 0 hr 16 min 39 sec) 
Heartbeat CPU 0 instructions: 225000001 cycles: 542861704 heartbeat IPC: 0.266105 cumulative IPC: 0.412436 (Simulation time: 0 hr 16 min 45 sec) 
Heartbeat CPU 0 instructions: 226000002 cycles: 544952007 heartbeat IPC: 0.4784 cumulative IPC: 0.412699 (Simulation time: 0 hr 16 min 49 sec) 
Heartbeat CPU 0 instructions: 227000002 cycles: 546473421 heartbeat IPC: 0.657283 cumulative IPC: 0.413408 (Simulation time: 0 hr 16 min 53 sec) 
Heartbeat CPU 0 instructions: 228000000 cycles: 548561502 heartbeat IPC: 0.478908 cumulative IPC: 0.413668 (Simulation time: 0 hr 16 min 57 sec) 
Heartbeat CPU 0 instructions: 229000000 cycles: 550674801 heartbeat IPC: 0.473194 cumulative IPC: 0.413906 (Simulation time: 0 hr 17 min 1 sec) 
Heartbeat CPU 0 instructions: 230000000 cycles: 552729939 heartbeat IPC: 0.486585 cumulative IPC: 0.414187 (Simulation time: 0 hr 17 min 5 sec) 
Heartbeat CPU 0 instructions: 231000000 cycles: 555069399 heartbeat IPC: 0.427449 cumulative IPC: 0.414245 (Simulation time: 0 hr 17 min 9 sec) 
Heartbeat CPU 0 instructions: 232000000 cycles: 558558859 heartbeat IPC: 0.286577 cumulative IPC: 0.413415 (Simulation time: 0 hr 17 min 15 sec) 
Heartbeat CPU 0 instructions: 233000003 cycles: 560332836 heartbeat IPC: 0.563707 cumulative IPC: 0.41391 (Simulation time: 0 hr 17 min 19 sec) 
Heartbeat CPU 0 instructions: 234000001 cycles: 562127168 heartbeat IPC: 0.557309 cumulative IPC: 0.414386 (Simulation time: 0 hr 17 min 23 sec) 
Heartbeat CPU 0 instructions: 235000000 cycles: 564225860 heartbeat IPC: 0.476487 cumulative IPC: 0.414626 (Simulation time: 0 hr 17 min 27 sec) 
Heartbeat CPU 0 instructions: 236000000 cycles: 566622152 heartbeat IPC: 0.417311 cumulative IPC: 0.414638 (Simulation time: 0 hr 17 min 32 sec) 
Heartbeat CPU 0 instructions: 237000001 cycles: 568290175 heartbeat IPC: 0.599513 cumulative IPC: 0.415202 (Simulation time: 0 hr 17 min 36 sec) 
Heartbeat CPU 0 instructions: 238000000 cycles: 570385998 heartbeat IPC: 0.477139 cumulative IPC: 0.415439 (Simulation time: 0 hr 17 min 41 sec) 
Heartbeat CPU 0 instructions: 239000001 cycles: 574407077 heartbeat IPC: 0.24869 cumulative IPC: 0.414226 (Simulation time: 0 hr 17 min 47 sec) 
Heartbeat CPU 0 instructions: 240000000 cycles: 575959706 heartbeat IPC: 0.644068 cumulative IPC: 0.41487 (Simulation time: 0 hr 17 min 51 sec) 
Heartbeat CPU 0 instructions: 241000001 cycles: 577461318 heartbeat IPC: 0.665952 cumulative IPC: 0.415548 (Simulation time: 0 hr 17 min 55 sec) 
Heartbeat CPU 0 instructions: 242000000 cycles: 579111440 heartbeat IPC: 0.606015 cumulative IPC: 0.416112 (Simulation time: 0 hr 17 min 59 sec) 
Heartbeat CPU 0 instructions: 243000000 cycles: 581459431 heartbeat IPC: 0.425896 cumulative IPC: 0.416153 (Simulation time: 0 hr 18 min 4 sec) 
Heartbeat CPU 0 instructions: 244000001 cycles: 583665326 heartbeat IPC: 0.453331 cumulative IPC: 0.416299 (Simulation time: 0 hr 18 min 9 sec) 
Heartbeat CPU 0 instructions: 245000001 cycles: 585539671 heartbeat IPC: 0.53352 cumulative IPC: 0.416688 (Simulation time: 0 hr 18 min 13 sec) 
Heartbeat CPU 0 instructions: 246000002 cycles: 590234091 heartbeat IPC: 0.213019 cumulative IPC: 0.415007 (Simulation time: 0 hr 18 min 20 sec) 
Heartbeat CPU 0 instructions: 247000001 cycles: 596042123 heartbeat IPC: 0.172175 cumulative IPC: 0.412552 (Simulation time: 0 hr 18 min 28 sec) 
Heartbeat CPU 0 instructions: 248000001 cycles: 599585313 heartbeat IPC: 0.282232 cumulative IPC: 0.411753 (Simulation time: 0 hr 18 min 33 sec) 
Heartbeat CPU 0 instructions: 249000000 cycles: 601229746 heartbeat IPC: 0.608112 cumulative IPC: 0.41231 (Simulation time: 0 hr 18 min 37 sec) 
Heartbeat CPU 0 instructions: 250000001 cycles: 603204933 heartbeat IPC: 0.506282 cumulative IPC: 0.412629 (Simulation time: 0 hr 18 min 42 sec) 
Heartbeat CPU 0 instructions: 251000000 cycles: 605044102 heartbeat IPC: 0.543723 cumulative IPC: 0.413042 (Simulation time: 0 hr 18 min 46 sec) 
Heartbeat CPU 0 instructions: 252000002 cycles: 606681035 heartbeat IPC: 0.6109 cumulative IPC: 0.413596 (Simulation time: 0 hr 18 min 50 sec) 
Heartbeat CPU 0 instructions: 253000000 cycles: 608456291 heartbeat IPC: 0.563298 cumulative IPC: 0.414049 (Simulation time: 0 hr 18 min 55 sec) 
Heartbeat CPU 0 instructions: 254000001 cycles: 610840652 heartbeat IPC: 0.4194 cumulative IPC: 0.41407 (Simulation time: 0 hr 18 min 59 sec) 
Heartbeat CPU 0 instructions: 255000001 cycles: 613750551 heartbeat IPC: 0.343655 cumulative IPC: 0.413724 (Simulation time: 0 hr 19 min 4 sec) 
Heartbeat CPU 0 instructions: 256000000 cycles: 615297580 heartbeat IPC: 0.6464 cumulative IPC: 0.414331 (Simulation time: 0 hr 19 min 8 sec) 
Heartbeat CPU 0 instructions: 257000000 cycles: 616964866 heartbeat IPC: 0.599777 cumulative IPC: 0.41485 (Simulation time: 0 hr 19 min 11 sec) 
Heartbeat CPU 0 instructions: 258000001 cycles: 619071086 heartbeat IPC: 0.474785 cumulative IPC: 0.415061 (Simulation time: 0 hr 19 min 16 sec) 
Heartbeat CPU 0 instructions: 259000002 cycles: 620768577 heartbeat IPC: 0.589105 cumulative IPC: 0.415554 (Simulation time: 0 hr 19 min 20 sec) 
Heartbeat CPU 0 instructions: 260000001 cycles: 622803398 heartbeat IPC: 0.491443 cumulative IPC: 0.415811 (Simulation time: 0 hr 19 min 24 sec) 
Finished CPU 0 instructions: 250000003 cycles: 601234698 cumulative IPC: 0.415811 (Simulation time: 0 hr 19 min 24 sec) 

ChampSim completed all CPUs

Region of Interest Statistics

CPU 0 cumulative IPC: 0.415811 instructions: 250000003 cycles: 601234698
L1D TOTAL     ACCESS:  122495204  HIT:  115956875  MISS:    6538329
L1D LOAD      ACCESS:   53018476  HIT:   47078484  MISS:    5939992
L1D RFO       ACCESS:   69476728  HIT:   68878391  MISS:     598337
L1D PREFETCH  ACCESS:          0  HIT:          0  MISS:          0
L1D WRITEBACK ACCESS:          0  HIT:          0  MISS:          0
L1D PREFETCH  REQUESTED:          0  ISSUED:          0  USEFUL:          0  USELESS:          0
L1D AVERAGE MISS LATENCY: 174.381 cycles
L1I TOTAL     ACCESS:   52603506  HIT:   52603506  MISS:          0
L1I LOAD      ACCESS:   52603506  HIT:   52603506  MISS:          0
L1I RFO       ACCESS:          0  HIT:          0  MISS:          0
L1I PREFETCH  ACCESS:          0  HIT:          0  MISS:          0
L1I WRITEBACK ACCESS:          0  HIT:          0  MISS:          0
L1I PREFETCH  REQUESTED:          0  ISSUED:          0  USEFUL:          0  USELESS:          0
L1I AVERAGE MISS LATENCY: -nan cycles
L2C TOTAL     ACCESS:    8062766  HIT:    1616216  MISS:    6446550
L2C LOAD      ACCESS:    5939922  HIT:      93031  MISS:    5846891
L2C RFO       ACCESS:     598327  HIT:       3495  MISS:     594832
L2C PREFETCH  ACCESS:          0  HIT:          0  MISS:          0
L2C WRITEBACK ACCESS:    1524517  HIT:    1519690  MISS:       4827
L2C PREFETCH  REQUESTED:          0  ISSUED:          0  USEFUL:          0  USELESS:          0
L2C AVERAGE MISS LATENCY: 160.874 cycles
LLC TOTAL     ACCESS:    8684670  HIT:    1986088  MISS:    6698582
LLC LOAD      ACCESS:    5846891  HIT:     295953  MISS:    5550938
LLC RFO       ACCESS:     594832  HIT:      21871  MISS:     572961
LLC PREFETCH  ACCESS:     788507  HIT:     216551  MISS:     571956
LLC WRITEBACK ACCESS:    1454440  HIT:    1451713  MISS:       2727
LLC PREFETCH  REQUESTED:    5846891  ISSUED:     893984  USEFUL:     308616  USELESS:     261363
LLC AVERAGE MISS LATENCY: 135.997 cycles
Major fault: 0 Minor fault: 61727

DRAM Statistics
 CHANNEL 0
 RQ ROW_BUFFER_HIT:    2768326  ROW_BUFFER_MISS:     578734
 DBUS_CONGESTED:    2333972
 WQ ROW_BUFFER_HIT:     486349  ROW_BUFFER_MISS:     238050  FULL:          0

 CHANNEL 1
 RQ ROW_BUFFER_HIT:    2762560  ROW_BUFFER_MISS:     586235
 DBUS_CONGESTED:    2333972
 WQ ROW_BUFFER_HIT:     493502  ROW_BUFFER_MISS:     228348  FULL:          0

 AVG_CONGESTED_CYCLE: 18

CPU 0 Branch Prediction Accuracy: 99.1314% MPKI: 0.85698 Average ROB Occupancy at Mispredict: 272.392

Branch types
NOT_BRANCH: 225335805 90.1343%
BRANCH_DIRECT_JUMP: 1177720 0.471088%
BRANCH_INDIRECT: 0 0%
BRANCH_CONDITIONAL: 23486250 9.3945%
BRANCH_DIRECT_CALL: 112 4.48e-05%
BRANCH_INDIRECT_CALL: 0 0%
BRANCH_RETURN: 112 4.48e-05%
BRANCH_OTHER: 0 0%

