
*** ChampSim Multicore Out-of-Order Simulator ***

Warmup Instructions: 1000000
Prefetch Warmup Instructions: 10000000
Simulation Instructions: 250000000
Stat Printing Period: 1000000
Number of CPUs: 1
LLC sets: 2048
LLC ways: 16
Off-chip DRAM Size: 32768 MB Channels: 2 Width: 64-bit Data Rate: 1024 MT/s

CPU 0 runs /scratch/cluster/cmolder/ML-DPC/ChampSimTraces/spec17/605.mcf-s8.trace.xz
Read seed: 232
Heartbeat CPU 0 instructions: 1000001 cycles: 405728 heartbeat IPC: 2.46471 cumulative IPC: 2.46471 (Simulation time: 0 hr 0 min 3 sec) 

Warmup complete CPU 0 instructions: 1000001 cycles: 405728 (Simulation time: 0 hr 0 min 3 sec) 

Heartbeat CPU 0 instructions: 2000001 cycles: 1693133 heartbeat IPC: 0.776756 cumulative IPC: 0.776756 (Simulation time: 0 hr 0 min 5 sec) 
Heartbeat CPU 0 instructions: 3000000 cycles: 2668974 heartbeat IPC: 1.02476 cumulative IPC: 0.883686 (Simulation time: 0 hr 0 min 7 sec) 
Heartbeat CPU 0 instructions: 4000001 cycles: 6421259 heartbeat IPC: 0.266505 cumulative IPC: 0.498709 (Simulation time: 0 hr 0 min 10 sec) 
Heartbeat CPU 0 instructions: 5000000 cycles: 8570229 heartbeat IPC: 0.465339 cumulative IPC: 0.489926 (Simulation time: 0 hr 0 min 12 sec) 
Heartbeat CPU 0 instructions: 6000000 cycles: 9575587 heartbeat IPC: 0.994671 cumulative IPC: 0.545265 (Simulation time: 0 hr 0 min 14 sec) 
Heartbeat CPU 0 instructions: 7000001 cycles: 11472632 heartbeat IPC: 0.527136 cumulative IPC: 0.542157 (Simulation time: 0 hr 0 min 17 sec) 
Heartbeat CPU 0 instructions: 8000000 cycles: 12513886 heartbeat IPC: 0.960379 cumulative IPC: 0.578123 (Simulation time: 0 hr 0 min 19 sec) 
Heartbeat CPU 0 instructions: 9000000 cycles: 13632109 heartbeat IPC: 0.894276 cumulative IPC: 0.604852 (Simulation time: 0 hr 0 min 21 sec) 
Heartbeat CPU 0 instructions: 10000000 cycles: 15160701 heartbeat IPC: 0.654197 cumulative IPC: 0.609964 (Simulation time: 0 hr 0 min 23 sec) 

Warmup complete CPU 0 instructions: 10000002 cycles: 15160705 (Simulation time: 0 hr 0 min 23 sec) 

Heartbeat CPU 0 instructions: 11000000 cycles: 16120668 heartbeat IPC: 1.0417 cumulative IPC: 1.0417 (Simulation time: 0 hr 0 min 25 sec) 
Heartbeat CPU 0 instructions: 12000003 cycles: 22565640 heartbeat IPC: 0.15516 cumulative IPC: 0.27009 (Simulation time: 0 hr 0 min 28 sec) 
Heartbeat CPU 0 instructions: 13000000 cycles: 26677700 heartbeat IPC: 0.243186 cumulative IPC: 0.260484 (Simulation time: 0 hr 0 min 32 sec) 
Heartbeat CPU 0 instructions: 14000002 cycles: 27647125 heartbeat IPC: 1.03154 cumulative IPC: 0.320348 (Simulation time: 0 hr 0 min 33 sec) 
Heartbeat CPU 0 instructions: 15000001 cycles: 28994572 heartbeat IPC: 0.742143 cumulative IPC: 0.361432 (Simulation time: 0 hr 0 min 36 sec) 
Heartbeat CPU 0 instructions: 16000002 cycles: 30009661 heartbeat IPC: 0.985136 cumulative IPC: 0.404069 (Simulation time: 0 hr 0 min 38 sec) 
Heartbeat CPU 0 instructions: 17000001 cycles: 31912249 heartbeat IPC: 0.525599 cumulative IPC: 0.417872 (Simulation time: 0 hr 0 min 40 sec) 
Heartbeat CPU 0 instructions: 18000000 cycles: 33118875 heartbeat IPC: 0.828756 cumulative IPC: 0.44548 (Simulation time: 0 hr 0 min 42 sec) 
Heartbeat CPU 0 instructions: 19000000 cycles: 34816148 heartbeat IPC: 0.58918 cumulative IPC: 0.457888 (Simulation time: 0 hr 0 min 44 sec) 
Heartbeat CPU 0 instructions: 20000000 cycles: 38110756 heartbeat IPC: 0.303526 cumulative IPC: 0.435729 (Simulation time: 0 hr 0 min 47 sec) 
Heartbeat CPU 0 instructions: 21000001 cycles: 39103220 heartbeat IPC: 1.00759 cumulative IPC: 0.459434 (Simulation time: 0 hr 0 min 49 sec) 
Heartbeat CPU 0 instructions: 22000000 cycles: 40550681 heartbeat IPC: 0.690864 cumulative IPC: 0.472627 (Simulation time: 0 hr 0 min 51 sec) 
Heartbeat CPU 0 instructions: 23000003 cycles: 41598590 heartbeat IPC: 0.954284 cumulative IPC: 0.491719 (Simulation time: 0 hr 0 min 53 sec) 
Heartbeat CPU 0 instructions: 24000000 cycles: 42904202 heartbeat IPC: 0.765922 cumulative IPC: 0.504623 (Simulation time: 0 hr 0 min 55 sec) 
Heartbeat CPU 0 instructions: 25000002 cycles: 47316247 heartbeat IPC: 0.226653 cumulative IPC: 0.466483 (Simulation time: 0 hr 0 min 58 sec) 
Heartbeat CPU 0 instructions: 26000003 cycles: 54422964 heartbeat IPC: 0.140712 cumulative IPC: 0.407516 (Simulation time: 0 hr 1 min 2 sec) 
Heartbeat CPU 0 instructions: 27000001 cycles: 56673710 heartbeat IPC: 0.444296 cumulative IPC: 0.40951 (Simulation time: 0 hr 1 min 4 sec) 
Heartbeat CPU 0 instructions: 28000001 cycles: 57979114 heartbeat IPC: 0.766046 cumulative IPC: 0.42038 (Simulation time: 0 hr 1 min 7 sec) 
Heartbeat CPU 0 instructions: 29000002 cycles: 58929788 heartbeat IPC: 1.05189 cumulative IPC: 0.434096 (Simulation time: 0 hr 1 min 9 sec) 
Heartbeat CPU 0 instructions: 30000003 cycles: 61628747 heartbeat IPC: 0.370514 cumulative IPC: 0.430403 (Simulation time: 0 hr 1 min 11 sec) 
Heartbeat CPU 0 instructions: 31000000 cycles: 62660711 heartbeat IPC: 0.969023 cumulative IPC: 0.442105 (Simulation time: 0 hr 1 min 13 sec) 
Heartbeat CPU 0 instructions: 32000000 cycles: 63998684 heartbeat IPC: 0.747399 cumulative IPC: 0.450469 (Simulation time: 0 hr 1 min 15 sec) 
Heartbeat CPU 0 instructions: 33000000 cycles: 65099833 heartbeat IPC: 0.908142 cumulative IPC: 0.460561 (Simulation time: 0 hr 1 min 17 sec) 
Heartbeat CPU 0 instructions: 34000000 cycles: 67874986 heartbeat IPC: 0.360341 cumulative IPC: 0.455285 (Simulation time: 0 hr 1 min 20 sec) 
Heartbeat CPU 0 instructions: 35000000 cycles: 72677061 heartbeat IPC: 0.208243 cumulative IPC: 0.434659 (Simulation time: 0 hr 1 min 23 sec) 
Heartbeat CPU 0 instructions: 36000000 cycles: 73794794 heartbeat IPC: 0.894668 cumulative IPC: 0.443428 (Simulation time: 0 hr 1 min 25 sec) 
Heartbeat CPU 0 instructions: 37000002 cycles: 75136123 heartbeat IPC: 0.745531 cumulative IPC: 0.450184 (Simulation time: 0 hr 1 min 27 sec) 
Heartbeat CPU 0 instructions: 38000001 cycles: 78517594 heartbeat IPC: 0.295729 cumulative IPC: 0.441941 (Simulation time: 0 hr 1 min 30 sec) 
Heartbeat CPU 0 instructions: 39000001 cycles: 80154816 heartbeat IPC: 0.610791 cumulative IPC: 0.446194 (Simulation time: 0 hr 1 min 32 sec) 
Heartbeat CPU 0 instructions: 40000001 cycles: 81320655 heartbeat IPC: 0.857751 cumulative IPC: 0.453447 (Simulation time: 0 hr 1 min 34 sec) 
Heartbeat CPU 0 instructions: 41000003 cycles: 82201280 heartbeat IPC: 1.13556 cumulative IPC: 0.462407 (Simulation time: 0 hr 1 min 36 sec) 
Heartbeat CPU 0 instructions: 42000001 cycles: 84124135 heartbeat IPC: 0.520059 cumulative IPC: 0.464014 (Simulation time: 0 hr 1 min 38 sec) 
Heartbeat CPU 0 instructions: 43000000 cycles: 85133885 heartbeat IPC: 0.990343 cumulative IPC: 0.471609 (Simulation time: 0 hr 1 min 40 sec) 
Heartbeat CPU 0 instructions: 44000000 cycles: 94667178 heartbeat IPC: 0.104896 cumulative IPC: 0.427638 (Simulation time: 0 hr 1 min 45 sec) 
Heartbeat CPU 0 instructions: 45000001 cycles: 104002703 heartbeat IPC: 0.107118 cumulative IPC: 0.393958 (Simulation time: 0 hr 1 min 49 sec) 
Heartbeat CPU 0 instructions: 46000001 cycles: 113307458 heartbeat IPC: 0.107472 cumulative IPC: 0.366798 (Simulation time: 0 hr 1 min 54 sec) 
Heartbeat CPU 0 instructions: 47000001 cycles: 122369828 heartbeat IPC: 0.110346 cumulative IPC: 0.34512 (Simulation time: 0 hr 1 min 58 sec) 
Heartbeat CPU 0 instructions: 48000000 cycles: 131587511 heartbeat IPC: 0.108487 cumulative IPC: 0.326385 (Simulation time: 0 hr 2 min 2 sec) 
Heartbeat CPU 0 instructions: 49000001 cycles: 141087104 heartbeat IPC: 0.105268 cumulative IPC: 0.309705 (Simulation time: 0 hr 2 min 7 sec) 
Heartbeat CPU 0 instructions: 50000001 cycles: 149956624 heartbeat IPC: 0.112746 cumulative IPC: 0.296745 (Simulation time: 0 hr 2 min 11 sec) 
Heartbeat CPU 0 instructions: 51000001 cycles: 159931154 heartbeat IPC: 0.100255 cumulative IPC: 0.283207 (Simulation time: 0 hr 2 min 16 sec) 
Heartbeat CPU 0 instructions: 52000001 cycles: 167551305 heartbeat IPC: 0.131231 cumulative IPC: 0.275608 (Simulation time: 0 hr 2 min 20 sec) 
Heartbeat CPU 0 instructions: 53000003 cycles: 170163438 heartbeat IPC: 0.38283 cumulative IPC: 0.277414 (Simulation time: 0 hr 2 min 23 sec) 
Heartbeat CPU 0 instructions: 54000000 cycles: 171298760 heartbeat IPC: 0.880805 cumulative IPC: 0.281802 (Simulation time: 0 hr 2 min 25 sec) 
Heartbeat CPU 0 instructions: 55000000 cycles: 172768703 heartbeat IPC: 0.680299 cumulative IPC: 0.285518 (Simulation time: 0 hr 2 min 27 sec) 
Heartbeat CPU 0 instructions: 56000001 cycles: 173708601 heartbeat IPC: 1.06395 cumulative IPC: 0.290133 (Simulation time: 0 hr 2 min 29 sec) 
Heartbeat CPU 0 instructions: 57000001 cycles: 177073352 heartbeat IPC: 0.297199 cumulative IPC: 0.29028 (Simulation time: 0 hr 2 min 32 sec) 
Heartbeat CPU 0 instructions: 58000002 cycles: 178321230 heartbeat IPC: 0.801361 cumulative IPC: 0.294189 (Simulation time: 0 hr 2 min 34 sec) 
Heartbeat CPU 0 instructions: 59000000 cycles: 179434567 heartbeat IPC: 0.898199 cumulative IPC: 0.298282 (Simulation time: 0 hr 2 min 36 sec) 
Heartbeat CPU 0 instructions: 60000000 cycles: 180929825 heartbeat IPC: 0.668781 cumulative IPC: 0.301624 (Simulation time: 0 hr 2 min 38 sec) 
Heartbeat CPU 0 instructions: 61000000 cycles: 181970849 heartbeat IPC: 0.960593 cumulative IPC: 0.305737 (Simulation time: 0 hr 2 min 40 sec) 
Heartbeat CPU 0 instructions: 62000001 cycles: 189807905 heartbeat IPC: 0.127599 cumulative IPC: 0.297743 (Simulation time: 0 hr 2 min 44 sec) 
Heartbeat CPU 0 instructions: 63000000 cycles: 198351749 heartbeat IPC: 0.117043 cumulative IPC: 0.289315 (Simulation time: 0 hr 2 min 49 sec) 
Heartbeat CPU 0 instructions: 64000000 cycles: 205360536 heartbeat IPC: 0.142678 cumulative IPC: 0.283912 (Simulation time: 0 hr 2 min 52 sec) 
Heartbeat CPU 0 instructions: 65000000 cycles: 207534038 heartbeat IPC: 0.460087 cumulative IPC: 0.285902 (Simulation time: 0 hr 2 min 55 sec) 
Heartbeat CPU 0 instructions: 66000000 cycles: 208830937 heartbeat IPC: 0.77107 cumulative IPC: 0.289151 (Simulation time: 0 hr 2 min 57 sec) 
Heartbeat CPU 0 instructions: 67000000 cycles: 210480680 heartbeat IPC: 0.606155 cumulative IPC: 0.291829 (Simulation time: 0 hr 2 min 59 sec) 
Heartbeat CPU 0 instructions: 68000000 cycles: 211797511 heartbeat IPC: 0.759399 cumulative IPC: 0.29496 (Simulation time: 0 hr 3 min 1 sec) 
Heartbeat CPU 0 instructions: 69000000 cycles: 216315476 heartbeat IPC: 0.221339 cumulative IPC: 0.293306 (Simulation time: 0 hr 3 min 5 sec) 
Heartbeat CPU 0 instructions: 70000000 cycles: 218446818 heartbeat IPC: 0.469188 cumulative IPC: 0.29515 (Simulation time: 0 hr 3 min 7 sec) 
Heartbeat CPU 0 instructions: 71000001 cycles: 221414018 heartbeat IPC: 0.337018 cumulative IPC: 0.295753 (Simulation time: 0 hr 3 min 10 sec) 
Heartbeat CPU 0 instructions: 72000000 cycles: 223089403 heartbeat IPC: 0.596877 cumulative IPC: 0.298179 (Simulation time: 0 hr 3 min 12 sec) 
Heartbeat CPU 0 instructions: 73000001 cycles: 224283810 heartbeat IPC: 0.837236 cumulative IPC: 0.301258 (Simulation time: 0 hr 3 min 14 sec) 
Heartbeat CPU 0 instructions: 74000002 cycles: 225610922 heartbeat IPC: 0.753517 cumulative IPC: 0.30411 (Simulation time: 0 hr 3 min 16 sec) 
Heartbeat CPU 0 instructions: 75000000 cycles: 226979279 heartbeat IPC: 0.730802 cumulative IPC: 0.306866 (Simulation time: 0 hr 3 min 18 sec) 
Heartbeat CPU 0 instructions: 76000003 cycles: 232909569 heartbeat IPC: 0.168626 cumulative IPC: 0.303101 (Simulation time: 0 hr 3 min 22 sec) 
Heartbeat CPU 0 instructions: 77000000 cycles: 234418636 heartbeat IPC: 0.662659 cumulative IPC: 0.305576 (Simulation time: 0 hr 3 min 24 sec) 
Heartbeat CPU 0 instructions: 78000000 cycles: 236064818 heartbeat IPC: 0.607466 cumulative IPC: 0.307826 (Simulation time: 0 hr 3 min 26 sec) 
Heartbeat CPU 0 instructions: 79000001 cycles: 237092776 heartbeat IPC: 0.972803 cumulative IPC: 0.310906 (Simulation time: 0 hr 3 min 28 sec) 
Heartbeat CPU 0 instructions: 80000003 cycles: 240943460 heartbeat IPC: 0.259695 cumulative IPC: 0.310033 (Simulation time: 0 hr 3 min 32 sec) 
Heartbeat CPU 0 instructions: 81000001 cycles: 241855909 heartbeat IPC: 1.09595 cumulative IPC: 0.313196 (Simulation time: 0 hr 3 min 34 sec) 
Heartbeat CPU 0 instructions: 82000002 cycles: 242997484 heartbeat IPC: 0.875984 cumulative IPC: 0.316016 (Simulation time: 0 hr 3 min 36 sec) 
Heartbeat CPU 0 instructions: 83000002 cycles: 244336994 heartbeat IPC: 0.746542 cumulative IPC: 0.318532 (Simulation time: 0 hr 3 min 38 sec) 
Heartbeat CPU 0 instructions: 84000001 cycles: 245275228 heartbeat IPC: 1.06583 cumulative IPC: 0.321579 (Simulation time: 0 hr 3 min 40 sec) 
Heartbeat CPU 0 instructions: 85000001 cycles: 249544954 heartbeat IPC: 0.234207 cumulative IPC: 0.319987 (Simulation time: 0 hr 3 min 44 sec) 
Heartbeat CPU 0 instructions: 86000003 cycles: 255611140 heartbeat IPC: 0.164849 cumulative IPC: 0.316073 (Simulation time: 0 hr 3 min 48 sec) 
Heartbeat CPU 0 instructions: 87000002 cycles: 259090653 heartbeat IPC: 0.287396 cumulative IPC: 0.315664 (Simulation time: 0 hr 3 min 51 sec) 
Heartbeat CPU 0 instructions: 88000000 cycles: 260069328 heartbeat IPC: 1.02179 cumulative IPC: 0.318486 (Simulation time: 0 hr 3 min 53 sec) 
Heartbeat CPU 0 instructions: 89000003 cycles: 261056862 heartbeat IPC: 1.01263 cumulative IPC: 0.321274 (Simulation time: 0 hr 3 min 55 sec) 
Heartbeat CPU 0 instructions: 90000001 cycles: 262227480 heartbeat IPC: 0.854248 cumulative IPC: 0.323799 (Simulation time: 0 hr 3 min 57 sec) 
Heartbeat CPU 0 instructions: 91000000 cycles: 265165185 heartbeat IPC: 0.340401 cumulative IPC: 0.323994 (Simulation time: 0 hr 4 min 0 sec) 
Heartbeat CPU 0 instructions: 92000002 cycles: 267247303 heartbeat IPC: 0.480281 cumulative IPC: 0.325285 (Simulation time: 0 hr 4 min 2 sec) 
Heartbeat CPU 0 instructions: 93000000 cycles: 269000991 heartbeat IPC: 0.570226 cumulative IPC: 0.326977 (Simulation time: 0 hr 4 min 5 sec) 
Heartbeat CPU 0 instructions: 94000001 cycles: 271230610 heartbeat IPC: 0.448508 cumulative IPC: 0.328035 (Simulation time: 0 hr 4 min 7 sec) 
Heartbeat CPU 0 instructions: 95000000 cycles: 272317454 heartbeat IPC: 0.920094 cumulative IPC: 0.330538 (Simulation time: 0 hr 4 min 9 sec) 
Heartbeat CPU 0 instructions: 96000001 cycles: 274259751 heartbeat IPC: 0.514855 cumulative IPC: 0.331919 (Simulation time: 0 hr 4 min 11 sec) 
Heartbeat CPU 0 instructions: 97000002 cycles: 275440889 heartbeat IPC: 0.846642 cumulative IPC: 0.334255 (Simulation time: 0 hr 4 min 13 sec) 
Heartbeat CPU 0 instructions: 98000001 cycles: 276575390 heartbeat IPC: 0.881444 cumulative IPC: 0.33663 (Simulation time: 0 hr 4 min 15 sec) 
Heartbeat CPU 0 instructions: 99000000 cycles: 279278335 heartbeat IPC: 0.369966 cumulative IPC: 0.336971 (Simulation time: 0 hr 4 min 18 sec) 
Heartbeat CPU 0 instructions: 100000001 cycles: 281156448 heartbeat IPC: 0.53245 cumulative IPC: 0.338351 (Simulation time: 0 hr 4 min 20 sec) 
Heartbeat CPU 0 instructions: 101000002 cycles: 291021928 heartbeat IPC: 0.101364 cumulative IPC: 0.329876 (Simulation time: 0 hr 4 min 24 sec) 
Heartbeat CPU 0 instructions: 102000002 cycles: 299772695 heartbeat IPC: 0.114276 cumulative IPC: 0.323247 (Simulation time: 0 hr 4 min 29 sec) 
Heartbeat CPU 0 instructions: 103000000 cycles: 305901198 heartbeat IPC: 0.163172 cumulative IPC: 0.319873 (Simulation time: 0 hr 4 min 33 sec) 
Heartbeat CPU 0 instructions: 104000003 cycles: 307563314 heartbeat IPC: 0.601645 cumulative IPC: 0.321475 (Simulation time: 0 hr 4 min 35 sec) 
Heartbeat CPU 0 instructions: 105000001 cycles: 308830941 heartbeat IPC: 0.788874 cumulative IPC: 0.323492 (Simulation time: 0 hr 4 min 37 sec) 
Heartbeat CPU 0 instructions: 106000003 cycles: 310454624 heartbeat IPC: 0.615885 cumulative IPC: 0.3251 (Simulation time: 0 hr 4 min 40 sec) 
Heartbeat CPU 0 instructions: 107000000 cycles: 315749019 heartbeat IPC: 0.188878 cumulative IPC: 0.322701 (Simulation time: 0 hr 4 min 43 sec) 
Heartbeat CPU 0 instructions: 108000002 cycles: 316993145 heartbeat IPC: 0.803779 cumulative IPC: 0.324683 (Simulation time: 0 hr 4 min 45 sec) 
Heartbeat CPU 0 instructions: 109000001 cycles: 318519144 heartbeat IPC: 0.655308 cumulative IPC: 0.326347 (Simulation time: 0 hr 4 min 48 sec) 
Heartbeat CPU 0 instructions: 110000000 cycles: 322319920 heartbeat IPC: 0.263104 cumulative IPC: 0.325564 (Simulation time: 0 hr 4 min 51 sec) 
Heartbeat CPU 0 instructions: 111000002 cycles: 323407768 heartbeat IPC: 0.919248 cumulative IPC: 0.327659 (Simulation time: 0 hr 4 min 53 sec) 
Heartbeat CPU 0 instructions: 112000001 cycles: 326858955 heartbeat IPC: 0.289755 cumulative IPC: 0.32724 (Simulation time: 0 hr 4 min 56 sec) 
Heartbeat CPU 0 instructions: 113000001 cycles: 328331178 heartbeat IPC: 0.679245 cumulative IPC: 0.328894 (Simulation time: 0 hr 4 min 58 sec) 
Heartbeat CPU 0 instructions: 114000003 cycles: 329373665 heartbeat IPC: 0.959247 cumulative IPC: 0.330986 (Simulation time: 0 hr 5 min 0 sec) 
Heartbeat CPU 0 instructions: 115000003 cycles: 331101086 heartbeat IPC: 0.578898 cumulative IPC: 0.332341 (Simulation time: 0 hr 5 min 2 sec) 
Heartbeat CPU 0 instructions: 116000001 cycles: 332748085 heartbeat IPC: 0.607164 cumulative IPC: 0.333766 (Simulation time: 0 hr 5 min 4 sec) 
Heartbeat CPU 0 instructions: 117000002 cycles: 333894340 heartbeat IPC: 0.872407 cumulative IPC: 0.335704 (Simulation time: 0 hr 5 min 6 sec) 
Heartbeat CPU 0 instructions: 118000000 cycles: 341011899 heartbeat IPC: 0.140497 cumulative IPC: 0.33144 (Simulation time: 0 hr 5 min 10 sec) 
Heartbeat CPU 0 instructions: 119000003 cycles: 349964117 heartbeat IPC: 0.111704 cumulative IPC: 0.325564 (Simulation time: 0 hr 5 min 14 sec) 
Heartbeat CPU 0 instructions: 120000000 cycles: 352161402 heartbeat IPC: 0.455106 cumulative IPC: 0.326409 (Simulation time: 0 hr 5 min 17 sec) 
Heartbeat CPU 0 instructions: 121000000 cycles: 353520863 heartbeat IPC: 0.735586 cumulative IPC: 0.328053 (Simulation time: 0 hr 5 min 19 sec) 
Heartbeat CPU 0 instructions: 122000001 cycles: 356551725 heartbeat IPC: 0.329939 cumulative IPC: 0.32807 (Simulation time: 0 hr 5 min 21 sec) 
Heartbeat CPU 0 instructions: 123000001 cycles: 359120742 heartbeat IPC: 0.389254 cumulative IPC: 0.328527 (Simulation time: 0 hr 5 min 24 sec) 
Heartbeat CPU 0 instructions: 124000003 cycles: 360576398 heartbeat IPC: 0.686977 cumulative IPC: 0.330037 (Simulation time: 0 hr 5 min 26 sec) 
Heartbeat CPU 0 instructions: 125000001 cycles: 363093593 heartbeat IPC: 0.397267 cumulative IPC: 0.330524 (Simulation time: 0 hr 5 min 28 sec) 
Heartbeat CPU 0 instructions: 126000003 cycles: 364508187 heartbeat IPC: 0.706918 cumulative IPC: 0.332048 (Simulation time: 0 hr 5 min 30 sec) 
Heartbeat CPU 0 instructions: 127000001 cycles: 365766091 heartbeat IPC: 0.794972 cumulative IPC: 0.333708 (Simulation time: 0 hr 5 min 32 sec) 
Heartbeat CPU 0 instructions: 128000000 cycles: 372195549 heartbeat IPC: 0.155534 cumulative IPC: 0.3305 (Simulation time: 0 hr 5 min 37 sec) 
Heartbeat CPU 0 instructions: 129000003 cycles: 377663394 heartbeat IPC: 0.182888 cumulative IPC: 0.328273 (Simulation time: 0 hr 5 min 40 sec) 
Heartbeat CPU 0 instructions: 130000000 cycles: 378716946 heartbeat IPC: 0.949167 cumulative IPC: 0.330073 (Simulation time: 0 hr 5 min 42 sec) 
Heartbeat CPU 0 instructions: 131000000 cycles: 380281178 heartbeat IPC: 0.639291 cumulative IPC: 0.331397 (Simulation time: 0 hr 5 min 44 sec) 
Heartbeat CPU 0 instructions: 132000000 cycles: 382076815 heartbeat IPC: 0.556905 cumulative IPC: 0.332501 (Simulation time: 0 hr 5 min 46 sec) 
Heartbeat CPU 0 instructions: 133000001 cycles: 383266825 heartbeat IPC: 0.84033 cumulative IPC: 0.334143 (Simulation time: 0 hr 5 min 48 sec) 
Heartbeat CPU 0 instructions: 134000000 cycles: 385252638 heartbeat IPC: 0.503572 cumulative IPC: 0.335052 (Simulation time: 0 hr 5 min 51 sec) 
Heartbeat CPU 0 instructions: 135000003 cycles: 386380491 heartbeat IPC: 0.886643 cumulative IPC: 0.336728 (Simulation time: 0 hr 5 min 53 sec) 
Heartbeat CPU 0 instructions: 136000000 cycles: 388522061 heartbeat IPC: 0.466946 cumulative IPC: 0.337475 (Simulation time: 0 hr 5 min 55 sec) 
Heartbeat CPU 0 instructions: 137000001 cycles: 389832373 heartbeat IPC: 0.763178 cumulative IPC: 0.338963 (Simulation time: 0 hr 5 min 57 sec) 
Heartbeat CPU 0 instructions: 138000003 cycles: 392098440 heartbeat IPC: 0.441294 cumulative IPC: 0.339579 (Simulation time: 0 hr 5 min 59 sec) 
Heartbeat CPU 0 instructions: 139000000 cycles: 402194513 heartbeat IPC: 0.0990481 cumulative IPC: 0.333304 (Simulation time: 0 hr 6 min 4 sec) 
Heartbeat CPU 0 instructions: 140000000 cycles: 413105703 heartbeat IPC: 0.091649 cumulative IPC: 0.326678 (Simulation time: 0 hr 6 min 9 sec) 
Heartbeat CPU 0 instructions: 141000000 cycles: 423900892 heartbeat IPC: 0.0926339 cumulative IPC: 0.320497 (Simulation time: 0 hr 6 min 13 sec) 
Heartbeat CPU 0 instructions: 142000003 cycles: 434461339 heartbeat IPC: 0.0946932 cumulative IPC: 0.31481 (Simulation time: 0 hr 6 min 18 sec) 
Heartbeat CPU 0 instructions: 143000000 cycles: 443847839 heartbeat IPC: 0.106536 cumulative IPC: 0.31025 (Simulation time: 0 hr 6 min 22 sec) 
Heartbeat CPU 0 instructions: 144000002 cycles: 450845871 heartbeat IPC: 0.142898 cumulative IPC: 0.307562 (Simulation time: 0 hr 6 min 27 sec) 
Heartbeat CPU 0 instructions: 145000001 cycles: 456832460 heartbeat IPC: 0.16704 cumulative IPC: 0.305657 (Simulation time: 0 hr 6 min 32 sec) 
Heartbeat CPU 0 instructions: 146000003 cycles: 463731282 heartbeat IPC: 0.144953 cumulative IPC: 0.303185 (Simulation time: 0 hr 6 min 37 sec) 
Heartbeat CPU 0 instructions: 147000001 cycles: 465188382 heartbeat IPC: 0.686293 cumulative IPC: 0.304426 (Simulation time: 0 hr 6 min 39 sec) 
Heartbeat CPU 0 instructions: 148000000 cycles: 466618987 heartbeat IPC: 0.699004 cumulative IPC: 0.305676 (Simulation time: 0 hr 6 min 41 sec) 
Heartbeat CPU 0 instructions: 149000000 cycles: 468103174 heartbeat IPC: 0.67377 cumulative IPC: 0.306882 (Simulation time: 0 hr 6 min 43 sec) 
Heartbeat CPU 0 instructions: 150000003 cycles: 469557410 heartbeat IPC: 0.687648 cumulative IPC: 0.308101 (Simulation time: 0 hr 6 min 45 sec) 
Heartbeat CPU 0 instructions: 151000000 cycles: 470584268 heartbeat IPC: 0.973842 cumulative IPC: 0.309602 (Simulation time: 0 hr 6 min 47 sec) 
Heartbeat CPU 0 instructions: 152000003 cycles: 477270785 heartbeat IPC: 0.149555 cumulative IPC: 0.307286 (Simulation time: 0 hr 6 min 52 sec) 
Heartbeat CPU 0 instructions: 153000003 cycles: 480308058 heartbeat IPC: 0.329243 cumulative IPC: 0.307429 (Simulation time: 0 hr 6 min 55 sec) 
Heartbeat CPU 0 instructions: 154000000 cycles: 481300811 heartbeat IPC: 1.0073 cumulative IPC: 0.30892 (Simulation time: 0 hr 6 min 57 sec) 
Heartbeat CPU 0 instructions: 155000000 cycles: 483834920 heartbeat IPC: 0.394616 cumulative IPC: 0.309383 (Simulation time: 0 hr 6 min 59 sec) 
Heartbeat CPU 0 instructions: 156000001 cycles: 484869624 heartbeat IPC: 0.966461 cumulative IPC: 0.310831 (Simulation time: 0 hr 7 min 1 sec) 
Heartbeat CPU 0 instructions: 157000001 cycles: 486150891 heartbeat IPC: 0.780477 cumulative IPC: 0.312108 (Simulation time: 0 hr 7 min 4 sec) 
Heartbeat CPU 0 instructions: 158000000 cycles: 487110040 heartbeat IPC: 1.04259 cumulative IPC: 0.313593 (Simulation time: 0 hr 7 min 6 sec) 
Heartbeat CPU 0 instructions: 159000003 cycles: 491152067 heartbeat IPC: 0.247401 cumulative IPC: 0.313031 (Simulation time: 0 hr 7 min 9 sec) 
Heartbeat CPU 0 instructions: 160000000 cycles: 492307823 heartbeat IPC: 0.865232 cumulative IPC: 0.314368 (Simulation time: 0 hr 7 min 11 sec) 
Heartbeat CPU 0 instructions: 161000000 cycles: 493334323 heartbeat IPC: 0.974184 cumulative IPC: 0.315785 (Simulation time: 0 hr 7 min 13 sec) 
Heartbeat CPU 0 instructions: 162000001 cycles: 495052751 heartbeat IPC: 0.581928 cumulative IPC: 0.316738 (Simulation time: 0 hr 7 min 15 sec) 
Heartbeat CPU 0 instructions: 163000000 cycles: 496053161 heartbeat IPC: 0.999589 cumulative IPC: 0.318158 (Simulation time: 0 hr 7 min 17 sec) 
Heartbeat CPU 0 instructions: 164000003 cycles: 497058818 heartbeat IPC: 0.994378 cumulative IPC: 0.31957 (Simulation time: 0 hr 7 min 19 sec) 
Heartbeat CPU 0 instructions: 165000000 cycles: 498168132 heartbeat IPC: 0.901455 cumulative IPC: 0.320906 (Simulation time: 0 hr 7 min 22 sec) 
Heartbeat CPU 0 instructions: 166000000 cycles: 501913611 heartbeat IPC: 0.266989 cumulative IPC: 0.320491 (Simulation time: 0 hr 7 min 25 sec) 
Heartbeat CPU 0 instructions: 167000001 cycles: 502833255 heartbeat IPC: 1.08738 cumulative IPC: 0.321937 (Simulation time: 0 hr 7 min 27 sec) 
Heartbeat CPU 0 instructions: 168000002 cycles: 504838181 heartbeat IPC: 0.498772 cumulative IPC: 0.322661 (Simulation time: 0 hr 7 min 30 sec) 
Heartbeat CPU 0 instructions: 169000003 cycles: 505699180 heartbeat IPC: 1.16144 cumulative IPC: 0.324134 (Simulation time: 0 hr 7 min 32 sec) 
Heartbeat CPU 0 instructions: 170000003 cycles: 507129075 heartbeat IPC: 0.699352 cumulative IPC: 0.325224 (Simulation time: 0 hr 7 min 34 sec) 
Heartbeat CPU 0 instructions: 171000000 cycles: 508060113 heartbeat IPC: 1.07407 cumulative IPC: 0.326639 (Simulation time: 0 hr 7 min 36 sec) 
Heartbeat CPU 0 instructions: 172000001 cycles: 509392706 heartbeat IPC: 0.750417 cumulative IPC: 0.327781 (Simulation time: 0 hr 7 min 39 sec) 
Heartbeat CPU 0 instructions: 173000000 cycles: 519450226 heartbeat IPC: 0.099428 cumulative IPC: 0.323227 (Simulation time: 0 hr 7 min 44 sec) 
Heartbeat CPU 0 instructions: 174000001 cycles: 529240855 heartbeat IPC: 0.102139 cumulative IPC: 0.319016 (Simulation time: 0 hr 7 min 48 sec) 
Heartbeat CPU 0 instructions: 175000003 cycles: 538951910 heartbeat IPC: 0.102976 cumulative IPC: 0.315011 (Simulation time: 0 hr 7 min 53 sec) 
Heartbeat CPU 0 instructions: 176000000 cycles: 546953168 heartbeat IPC: 0.12498 cumulative IPC: 0.312152 (Simulation time: 0 hr 7 min 58 sec) 
Heartbeat CPU 0 instructions: 177000000 cycles: 552891633 heartbeat IPC: 0.168394 cumulative IPC: 0.310564 (Simulation time: 0 hr 8 min 3 sec) 
Heartbeat CPU 0 instructions: 178000000 cycles: 558770135 heartbeat IPC: 0.170111 cumulative IPC: 0.309045 (Simulation time: 0 hr 8 min 7 sec) 
Heartbeat CPU 0 instructions: 179000001 cycles: 563292339 heartbeat IPC: 0.221131 cumulative IPC: 0.30832 (Simulation time: 0 hr 8 min 11 sec) 
Heartbeat CPU 0 instructions: 180000000 cycles: 564688001 heartbeat IPC: 0.716505 cumulative IPC: 0.309357 (Simulation time: 0 hr 8 min 13 sec) 
Heartbeat CPU 0 instructions: 181000000 cycles: 565594090 heartbeat IPC: 1.10364 cumulative IPC: 0.310664 (Simulation time: 0 hr 8 min 15 sec) 
Heartbeat CPU 0 instructions: 182000000 cycles: 566626602 heartbeat IPC: 0.968512 cumulative IPC: 0.311896 (Simulation time: 0 hr 8 min 18 sec) 
Heartbeat CPU 0 instructions: 183000000 cycles: 570357782 heartbeat IPC: 0.268012 cumulative IPC: 0.311601 (Simulation time: 0 hr 8 min 21 sec) 
Heartbeat CPU 0 instructions: 184000002 cycles: 571270881 heartbeat IPC: 1.09517 cumulative IPC: 0.312888 (Simulation time: 0 hr 8 min 23 sec) 
Heartbeat CPU 0 instructions: 185000001 cycles: 572389727 heartbeat IPC: 0.893777 cumulative IPC: 0.314054 (Simulation time: 0 hr 8 min 25 sec) 
Heartbeat CPU 0 instructions: 186000001 cycles: 573856743 heartbeat IPC: 0.681656 cumulative IPC: 0.315019 (Simulation time: 0 hr 8 min 28 sec) 
Heartbeat CPU 0 instructions: 187000000 cycles: 574762422 heartbeat IPC: 1.10414 cumulative IPC: 0.316296 (Simulation time: 0 hr 8 min 30 sec) 
Heartbeat CPU 0 instructions: 188000000 cycles: 575741338 heartbeat IPC: 1.02154 cumulative IPC: 0.317528 (Simulation time: 0 hr 8 min 32 sec) 
Heartbeat CPU 0 instructions: 189000002 cycles: 579809858 heartbeat IPC: 0.24579 cumulative IPC: 0.317011 (Simulation time: 0 hr 8 min 36 sec) 
Heartbeat CPU 0 instructions: 190000000 cycles: 580680341 heartbeat IPC: 1.14879 cumulative IPC: 0.318291 (Simulation time: 0 hr 8 min 38 sec) 
Heartbeat CPU 0 instructions: 191000000 cycles: 584770550 heartbeat IPC: 0.244486 cumulative IPC: 0.317761 (Simulation time: 0 hr 8 min 42 sec) 
Heartbeat CPU 0 instructions: 192000000 cycles: 585837085 heartbeat IPC: 0.937616 cumulative IPC: 0.31892 (Simulation time: 0 hr 8 min 44 sec) 
Heartbeat CPU 0 instructions: 193000000 cycles: 586894784 heartbeat IPC: 0.945449 cumulative IPC: 0.320079 (Simulation time: 0 hr 8 min 46 sec) 
Heartbeat CPU 0 instructions: 194000000 cycles: 588312293 heartbeat IPC: 0.705463 cumulative IPC: 0.321032 (Simulation time: 0 hr 8 min 48 sec) 
Heartbeat CPU 0 instructions: 195000000 cycles: 589210739 heartbeat IPC: 1.11303 cumulative IPC: 0.322272 (Simulation time: 0 hr 8 min 51 sec) 
Heartbeat CPU 0 instructions: 196000003 cycles: 590540441 heartbeat IPC: 0.75205 cumulative IPC: 0.323265 (Simulation time: 0 hr 8 min 53 sec) 
Heartbeat CPU 0 instructions: 197000000 cycles: 591428150 heartbeat IPC: 1.12649 cumulative IPC: 0.324502 (Simulation time: 0 hr 8 min 55 sec) 
Heartbeat CPU 0 instructions: 198000000 cycles: 595325752 heartbeat IPC: 0.256568 cumulative IPC: 0.324046 (Simulation time: 0 hr 8 min 58 sec) 
Heartbeat CPU 0 instructions: 199000001 cycles: 596747025 heartbeat IPC: 0.703595 cumulative IPC: 0.324973 (Simulation time: 0 hr 9 min 0 sec) 
Heartbeat CPU 0 instructions: 200000000 cycles: 602328581 heartbeat IPC: 0.179161 cumulative IPC: 0.323587 (Simulation time: 0 hr 9 min 4 sec) 
Heartbeat CPU 0 instructions: 201000003 cycles: 611510429 heartbeat IPC: 0.108911 cumulative IPC: 0.320282 (Simulation time: 0 hr 9 min 8 sec) 
Heartbeat CPU 0 instructions: 202000001 cycles: 619889125 heartbeat IPC: 0.11935 cumulative IPC: 0.317498 (Simulation time: 0 hr 9 min 13 sec) 
Heartbeat CPU 0 instructions: 203000000 cycles: 626008249 heartbeat IPC: 0.163422 cumulative IPC: 0.315954 (Simulation time: 0 hr 9 min 18 sec) 
Heartbeat CPU 0 instructions: 204000001 cycles: 627541361 heartbeat IPC: 0.652269 cumulative IPC: 0.316796 (Simulation time: 0 hr 9 min 20 sec) 
Heartbeat CPU 0 instructions: 205000002 cycles: 628533298 heartbeat IPC: 1.00813 cumulative IPC: 0.317914 (Simulation time: 0 hr 9 min 22 sec) 
Heartbeat CPU 0 instructions: 206000000 cycles: 632845426 heartbeat IPC: 0.231904 cumulative IPC: 0.317314 (Simulation time: 0 hr 9 min 26 sec) 
Heartbeat CPU 0 instructions: 207000002 cycles: 633894352 heartbeat IPC: 0.953358 cumulative IPC: 0.318392 (Simulation time: 0 hr 9 min 28 sec) 
Heartbeat CPU 0 instructions: 208000000 cycles: 635751562 heartbeat IPC: 0.538441 cumulative IPC: 0.319051 (Simulation time: 0 hr 9 min 30 sec) 
Heartbeat CPU 0 instructions: 209000000 cycles: 637175262 heartbeat IPC: 0.702395 cumulative IPC: 0.319928 (Simulation time: 0 hr 9 min 32 sec) 
Heartbeat CPU 0 instructions: 210000002 cycles: 638425443 heartbeat IPC: 0.799886 cumulative IPC: 0.320891 (Simulation time: 0 hr 9 min 34 sec) 
Heartbeat CPU 0 instructions: 211000000 cycles: 640476932 heartbeat IPC: 0.48745 cumulative IPC: 0.321437 (Simulation time: 0 hr 9 min 36 sec) 
Heartbeat CPU 0 instructions: 212000000 cycles: 641546128 heartbeat IPC: 0.935282 cumulative IPC: 0.322485 (Simulation time: 0 hr 9 min 38 sec) 
Heartbeat CPU 0 instructions: 213000000 cycles: 648897126 heartbeat IPC: 0.136036 cumulative IPC: 0.320322 (Simulation time: 0 hr 9 min 42 sec) 
Heartbeat CPU 0 instructions: 214000000 cycles: 658622500 heartbeat IPC: 0.102824 cumulative IPC: 0.317035 (Simulation time: 0 hr 9 min 47 sec) 
Heartbeat CPU 0 instructions: 215000001 cycles: 666854584 heartbeat IPC: 0.121476 cumulative IPC: 0.314565 (Simulation time: 0 hr 9 min 52 sec) 
Heartbeat CPU 0 instructions: 216000002 cycles: 676339424 heartbeat IPC: 0.105432 cumulative IPC: 0.311565 (Simulation time: 0 hr 9 min 56 sec) 
Heartbeat CPU 0 instructions: 217000003 cycles: 679375881 heartbeat IPC: 0.329332 cumulative IPC: 0.311646 (Simulation time: 0 hr 9 min 59 sec) 
Heartbeat CPU 0 instructions: 218000000 cycles: 680980901 heartbeat IPC: 0.623043 cumulative IPC: 0.312397 (Simulation time: 0 hr 10 min 1 sec) 
Heartbeat CPU 0 instructions: 219000002 cycles: 688539507 heartbeat IPC: 0.1323 cumulative IPC: 0.310375 (Simulation time: 0 hr 10 min 5 sec) 
Heartbeat CPU 0 instructions: 220000000 cycles: 689619387 heartbeat IPC: 0.926027 cumulative IPC: 0.311361 (Simulation time: 0 hr 10 min 7 sec) 
Heartbeat CPU 0 instructions: 221000000 cycles: 691429153 heartbeat IPC: 0.552558 cumulative IPC: 0.312006 (Simulation time: 0 hr 10 min 9 sec) 
Heartbeat CPU 0 instructions: 222000000 cycles: 692802802 heartbeat IPC: 0.727988 cumulative IPC: 0.31285 (Simulation time: 0 hr 10 min 11 sec) 
Heartbeat CPU 0 instructions: 223000000 cycles: 694848711 heartbeat IPC: 0.48878 cumulative IPC: 0.313379 (Simulation time: 0 hr 10 min 14 sec) 
Heartbeat CPU 0 instructions: 224000001 cycles: 696036115 heartbeat IPC: 0.842174 cumulative IPC: 0.314301 (Simulation time: 0 hr 10 min 16 sec) 
Heartbeat CPU 0 instructions: 225000002 cycles: 699729654 heartbeat IPC: 0.270743 cumulative IPC: 0.314066 (Simulation time: 0 hr 10 min 19 sec) 
Heartbeat CPU 0 instructions: 226000001 cycles: 707706625 heartbeat IPC: 0.125361 cumulative IPC: 0.311893 (Simulation time: 0 hr 10 min 23 sec) 
Heartbeat CPU 0 instructions: 227000002 cycles: 709169736 heartbeat IPC: 0.683476 cumulative IPC: 0.312676 (Simulation time: 0 hr 10 min 26 sec) 
Heartbeat CPU 0 instructions: 228000003 cycles: 710510531 heartbeat IPC: 0.745827 cumulative IPC: 0.313511 (Simulation time: 0 hr 10 min 28 sec) 
Heartbeat CPU 0 instructions: 229000003 cycles: 712680563 heartbeat IPC: 0.460823 cumulative IPC: 0.31397 (Simulation time: 0 hr 10 min 30 sec) 
Heartbeat CPU 0 instructions: 230000000 cycles: 713997555 heartbeat IPC: 0.759304 cumulative IPC: 0.314809 (Simulation time: 0 hr 10 min 32 sec) 
Heartbeat CPU 0 instructions: 231000000 cycles: 717823503 heartbeat IPC: 0.261373 cumulative IPC: 0.314518 (Simulation time: 0 hr 10 min 36 sec) 
Heartbeat CPU 0 instructions: 232000003 cycles: 722612400 heartbeat IPC: 0.208817 cumulative IPC: 0.313802 (Simulation time: 0 hr 10 min 39 sec) 
Heartbeat CPU 0 instructions: 233000001 cycles: 724052762 heartbeat IPC: 0.694269 cumulative IPC: 0.314575 (Simulation time: 0 hr 10 min 41 sec) 
Heartbeat CPU 0 instructions: 234000001 cycles: 725155796 heartbeat IPC: 0.90659 cumulative IPC: 0.315495 (Simulation time: 0 hr 10 min 43 sec) 
Heartbeat CPU 0 instructions: 235000000 cycles: 726839417 heartbeat IPC: 0.593957 cumulative IPC: 0.316154 (Simulation time: 0 hr 10 min 46 sec) 
Heartbeat CPU 0 instructions: 236000003 cycles: 729409540 heartbeat IPC: 0.389088 cumulative IPC: 0.316416 (Simulation time: 0 hr 10 min 48 sec) 
Heartbeat CPU 0 instructions: 237000000 cycles: 730706259 heartbeat IPC: 0.771175 cumulative IPC: 0.31724 (Simulation time: 0 hr 10 min 50 sec) 
Heartbeat CPU 0 instructions: 238000000 cycles: 732110986 heartbeat IPC: 0.711882 cumulative IPC: 0.318014 (Simulation time: 0 hr 10 min 53 sec) 
Heartbeat CPU 0 instructions: 239000000 cycles: 733579801 heartbeat IPC: 0.680821 cumulative IPC: 0.318755 (Simulation time: 0 hr 10 min 55 sec) 
Heartbeat CPU 0 instructions: 240000001 cycles: 740464874 heartbeat IPC: 0.145242 cumulative IPC: 0.317108 (Simulation time: 0 hr 11 min 0 sec) 
Heartbeat CPU 0 instructions: 241000001 cycles: 744227045 heartbeat IPC: 0.265804 cumulative IPC: 0.316844 (Simulation time: 0 hr 11 min 3 sec) 
Heartbeat CPU 0 instructions: 242000000 cycles: 745786692 heartbeat IPC: 0.64117 cumulative IPC: 0.317536 (Simulation time: 0 hr 11 min 6 sec) 
Heartbeat CPU 0 instructions: 243000000 cycles: 746914317 heartbeat IPC: 0.88682 cumulative IPC: 0.318413 (Simulation time: 0 hr 11 min 8 sec) 
Heartbeat CPU 0 instructions: 244000001 cycles: 747827860 heartbeat IPC: 1.09464 cumulative IPC: 0.319381 (Simulation time: 0 hr 11 min 10 sec) 
Heartbeat CPU 0 instructions: 245000000 cycles: 749951506 heartbeat IPC: 0.470888 cumulative IPC: 0.319819 (Simulation time: 0 hr 11 min 12 sec) 
Heartbeat CPU 0 instructions: 246000000 cycles: 751101469 heartbeat IPC: 0.869593 cumulative IPC: 0.320678 (Simulation time: 0 hr 11 min 15 sec) 
Heartbeat CPU 0 instructions: 247000000 cycles: 751997378 heartbeat IPC: 1.11618 cumulative IPC: 0.321645 (Simulation time: 0 hr 11 min 17 sec) 
Heartbeat CPU 0 instructions: 248000002 cycles: 753856976 heartbeat IPC: 0.537752 cumulative IPC: 0.322189 (Simulation time: 0 hr 11 min 19 sec) 
Heartbeat CPU 0 instructions: 249000001 cycles: 755372696 heartbeat IPC: 0.659752 cumulative IPC: 0.32288 (Simulation time: 0 hr 11 min 22 sec) 
Heartbeat CPU 0 instructions: 250000003 cycles: 756955213 heartbeat IPC: 0.631906 cumulative IPC: 0.32354 (Simulation time: 0 hr 11 min 24 sec) 
Heartbeat CPU 0 instructions: 251000001 cycles: 757963856 heartbeat IPC: 0.991429 cumulative IPC: 0.324447 (Simulation time: 0 hr 11 min 26 sec) 
Heartbeat CPU 0 instructions: 252000000 cycles: 758867750 heartbeat IPC: 1.10632 cumulative IPC: 0.325397 (Simulation time: 0 hr 11 min 28 sec) 
Heartbeat CPU 0 instructions: 253000000 cycles: 767068849 heartbeat IPC: 0.121935 cumulative IPC: 0.323178 (Simulation time: 0 hr 11 min 33 sec) 
Heartbeat CPU 0 instructions: 254000001 cycles: 776590097 heartbeat IPC: 0.105028 cumulative IPC: 0.32045 (Simulation time: 0 hr 11 min 38 sec) 
Heartbeat CPU 0 instructions: 255000001 cycles: 786771772 heartbeat IPC: 0.0982157 cumulative IPC: 0.317517 (Simulation time: 0 hr 11 min 43 sec) 
Heartbeat CPU 0 instructions: 256000000 cycles: 796608570 heartbeat IPC: 0.101659 cumulative IPC: 0.3148 (Simulation time: 0 hr 11 min 48 sec) 
Heartbeat CPU 0 instructions: 257000001 cycles: 806235514 heartbeat IPC: 0.103875 cumulative IPC: 0.312233 (Simulation time: 0 hr 11 min 52 sec) 
Heartbeat CPU 0 instructions: 258000000 cycles: 815869784 heartbeat IPC: 0.103796 cumulative IPC: 0.309725 (Simulation time: 0 hr 11 min 57 sec) 
Heartbeat CPU 0 instructions: 259000002 cycles: 825474856 heartbeat IPC: 0.104112 cumulative IPC: 0.307288 (Simulation time: 0 hr 12 min 2 sec) 
Heartbeat CPU 0 instructions: 260000001 cycles: 835036480 heartbeat IPC: 0.104585 cumulative IPC: 0.304924 (Simulation time: 0 hr 12 min 7 sec) 
Finished CPU 0 instructions: 250000000 cycles: 819875776 cumulative IPC: 0.304924 (Simulation time: 0 hr 12 min 7 sec) 

ChampSim completed all CPUs

Region of Interest Statistics

CPU 0 cumulative IPC: 0.304924 instructions: 250000000 cycles: 819875776
L1D TOTAL     ACCESS:   95873647  HIT:   87333413  MISS:    8540234
L1D LOAD      ACCESS:   70713711  HIT:   62229088  MISS:    8484623
L1D RFO       ACCESS:   25159936  HIT:   25104325  MISS:      55611
L1D PREFETCH  ACCESS:          0  HIT:          0  MISS:          0
L1D WRITEBACK ACCESS:          0  HIT:          0  MISS:          0
L1D PREFETCH  REQUESTED:          0  ISSUED:          0  USEFUL:          0  USELESS:          0
L1D AVERAGE MISS LATENCY: 134.238 cycles
L1I TOTAL     ACCESS:   46096056  HIT:   46096056  MISS:          0
L1I LOAD      ACCESS:   46096056  HIT:   46096056  MISS:          0
L1I RFO       ACCESS:          0  HIT:          0  MISS:          0
L1I PREFETCH  ACCESS:          0  HIT:          0  MISS:          0
L1I WRITEBACK ACCESS:          0  HIT:          0  MISS:          0
L1I PREFETCH  REQUESTED:          0  ISSUED:          0  USEFUL:          0  USELESS:          0
L1I AVERAGE MISS LATENCY: -nan cycles
L2C TOTAL     ACCESS:    9135463  HIT:    3556537  MISS:    5578926
L2C LOAD      ACCESS:    8484592  HIT:    2915236  MISS:    5569356
L2C RFO       ACCESS:      55610  HIT:      46785  MISS:       8825
L2C PREFETCH  ACCESS:          0  HIT:          0  MISS:          0
L2C WRITEBACK ACCESS:     595261  HIT:     594516  MISS:        745
L2C PREFETCH  REQUESTED:          0  ISSUED:          0  USEFUL:          0  USELESS:          0
L2C AVERAGE MISS LATENCY: 169.535 cycles
LLC TOTAL     ACCESS:    9851181  HIT:    4752335  MISS:    5098846
LLC LOAD      ACCESS:    5569355  HIT:    2150210  MISS:    3419145
LLC RFO       ACCESS:       8825  HIT:       5283  MISS:       3542
LLC PREFETCH  ACCESS:    3894745  HIT:    2219075  MISS:    1675670
LLC WRITEBACK ACCESS:     378256  HIT:     377767  MISS:        489
LLC PREFETCH  REQUESTED:    4774826  ISSUED:    4427824  USEFUL:     702972  USELESS:     972006
LLC AVERAGE MISS LATENCY: 220.611 cycles
Major fault: 0 Minor fault: 200530
performance stats:
mapping cache size: 1296784
divergence: 3805542

DRAM Statistics
 CHANNEL 0
 RQ ROW_BUFFER_HIT:     701245  ROW_BUFFER_MISS:    1851974
 DBUS_CONGESTED:    1307402
 WQ ROW_BUFFER_HIT:      65927  ROW_BUFFER_MISS:      76775  FULL:          0

 CHANNEL 1
 RQ ROW_BUFFER_HIT:     696387  ROW_BUFFER_MISS:    1848726
 DBUS_CONGESTED:    1307402
 WQ ROW_BUFFER_HIT:      65456  ROW_BUFFER_MISS:      77331  FULL:          0

 AVG_CONGESTED_CYCLE: 13

CPU 0 Branch Prediction Accuracy: 94.6445% MPKI: 13.3825 Average ROB Occupancy at Mispredict: 38.2113

Branch types
NOT_BRANCH: 187528989 75.0116%
BRANCH_DIRECT_JUMP: 5682584 2.27303%
BRANCH_INDIRECT: 0 0%
BRANCH_CONDITIONAL: 40955361 16.3821%
BRANCH_DIRECT_CALL: 7664966 3.06599%
BRANCH_INDIRECT_CALL: 251554 0.100622%
BRANCH_RETURN: 7916526 3.16661%
BRANCH_OTHER: 0 0%

