
*** ChampSim Multicore Out-of-Order Simulator ***

Warmup Instructions: 1000000
Prefetch Warmup Instructions: 10000000
Simulation Instructions: 250000000
Stat Printing Period: 1000000
Number of CPUs: 1
LLC sets: 2048
LLC ways: 16
Off-chip DRAM Size: 32768 MB Channels: 2 Width: 64-bit Data Rate: 1024 MT/s

CPU 0 runs /scratch/cluster/cmolder/ML-DPC/ChampSimTraces/spec17/605.mcf-s4.trace.xz
Read seed: 223
Heartbeat CPU 0 instructions: 1000002 cycles: 415473 heartbeat IPC: 2.4069 cumulative IPC: 2.4069 (Simulation time: 0 hr 0 min 3 sec) 

Warmup complete CPU 0 instructions: 1000002 cycles: 415473 (Simulation time: 0 hr 0 min 3 sec) 

Heartbeat CPU 0 instructions: 2000000 cycles: 4209893 heartbeat IPC: 0.263544 cumulative IPC: 0.263544 (Simulation time: 0 hr 0 min 9 sec) 
Heartbeat CPU 0 instructions: 3000000 cycles: 6109865 heartbeat IPC: 0.526324 cumulative IPC: 0.351222 (Simulation time: 0 hr 0 min 13 sec) 
Heartbeat CPU 0 instructions: 4000000 cycles: 8521478 heartbeat IPC: 0.41466 cumulative IPC: 0.370096 (Simulation time: 0 hr 0 min 17 sec) 
Heartbeat CPU 0 instructions: 5000000 cycles: 12370585 heartbeat IPC: 0.259801 cumulative IPC: 0.334585 (Simulation time: 0 hr 0 min 23 sec) 
Heartbeat CPU 0 instructions: 6000001 cycles: 14141270 heartbeat IPC: 0.564754 cumulative IPC: 0.364278 (Simulation time: 0 hr 0 min 26 sec) 
Heartbeat CPU 0 instructions: 7000002 cycles: 17180131 heartbeat IPC: 0.329071 cumulative IPC: 0.357896 (Simulation time: 0 hr 0 min 31 sec) 
Heartbeat CPU 0 instructions: 8000000 cycles: 19783201 heartbeat IPC: 0.384161 cumulative IPC: 0.361426 (Simulation time: 0 hr 0 min 36 sec) 
Heartbeat CPU 0 instructions: 9000001 cycles: 22034946 heartbeat IPC: 0.4441 cumulative IPC: 0.370037 (Simulation time: 0 hr 0 min 39 sec) 
Heartbeat CPU 0 instructions: 10000001 cycles: 25324400 heartbeat IPC: 0.304002 cumulative IPC: 0.361316 (Simulation time: 0 hr 0 min 44 sec) 

Warmup complete CPU 0 instructions: 10000001 cycles: 25324400 (Simulation time: 0 hr 0 min 44 sec) 

Heartbeat CPU 0 instructions: 11000000 cycles: 27385630 heartbeat IPC: 0.485147 cumulative IPC: 0.485147 (Simulation time: 0 hr 0 min 48 sec) 
Heartbeat CPU 0 instructions: 12000002 cycles: 33339416 heartbeat IPC: 0.167961 cumulative IPC: 0.249532 (Simulation time: 0 hr 0 min 55 sec) 
Heartbeat CPU 0 instructions: 13000001 cycles: 35310745 heartbeat IPC: 0.507271 cumulative IPC: 0.30041 (Simulation time: 0 hr 0 min 59 sec) 
Heartbeat CPU 0 instructions: 14000002 cycles: 39454471 heartbeat IPC: 0.241329 cumulative IPC: 0.283084 (Simulation time: 0 hr 1 min 4 sec) 
Heartbeat CPU 0 instructions: 15000000 cycles: 43807283 heartbeat IPC: 0.229736 cumulative IPC: 0.270521 (Simulation time: 0 hr 1 min 10 sec) 
Heartbeat CPU 0 instructions: 16000000 cycles: 45838792 heartbeat IPC: 0.492245 cumulative IPC: 0.292478 (Simulation time: 0 hr 1 min 14 sec) 
Heartbeat CPU 0 instructions: 17000001 cycles: 50873925 heartbeat IPC: 0.198605 cumulative IPC: 0.273978 (Simulation time: 0 hr 1 min 20 sec) 
Heartbeat CPU 0 instructions: 18000003 cycles: 57307696 heartbeat IPC: 0.15543 cumulative IPC: 0.250131 (Simulation time: 0 hr 1 min 27 sec) 
Heartbeat CPU 0 instructions: 19000000 cycles: 63061104 heartbeat IPC: 0.173809 cumulative IPC: 0.238495 (Simulation time: 0 hr 1 min 34 sec) 
Heartbeat CPU 0 instructions: 20000000 cycles: 64840954 heartbeat IPC: 0.561845 cumulative IPC: 0.253058 (Simulation time: 0 hr 1 min 38 sec) 
Heartbeat CPU 0 instructions: 21000000 cycles: 66993815 heartbeat IPC: 0.464498 cumulative IPC: 0.263983 (Simulation time: 0 hr 1 min 42 sec) 
Heartbeat CPU 0 instructions: 22000000 cycles: 71775587 heartbeat IPC: 0.209128 cumulative IPC: 0.258336 (Simulation time: 0 hr 1 min 49 sec) 
Heartbeat CPU 0 instructions: 23000000 cycles: 77953527 heartbeat IPC: 0.161866 cumulative IPC: 0.247011 (Simulation time: 0 hr 1 min 56 sec) 
Heartbeat CPU 0 instructions: 24000002 cycles: 84063259 heartbeat IPC: 0.163674 cumulative IPC: 0.238343 (Simulation time: 0 hr 2 min 3 sec) 
Heartbeat CPU 0 instructions: 25000000 cycles: 90259281 heartbeat IPC: 0.161394 cumulative IPC: 0.231001 (Simulation time: 0 hr 2 min 11 sec) 
Heartbeat CPU 0 instructions: 26000000 cycles: 96370124 heartbeat IPC: 0.163644 cumulative IPC: 0.225207 (Simulation time: 0 hr 2 min 18 sec) 
Heartbeat CPU 0 instructions: 27000000 cycles: 102454458 heartbeat IPC: 0.164357 cumulative IPC: 0.220407 (Simulation time: 0 hr 2 min 25 sec) 
Heartbeat CPU 0 instructions: 28000001 cycles: 104598229 heartbeat IPC: 0.466468 cumulative IPC: 0.227061 (Simulation time: 0 hr 2 min 30 sec) 
Heartbeat CPU 0 instructions: 29000001 cycles: 106310708 heartbeat IPC: 0.583949 cumulative IPC: 0.234608 (Simulation time: 0 hr 2 min 34 sec) 
Heartbeat CPU 0 instructions: 30000002 cycles: 109565939 heartbeat IPC: 0.307198 cumulative IPC: 0.237413 (Simulation time: 0 hr 2 min 39 sec) 
Heartbeat CPU 0 instructions: 31000003 cycles: 111921715 heartbeat IPC: 0.424489 cumulative IPC: 0.242502 (Simulation time: 0 hr 2 min 43 sec) 
Heartbeat CPU 0 instructions: 32000000 cycles: 113711327 heartbeat IPC: 0.558779 cumulative IPC: 0.248906 (Simulation time: 0 hr 2 min 47 sec) 
Heartbeat CPU 0 instructions: 33000000 cycles: 117777283 heartbeat IPC: 0.245945 cumulative IPC: 0.248775 (Simulation time: 0 hr 2 min 52 sec) 
Heartbeat CPU 0 instructions: 34000000 cycles: 119963692 heartbeat IPC: 0.457371 cumulative IPC: 0.253594 (Simulation time: 0 hr 2 min 56 sec) 
Heartbeat CPU 0 instructions: 35000001 cycles: 122005771 heartbeat IPC: 0.489698 cumulative IPC: 0.258581 (Simulation time: 0 hr 3 min 0 sec) 
Heartbeat CPU 0 instructions: 36000000 cycles: 125866439 heartbeat IPC: 0.259022 cumulative IPC: 0.258598 (Simulation time: 0 hr 3 min 6 sec) 
Heartbeat CPU 0 instructions: 37000001 cycles: 127467889 heartbeat IPC: 0.624435 cumulative IPC: 0.264334 (Simulation time: 0 hr 3 min 10 sec) 
Heartbeat CPU 0 instructions: 38000000 cycles: 130524274 heartbeat IPC: 0.327184 cumulative IPC: 0.26616 (Simulation time: 0 hr 3 min 14 sec) 
Heartbeat CPU 0 instructions: 39000000 cycles: 134983311 heartbeat IPC: 0.224264 cumulative IPC: 0.264456 (Simulation time: 0 hr 3 min 20 sec) 
Heartbeat CPU 0 instructions: 40000000 cycles: 136987896 heartbeat IPC: 0.498856 cumulative IPC: 0.268664 (Simulation time: 0 hr 3 min 24 sec) 
Heartbeat CPU 0 instructions: 41000001 cycles: 139236450 heartbeat IPC: 0.444731 cumulative IPC: 0.27214 (Simulation time: 0 hr 3 min 28 sec) 
Heartbeat CPU 0 instructions: 42000003 cycles: 143163622 heartbeat IPC: 0.254637 cumulative IPC: 0.271556 (Simulation time: 0 hr 3 min 34 sec) 
Heartbeat CPU 0 instructions: 43000000 cycles: 144806618 heartbeat IPC: 0.608642 cumulative IPC: 0.276192 (Simulation time: 0 hr 3 min 38 sec) 
Heartbeat CPU 0 instructions: 44000000 cycles: 148453160 heartbeat IPC: 0.274232 cumulative IPC: 0.276134 (Simulation time: 0 hr 3 min 43 sec) 
Heartbeat CPU 0 instructions: 45000002 cycles: 149976833 heartbeat IPC: 0.65631 cumulative IPC: 0.280781 (Simulation time: 0 hr 3 min 46 sec) 
Heartbeat CPU 0 instructions: 46000002 cycles: 153397083 heartbeat IPC: 0.292376 cumulative IPC: 0.28109 (Simulation time: 0 hr 3 min 51 sec) 
Heartbeat CPU 0 instructions: 47000000 cycles: 155860379 heartbeat IPC: 0.405959 cumulative IPC: 0.283447 (Simulation time: 0 hr 3 min 56 sec) 
Heartbeat CPU 0 instructions: 48000003 cycles: 157374841 heartbeat IPC: 0.660302 cumulative IPC: 0.287769 (Simulation time: 0 hr 3 min 59 sec) 
Heartbeat CPU 0 instructions: 49000001 cycles: 161191114 heartbeat IPC: 0.262035 cumulative IPC: 0.287046 (Simulation time: 0 hr 4 min 5 sec) 
Heartbeat CPU 0 instructions: 50000001 cycles: 167109851 heartbeat IPC: 0.168955 cumulative IPC: 0.282116 (Simulation time: 0 hr 4 min 12 sec) 
Heartbeat CPU 0 instructions: 51000002 cycles: 168937142 heartbeat IPC: 0.547259 cumulative IPC: 0.28549 (Simulation time: 0 hr 4 min 16 sec) 
Heartbeat CPU 0 instructions: 52000000 cycles: 170440462 heartbeat IPC: 0.665193 cumulative IPC: 0.289423 (Simulation time: 0 hr 4 min 20 sec) 
Heartbeat CPU 0 instructions: 53000000 cycles: 174050322 heartbeat IPC: 0.277019 cumulative IPC: 0.289122 (Simulation time: 0 hr 4 min 25 sec) 
Heartbeat CPU 0 instructions: 54000000 cycles: 175697464 heartbeat IPC: 0.607112 cumulative IPC: 0.292606 (Simulation time: 0 hr 4 min 29 sec) 
Heartbeat CPU 0 instructions: 55000000 cycles: 177235777 heartbeat IPC: 0.650063 cumulative IPC: 0.296225 (Simulation time: 0 hr 4 min 32 sec) 
Heartbeat CPU 0 instructions: 56000000 cycles: 182500066 heartbeat IPC: 0.189959 cumulative IPC: 0.292666 (Simulation time: 0 hr 4 min 39 sec) 
Heartbeat CPU 0 instructions: 57000003 cycles: 186989030 heartbeat IPC: 0.222769 cumulative IPC: 0.290725 (Simulation time: 0 hr 4 min 45 sec) 
Heartbeat CPU 0 instructions: 58000000 cycles: 188613005 heartbeat IPC: 0.615771 cumulative IPC: 0.293958 (Simulation time: 0 hr 4 min 49 sec) 
Heartbeat CPU 0 instructions: 59000000 cycles: 192718791 heartbeat IPC: 0.243559 cumulative IPC: 0.292722 (Simulation time: 0 hr 4 min 54 sec) 
Heartbeat CPU 0 instructions: 60000001 cycles: 196992322 heartbeat IPC: 0.233999 cumulative IPC: 0.29126 (Simulation time: 0 hr 5 min 0 sec) 
Heartbeat CPU 0 instructions: 61000002 cycles: 198737218 heartbeat IPC: 0.573101 cumulative IPC: 0.294096 (Simulation time: 0 hr 5 min 4 sec) 
Heartbeat CPU 0 instructions: 62000000 cycles: 202610580 heartbeat IPC: 0.258173 cumulative IPC: 0.293311 (Simulation time: 0 hr 5 min 9 sec) 
Heartbeat CPU 0 instructions: 63000003 cycles: 204484441 heartbeat IPC: 0.533659 cumulative IPC: 0.295825 (Simulation time: 0 hr 5 min 13 sec) 
Heartbeat CPU 0 instructions: 64000001 cycles: 208349954 heartbeat IPC: 0.258697 cumulative IPC: 0.295041 (Simulation time: 0 hr 5 min 18 sec) 
Heartbeat CPU 0 instructions: 65000001 cycles: 210311698 heartbeat IPC: 0.50975 cumulative IPC: 0.297318 (Simulation time: 0 hr 5 min 22 sec) 
Heartbeat CPU 0 instructions: 66000000 cycles: 214053842 heartbeat IPC: 0.267226 cumulative IPC: 0.296721 (Simulation time: 0 hr 5 min 27 sec) 
Heartbeat CPU 0 instructions: 67000000 cycles: 215744402 heartbeat IPC: 0.59152 cumulative IPC: 0.299338 (Simulation time: 0 hr 5 min 31 sec) 
Heartbeat CPU 0 instructions: 68000000 cycles: 220547710 heartbeat IPC: 0.20819 cumulative IPC: 0.297096 (Simulation time: 0 hr 5 min 37 sec) 
Heartbeat CPU 0 instructions: 69000000 cycles: 223337639 heartbeat IPC: 0.358432 cumulative IPC: 0.29796 (Simulation time: 0 hr 5 min 41 sec) 
Heartbeat CPU 0 instructions: 70000002 cycles: 224979422 heartbeat IPC: 0.609095 cumulative IPC: 0.300518 (Simulation time: 0 hr 5 min 45 sec) 
Heartbeat CPU 0 instructions: 71000000 cycles: 228097549 heartbeat IPC: 0.320705 cumulative IPC: 0.300829 (Simulation time: 0 hr 5 min 50 sec) 
Heartbeat CPU 0 instructions: 72000000 cycles: 230739612 heartbeat IPC: 0.378492 cumulative IPC: 0.301828 (Simulation time: 0 hr 5 min 55 sec) 
Heartbeat CPU 0 instructions: 73000000 cycles: 233798654 heartbeat IPC: 0.3269 cumulative IPC: 0.302196 (Simulation time: 0 hr 5 min 59 sec) 
Heartbeat CPU 0 instructions: 74000002 cycles: 239908731 heartbeat IPC: 0.163664 cumulative IPC: 0.298251 (Simulation time: 0 hr 6 min 6 sec) 
Heartbeat CPU 0 instructions: 75000001 cycles: 242973634 heartbeat IPC: 0.326274 cumulative IPC: 0.298646 (Simulation time: 0 hr 6 min 11 sec) 
Heartbeat CPU 0 instructions: 76000000 cycles: 246108858 heartbeat IPC: 0.318956 cumulative IPC: 0.298934 (Simulation time: 0 hr 6 min 16 sec) 
Heartbeat CPU 0 instructions: 77000000 cycles: 251329725 heartbeat IPC: 0.191539 cumulative IPC: 0.296453 (Simulation time: 0 hr 6 min 22 sec) 
Heartbeat CPU 0 instructions: 78000003 cycles: 253178785 heartbeat IPC: 0.540817 cumulative IPC: 0.298436 (Simulation time: 0 hr 6 min 26 sec) 
Heartbeat CPU 0 instructions: 79000003 cycles: 257516341 heartbeat IPC: 0.230545 cumulative IPC: 0.297168 (Simulation time: 0 hr 6 min 32 sec) 
Heartbeat CPU 0 instructions: 80000002 cycles: 263153315 heartbeat IPC: 0.1774 cumulative IPC: 0.294329 (Simulation time: 0 hr 6 min 38 sec) 
Heartbeat CPU 0 instructions: 81000000 cycles: 264668159 heartbeat IPC: 0.660133 cumulative IPC: 0.296644 (Simulation time: 0 hr 6 min 42 sec) 
Heartbeat CPU 0 instructions: 82000000 cycles: 266135435 heartbeat IPC: 0.681535 cumulative IPC: 0.29899 (Simulation time: 0 hr 6 min 46 sec) 
Heartbeat CPU 0 instructions: 83000001 cycles: 271281345 heartbeat IPC: 0.194329 cumulative IPC: 0.2968 (Simulation time: 0 hr 6 min 52 sec) 
Heartbeat CPU 0 instructions: 84000002 cycles: 273396703 heartbeat IPC: 0.472734 cumulative IPC: 0.2983 (Simulation time: 0 hr 6 min 56 sec) 
Heartbeat CPU 0 instructions: 85000000 cycles: 276285227 heartbeat IPC: 0.346197 cumulative IPC: 0.298851 (Simulation time: 0 hr 7 min 1 sec) 
Heartbeat CPU 0 instructions: 86000000 cycles: 278666415 heartbeat IPC: 0.419958 cumulative IPC: 0.29999 (Simulation time: 0 hr 7 min 5 sec) 
Heartbeat CPU 0 instructions: 87000000 cycles: 281285520 heartbeat IPC: 0.38181 cumulative IPC: 0.300827 (Simulation time: 0 hr 7 min 9 sec) 
Heartbeat CPU 0 instructions: 88000000 cycles: 286662245 heartbeat IPC: 0.185987 cumulative IPC: 0.298464 (Simulation time: 0 hr 7 min 16 sec) 
Heartbeat CPU 0 instructions: 89000000 cycles: 288456318 heartbeat IPC: 0.557391 cumulative IPC: 0.30023 (Simulation time: 0 hr 7 min 20 sec) 
Heartbeat CPU 0 instructions: 90000000 cycles: 290081882 heartbeat IPC: 0.615171 cumulative IPC: 0.302163 (Simulation time: 0 hr 7 min 24 sec) 
Heartbeat CPU 0 instructions: 91000000 cycles: 293543697 heartbeat IPC: 0.288866 cumulative IPC: 0.301992 (Simulation time: 0 hr 7 min 29 sec) 
Heartbeat CPU 0 instructions: 92000002 cycles: 295097812 heartbeat IPC: 0.643454 cumulative IPC: 0.303959 (Simulation time: 0 hr 7 min 33 sec) 
Heartbeat CPU 0 instructions: 93000000 cycles: 299976793 heartbeat IPC: 0.20496 cumulative IPC: 0.3022 (Simulation time: 0 hr 7 min 39 sec) 
Heartbeat CPU 0 instructions: 94000001 cycles: 305011907 heartbeat IPC: 0.198605 cumulative IPC: 0.300335 (Simulation time: 0 hr 7 min 46 sec) 
Heartbeat CPU 0 instructions: 95000001 cycles: 306755916 heartbeat IPC: 0.573392 cumulative IPC: 0.302027 (Simulation time: 0 hr 7 min 49 sec) 
Heartbeat CPU 0 instructions: 96000002 cycles: 311211165 heartbeat IPC: 0.224455 cumulative IPC: 0.300818 (Simulation time: 0 hr 7 min 55 sec) 
Heartbeat CPU 0 instructions: 97000000 cycles: 316843001 heartbeat IPC: 0.177562 cumulative IPC: 0.298437 (Simulation time: 0 hr 8 min 2 sec) 
Heartbeat CPU 0 instructions: 98000003 cycles: 318793625 heartbeat IPC: 0.512658 cumulative IPC: 0.299861 (Simulation time: 0 hr 8 min 6 sec) 
Heartbeat CPU 0 instructions: 99000000 cycles: 320693462 heartbeat IPC: 0.526359 cumulative IPC: 0.301318 (Simulation time: 0 hr 8 min 10 sec) 
Heartbeat CPU 0 instructions: 100000002 cycles: 324506246 heartbeat IPC: 0.262276 cumulative IPC: 0.30082 (Simulation time: 0 hr 8 min 16 sec) 
Heartbeat CPU 0 instructions: 101000003 cycles: 326788164 heartbeat IPC: 0.438228 cumulative IPC: 0.301861 (Simulation time: 0 hr 8 min 20 sec) 
Heartbeat CPU 0 instructions: 102000000 cycles: 328873520 heartbeat IPC: 0.479533 cumulative IPC: 0.303081 (Simulation time: 0 hr 8 min 24 sec) 
Heartbeat CPU 0 instructions: 103000000 cycles: 332770253 heartbeat IPC: 0.256625 cumulative IPC: 0.302492 (Simulation time: 0 hr 8 min 30 sec) 
Heartbeat CPU 0 instructions: 104000001 cycles: 334505056 heartbeat IPC: 0.576435 cumulative IPC: 0.304029 (Simulation time: 0 hr 8 min 33 sec) 
Heartbeat CPU 0 instructions: 105000000 cycles: 338187430 heartbeat IPC: 0.271564 cumulative IPC: 0.303647 (Simulation time: 0 hr 8 min 39 sec) 
Heartbeat CPU 0 instructions: 106000000 cycles: 339890431 heartbeat IPC: 0.587199 cumulative IPC: 0.305182 (Simulation time: 0 hr 8 min 43 sec) 
Heartbeat CPU 0 instructions: 107000003 cycles: 341390917 heartbeat IPC: 0.666453 cumulative IPC: 0.306897 (Simulation time: 0 hr 8 min 46 sec) 
Heartbeat CPU 0 instructions: 108000001 cycles: 345001635 heartbeat IPC: 0.276953 cumulative IPC: 0.306559 (Simulation time: 0 hr 8 min 52 sec) 
Heartbeat CPU 0 instructions: 109000003 cycles: 348959342 heartbeat IPC: 0.252672 cumulative IPC: 0.3059 (Simulation time: 0 hr 8 min 57 sec) 
Heartbeat CPU 0 instructions: 110000000 cycles: 351045850 heartbeat IPC: 0.479268 cumulative IPC: 0.307011 (Simulation time: 0 hr 9 min 1 sec) 
Heartbeat CPU 0 instructions: 111000001 cycles: 355787348 heartbeat IPC: 0.210904 cumulative IPC: 0.305632 (Simulation time: 0 hr 9 min 7 sec) 
Heartbeat CPU 0 instructions: 112000002 cycles: 358667796 heartbeat IPC: 0.347169 cumulative IPC: 0.305991 (Simulation time: 0 hr 9 min 12 sec) 
Heartbeat CPU 0 instructions: 113000002 cycles: 360385142 heartbeat IPC: 0.582294 cumulative IPC: 0.307407 (Simulation time: 0 hr 9 min 16 sec) 
Heartbeat CPU 0 instructions: 114000000 cycles: 363949940 heartbeat IPC: 0.28052 cumulative IPC: 0.307124 (Simulation time: 0 hr 9 min 21 sec) 
Heartbeat CPU 0 instructions: 115000001 cycles: 365641461 heartbeat IPC: 0.591184 cumulative IPC: 0.308536 (Simulation time: 0 hr 9 min 25 sec) 
Heartbeat CPU 0 instructions: 116000003 cycles: 369925339 heartbeat IPC: 0.233434 cumulative IPC: 0.307602 (Simulation time: 0 hr 9 min 30 sec) 
Heartbeat CPU 0 instructions: 117000000 cycles: 371698895 heartbeat IPC: 0.563837 cumulative IPC: 0.308914 (Simulation time: 0 hr 9 min 34 sec) 
Heartbeat CPU 0 instructions: 118000002 cycles: 375684290 heartbeat IPC: 0.250917 cumulative IPC: 0.308254 (Simulation time: 0 hr 9 min 40 sec) 
Heartbeat CPU 0 instructions: 119000000 cycles: 380183281 heartbeat IPC: 0.222272 cumulative IPC: 0.307164 (Simulation time: 0 hr 9 min 46 sec) 
Heartbeat CPU 0 instructions: 120000002 cycles: 381933411 heartbeat IPC: 0.571387 cumulative IPC: 0.308461 (Simulation time: 0 hr 9 min 50 sec) 
Heartbeat CPU 0 instructions: 121000000 cycles: 384678903 heartbeat IPC: 0.364233 cumulative IPC: 0.308887 (Simulation time: 0 hr 9 min 55 sec) 
Heartbeat CPU 0 instructions: 122000001 cycles: 389759743 heartbeat IPC: 0.196818 cumulative IPC: 0.307325 (Simulation time: 0 hr 10 min 1 sec) 
Heartbeat CPU 0 instructions: 123000000 cycles: 391223801 heartbeat IPC: 0.683032 cumulative IPC: 0.308828 (Simulation time: 0 hr 10 min 5 sec) 
Heartbeat CPU 0 instructions: 124000000 cycles: 392725622 heartbeat IPC: 0.665858 cumulative IPC: 0.310287 (Simulation time: 0 hr 10 min 9 sec) 
Heartbeat CPU 0 instructions: 125000002 cycles: 397977732 heartbeat IPC: 0.1904 cumulative IPC: 0.308598 (Simulation time: 0 hr 10 min 16 sec) 
Heartbeat CPU 0 instructions: 126000001 cycles: 402478705 heartbeat IPC: 0.222174 cumulative IPC: 0.307566 (Simulation time: 0 hr 10 min 21 sec) 
Heartbeat CPU 0 instructions: 127000001 cycles: 404189680 heartbeat IPC: 0.584462 cumulative IPC: 0.308817 (Simulation time: 0 hr 10 min 26 sec) 
Heartbeat CPU 0 instructions: 128000000 cycles: 406511703 heartbeat IPC: 0.430659 cumulative IPC: 0.309559 (Simulation time: 0 hr 10 min 30 sec) 
Heartbeat CPU 0 instructions: 129000003 cycles: 411896872 heartbeat IPC: 0.185696 cumulative IPC: 0.307834 (Simulation time: 0 hr 10 min 37 sec) 
Heartbeat CPU 0 instructions: 130000003 cycles: 414501330 heartbeat IPC: 0.383957 cumulative IPC: 0.308343 (Simulation time: 0 hr 10 min 41 sec) 
Heartbeat CPU 0 instructions: 131000000 cycles: 417014788 heartbeat IPC: 0.397857 cumulative IPC: 0.308917 (Simulation time: 0 hr 10 min 46 sec) 
Heartbeat CPU 0 instructions: 132000000 cycles: 420810070 heartbeat IPC: 0.263485 cumulative IPC: 0.308481 (Simulation time: 0 hr 10 min 51 sec) 
Heartbeat CPU 0 instructions: 133000001 cycles: 422583588 heartbeat IPC: 0.563852 cumulative IPC: 0.309622 (Simulation time: 0 hr 10 min 55 sec) 
Heartbeat CPU 0 instructions: 134000003 cycles: 427797805 heartbeat IPC: 0.191784 cumulative IPC: 0.308095 (Simulation time: 0 hr 11 min 2 sec) 
Heartbeat CPU 0 instructions: 135000000 cycles: 432446192 heartbeat IPC: 0.215128 cumulative IPC: 0.307033 (Simulation time: 0 hr 11 min 8 sec) 
Heartbeat CPU 0 instructions: 136000003 cycles: 434034489 heartbeat IPC: 0.629607 cumulative IPC: 0.308287 (Simulation time: 0 hr 11 min 12 sec) 
Heartbeat CPU 0 instructions: 137000000 cycles: 437494795 heartbeat IPC: 0.288991 cumulative IPC: 0.308125 (Simulation time: 0 hr 11 min 17 sec) 
Heartbeat CPU 0 instructions: 138000001 cycles: 443407458 heartbeat IPC: 0.169129 cumulative IPC: 0.306159 (Simulation time: 0 hr 11 min 25 sec) 
Heartbeat CPU 0 instructions: 139000001 cycles: 446046109 heartbeat IPC: 0.378982 cumulative IPC: 0.306616 (Simulation time: 0 hr 11 min 29 sec) 
Heartbeat CPU 0 instructions: 140000002 cycles: 448435673 heartbeat IPC: 0.418487 cumulative IPC: 0.307248 (Simulation time: 0 hr 11 min 34 sec) 
Heartbeat CPU 0 instructions: 141000000 cycles: 451447733 heartbeat IPC: 0.331998 cumulative IPC: 0.307423 (Simulation time: 0 hr 11 min 39 sec) 
Heartbeat CPU 0 instructions: 142000003 cycles: 453317286 heartbeat IPC: 0.534889 cumulative IPC: 0.308416 (Simulation time: 0 hr 11 min 42 sec) 
Heartbeat CPU 0 instructions: 143000000 cycles: 458854392 heartbeat IPC: 0.180599 cumulative IPC: 0.306784 (Simulation time: 0 hr 11 min 50 sec) 
Heartbeat CPU 0 instructions: 144000001 cycles: 462940918 heartbeat IPC: 0.244707 cumulative IPC: 0.306204 (Simulation time: 0 hr 11 min 55 sec) 
Heartbeat CPU 0 instructions: 145000001 cycles: 464809676 heartbeat IPC: 0.535115 cumulative IPC: 0.307178 (Simulation time: 0 hr 11 min 59 sec) 
Heartbeat CPU 0 instructions: 146000002 cycles: 469726865 heartbeat IPC: 0.203368 cumulative IPC: 0.306029 (Simulation time: 0 hr 12 min 6 sec) 
Heartbeat CPU 0 instructions: 147000000 cycles: 472253946 heartbeat IPC: 0.395713 cumulative IPC: 0.306536 (Simulation time: 0 hr 12 min 10 sec) 
Heartbeat CPU 0 instructions: 148000000 cycles: 474528763 heartbeat IPC: 0.439596 cumulative IPC: 0.30721 (Simulation time: 0 hr 12 min 14 sec) 
Heartbeat CPU 0 instructions: 149000003 cycles: 480276664 heartbeat IPC: 0.173977 cumulative IPC: 0.305527 (Simulation time: 0 hr 12 min 22 sec) 
Heartbeat CPU 0 instructions: 150000001 cycles: 482185027 heartbeat IPC: 0.524008 cumulative IPC: 0.306439 (Simulation time: 0 hr 12 min 26 sec) 
Heartbeat CPU 0 instructions: 151000001 cycles: 484207514 heartbeat IPC: 0.494441 cumulative IPC: 0.307268 (Simulation time: 0 hr 12 min 30 sec) 
Heartbeat CPU 0 instructions: 152000002 cycles: 488391458 heartbeat IPC: 0.239009 cumulative IPC: 0.306651 (Simulation time: 0 hr 12 min 36 sec) 
Heartbeat CPU 0 instructions: 153000002 cycles: 492281334 heartbeat IPC: 0.257078 cumulative IPC: 0.306238 (Simulation time: 0 hr 12 min 42 sec) 
Heartbeat CPU 0 instructions: 154000000 cycles: 494114318 heartbeat IPC: 0.545557 cumulative IPC: 0.307174 (Simulation time: 0 hr 12 min 45 sec) 
Heartbeat CPU 0 instructions: 155000003 cycles: 499136016 heartbeat IPC: 0.199136 cumulative IPC: 0.306029 (Simulation time: 0 hr 12 min 52 sec) 
Heartbeat CPU 0 instructions: 156000001 cycles: 501759609 heartbeat IPC: 0.381156 cumulative IPC: 0.306442 (Simulation time: 0 hr 12 min 57 sec) 
Heartbeat CPU 0 instructions: 157000000 cycles: 504598124 heartbeat IPC: 0.352297 cumulative IPC: 0.306714 (Simulation time: 0 hr 13 min 1 sec) 
Heartbeat CPU 0 instructions: 158000002 cycles: 507170067 heartbeat IPC: 0.388812 cumulative IPC: 0.307152 (Simulation time: 0 hr 13 min 6 sec) 
Heartbeat CPU 0 instructions: 159000000 cycles: 509457106 heartbeat IPC: 0.437246 cumulative IPC: 0.307767 (Simulation time: 0 hr 13 min 11 sec) 
Heartbeat CPU 0 instructions: 160000002 cycles: 512523578 heartbeat IPC: 0.326108 cumulative IPC: 0.307882 (Simulation time: 0 hr 13 min 16 sec) 
Heartbeat CPU 0 instructions: 161000002 cycles: 517369935 heartbeat IPC: 0.206341 cumulative IPC: 0.306882 (Simulation time: 0 hr 13 min 23 sec) 
Heartbeat CPU 0 instructions: 162000001 cycles: 518909481 heartbeat IPC: 0.649541 cumulative IPC: 0.307951 (Simulation time: 0 hr 13 min 27 sec) 
Heartbeat CPU 0 instructions: 163000000 cycles: 522270155 heartbeat IPC: 0.297559 cumulative IPC: 0.307881 (Simulation time: 0 hr 13 min 32 sec) 
Heartbeat CPU 0 instructions: 164000000 cycles: 524930167 heartbeat IPC: 0.375938 cumulative IPC: 0.308243 (Simulation time: 0 hr 13 min 37 sec) 
Heartbeat CPU 0 instructions: 165000000 cycles: 527500234 heartbeat IPC: 0.389095 cumulative IPC: 0.308657 (Simulation time: 0 hr 13 min 41 sec) 
Heartbeat CPU 0 instructions: 166000002 cycles: 530501836 heartbeat IPC: 0.333156 cumulative IPC: 0.308802 (Simulation time: 0 hr 13 min 46 sec) 
Heartbeat CPU 0 instructions: 167000000 cycles: 532250392 heartbeat IPC: 0.571899 cumulative IPC: 0.30971 (Simulation time: 0 hr 13 min 50 sec) 
Heartbeat CPU 0 instructions: 168000000 cycles: 535771448 heartbeat IPC: 0.284006 cumulative IPC: 0.309533 (Simulation time: 0 hr 13 min 55 sec) 
Heartbeat CPU 0 instructions: 169000003 cycles: 538183365 heartbeat IPC: 0.414609 cumulative IPC: 0.310027 (Simulation time: 0 hr 14 min 0 sec) 
Heartbeat CPU 0 instructions: 170000001 cycles: 540703659 heartbeat IPC: 0.396778 cumulative IPC: 0.310451 (Simulation time: 0 hr 14 min 4 sec) 
Heartbeat CPU 0 instructions: 171000000 cycles: 544183302 heartbeat IPC: 0.287386 cumulative IPC: 0.310296 (Simulation time: 0 hr 14 min 9 sec) 
Heartbeat CPU 0 instructions: 172000000 cycles: 546174767 heartbeat IPC: 0.502143 cumulative IPC: 0.31103 (Simulation time: 0 hr 14 min 13 sec) 
Heartbeat CPU 0 instructions: 173000002 cycles: 549668603 heartbeat IPC: 0.286219 cumulative IPC: 0.310865 (Simulation time: 0 hr 14 min 18 sec) 
Heartbeat CPU 0 instructions: 174000001 cycles: 551438277 heartbeat IPC: 0.565075 cumulative IPC: 0.31172 (Simulation time: 0 hr 14 min 22 sec) 
Heartbeat CPU 0 instructions: 175000002 cycles: 555044458 heartbeat IPC: 0.277302 cumulative IPC: 0.311485 (Simulation time: 0 hr 14 min 27 sec) 
Heartbeat CPU 0 instructions: 176000000 cycles: 556757810 heartbeat IPC: 0.58365 cumulative IPC: 0.312363 (Simulation time: 0 hr 14 min 31 sec) 
Heartbeat CPU 0 instructions: 177000003 cycles: 560303770 heartbeat IPC: 0.282012 cumulative IPC: 0.312162 (Simulation time: 0 hr 14 min 37 sec) 
Heartbeat CPU 0 instructions: 178000001 cycles: 561880076 heartbeat IPC: 0.634393 cumulative IPC: 0.313108 (Simulation time: 0 hr 14 min 41 sec) 
Heartbeat CPU 0 instructions: 179000000 cycles: 565474419 heartbeat IPC: 0.278215 cumulative IPC: 0.312876 (Simulation time: 0 hr 14 min 47 sec) 
Heartbeat CPU 0 instructions: 180000000 cycles: 567193679 heartbeat IPC: 0.581646 cumulative IPC: 0.313729 (Simulation time: 0 hr 14 min 51 sec) 
Heartbeat CPU 0 instructions: 181000001 cycles: 570303170 heartbeat IPC: 0.321596 cumulative IPC: 0.313774 (Simulation time: 0 hr 14 min 56 sec) 
Heartbeat CPU 0 instructions: 182000003 cycles: 576315370 heartbeat IPC: 0.166329 cumulative IPC: 0.312165 (Simulation time: 0 hr 15 min 4 sec) 
Heartbeat CPU 0 instructions: 183000003 cycles: 582316163 heartbeat IPC: 0.166645 cumulative IPC: 0.310597 (Simulation time: 0 hr 15 min 12 sec) 
Heartbeat CPU 0 instructions: 184000000 cycles: 585248604 heartbeat IPC: 0.341012 cumulative IPC: 0.310756 (Simulation time: 0 hr 15 min 17 sec) 
Heartbeat CPU 0 instructions: 185000001 cycles: 587175794 heartbeat IPC: 0.518891 cumulative IPC: 0.31147 (Simulation time: 0 hr 15 min 21 sec) 
Heartbeat CPU 0 instructions: 186000000 cycles: 591109448 heartbeat IPC: 0.254216 cumulative IPC: 0.311072 (Simulation time: 0 hr 15 min 27 sec) 
Heartbeat CPU 0 instructions: 187000000 cycles: 593213332 heartbeat IPC: 0.475311 cumulative IPC: 0.311681 (Simulation time: 0 hr 15 min 32 sec) 
Heartbeat CPU 0 instructions: 188000000 cycles: 595113967 heartbeat IPC: 0.52614 cumulative IPC: 0.312396 (Simulation time: 0 hr 15 min 36 sec) 
Heartbeat CPU 0 instructions: 189000003 cycles: 600861015 heartbeat IPC: 0.174003 cumulative IPC: 0.311014 (Simulation time: 0 hr 15 min 44 sec) 
Heartbeat CPU 0 instructions: 190000000 cycles: 606739246 heartbeat IPC: 0.170119 cumulative IPC: 0.30959 (Simulation time: 0 hr 15 min 52 sec) 
Heartbeat CPU 0 instructions: 191000000 cycles: 608805820 heartbeat IPC: 0.483893 cumulative IPC: 0.310207 (Simulation time: 0 hr 15 min 56 sec) 
Heartbeat CPU 0 instructions: 192000001 cycles: 611622567 heartbeat IPC: 0.35502 cumulative IPC: 0.310422 (Simulation time: 0 hr 16 min 1 sec) 
Heartbeat CPU 0 instructions: 193000000 cycles: 614180404 heartbeat IPC: 0.390955 cumulative IPC: 0.310772 (Simulation time: 0 hr 16 min 6 sec) 
Heartbeat CPU 0 instructions: 194000003 cycles: 616845294 heartbeat IPC: 0.375251 cumulative IPC: 0.311063 (Simulation time: 0 hr 16 min 10 sec) 
Heartbeat CPU 0 instructions: 195000001 cycles: 622417292 heartbeat IPC: 0.179468 cumulative IPC: 0.309835 (Simulation time: 0 hr 16 min 18 sec) 
Heartbeat CPU 0 instructions: 196000000 cycles: 623983367 heartbeat IPC: 0.638538 cumulative IPC: 0.310694 (Simulation time: 0 hr 16 min 22 sec) 
Heartbeat CPU 0 instructions: 197000001 cycles: 625569080 heartbeat IPC: 0.630632 cumulative IPC: 0.31154 (Simulation time: 0 hr 16 min 26 sec) 
Heartbeat CPU 0 instructions: 198000000 cycles: 630619990 heartbeat IPC: 0.197984 cumulative IPC: 0.310592 (Simulation time: 0 hr 16 min 32 sec) 
Heartbeat CPU 0 instructions: 199000003 cycles: 635576307 heartbeat IPC: 0.201763 cumulative IPC: 0.309708 (Simulation time: 0 hr 16 min 39 sec) 
Heartbeat CPU 0 instructions: 200000001 cycles: 637374384 heartbeat IPC: 0.556149 cumulative IPC: 0.310432 (Simulation time: 0 hr 16 min 42 sec) 
Heartbeat CPU 0 instructions: 201000000 cycles: 641669660 heartbeat IPC: 0.232814 cumulative IPC: 0.309891 (Simulation time: 0 hr 16 min 48 sec) 
Heartbeat CPU 0 instructions: 202000002 cycles: 645345660 heartbeat IPC: 0.272035 cumulative IPC: 0.309667 (Simulation time: 0 hr 16 min 54 sec) 
Heartbeat CPU 0 instructions: 203000000 cycles: 647537931 heartbeat IPC: 0.456147 cumulative IPC: 0.310183 (Simulation time: 0 hr 16 min 59 sec) 
Heartbeat CPU 0 instructions: 204000000 cycles: 650106023 heartbeat IPC: 0.389394 cumulative IPC: 0.310508 (Simulation time: 0 hr 17 min 4 sec) 
Heartbeat CPU 0 instructions: 205000000 cycles: 653123047 heartbeat IPC: 0.331452 cumulative IPC: 0.310609 (Simulation time: 0 hr 17 min 9 sec) 
Heartbeat CPU 0 instructions: 206000003 cycles: 654952067 heartbeat IPC: 0.546742 cumulative IPC: 0.311295 (Simulation time: 0 hr 17 min 13 sec) 
Heartbeat CPU 0 instructions: 207000000 cycles: 657578935 heartbeat IPC: 0.38068 cumulative IPC: 0.311583 (Simulation time: 0 hr 17 min 18 sec) 
Heartbeat CPU 0 instructions: 208000000 cycles: 660513126 heartbeat IPC: 0.340809 cumulative IPC: 0.311718 (Simulation time: 0 hr 17 min 22 sec) 
Heartbeat CPU 0 instructions: 209000000 cycles: 662466620 heartbeat IPC: 0.511903 cumulative IPC: 0.312332 (Simulation time: 0 hr 17 min 26 sec) 
Heartbeat CPU 0 instructions: 210000001 cycles: 666311264 heartbeat IPC: 0.260102 cumulative IPC: 0.312019 (Simulation time: 0 hr 17 min 32 sec) 
Heartbeat CPU 0 instructions: 211000001 cycles: 668355090 heartbeat IPC: 0.489278 cumulative IPC: 0.312582 (Simulation time: 0 hr 17 min 36 sec) 
Heartbeat CPU 0 instructions: 212000000 cycles: 672580539 heartbeat IPC: 0.236661 cumulative IPC: 0.312087 (Simulation time: 0 hr 17 min 42 sec) 
Heartbeat CPU 0 instructions: 213000001 cycles: 678846206 heartbeat IPC: 0.1596 cumulative IPC: 0.310625 (Simulation time: 0 hr 17 min 50 sec) 
Heartbeat CPU 0 instructions: 214000002 cycles: 684528170 heartbeat IPC: 0.175996 cumulative IPC: 0.309464 (Simulation time: 0 hr 17 min 57 sec) 
Heartbeat CPU 0 instructions: 215000003 cycles: 686231427 heartbeat IPC: 0.587111 cumulative IPC: 0.31018 (Simulation time: 0 hr 18 min 1 sec) 
Heartbeat CPU 0 instructions: 216000003 cycles: 689379587 heartbeat IPC: 0.317646 cumulative IPC: 0.310215 (Simulation time: 0 hr 18 min 6 sec) 
Heartbeat CPU 0 instructions: 217000001 cycles: 691966290 heartbeat IPC: 0.386592 cumulative IPC: 0.310512 (Simulation time: 0 hr 18 min 10 sec) 
Heartbeat CPU 0 instructions: 218000002 cycles: 693813340 heartbeat IPC: 0.541404 cumulative IPC: 0.31115 (Simulation time: 0 hr 18 min 14 sec) 
Heartbeat CPU 0 instructions: 219000001 cycles: 697264191 heartbeat IPC: 0.289783 cumulative IPC: 0.31104 (Simulation time: 0 hr 18 min 19 sec) 
Heartbeat CPU 0 instructions: 220000000 cycles: 698997059 heartbeat IPC: 0.577077 cumulative IPC: 0.311724 (Simulation time: 0 hr 18 min 23 sec) 
Heartbeat CPU 0 instructions: 221000001 cycles: 703593234 heartbeat IPC: 0.217572 cumulative IPC: 0.311086 (Simulation time: 0 hr 18 min 29 sec) 
Heartbeat CPU 0 instructions: 222000001 cycles: 706492939 heartbeat IPC: 0.344863 cumulative IPC: 0.31123 (Simulation time: 0 hr 18 min 34 sec) 
Heartbeat CPU 0 instructions: 223000000 cycles: 708185444 heartbeat IPC: 0.59084 cumulative IPC: 0.311923 (Simulation time: 0 hr 18 min 38 sec) 
Heartbeat CPU 0 instructions: 224000000 cycles: 711378244 heartbeat IPC: 0.313205 cumulative IPC: 0.311929 (Simulation time: 0 hr 18 min 43 sec) 
Heartbeat CPU 0 instructions: 225000001 cycles: 715646163 heartbeat IPC: 0.234306 cumulative IPC: 0.311449 (Simulation time: 0 hr 18 min 48 sec) 
Heartbeat CPU 0 instructions: 226000000 cycles: 717404561 heartbeat IPC: 0.568699 cumulative IPC: 0.312103 (Simulation time: 0 hr 18 min 52 sec) 
Heartbeat CPU 0 instructions: 227000003 cycles: 720968081 heartbeat IPC: 0.280622 cumulative IPC: 0.311941 (Simulation time: 0 hr 18 min 57 sec) 
Heartbeat CPU 0 instructions: 228000002 cycles: 723198067 heartbeat IPC: 0.448433 cumulative IPC: 0.312377 (Simulation time: 0 hr 19 min 2 sec) 
Heartbeat CPU 0 instructions: 229000003 cycles: 725246493 heartbeat IPC: 0.48818 cumulative IPC: 0.312892 (Simulation time: 0 hr 19 min 6 sec) 
Heartbeat CPU 0 instructions: 230000002 cycles: 730481186 heartbeat IPC: 0.191033 cumulative IPC: 0.311987 (Simulation time: 0 hr 19 min 12 sec) 
Heartbeat CPU 0 instructions: 231000000 cycles: 736695690 heartbeat IPC: 0.160914 cumulative IPC: 0.310668 (Simulation time: 0 hr 19 min 20 sec) 
Heartbeat CPU 0 instructions: 232000000 cycles: 739005929 heartbeat IPC: 0.432856 cumulative IPC: 0.311063 (Simulation time: 0 hr 19 min 24 sec) 
Heartbeat CPU 0 instructions: 233000002 cycles: 741021148 heartbeat IPC: 0.496225 cumulative IPC: 0.311584 (Simulation time: 0 hr 19 min 28 sec) 
Heartbeat CPU 0 instructions: 234000001 cycles: 745289249 heartbeat IPC: 0.234296 cumulative IPC: 0.311126 (Simulation time: 0 hr 19 min 34 sec) 
Heartbeat CPU 0 instructions: 235000000 cycles: 747572349 heartbeat IPC: 0.438001 cumulative IPC: 0.311527 (Simulation time: 0 hr 19 min 38 sec) 
Heartbeat CPU 0 instructions: 236000000 cycles: 751101744 heartbeat IPC: 0.283335 cumulative IPC: 0.31139 (Simulation time: 0 hr 19 min 43 sec) 
Heartbeat CPU 0 instructions: 237000001 cycles: 755325636 heartbeat IPC: 0.236749 cumulative IPC: 0.310958 (Simulation time: 0 hr 19 min 49 sec) 
Heartbeat CPU 0 instructions: 238000003 cycles: 756774235 heartbeat IPC: 0.690324 cumulative IPC: 0.31171 (Simulation time: 0 hr 19 min 53 sec) 
Heartbeat CPU 0 instructions: 239000000 cycles: 758223910 heartbeat IPC: 0.689808 cumulative IPC: 0.312458 (Simulation time: 0 hr 19 min 57 sec) 
Heartbeat CPU 0 instructions: 240000002 cycles: 759673976 heartbeat IPC: 0.689625 cumulative IPC: 0.313202 (Simulation time: 0 hr 20 min 2 sec) 
Heartbeat CPU 0 instructions: 241000002 cycles: 761125744 heartbeat IPC: 0.688815 cumulative IPC: 0.313943 (Simulation time: 0 hr 20 min 6 sec) 
Heartbeat CPU 0 instructions: 242000000 cycles: 762573452 heartbeat IPC: 0.690746 cumulative IPC: 0.314683 (Simulation time: 0 hr 20 min 10 sec) 
Heartbeat CPU 0 instructions: 243000003 cycles: 764021229 heartbeat IPC: 0.690716 cumulative IPC: 0.31542 (Simulation time: 0 hr 20 min 14 sec) 
Heartbeat CPU 0 instructions: 244000000 cycles: 765475353 heartbeat IPC: 0.687697 cumulative IPC: 0.316152 (Simulation time: 0 hr 20 min 18 sec) 
Heartbeat CPU 0 instructions: 245000000 cycles: 766929511 heartbeat IPC: 0.687683 cumulative IPC: 0.31688 (Simulation time: 0 hr 20 min 22 sec) 
Heartbeat CPU 0 instructions: 246000000 cycles: 768392217 heartbeat IPC: 0.683664 cumulative IPC: 0.317602 (Simulation time: 0 hr 20 min 26 sec) 
Heartbeat CPU 0 instructions: 247000001 cycles: 769875242 heartbeat IPC: 0.674298 cumulative IPC: 0.318313 (Simulation time: 0 hr 20 min 31 sec) 
Heartbeat CPU 0 instructions: 248000001 cycles: 771324328 heartbeat IPC: 0.69009 cumulative IPC: 0.319035 (Simulation time: 0 hr 20 min 35 sec) 
Heartbeat CPU 0 instructions: 249000000 cycles: 772817524 heartbeat IPC: 0.669704 cumulative IPC: 0.319735 (Simulation time: 0 hr 20 min 39 sec) 
Heartbeat CPU 0 instructions: 250000000 cycles: 774280573 heartbeat IPC: 0.683504 cumulative IPC: 0.320446 (Simulation time: 0 hr 20 min 43 sec) 
Heartbeat CPU 0 instructions: 251000000 cycles: 775783677 heartbeat IPC: 0.66529 cumulative IPC: 0.321137 (Simulation time: 0 hr 20 min 47 sec) 
Heartbeat CPU 0 instructions: 252000003 cycles: 777243641 heartbeat IPC: 0.68495 cumulative IPC: 0.321843 (Simulation time: 0 hr 20 min 51 sec) 
Heartbeat CPU 0 instructions: 253000000 cycles: 778705699 heartbeat IPC: 0.683965 cumulative IPC: 0.322546 (Simulation time: 0 hr 20 min 55 sec) 
Heartbeat CPU 0 instructions: 254000000 cycles: 780170504 heartbeat IPC: 0.682685 cumulative IPC: 0.323245 (Simulation time: 0 hr 20 min 59 sec) 
Heartbeat CPU 0 instructions: 255000003 cycles: 781628913 heartbeat IPC: 0.685681 cumulative IPC: 0.323944 (Simulation time: 0 hr 21 min 3 sec) 
Heartbeat CPU 0 instructions: 256000003 cycles: 783278506 heartbeat IPC: 0.60621 cumulative IPC: 0.324558 (Simulation time: 0 hr 21 min 7 sec) 
Heartbeat CPU 0 instructions: 257000001 cycles: 784746767 heartbeat IPC: 0.681076 cumulative IPC: 0.325247 (Simulation time: 0 hr 21 min 11 sec) 
Heartbeat CPU 0 instructions: 258000001 cycles: 786222707 heartbeat IPC: 0.677534 cumulative IPC: 0.325931 (Simulation time: 0 hr 21 min 16 sec) 
Heartbeat CPU 0 instructions: 259000000 cycles: 787717573 heartbeat IPC: 0.668956 cumulative IPC: 0.326603 (Simulation time: 0 hr 21 min 20 sec) 
Heartbeat CPU 0 instructions: 260000000 cycles: 789351241 heartbeat IPC: 0.612119 cumulative IPC: 0.327214 (Simulation time: 0 hr 21 min 23 sec) 
Finished CPU 0 instructions: 250000000 cycles: 764026853 cumulative IPC: 0.327214 (Simulation time: 0 hr 21 min 23 sec) 

ChampSim completed all CPUs

Region of Interest Statistics

CPU 0 cumulative IPC: 0.327214 instructions: 250000000 cycles: 764026853
L1D TOTAL     ACCESS:  111687326  HIT:   97963378  MISS:   13723948
L1D LOAD      ACCESS:   58120459  HIT:   44940208  MISS:   13180251
L1D RFO       ACCESS:   53566867  HIT:   53023170  MISS:     543697
L1D PREFETCH  ACCESS:          0  HIT:          0  MISS:          0
L1D WRITEBACK ACCESS:          0  HIT:          0  MISS:          0
L1D PREFETCH  REQUESTED:          0  ISSUED:          0  USEFUL:          0  USELESS:          0
L1D AVERAGE MISS LATENCY: 163.192 cycles
L1I TOTAL     ACCESS:   56353719  HIT:   56353713  MISS:          6
L1I LOAD      ACCESS:   56353719  HIT:   56353713  MISS:          6
L1I RFO       ACCESS:          0  HIT:          0  MISS:          0
L1I PREFETCH  ACCESS:          0  HIT:          0  MISS:          0
L1I WRITEBACK ACCESS:          0  HIT:          0  MISS:          0
L1I PREFETCH  REQUESTED:          0  ISSUED:          0  USEFUL:          0  USELESS:          0
L1I AVERAGE MISS LATENCY: 199.333 cycles
L2C TOTAL     ACCESS:   14882747  HIT:    1272529  MISS:   13610218
L2C LOAD      ACCESS:   13180206  HIT:     114789  MISS:   13065417
L2C RFO       ACCESS:     543675  HIT:       7415  MISS:     536260
L2C PREFETCH  ACCESS:          0  HIT:          0  MISS:          0
L2C WRITEBACK ACCESS:    1158866  HIT:    1150325  MISS:       8541
L2C PREFETCH  REQUESTED:          0  ISSUED:          0  USEFUL:          0  USELESS:          0
L2C AVERAGE MISS LATENCY: 148.129 cycles
LLC TOTAL     ACCESS:   15673613  HIT:    1969504  MISS:   13704109
LLC LOAD      ACCESS:   13065417  HIT:     806360  MISS:   12259057
LLC RFO       ACCESS:     536259  HIT:       9055  MISS:     527204
LLC PREFETCH  ACCESS:     998483  HIT:      84975  MISS:     913508
LLC WRITEBACK ACCESS:    1073454  HIT:    1069114  MISS:       4340
LLC PREFETCH  REQUESTED:   13065416  ISSUED:    2222099  USEFUL:     804032  USELESS:     109470
LLC AVERAGE MISS LATENCY: 128.054 cycles
Major fault: 0 Minor fault: 78384

DRAM Statistics
 CHANNEL 0
 RQ ROW_BUFFER_HIT:    6258006  ROW_BUFFER_MISS:     592704
 DBUS_CONGESTED:    6290739
 WQ ROW_BUFFER_HIT:     430276  ROW_BUFFER_MISS:     103004  FULL:          0

 CHANNEL 1
 RQ ROW_BUFFER_HIT:    6245754  ROW_BUFFER_MISS:     603307
 DBUS_CONGESTED:    6290739
 WQ ROW_BUFFER_HIT:     437957  ROW_BUFFER_MISS:      93079  FULL:          0

 AVG_CONGESTED_CYCLE: 19

CPU 0 Branch Prediction Accuracy: 99.1872% MPKI: 1.10228 Average ROB Occupancy at Mispredict: 226.261

Branch types
NOT_BRANCH: 216095217 86.4381%
BRANCH_DIRECT_JUMP: 2652051 1.06082%
BRANCH_INDIRECT: 0 0%
BRANCH_CONDITIONAL: 31252173 12.5009%
BRANCH_DIRECT_CALL: 301 0.0001204%
BRANCH_INDIRECT_CALL: 0 0%
BRANCH_RETURN: 300 0.00012%
BRANCH_OTHER: 0 0%

