
*** ChampSim Multicore Out-of-Order Simulator ***

Warmup Instructions: 1000000
Prefetch Warmup Instructions: 10000000
Simulation Instructions: 250000000
Stat Printing Period: 1000000
Number of CPUs: 1
LLC sets: 2048
LLC ways: 16
Off-chip DRAM Size: 32768 MB Channels: 2 Width: 64-bit Data Rate: 1024 MT/s

CPU 0 runs /scratch/cluster/cmolder/ML-DPC/ChampSimTraces/spec17/620.omnetpp-s1.trace.xz
Read seed: 229
Heartbeat CPU 0 instructions: 1000000 cycles: 560395 heartbeat IPC: 1.78446 cumulative IPC: 1.78446 (Simulation time: 0 hr 0 min 3 sec) 

Warmup complete CPU 0 instructions: 1000002 cycles: 560396 (Simulation time: 0 hr 0 min 3 sec) 

Heartbeat CPU 0 instructions: 2000003 cycles: 3105603 heartbeat IPC: 0.392896 cumulative IPC: 0.392896 (Simulation time: 0 hr 0 min 7 sec) 
Heartbeat CPU 0 instructions: 3000000 cycles: 5759997 heartbeat IPC: 0.376733 cumulative IPC: 0.384645 (Simulation time: 0 hr 0 min 11 sec) 
Heartbeat CPU 0 instructions: 4000002 cycles: 8542475 heartbeat IPC: 0.359393 cumulative IPC: 0.375842 (Simulation time: 0 hr 0 min 15 sec) 
Heartbeat CPU 0 instructions: 5000000 cycles: 11236849 heartbeat IPC: 0.371143 cumulative IPC: 0.374656 (Simulation time: 0 hr 0 min 19 sec) 
Heartbeat CPU 0 instructions: 6000000 cycles: 13930487 heartbeat IPC: 0.371245 cumulative IPC: 0.373969 (Simulation time: 0 hr 0 min 22 sec) 
Heartbeat CPU 0 instructions: 7000000 cycles: 16772443 heartbeat IPC: 0.35187 cumulative IPC: 0.370095 (Simulation time: 0 hr 0 min 26 sec) 
Heartbeat CPU 0 instructions: 8000000 cycles: 19387784 heartbeat IPC: 0.382359 cumulative IPC: 0.371799 (Simulation time: 0 hr 0 min 30 sec) 
Heartbeat CPU 0 instructions: 9000000 cycles: 22079099 heartbeat IPC: 0.371566 cumulative IPC: 0.37177 (Simulation time: 0 hr 0 min 34 sec) 
Heartbeat CPU 0 instructions: 10000001 cycles: 24835497 heartbeat IPC: 0.362793 cumulative IPC: 0.37075 (Simulation time: 0 hr 0 min 38 sec) 

Warmup complete CPU 0 instructions: 10000001 cycles: 24835497 (Simulation time: 0 hr 0 min 38 sec) 

Heartbeat CPU 0 instructions: 11000000 cycles: 27542915 heartbeat IPC: 0.369355 cumulative IPC: 0.369355 (Simulation time: 0 hr 0 min 42 sec) 
Heartbeat CPU 0 instructions: 12000001 cycles: 30339902 heartbeat IPC: 0.357528 cumulative IPC: 0.363345 (Simulation time: 0 hr 0 min 46 sec) 
Heartbeat CPU 0 instructions: 13000002 cycles: 32977462 heartbeat IPC: 0.379139 cumulative IPC: 0.368462 (Simulation time: 0 hr 0 min 50 sec) 
Heartbeat CPU 0 instructions: 14000000 cycles: 35718858 heartbeat IPC: 0.364777 cumulative IPC: 0.367533 (Simulation time: 0 hr 0 min 54 sec) 
Heartbeat CPU 0 instructions: 15000001 cycles: 38311133 heartbeat IPC: 0.385762 cumulative IPC: 0.37104 (Simulation time: 0 hr 0 min 57 sec) 
Heartbeat CPU 0 instructions: 16000003 cycles: 40912929 heartbeat IPC: 0.384351 cumulative IPC: 0.373194 (Simulation time: 0 hr 1 min 1 sec) 
Heartbeat CPU 0 instructions: 17000002 cycles: 43715396 heartbeat IPC: 0.356828 cumulative IPC: 0.370765 (Simulation time: 0 hr 1 min 5 sec) 
Heartbeat CPU 0 instructions: 18000002 cycles: 46478924 heartbeat IPC: 0.361856 cumulative IPC: 0.369627 (Simulation time: 0 hr 1 min 9 sec) 
Heartbeat CPU 0 instructions: 19000000 cycles: 49437896 heartbeat IPC: 0.337955 cumulative IPC: 0.365818 (Simulation time: 0 hr 1 min 13 sec) 
Heartbeat CPU 0 instructions: 20000000 cycles: 52429439 heartbeat IPC: 0.334276 cumulative IPC: 0.362398 (Simulation time: 0 hr 1 min 17 sec) 
Heartbeat CPU 0 instructions: 21000002 cycles: 55120494 heartbeat IPC: 0.371602 cumulative IPC: 0.363216 (Simulation time: 0 hr 1 min 21 sec) 
Heartbeat CPU 0 instructions: 22000000 cycles: 57759765 heartbeat IPC: 0.378892 cumulative IPC: 0.364473 (Simulation time: 0 hr 1 min 25 sec) 
Heartbeat CPU 0 instructions: 23000002 cycles: 60802745 heartbeat IPC: 0.328626 cumulative IPC: 0.36144 (Simulation time: 0 hr 1 min 29 sec) 
Heartbeat CPU 0 instructions: 24000002 cycles: 63571076 heartbeat IPC: 0.361228 cumulative IPC: 0.361425 (Simulation time: 0 hr 1 min 32 sec) 
Heartbeat CPU 0 instructions: 25000000 cycles: 66248940 heartbeat IPC: 0.373431 cumulative IPC: 0.362201 (Simulation time: 0 hr 1 min 36 sec) 
Heartbeat CPU 0 instructions: 26000001 cycles: 69204553 heartbeat IPC: 0.33834 cumulative IPC: 0.360612 (Simulation time: 0 hr 1 min 40 sec) 
Heartbeat CPU 0 instructions: 27000000 cycles: 71935854 heartbeat IPC: 0.366126 cumulative IPC: 0.360931 (Simulation time: 0 hr 1 min 44 sec) 
Heartbeat CPU 0 instructions: 28000002 cycles: 74865628 heartbeat IPC: 0.341324 cumulative IPC: 0.359783 (Simulation time: 0 hr 1 min 48 sec) 
Heartbeat CPU 0 instructions: 29000003 cycles: 77745471 heartbeat IPC: 0.347241 cumulative IPC: 0.359101 (Simulation time: 0 hr 1 min 52 sec) 
Heartbeat CPU 0 instructions: 30000002 cycles: 80776584 heartbeat IPC: 0.329912 cumulative IPC: 0.357519 (Simulation time: 0 hr 1 min 56 sec) 
Heartbeat CPU 0 instructions: 31000000 cycles: 83572240 heartbeat IPC: 0.357697 cumulative IPC: 0.357527 (Simulation time: 0 hr 2 min 0 sec) 
Heartbeat CPU 0 instructions: 32000000 cycles: 86486945 heartbeat IPC: 0.343088 cumulative IPC: 0.356845 (Simulation time: 0 hr 2 min 4 sec) 
Heartbeat CPU 0 instructions: 33000000 cycles: 89299325 heartbeat IPC: 0.355571 cumulative IPC: 0.356789 (Simulation time: 0 hr 2 min 8 sec) 
Heartbeat CPU 0 instructions: 34000000 cycles: 92083809 heartbeat IPC: 0.359133 cumulative IPC: 0.356886 (Simulation time: 0 hr 2 min 12 sec) 
Heartbeat CPU 0 instructions: 35000000 cycles: 95062716 heartbeat IPC: 0.335694 cumulative IPC: 0.355987 (Simulation time: 0 hr 2 min 16 sec) 
Heartbeat CPU 0 instructions: 36000000 cycles: 97899905 heartbeat IPC: 0.352462 cumulative IPC: 0.35585 (Simulation time: 0 hr 2 min 20 sec) 
Heartbeat CPU 0 instructions: 37000003 cycles: 100856719 heartbeat IPC: 0.338203 cumulative IPC: 0.355164 (Simulation time: 0 hr 2 min 24 sec) 
Heartbeat CPU 0 instructions: 38000001 cycles: 103927607 heartbeat IPC: 0.325638 cumulative IPC: 0.354018 (Simulation time: 0 hr 2 min 28 sec) 
Heartbeat CPU 0 instructions: 39000003 cycles: 106867293 heartbeat IPC: 0.340173 cumulative IPC: 0.353521 (Simulation time: 0 hr 2 min 32 sec) 
Heartbeat CPU 0 instructions: 40000001 cycles: 109393853 heartbeat IPC: 0.395794 cumulative IPC: 0.354785 (Simulation time: 0 hr 2 min 36 sec) 
Heartbeat CPU 0 instructions: 41000001 cycles: 111967001 heartbeat IPC: 0.388629 cumulative IPC: 0.355784 (Simulation time: 0 hr 2 min 40 sec) 
Heartbeat CPU 0 instructions: 42000002 cycles: 114884766 heartbeat IPC: 0.342728 cumulative IPC: 0.355361 (Simulation time: 0 hr 2 min 44 sec) 
Heartbeat CPU 0 instructions: 43000001 cycles: 117783507 heartbeat IPC: 0.344977 cumulative IPC: 0.355037 (Simulation time: 0 hr 2 min 48 sec) 
Heartbeat CPU 0 instructions: 44000000 cycles: 120705148 heartbeat IPC: 0.342273 cumulative IPC: 0.354648 (Simulation time: 0 hr 2 min 52 sec) 
Heartbeat CPU 0 instructions: 45000001 cycles: 123826994 heartbeat IPC: 0.320324 cumulative IPC: 0.353566 (Simulation time: 0 hr 2 min 56 sec) 
Heartbeat CPU 0 instructions: 46000000 cycles: 126649721 heartbeat IPC: 0.354267 cumulative IPC: 0.353585 (Simulation time: 0 hr 3 min 0 sec) 
Heartbeat CPU 0 instructions: 47000001 cycles: 129656864 heartbeat IPC: 0.332542 cumulative IPC: 0.352981 (Simulation time: 0 hr 3 min 5 sec) 
Heartbeat CPU 0 instructions: 48000002 cycles: 132716910 heartbeat IPC: 0.326793 cumulative IPC: 0.352239 (Simulation time: 0 hr 3 min 10 sec) 
Heartbeat CPU 0 instructions: 49000003 cycles: 135434493 heartbeat IPC: 0.367974 cumulative IPC: 0.352625 (Simulation time: 0 hr 3 min 14 sec) 
Heartbeat CPU 0 instructions: 50000000 cycles: 138463413 heartbeat IPC: 0.33015 cumulative IPC: 0.352026 (Simulation time: 0 hr 3 min 18 sec) 
Heartbeat CPU 0 instructions: 51000000 cycles: 141160451 heartbeat IPC: 0.370777 cumulative IPC: 0.352461 (Simulation time: 0 hr 3 min 24 sec) 
Heartbeat CPU 0 instructions: 52000000 cycles: 144490953 heartbeat IPC: 0.300255 cumulative IPC: 0.351008 (Simulation time: 0 hr 3 min 29 sec) 
Heartbeat CPU 0 instructions: 53000002 cycles: 147592353 heartbeat IPC: 0.322436 cumulative IPC: 0.350286 (Simulation time: 0 hr 3 min 33 sec) 
Heartbeat CPU 0 instructions: 54000000 cycles: 150176718 heartbeat IPC: 0.386941 cumulative IPC: 0.351042 (Simulation time: 0 hr 3 min 37 sec) 
Heartbeat CPU 0 instructions: 55000000 cycles: 152830199 heartbeat IPC: 0.376863 cumulative IPC: 0.351577 (Simulation time: 0 hr 3 min 41 sec) 
Heartbeat CPU 0 instructions: 56000001 cycles: 155722842 heartbeat IPC: 0.345705 cumulative IPC: 0.351447 (Simulation time: 0 hr 3 min 45 sec) 
Heartbeat CPU 0 instructions: 57000000 cycles: 158649976 heartbeat IPC: 0.341631 cumulative IPC: 0.351233 (Simulation time: 0 hr 3 min 49 sec) 
Heartbeat CPU 0 instructions: 58000000 cycles: 161494877 heartbeat IPC: 0.351506 cumulative IPC: 0.351238 (Simulation time: 0 hr 3 min 53 sec) 
Heartbeat CPU 0 instructions: 59000003 cycles: 164467952 heartbeat IPC: 0.336353 cumulative IPC: 0.350921 (Simulation time: 0 hr 3 min 57 sec) 
Heartbeat CPU 0 instructions: 60000001 cycles: 167217891 heartbeat IPC: 0.363644 cumulative IPC: 0.351167 (Simulation time: 0 hr 4 min 1 sec) 
Heartbeat CPU 0 instructions: 61000003 cycles: 170113218 heartbeat IPC: 0.345385 cumulative IPC: 0.351052 (Simulation time: 0 hr 4 min 5 sec) 
Heartbeat CPU 0 instructions: 62000001 cycles: 173040362 heartbeat IPC: 0.341629 cumulative IPC: 0.350866 (Simulation time: 0 hr 4 min 9 sec) 
Heartbeat CPU 0 instructions: 63000003 cycles: 175846618 heartbeat IPC: 0.356347 cumulative IPC: 0.350968 (Simulation time: 0 hr 4 min 13 sec) 
Heartbeat CPU 0 instructions: 64000003 cycles: 178599771 heartbeat IPC: 0.36322 cumulative IPC: 0.351187 (Simulation time: 0 hr 4 min 17 sec) 
Heartbeat CPU 0 instructions: 65000001 cycles: 181529101 heartbeat IPC: 0.341374 cumulative IPC: 0.351003 (Simulation time: 0 hr 4 min 22 sec) 
Heartbeat CPU 0 instructions: 66000000 cycles: 184223826 heartbeat IPC: 0.371095 cumulative IPC: 0.351343 (Simulation time: 0 hr 4 min 26 sec) 
Heartbeat CPU 0 instructions: 67000002 cycles: 187243116 heartbeat IPC: 0.331204 cumulative IPC: 0.350969 (Simulation time: 0 hr 4 min 30 sec) 
Heartbeat CPU 0 instructions: 68000000 cycles: 189827856 heartbeat IPC: 0.386885 cumulative IPC: 0.351531 (Simulation time: 0 hr 4 min 35 sec) 
Heartbeat CPU 0 instructions: 69000000 cycles: 192841807 heartbeat IPC: 0.33179 cumulative IPC: 0.351177 (Simulation time: 0 hr 4 min 39 sec) 
Heartbeat CPU 0 instructions: 70000001 cycles: 195509062 heartbeat IPC: 0.374918 cumulative IPC: 0.351548 (Simulation time: 0 hr 4 min 43 sec) 
Heartbeat CPU 0 instructions: 71000001 cycles: 198215360 heartbeat IPC: 0.369508 cumulative IPC: 0.351829 (Simulation time: 0 hr 4 min 47 sec) 
Heartbeat CPU 0 instructions: 72000003 cycles: 201029473 heartbeat IPC: 0.355352 cumulative IPC: 0.351885 (Simulation time: 0 hr 4 min 51 sec) 
Heartbeat CPU 0 instructions: 73000000 cycles: 204018754 heartbeat IPC: 0.334528 cumulative IPC: 0.351595 (Simulation time: 0 hr 4 min 55 sec) 
Heartbeat CPU 0 instructions: 74000000 cycles: 207097814 heartbeat IPC: 0.324774 cumulative IPC: 0.351142 (Simulation time: 0 hr 4 min 59 sec) 
Heartbeat CPU 0 instructions: 75000000 cycles: 209932805 heartbeat IPC: 0.352735 cumulative IPC: 0.351167 (Simulation time: 0 hr 5 min 3 sec) 
Heartbeat CPU 0 instructions: 76000002 cycles: 212914934 heartbeat IPC: 0.335332 cumulative IPC: 0.350916 (Simulation time: 0 hr 5 min 7 sec) 
Heartbeat CPU 0 instructions: 77000000 cycles: 215819121 heartbeat IPC: 0.34433 cumulative IPC: 0.350815 (Simulation time: 0 hr 5 min 11 sec) 
Heartbeat CPU 0 instructions: 78000001 cycles: 218600550 heartbeat IPC: 0.359528 cumulative IPC: 0.35094 (Simulation time: 0 hr 5 min 15 sec) 
Heartbeat CPU 0 instructions: 79000000 cycles: 221569749 heartbeat IPC: 0.336791 cumulative IPC: 0.350727 (Simulation time: 0 hr 5 min 20 sec) 
Heartbeat CPU 0 instructions: 80000002 cycles: 224438268 heartbeat IPC: 0.348613 cumulative IPC: 0.350697 (Simulation time: 0 hr 5 min 24 sec) 
Heartbeat CPU 0 instructions: 81000003 cycles: 227273405 heartbeat IPC: 0.352717 cumulative IPC: 0.350725 (Simulation time: 0 hr 5 min 28 sec) 
Heartbeat CPU 0 instructions: 82000001 cycles: 230146622 heartbeat IPC: 0.348041 cumulative IPC: 0.350687 (Simulation time: 0 hr 5 min 33 sec) 
Heartbeat CPU 0 instructions: 83000002 cycles: 233014910 heartbeat IPC: 0.34864 cumulative IPC: 0.350659 (Simulation time: 0 hr 5 min 37 sec) 
Heartbeat CPU 0 instructions: 84000000 cycles: 236038216 heartbeat IPC: 0.330763 cumulative IPC: 0.350374 (Simulation time: 0 hr 5 min 41 sec) 
Heartbeat CPU 0 instructions: 85000000 cycles: 238818556 heartbeat IPC: 0.359668 cumulative IPC: 0.350495 (Simulation time: 0 hr 5 min 45 sec) 
Heartbeat CPU 0 instructions: 86000001 cycles: 241585729 heartbeat IPC: 0.36138 cumulative IPC: 0.350634 (Simulation time: 0 hr 5 min 49 sec) 
Heartbeat CPU 0 instructions: 87000001 cycles: 244028359 heartbeat IPC: 0.409395 cumulative IPC: 0.351289 (Simulation time: 0 hr 5 min 53 sec) 
Heartbeat CPU 0 instructions: 88000000 cycles: 246660812 heartbeat IPC: 0.379873 cumulative IPC: 0.351628 (Simulation time: 0 hr 5 min 57 sec) 
Heartbeat CPU 0 instructions: 89000001 cycles: 249140149 heartbeat IPC: 0.403334 cumulative IPC: 0.3522 (Simulation time: 0 hr 6 min 1 sec) 
Heartbeat CPU 0 instructions: 90000003 cycles: 252345473 heartbeat IPC: 0.311982 cumulative IPC: 0.351633 (Simulation time: 0 hr 6 min 5 sec) 
Heartbeat CPU 0 instructions: 91000000 cycles: 254965920 heartbeat IPC: 0.381613 cumulative IPC: 0.351974 (Simulation time: 0 hr 6 min 9 sec) 
Heartbeat CPU 0 instructions: 92000002 cycles: 258028863 heartbeat IPC: 0.326484 cumulative IPC: 0.35164 (Simulation time: 0 hr 6 min 13 sec) 
Heartbeat CPU 0 instructions: 93000003 cycles: 261018692 heartbeat IPC: 0.334468 cumulative IPC: 0.351422 (Simulation time: 0 hr 6 min 17 sec) 
Heartbeat CPU 0 instructions: 94000000 cycles: 264166633 heartbeat IPC: 0.317667 cumulative IPC: 0.350978 (Simulation time: 0 hr 6 min 21 sec) 
Heartbeat CPU 0 instructions: 95000003 cycles: 266817538 heartbeat IPC: 0.377231 cumulative IPC: 0.351266 (Simulation time: 0 hr 6 min 26 sec) 
Heartbeat CPU 0 instructions: 96000002 cycles: 269656941 heartbeat IPC: 0.352186 cumulative IPC: 0.351276 (Simulation time: 0 hr 6 min 29 sec) 
Heartbeat CPU 0 instructions: 97000000 cycles: 272951260 heartbeat IPC: 0.303552 cumulative IPC: 0.350643 (Simulation time: 0 hr 6 min 34 sec) 
Heartbeat CPU 0 instructions: 98000001 cycles: 275890705 heartbeat IPC: 0.340201 cumulative IPC: 0.350521 (Simulation time: 0 hr 6 min 38 sec) 
Heartbeat CPU 0 instructions: 99000000 cycles: 278934810 heartbeat IPC: 0.328503 cumulative IPC: 0.350257 (Simulation time: 0 hr 6 min 42 sec) 
Heartbeat CPU 0 instructions: 100000000 cycles: 281805743 heartbeat IPC: 0.348319 cumulative IPC: 0.350235 (Simulation time: 0 hr 6 min 46 sec) 
Heartbeat CPU 0 instructions: 101000002 cycles: 284674144 heartbeat IPC: 0.348627 cumulative IPC: 0.350217 (Simulation time: 0 hr 6 min 50 sec) 
Heartbeat CPU 0 instructions: 102000000 cycles: 287786356 heartbeat IPC: 0.321314 cumulative IPC: 0.349875 (Simulation time: 0 hr 6 min 54 sec) 
Heartbeat CPU 0 instructions: 103000000 cycles: 290386307 heartbeat IPC: 0.384623 cumulative IPC: 0.350215 (Simulation time: 0 hr 6 min 58 sec) 
Heartbeat CPU 0 instructions: 104000002 cycles: 293441749 heartbeat IPC: 0.327286 cumulative IPC: 0.349955 (Simulation time: 0 hr 7 min 2 sec) 
Heartbeat CPU 0 instructions: 105000000 cycles: 296161035 heartbeat IPC: 0.367743 cumulative IPC: 0.350133 (Simulation time: 0 hr 7 min 6 sec) 
Heartbeat CPU 0 instructions: 106000000 cycles: 299289543 heartbeat IPC: 0.319641 cumulative IPC: 0.349785 (Simulation time: 0 hr 7 min 11 sec) 
Heartbeat CPU 0 instructions: 107000000 cycles: 302577805 heartbeat IPC: 0.304112 cumulative IPC: 0.349245 (Simulation time: 0 hr 7 min 15 sec) 
Heartbeat CPU 0 instructions: 108000002 cycles: 305212988 heartbeat IPC: 0.379481 cumulative IPC: 0.349529 (Simulation time: 0 hr 7 min 19 sec) 
Heartbeat CPU 0 instructions: 109000000 cycles: 307623463 heartbeat IPC: 0.414855 cumulative IPC: 0.350086 (Simulation time: 0 hr 7 min 23 sec) 
Heartbeat CPU 0 instructions: 110000000 cycles: 310284833 heartbeat IPC: 0.375746 cumulative IPC: 0.350325 (Simulation time: 0 hr 7 min 27 sec) 
Heartbeat CPU 0 instructions: 111000000 cycles: 313320536 heartbeat IPC: 0.329413 cumulative IPC: 0.350105 (Simulation time: 0 hr 7 min 31 sec) 
Heartbeat CPU 0 instructions: 112000000 cycles: 316117904 heartbeat IPC: 0.357479 cumulative IPC: 0.350176 (Simulation time: 0 hr 7 min 35 sec) 
Heartbeat CPU 0 instructions: 113000001 cycles: 319219389 heartbeat IPC: 0.322427 cumulative IPC: 0.349883 (Simulation time: 0 hr 7 min 39 sec) 
Heartbeat CPU 0 instructions: 114000001 cycles: 322130371 heartbeat IPC: 0.343527 cumulative IPC: 0.349821 (Simulation time: 0 hr 7 min 43 sec) 
Heartbeat CPU 0 instructions: 115000003 cycles: 324708789 heartbeat IPC: 0.387835 cumulative IPC: 0.350148 (Simulation time: 0 hr 7 min 46 sec) 
Heartbeat CPU 0 instructions: 116000000 cycles: 327545222 heartbeat IPC: 0.352554 cumulative IPC: 0.35017 (Simulation time: 0 hr 7 min 50 sec) 
Heartbeat CPU 0 instructions: 117000002 cycles: 330546664 heartbeat IPC: 0.333174 cumulative IPC: 0.350004 (Simulation time: 0 hr 7 min 54 sec) 
Heartbeat CPU 0 instructions: 118000000 cycles: 333386067 heartbeat IPC: 0.352186 cumulative IPC: 0.350024 (Simulation time: 0 hr 7 min 58 sec) 
Heartbeat CPU 0 instructions: 119000000 cycles: 336121872 heartbeat IPC: 0.365523 cumulative IPC: 0.35016 (Simulation time: 0 hr 8 min 2 sec) 
Heartbeat CPU 0 instructions: 120000003 cycles: 338941260 heartbeat IPC: 0.354688 cumulative IPC: 0.350201 (Simulation time: 0 hr 8 min 6 sec) 
Heartbeat CPU 0 instructions: 121000000 cycles: 341767519 heartbeat IPC: 0.353824 cumulative IPC: 0.350233 (Simulation time: 0 hr 8 min 10 sec) 
Heartbeat CPU 0 instructions: 122000001 cycles: 344842583 heartbeat IPC: 0.325197 cumulative IPC: 0.349992 (Simulation time: 0 hr 8 min 14 sec) 
Heartbeat CPU 0 instructions: 123000003 cycles: 347582431 heartbeat IPC: 0.364984 cumulative IPC: 0.35012 (Simulation time: 0 hr 8 min 18 sec) 
Heartbeat CPU 0 instructions: 124000000 cycles: 350725841 heartbeat IPC: 0.318125 cumulative IPC: 0.349811 (Simulation time: 0 hr 8 min 22 sec) 
Heartbeat CPU 0 instructions: 125000000 cycles: 353480112 heartbeat IPC: 0.363072 cumulative IPC: 0.349922 (Simulation time: 0 hr 8 min 26 sec) 
Heartbeat CPU 0 instructions: 126000002 cycles: 356312935 heartbeat IPC: 0.353005 cumulative IPC: 0.349948 (Simulation time: 0 hr 8 min 30 sec) 
Heartbeat CPU 0 instructions: 127000000 cycles: 359112730 heartbeat IPC: 0.357168 cumulative IPC: 0.350009 (Simulation time: 0 hr 8 min 33 sec) 
Heartbeat CPU 0 instructions: 128000003 cycles: 361902317 heartbeat IPC: 0.358477 cumulative IPC: 0.350079 (Simulation time: 0 hr 8 min 37 sec) 
Heartbeat CPU 0 instructions: 129000000 cycles: 365009873 heartbeat IPC: 0.321795 cumulative IPC: 0.349821 (Simulation time: 0 hr 8 min 41 sec) 
Heartbeat CPU 0 instructions: 130000000 cycles: 368120410 heartbeat IPC: 0.321488 cumulative IPC: 0.349564 (Simulation time: 0 hr 8 min 45 sec) 
Heartbeat CPU 0 instructions: 131000002 cycles: 370783212 heartbeat IPC: 0.375545 cumulative IPC: 0.349764 (Simulation time: 0 hr 8 min 49 sec) 
Heartbeat CPU 0 instructions: 132000000 cycles: 373824190 heartbeat IPC: 0.328841 cumulative IPC: 0.349582 (Simulation time: 0 hr 8 min 53 sec) 
Heartbeat CPU 0 instructions: 133000003 cycles: 376819655 heartbeat IPC: 0.333839 cumulative IPC: 0.349448 (Simulation time: 0 hr 8 min 57 sec) 
Heartbeat CPU 0 instructions: 134000002 cycles: 379657888 heartbeat IPC: 0.352332 cumulative IPC: 0.349471 (Simulation time: 0 hr 9 min 1 sec) 
Heartbeat CPU 0 instructions: 135000000 cycles: 382520103 heartbeat IPC: 0.349379 cumulative IPC: 0.34947 (Simulation time: 0 hr 9 min 5 sec) 
Heartbeat CPU 0 instructions: 136000001 cycles: 385354099 heartbeat IPC: 0.352859 cumulative IPC: 0.349497 (Simulation time: 0 hr 9 min 9 sec) 
Heartbeat CPU 0 instructions: 137000003 cycles: 388083724 heartbeat IPC: 0.366351 cumulative IPC: 0.349623 (Simulation time: 0 hr 9 min 13 sec) 
Heartbeat CPU 0 instructions: 138000001 cycles: 390926468 heartbeat IPC: 0.351772 cumulative IPC: 0.34964 (Simulation time: 0 hr 9 min 17 sec) 
Heartbeat CPU 0 instructions: 139000000 cycles: 394262911 heartbeat IPC: 0.29972 cumulative IPC: 0.349189 (Simulation time: 0 hr 9 min 21 sec) 
Heartbeat CPU 0 instructions: 140000001 cycles: 396763886 heartbeat IPC: 0.399844 cumulative IPC: 0.34953 (Simulation time: 0 hr 9 min 25 sec) 
Heartbeat CPU 0 instructions: 141000001 cycles: 399660622 heartbeat IPC: 0.345216 cumulative IPC: 0.349496 (Simulation time: 0 hr 9 min 29 sec) 
Heartbeat CPU 0 instructions: 142000001 cycles: 402326139 heartbeat IPC: 0.375162 cumulative IPC: 0.349678 (Simulation time: 0 hr 9 min 32 sec) 
Heartbeat CPU 0 instructions: 143000000 cycles: 405309583 heartbeat IPC: 0.335183 cumulative IPC: 0.349564 (Simulation time: 0 hr 9 min 36 sec) 
Heartbeat CPU 0 instructions: 144000000 cycles: 408210850 heartbeat IPC: 0.344677 cumulative IPC: 0.349527 (Simulation time: 0 hr 9 min 40 sec) 
Heartbeat CPU 0 instructions: 145000001 cycles: 411140054 heartbeat IPC: 0.34139 cumulative IPC: 0.349465 (Simulation time: 0 hr 9 min 44 sec) 
Heartbeat CPU 0 instructions: 146000000 cycles: 414121901 heartbeat IPC: 0.335362 cumulative IPC: 0.349357 (Simulation time: 0 hr 9 min 48 sec) 
Heartbeat CPU 0 instructions: 147000003 cycles: 417007349 heartbeat IPC: 0.346568 cumulative IPC: 0.349337 (Simulation time: 0 hr 9 min 52 sec) 
Heartbeat CPU 0 instructions: 148000003 cycles: 420040630 heartbeat IPC: 0.329676 cumulative IPC: 0.349186 (Simulation time: 0 hr 9 min 56 sec) 
Heartbeat CPU 0 instructions: 149000001 cycles: 422890100 heartbeat IPC: 0.350942 cumulative IPC: 0.349198 (Simulation time: 0 hr 10 min 0 sec) 
Heartbeat CPU 0 instructions: 150000002 cycles: 425670758 heartbeat IPC: 0.359627 cumulative IPC: 0.349271 (Simulation time: 0 hr 10 min 4 sec) 
Heartbeat CPU 0 instructions: 151000003 cycles: 428759026 heartbeat IPC: 0.323806 cumulative IPC: 0.349076 (Simulation time: 0 hr 10 min 8 sec) 
Heartbeat CPU 0 instructions: 152000000 cycles: 431703121 heartbeat IPC: 0.339662 cumulative IPC: 0.349008 (Simulation time: 0 hr 10 min 12 sec) 
Heartbeat CPU 0 instructions: 153000001 cycles: 434625399 heartbeat IPC: 0.342199 cumulative IPC: 0.348959 (Simulation time: 0 hr 10 min 16 sec) 
Heartbeat CPU 0 instructions: 154000000 cycles: 437494165 heartbeat IPC: 0.348582 cumulative IPC: 0.348957 (Simulation time: 0 hr 10 min 20 sec) 
Heartbeat CPU 0 instructions: 155000002 cycles: 440663208 heartbeat IPC: 0.315553 cumulative IPC: 0.348702 (Simulation time: 0 hr 10 min 24 sec) 
Heartbeat CPU 0 instructions: 156000002 cycles: 443704104 heartbeat IPC: 0.32885 cumulative IPC: 0.348558 (Simulation time: 0 hr 10 min 28 sec) 
Heartbeat CPU 0 instructions: 157000000 cycles: 446401832 heartbeat IPC: 0.370682 cumulative IPC: 0.3487 (Simulation time: 0 hr 10 min 32 sec) 
Heartbeat CPU 0 instructions: 158000002 cycles: 449437852 heartbeat IPC: 0.329379 cumulative IPC: 0.348561 (Simulation time: 0 hr 10 min 36 sec) 
Heartbeat CPU 0 instructions: 159000001 cycles: 451934826 heartbeat IPC: 0.400484 cumulative IPC: 0.348865 (Simulation time: 0 hr 10 min 39 sec) 
Heartbeat CPU 0 instructions: 160000000 cycles: 455011989 heartbeat IPC: 0.324974 cumulative IPC: 0.348694 (Simulation time: 0 hr 10 min 44 sec) 
Heartbeat CPU 0 instructions: 161000002 cycles: 458177018 heartbeat IPC: 0.315953 cumulative IPC: 0.348455 (Simulation time: 0 hr 10 min 48 sec) 
Heartbeat CPU 0 instructions: 162000001 cycles: 460437887 heartbeat IPC: 0.442307 cumulative IPC: 0.348942 (Simulation time: 0 hr 10 min 52 sec) 
Heartbeat CPU 0 instructions: 163000001 cycles: 463261534 heartbeat IPC: 0.354152 cumulative IPC: 0.348976 (Simulation time: 0 hr 10 min 56 sec) 
Heartbeat CPU 0 instructions: 164000001 cycles: 466041479 heartbeat IPC: 0.359719 cumulative IPC: 0.349043 (Simulation time: 0 hr 11 min 0 sec) 
Heartbeat CPU 0 instructions: 165000000 cycles: 468999250 heartbeat IPC: 0.338092 cumulative IPC: 0.34897 (Simulation time: 0 hr 11 min 3 sec) 
Heartbeat CPU 0 instructions: 166000003 cycles: 471935121 heartbeat IPC: 0.340615 cumulative IPC: 0.348916 (Simulation time: 0 hr 11 min 7 sec) 
Heartbeat CPU 0 instructions: 167000000 cycles: 474852458 heartbeat IPC: 0.342777 cumulative IPC: 0.348876 (Simulation time: 0 hr 11 min 11 sec) 
Heartbeat CPU 0 instructions: 168000001 cycles: 477727418 heartbeat IPC: 0.347831 cumulative IPC: 0.348869 (Simulation time: 0 hr 11 min 15 sec) 
Heartbeat CPU 0 instructions: 169000001 cycles: 480743444 heartbeat IPC: 0.331562 cumulative IPC: 0.348755 (Simulation time: 0 hr 11 min 19 sec) 
Heartbeat CPU 0 instructions: 170000000 cycles: 483362453 heartbeat IPC: 0.381823 cumulative IPC: 0.348944 (Simulation time: 0 hr 11 min 23 sec) 
Heartbeat CPU 0 instructions: 171000001 cycles: 486261937 heartbeat IPC: 0.344889 cumulative IPC: 0.348918 (Simulation time: 0 hr 11 min 27 sec) 
Heartbeat CPU 0 instructions: 172000003 cycles: 489118540 heartbeat IPC: 0.350067 cumulative IPC: 0.348925 (Simulation time: 0 hr 11 min 31 sec) 
Heartbeat CPU 0 instructions: 173000000 cycles: 491815863 heartbeat IPC: 0.370737 cumulative IPC: 0.349051 (Simulation time: 0 hr 11 min 35 sec) 
Heartbeat CPU 0 instructions: 174000002 cycles: 494882599 heartbeat IPC: 0.32608 cumulative IPC: 0.348901 (Simulation time: 0 hr 11 min 40 sec) 
Heartbeat CPU 0 instructions: 175000000 cycles: 497736026 heartbeat IPC: 0.350455 cumulative IPC: 0.348911 (Simulation time: 0 hr 11 min 44 sec) 
Heartbeat CPU 0 instructions: 176000000 cycles: 500680480 heartbeat IPC: 0.339622 cumulative IPC: 0.348853 (Simulation time: 0 hr 11 min 48 sec) 
Heartbeat CPU 0 instructions: 177000000 cycles: 503595941 heartbeat IPC: 0.342999 cumulative IPC: 0.348817 (Simulation time: 0 hr 11 min 52 sec) 
Heartbeat CPU 0 instructions: 178000000 cycles: 506245235 heartbeat IPC: 0.377459 cumulative IPC: 0.348975 (Simulation time: 0 hr 11 min 56 sec) 
Heartbeat CPU 0 instructions: 179000002 cycles: 509329037 heartbeat IPC: 0.324276 cumulative IPC: 0.348818 (Simulation time: 0 hr 12 min 0 sec) 
Heartbeat CPU 0 instructions: 180000000 cycles: 512111197 heartbeat IPC: 0.359432 cumulative IPC: 0.348878 (Simulation time: 0 hr 12 min 5 sec) 
Heartbeat CPU 0 instructions: 181000000 cycles: 515135860 heartbeat IPC: 0.330615 cumulative IPC: 0.348766 (Simulation time: 0 hr 12 min 9 sec) 
Heartbeat CPU 0 instructions: 182000002 cycles: 517953820 heartbeat IPC: 0.354867 cumulative IPC: 0.348801 (Simulation time: 0 hr 12 min 13 sec) 
Heartbeat CPU 0 instructions: 183000002 cycles: 520650980 heartbeat IPC: 0.37076 cumulative IPC: 0.34892 (Simulation time: 0 hr 12 min 17 sec) 
Heartbeat CPU 0 instructions: 184000000 cycles: 523562913 heartbeat IPC: 0.343414 cumulative IPC: 0.348888 (Simulation time: 0 hr 12 min 21 sec) 
Heartbeat CPU 0 instructions: 185000001 cycles: 526559508 heartbeat IPC: 0.333712 cumulative IPC: 0.348797 (Simulation time: 0 hr 12 min 25 sec) 
Heartbeat CPU 0 instructions: 186000001 cycles: 529717864 heartbeat IPC: 0.31662 cumulative IPC: 0.348596 (Simulation time: 0 hr 12 min 30 sec) 
Heartbeat CPU 0 instructions: 187000000 cycles: 532605109 heartbeat IPC: 0.346351 cumulative IPC: 0.348583 (Simulation time: 0 hr 12 min 34 sec) 
Heartbeat CPU 0 instructions: 188000003 cycles: 535404488 heartbeat IPC: 0.357223 cumulative IPC: 0.348631 (Simulation time: 0 hr 12 min 38 sec) 
Heartbeat CPU 0 instructions: 189000001 cycles: 538361579 heartbeat IPC: 0.33817 cumulative IPC: 0.34857 (Simulation time: 0 hr 12 min 43 sec) 
Heartbeat CPU 0 instructions: 190000003 cycles: 541157337 heartbeat IPC: 0.357685 cumulative IPC: 0.34862 (Simulation time: 0 hr 12 min 47 sec) 
Heartbeat CPU 0 instructions: 191000001 cycles: 543900201 heartbeat IPC: 0.364582 cumulative IPC: 0.348704 (Simulation time: 0 hr 12 min 51 sec) 
Heartbeat CPU 0 instructions: 192000000 cycles: 546850435 heartbeat IPC: 0.338956 cumulative IPC: 0.348649 (Simulation time: 0 hr 12 min 55 sec) 
Heartbeat CPU 0 instructions: 193000000 cycles: 549790443 heartbeat IPC: 0.340135 cumulative IPC: 0.348601 (Simulation time: 0 hr 12 min 59 sec) 
Heartbeat CPU 0 instructions: 194000000 cycles: 552612196 heartbeat IPC: 0.35439 cumulative IPC: 0.348632 (Simulation time: 0 hr 13 min 3 sec) 
Heartbeat CPU 0 instructions: 195000002 cycles: 555483885 heartbeat IPC: 0.348228 cumulative IPC: 0.34863 (Simulation time: 0 hr 13 min 8 sec) 
Heartbeat CPU 0 instructions: 196000003 cycles: 558540150 heartbeat IPC: 0.327197 cumulative IPC: 0.348507 (Simulation time: 0 hr 13 min 12 sec) 
Heartbeat CPU 0 instructions: 197000000 cycles: 561154908 heartbeat IPC: 0.382443 cumulative IPC: 0.348673 (Simulation time: 0 hr 13 min 16 sec) 
Heartbeat CPU 0 instructions: 198000000 cycles: 564153610 heartbeat IPC: 0.333478 cumulative IPC: 0.348588 (Simulation time: 0 hr 13 min 20 sec) 
Heartbeat CPU 0 instructions: 199000002 cycles: 567013893 heartbeat IPC: 0.349616 cumulative IPC: 0.348594 (Simulation time: 0 hr 13 min 24 sec) 
Heartbeat CPU 0 instructions: 200000000 cycles: 569876178 heartbeat IPC: 0.349371 cumulative IPC: 0.348598 (Simulation time: 0 hr 13 min 28 sec) 
Heartbeat CPU 0 instructions: 201000000 cycles: 572774911 heartbeat IPC: 0.344978 cumulative IPC: 0.348579 (Simulation time: 0 hr 13 min 32 sec) 
Heartbeat CPU 0 instructions: 202000002 cycles: 575568798 heartbeat IPC: 0.357925 cumulative IPC: 0.348626 (Simulation time: 0 hr 13 min 35 sec) 
Heartbeat CPU 0 instructions: 203000000 cycles: 578435713 heartbeat IPC: 0.348806 cumulative IPC: 0.348627 (Simulation time: 0 hr 13 min 40 sec) 
Heartbeat CPU 0 instructions: 204000003 cycles: 581470225 heartbeat IPC: 0.329543 cumulative IPC: 0.348523 (Simulation time: 0 hr 13 min 44 sec) 
Heartbeat CPU 0 instructions: 205000002 cycles: 584242527 heartbeat IPC: 0.360711 cumulative IPC: 0.348583 (Simulation time: 0 hr 13 min 48 sec) 
Heartbeat CPU 0 instructions: 206000002 cycles: 587055350 heartbeat IPC: 0.355515 cumulative IPC: 0.348618 (Simulation time: 0 hr 13 min 52 sec) 
Heartbeat CPU 0 instructions: 207000002 cycles: 590224717 heartbeat IPC: 0.31552 cumulative IPC: 0.348433 (Simulation time: 0 hr 13 min 56 sec) 
Heartbeat CPU 0 instructions: 208000000 cycles: 593221080 heartbeat IPC: 0.333737 cumulative IPC: 0.348355 (Simulation time: 0 hr 14 min 0 sec) 
Heartbeat CPU 0 instructions: 209000000 cycles: 595903378 heartbeat IPC: 0.372815 cumulative IPC: 0.34847 (Simulation time: 0 hr 14 min 4 sec) 
Heartbeat CPU 0 instructions: 210000000 cycles: 598810505 heartbeat IPC: 0.343982 cumulative IPC: 0.348447 (Simulation time: 0 hr 14 min 9 sec) 
Heartbeat CPU 0 instructions: 211000003 cycles: 601978506 heartbeat IPC: 0.315657 cumulative IPC: 0.348267 (Simulation time: 0 hr 14 min 13 sec) 
Heartbeat CPU 0 instructions: 212000000 cycles: 604870329 heartbeat IPC: 0.345802 cumulative IPC: 0.348255 (Simulation time: 0 hr 14 min 17 sec) 
Heartbeat CPU 0 instructions: 213000003 cycles: 607607780 heartbeat IPC: 0.365304 cumulative IPC: 0.348335 (Simulation time: 0 hr 14 min 21 sec) 
Heartbeat CPU 0 instructions: 214000002 cycles: 610438536 heartbeat IPC: 0.353262 cumulative IPC: 0.348359 (Simulation time: 0 hr 14 min 25 sec) 
Heartbeat CPU 0 instructions: 215000000 cycles: 613231937 heartbeat IPC: 0.357986 cumulative IPC: 0.348405 (Simulation time: 0 hr 14 min 29 sec) 
Heartbeat CPU 0 instructions: 216000003 cycles: 616267901 heartbeat IPC: 0.329386 cumulative IPC: 0.348307 (Simulation time: 0 hr 14 min 33 sec) 
Heartbeat CPU 0 instructions: 217000000 cycles: 619564189 heartbeat IPC: 0.303371 cumulative IPC: 0.348058 (Simulation time: 0 hr 14 min 38 sec) 
Heartbeat CPU 0 instructions: 218000000 cycles: 621680635 heartbeat IPC: 0.47249 cumulative IPC: 0.348499 (Simulation time: 0 hr 14 min 42 sec) 
Heartbeat CPU 0 instructions: 219000003 cycles: 624577041 heartbeat IPC: 0.345257 cumulative IPC: 0.348483 (Simulation time: 0 hr 14 min 46 sec) 
Heartbeat CPU 0 instructions: 220000000 cycles: 627507877 heartbeat IPC: 0.341199 cumulative IPC: 0.348448 (Simulation time: 0 hr 14 min 50 sec) 
Heartbeat CPU 0 instructions: 221000000 cycles: 630430167 heartbeat IPC: 0.342197 cumulative IPC: 0.348418 (Simulation time: 0 hr 14 min 54 sec) 
Heartbeat CPU 0 instructions: 222000003 cycles: 632917007 heartbeat IPC: 0.402118 cumulative IPC: 0.348637 (Simulation time: 0 hr 14 min 58 sec) 
Heartbeat CPU 0 instructions: 223000001 cycles: 635843458 heartbeat IPC: 0.34171 cumulative IPC: 0.348604 (Simulation time: 0 hr 15 min 2 sec) 
Heartbeat CPU 0 instructions: 224000003 cycles: 638700215 heartbeat IPC: 0.350048 cumulative IPC: 0.348611 (Simulation time: 0 hr 15 min 6 sec) 
Heartbeat CPU 0 instructions: 225000000 cycles: 641623643 heartbeat IPC: 0.342063 cumulative IPC: 0.34858 (Simulation time: 0 hr 15 min 10 sec) 
Heartbeat CPU 0 instructions: 226000000 cycles: 644223991 heartbeat IPC: 0.384564 cumulative IPC: 0.348731 (Simulation time: 0 hr 15 min 14 sec) 
Heartbeat CPU 0 instructions: 227000001 cycles: 647150517 heartbeat IPC: 0.341702 cumulative IPC: 0.348698 (Simulation time: 0 hr 15 min 18 sec) 
Heartbeat CPU 0 instructions: 228000000 cycles: 650073773 heartbeat IPC: 0.342084 cumulative IPC: 0.348667 (Simulation time: 0 hr 15 min 22 sec) 
Heartbeat CPU 0 instructions: 229000001 cycles: 652986567 heartbeat IPC: 0.343313 cumulative IPC: 0.348642 (Simulation time: 0 hr 15 min 27 sec) 
Heartbeat CPU 0 instructions: 230000002 cycles: 655888102 heartbeat IPC: 0.344646 cumulative IPC: 0.348624 (Simulation time: 0 hr 15 min 31 sec) 
Heartbeat CPU 0 instructions: 231000000 cycles: 658853878 heartbeat IPC: 0.337179 cumulative IPC: 0.34857 (Simulation time: 0 hr 15 min 35 sec) 
Heartbeat CPU 0 instructions: 232000003 cycles: 661742967 heartbeat IPC: 0.346131 cumulative IPC: 0.348559 (Simulation time: 0 hr 15 min 39 sec) 
Heartbeat CPU 0 instructions: 233000002 cycles: 664692734 heartbeat IPC: 0.339009 cumulative IPC: 0.348515 (Simulation time: 0 hr 15 min 43 sec) 
Heartbeat CPU 0 instructions: 234000002 cycles: 667582136 heartbeat IPC: 0.346092 cumulative IPC: 0.348504 (Simulation time: 0 hr 15 min 47 sec) 
Heartbeat CPU 0 instructions: 235000003 cycles: 670464188 heartbeat IPC: 0.346975 cumulative IPC: 0.348498 (Simulation time: 0 hr 15 min 52 sec) 
Heartbeat CPU 0 instructions: 236000003 cycles: 673452643 heartbeat IPC: 0.334621 cumulative IPC: 0.348434 (Simulation time: 0 hr 15 min 56 sec) 
Heartbeat CPU 0 instructions: 237000000 cycles: 676228469 heartbeat IPC: 0.360252 cumulative IPC: 0.348484 (Simulation time: 0 hr 16 min 0 sec) 
Heartbeat CPU 0 instructions: 238000000 cycles: 679260560 heartbeat IPC: 0.329805 cumulative IPC: 0.348397 (Simulation time: 0 hr 16 min 4 sec) 
Heartbeat CPU 0 instructions: 239000001 cycles: 681996190 heartbeat IPC: 0.365547 cumulative IPC: 0.348469 (Simulation time: 0 hr 16 min 8 sec) 
Heartbeat CPU 0 instructions: 240000001 cycles: 684805720 heartbeat IPC: 0.355931 cumulative IPC: 0.348501 (Simulation time: 0 hr 16 min 12 sec) 
Heartbeat CPU 0 instructions: 241000003 cycles: 687837232 heartbeat IPC: 0.329869 cumulative IPC: 0.348415 (Simulation time: 0 hr 16 min 16 sec) 
Heartbeat CPU 0 instructions: 242000000 cycles: 690869798 heartbeat IPC: 0.329753 cumulative IPC: 0.34833 (Simulation time: 0 hr 16 min 20 sec) 
Heartbeat CPU 0 instructions: 243000003 cycles: 693660625 heartbeat IPC: 0.358318 cumulative IPC: 0.348372 (Simulation time: 0 hr 16 min 24 sec) 
Heartbeat CPU 0 instructions: 244000000 cycles: 696551267 heartbeat IPC: 0.345943 cumulative IPC: 0.348362 (Simulation time: 0 hr 16 min 28 sec) 
Heartbeat CPU 0 instructions: 245000000 cycles: 699600256 heartbeat IPC: 0.327978 cumulative IPC: 0.34827 (Simulation time: 0 hr 16 min 33 sec) 
Heartbeat CPU 0 instructions: 246000000 cycles: 702339682 heartbeat IPC: 0.36504 cumulative IPC: 0.348337 (Simulation time: 0 hr 16 min 37 sec) 
Heartbeat CPU 0 instructions: 247000001 cycles: 705263250 heartbeat IPC: 0.342048 cumulative IPC: 0.34831 (Simulation time: 0 hr 16 min 41 sec) 
Heartbeat CPU 0 instructions: 248000000 cycles: 708141393 heartbeat IPC: 0.347446 cumulative IPC: 0.348307 (Simulation time: 0 hr 16 min 45 sec) 
Heartbeat CPU 0 instructions: 249000001 cycles: 710928993 heartbeat IPC: 0.358732 cumulative IPC: 0.348349 (Simulation time: 0 hr 16 min 49 sec) 
Heartbeat CPU 0 instructions: 250000000 cycles: 713787742 heartbeat IPC: 0.349803 cumulative IPC: 0.348355 (Simulation time: 0 hr 16 min 53 sec) 
Heartbeat CPU 0 instructions: 251000002 cycles: 716655349 heartbeat IPC: 0.348724 cumulative IPC: 0.348357 (Simulation time: 0 hr 16 min 57 sec) 
Heartbeat CPU 0 instructions: 252000000 cycles: 719578949 heartbeat IPC: 0.342043 cumulative IPC: 0.34833 (Simulation time: 0 hr 17 min 1 sec) 
Heartbeat CPU 0 instructions: 253000000 cycles: 722342046 heartbeat IPC: 0.361913 cumulative IPC: 0.348384 (Simulation time: 0 hr 17 min 5 sec) 
Heartbeat CPU 0 instructions: 254000001 cycles: 725512956 heartbeat IPC: 0.315367 cumulative IPC: 0.348234 (Simulation time: 0 hr 17 min 9 sec) 
Heartbeat CPU 0 instructions: 255000003 cycles: 728462561 heartbeat IPC: 0.339029 cumulative IPC: 0.348196 (Simulation time: 0 hr 17 min 13 sec) 
Heartbeat CPU 0 instructions: 256000001 cycles: 730992717 heartbeat IPC: 0.395232 cumulative IPC: 0.348364 (Simulation time: 0 hr 17 min 17 sec) 
Heartbeat CPU 0 instructions: 257000000 cycles: 734029795 heartbeat IPC: 0.329264 cumulative IPC: 0.348283 (Simulation time: 0 hr 17 min 21 sec) 
Heartbeat CPU 0 instructions: 258000002 cycles: 736902118 heartbeat IPC: 0.348151 cumulative IPC: 0.348282 (Simulation time: 0 hr 17 min 25 sec) 
Heartbeat CPU 0 instructions: 259000001 cycles: 739931616 heartbeat IPC: 0.330087 cumulative IPC: 0.348205 (Simulation time: 0 hr 17 min 29 sec) 
Heartbeat CPU 0 instructions: 260000000 cycles: 742729614 heartbeat IPC: 0.357398 cumulative IPC: 0.348241 (Simulation time: 0 hr 17 min 33 sec) 
Finished CPU 0 instructions: 250000003 cycles: 717894118 cumulative IPC: 0.348241 (Simulation time: 0 hr 17 min 33 sec) 

ChampSim completed all CPUs

Region of Interest Statistics

CPU 0 cumulative IPC: 0.348241 instructions: 250000003 cycles: 717894118
L1D TOTAL     ACCESS:  104085461  HIT:   99632309  MISS:    4453152
L1D LOAD      ACCESS:   59331471  HIT:   55463097  MISS:    3868374
L1D RFO       ACCESS:   44753990  HIT:   44169212  MISS:     584778
L1D PREFETCH  ACCESS:          0  HIT:          0  MISS:          0
L1D WRITEBACK ACCESS:          0  HIT:          0  MISS:          0
L1D PREFETCH  REQUESTED:          0  ISSUED:          0  USEFUL:          0  USELESS:          0
L1D AVERAGE MISS LATENCY: 154.221 cycles
L1I TOTAL     ACCESS:   56477937  HIT:   56464120  MISS:      13817
L1I LOAD      ACCESS:   56477937  HIT:   56464120  MISS:      13817
L1I RFO       ACCESS:          0  HIT:          0  MISS:          0
L1I PREFETCH  ACCESS:          0  HIT:          0  MISS:          0
L1I WRITEBACK ACCESS:          0  HIT:          0  MISS:          0
L1I PREFETCH  REQUESTED:          0  ISSUED:          0  USEFUL:          0  USELESS:          0
L1I AVERAGE MISS LATENCY: 38.4922 cycles
L2C TOTAL     ACCESS:    6680115  HIT:    3647126  MISS:    3032989
L2C LOAD      ACCESS:    3882035  HIT:    1244487  MISS:    2637548
L2C RFO       ACCESS:     584741  HIT:     192535  MISS:     392206
L2C PREFETCH  ACCESS:          0  HIT:          0  MISS:          0
L2C WRITEBACK ACCESS:    2213339  HIT:    2210104  MISS:       3235
L2C PREFETCH  REQUESTED:          0  ISSUED:          0  USEFUL:          0  USELESS:          0
L2C AVERAGE MISS LATENCY: 197.877 cycles
LLC TOTAL     ACCESS:    4539398  HIT:    2279746  MISS:    2259652
LLC LOAD      ACCESS:    2637543  HIT:     589278  MISS:    2048265
LLC RFO       ACCESS:     392205  HIT:     187253  MISS:     204952
LLC PREFETCH  ACCESS:          0  HIT:          0  MISS:          0
LLC WRITEBACK ACCESS:    1509650  HIT:    1503215  MISS:       6435
LLC PREFETCH  REQUESTED:          0  ISSUED:          0  USEFUL:          0  USELESS:          0
LLC AVERAGE MISS LATENCY: 219.151 cycles
Major fault: 0 Minor fault: 47330

DRAM Statistics
 CHANNEL 0
 RQ ROW_BUFFER_HIT:     306686  ROW_BUFFER_MISS:     820021
 DBUS_CONGESTED:     489638
 WQ ROW_BUFFER_HIT:     154285  ROW_BUFFER_MISS:     380659  FULL:          0

 CHANNEL 1
 RQ ROW_BUFFER_HIT:     307151  ROW_BUFFER_MISS:     819353
 DBUS_CONGESTED:     489638
 WQ ROW_BUFFER_HIT:     153576  ROW_BUFFER_MISS:     379912  FULL:          0

 AVG_CONGESTED_CYCLE: 18

CPU 0 Branch Prediction Accuracy: 98.2051% MPKI: 3.73375 Average ROB Occupancy at Mispredict: 94.8795

Branch types
NOT_BRANCH: 197996149 79.1985%
BRANCH_DIRECT_JUMP: 2845297 1.13812%
BRANCH_INDIRECT: 839449 0.33578%
BRANCH_CONDITIONAL: 33458567 13.3834%
BRANCH_DIRECT_CALL: 4445841 1.77834%
BRANCH_INDIRECT_CALL: 2984286 1.19371%
BRANCH_RETURN: 7430128 2.97205%
BRANCH_OTHER: 0 0%

