
*** ChampSim Multicore Out-of-Order Simulator ***

Warmup Instructions: 1000000
Prefetch Warmup Instructions: 10000000
Simulation Instructions: 250000000
Stat Printing Period: 1000000
Number of CPUs: 1
LLC sets: 2048
LLC ways: 16
Off-chip DRAM Size: 32768 MB Channels: 2 Width: 64-bit Data Rate: 1024 MT/s

CPU 0 runs /scratch/cluster/cmolder/ML-DPC/ChampSimTraces/spec17/620.omnetpp-s0.trace.xz
Read seed: 216
Heartbeat CPU 0 instructions: 1000001 cycles: 553794 heartbeat IPC: 1.80573 cumulative IPC: 1.80573 (Simulation time: 0 hr 0 min 3 sec) 

Warmup complete CPU 0 instructions: 1000001 cycles: 553794 (Simulation time: 0 hr 0 min 3 sec) 

Heartbeat CPU 0 instructions: 2000000 cycles: 3430397 heartbeat IPC: 0.347632 cumulative IPC: 0.347632 (Simulation time: 0 hr 0 min 7 sec) 
Heartbeat CPU 0 instructions: 3000002 cycles: 6142379 heartbeat IPC: 0.368735 cumulative IPC: 0.357873 (Simulation time: 0 hr 0 min 10 sec) 
Heartbeat CPU 0 instructions: 4000003 cycles: 9227645 heartbeat IPC: 0.324121 cumulative IPC: 0.345867 (Simulation time: 0 hr 0 min 14 sec) 
Heartbeat CPU 0 instructions: 5000002 cycles: 12278668 heartbeat IPC: 0.327759 cumulative IPC: 0.341155 (Simulation time: 0 hr 0 min 18 sec) 
Heartbeat CPU 0 instructions: 6000001 cycles: 15164212 heartbeat IPC: 0.346555 cumulative IPC: 0.342222 (Simulation time: 0 hr 0 min 22 sec) 
Heartbeat CPU 0 instructions: 7000003 cycles: 18096593 heartbeat IPC: 0.34102 cumulative IPC: 0.342021 (Simulation time: 0 hr 0 min 26 sec) 
Heartbeat CPU 0 instructions: 8000002 cycles: 20810056 heartbeat IPC: 0.368532 cumulative IPC: 0.345572 (Simulation time: 0 hr 0 min 30 sec) 
Heartbeat CPU 0 instructions: 9000000 cycles: 23771205 heartbeat IPC: 0.337706 cumulative IPC: 0.344569 (Simulation time: 0 hr 0 min 34 sec) 
Heartbeat CPU 0 instructions: 10000001 cycles: 26814683 heartbeat IPC: 0.328572 cumulative IPC: 0.342715 (Simulation time: 0 hr 0 min 38 sec) 

Warmup complete CPU 0 instructions: 10000001 cycles: 26814683 (Simulation time: 0 hr 0 min 38 sec) 

Heartbeat CPU 0 instructions: 11000000 cycles: 29846041 heartbeat IPC: 0.329885 cumulative IPC: 0.329885 (Simulation time: 0 hr 0 min 43 sec) 
Heartbeat CPU 0 instructions: 12000002 cycles: 32986322 heartbeat IPC: 0.318443 cumulative IPC: 0.324063 (Simulation time: 0 hr 0 min 47 sec) 
Heartbeat CPU 0 instructions: 13000001 cycles: 35860113 heartbeat IPC: 0.347972 cumulative IPC: 0.331659 (Simulation time: 0 hr 0 min 51 sec) 
Heartbeat CPU 0 instructions: 14000003 cycles: 39050724 heartbeat IPC: 0.31342 cumulative IPC: 0.326903 (Simulation time: 0 hr 0 min 55 sec) 
Heartbeat CPU 0 instructions: 15000001 cycles: 42124586 heartbeat IPC: 0.325323 cumulative IPC: 0.326586 (Simulation time: 0 hr 0 min 59 sec) 
Heartbeat CPU 0 instructions: 16000002 cycles: 45221827 heartbeat IPC: 0.322868 cumulative IPC: 0.32596 (Simulation time: 0 hr 1 min 3 sec) 
Heartbeat CPU 0 instructions: 17000001 cycles: 48169534 heartbeat IPC: 0.339246 cumulative IPC: 0.327794 (Simulation time: 0 hr 1 min 7 sec) 
Heartbeat CPU 0 instructions: 18000003 cycles: 51257712 heartbeat IPC: 0.323816 cumulative IPC: 0.327292 (Simulation time: 0 hr 1 min 11 sec) 
Heartbeat CPU 0 instructions: 19000000 cycles: 54622872 heartbeat IPC: 0.297162 cumulative IPC: 0.323646 (Simulation time: 0 hr 1 min 15 sec) 
Heartbeat CPU 0 instructions: 20000003 cycles: 57809503 heartbeat IPC: 0.313812 cumulative IPC: 0.322635 (Simulation time: 0 hr 1 min 20 sec) 
Heartbeat CPU 0 instructions: 21000000 cycles: 61084165 heartbeat IPC: 0.305374 cumulative IPC: 0.320985 (Simulation time: 0 hr 1 min 24 sec) 
Heartbeat CPU 0 instructions: 22000000 cycles: 64075369 heartbeat IPC: 0.334314 cumulative IPC: 0.322055 (Simulation time: 0 hr 1 min 28 sec) 
Heartbeat CPU 0 instructions: 23000003 cycles: 67177920 heartbeat IPC: 0.322316 cumulative IPC: 0.322075 (Simulation time: 0 hr 1 min 32 sec) 
Heartbeat CPU 0 instructions: 24000000 cycles: 70268300 heartbeat IPC: 0.323584 cumulative IPC: 0.322183 (Simulation time: 0 hr 1 min 36 sec) 
Heartbeat CPU 0 instructions: 25000000 cycles: 73493621 heartbeat IPC: 0.310047 cumulative IPC: 0.321344 (Simulation time: 0 hr 1 min 40 sec) 
Heartbeat CPU 0 instructions: 26000003 cycles: 76603112 heartbeat IPC: 0.321597 cumulative IPC: 0.32136 (Simulation time: 0 hr 1 min 45 sec) 
Heartbeat CPU 0 instructions: 27000001 cycles: 79798381 heartbeat IPC: 0.312962 cumulative IPC: 0.320853 (Simulation time: 0 hr 1 min 49 sec) 
Heartbeat CPU 0 instructions: 28000003 cycles: 82653757 heartbeat IPC: 0.350217 cumulative IPC: 0.322355 (Simulation time: 0 hr 1 min 53 sec) 
Heartbeat CPU 0 instructions: 29000000 cycles: 85932693 heartbeat IPC: 0.304976 cumulative IPC: 0.321391 (Simulation time: 0 hr 1 min 57 sec) 
Heartbeat CPU 0 instructions: 30000000 cycles: 88882770 heartbeat IPC: 0.338974 cumulative IPC: 0.322227 (Simulation time: 0 hr 2 min 1 sec) 
Heartbeat CPU 0 instructions: 31000000 cycles: 91908346 heartbeat IPC: 0.330516 cumulative IPC: 0.322612 (Simulation time: 0 hr 2 min 5 sec) 
Heartbeat CPU 0 instructions: 32000003 cycles: 95567044 heartbeat IPC: 0.273322 cumulative IPC: 0.319989 (Simulation time: 0 hr 2 min 9 sec) 
Heartbeat CPU 0 instructions: 33000000 cycles: 98631532 heartbeat IPC: 0.326318 cumulative IPC: 0.320259 (Simulation time: 0 hr 2 min 13 sec) 
Heartbeat CPU 0 instructions: 34000000 cycles: 101996030 heartbeat IPC: 0.297221 cumulative IPC: 0.319228 (Simulation time: 0 hr 2 min 17 sec) 
Heartbeat CPU 0 instructions: 35000003 cycles: 105125463 heartbeat IPC: 0.319548 cumulative IPC: 0.319241 (Simulation time: 0 hr 2 min 21 sec) 
Heartbeat CPU 0 instructions: 36000003 cycles: 108098224 heartbeat IPC: 0.336388 cumulative IPC: 0.319868 (Simulation time: 0 hr 2 min 26 sec) 
Heartbeat CPU 0 instructions: 37000003 cycles: 111201312 heartbeat IPC: 0.32226 cumulative IPC: 0.319956 (Simulation time: 0 hr 2 min 30 sec) 
Heartbeat CPU 0 instructions: 38000000 cycles: 114258539 heartbeat IPC: 0.327093 cumulative IPC: 0.320205 (Simulation time: 0 hr 2 min 34 sec) 
Heartbeat CPU 0 instructions: 39000000 cycles: 117441272 heartbeat IPC: 0.314195 cumulative IPC: 0.319994 (Simulation time: 0 hr 2 min 38 sec) 
Heartbeat CPU 0 instructions: 40000002 cycles: 120848156 heartbeat IPC: 0.293524 cumulative IPC: 0.319035 (Simulation time: 0 hr 2 min 43 sec) 
Heartbeat CPU 0 instructions: 41000003 cycles: 123837140 heartbeat IPC: 0.334562 cumulative IPC: 0.319514 (Simulation time: 0 hr 2 min 47 sec) 
Heartbeat CPU 0 instructions: 42000000 cycles: 127272132 heartbeat IPC: 0.291121 cumulative IPC: 0.318543 (Simulation time: 0 hr 2 min 51 sec) 
Heartbeat CPU 0 instructions: 43000000 cycles: 130273993 heartbeat IPC: 0.333127 cumulative IPC: 0.318966 (Simulation time: 0 hr 2 min 55 sec) 
Heartbeat CPU 0 instructions: 44000000 cycles: 133391714 heartbeat IPC: 0.320747 cumulative IPC: 0.319018 (Simulation time: 0 hr 2 min 59 sec) 
Heartbeat CPU 0 instructions: 45000003 cycles: 136727042 heartbeat IPC: 0.299821 cumulative IPC: 0.318436 (Simulation time: 0 hr 3 min 4 sec) 
Heartbeat CPU 0 instructions: 46000002 cycles: 139831436 heartbeat IPC: 0.322124 cumulative IPC: 0.318537 (Simulation time: 0 hr 3 min 8 sec) 
Heartbeat CPU 0 instructions: 47000000 cycles: 142837746 heartbeat IPC: 0.332633 cumulative IPC: 0.318902 (Simulation time: 0 hr 3 min 12 sec) 
Heartbeat CPU 0 instructions: 48000000 cycles: 145859915 heartbeat IPC: 0.330888 cumulative IPC: 0.319206 (Simulation time: 0 hr 3 min 16 sec) 
Heartbeat CPU 0 instructions: 49000000 cycles: 149191581 heartbeat IPC: 0.30015 cumulative IPC: 0.318688 (Simulation time: 0 hr 3 min 21 sec) 
Heartbeat CPU 0 instructions: 50000003 cycles: 152884327 heartbeat IPC: 0.270802 cumulative IPC: 0.317285 (Simulation time: 0 hr 3 min 25 sec) 
Heartbeat CPU 0 instructions: 51000001 cycles: 155801960 heartbeat IPC: 0.342743 cumulative IPC: 0.317861 (Simulation time: 0 hr 3 min 29 sec) 
Heartbeat CPU 0 instructions: 52000000 cycles: 158938716 heartbeat IPC: 0.3188 cumulative IPC: 0.317883 (Simulation time: 0 hr 3 min 33 sec) 
Heartbeat CPU 0 instructions: 53000001 cycles: 162142962 heartbeat IPC: 0.312086 cumulative IPC: 0.317746 (Simulation time: 0 hr 3 min 38 sec) 
Heartbeat CPU 0 instructions: 54000003 cycles: 164690414 heartbeat IPC: 0.39255 cumulative IPC: 0.319128 (Simulation time: 0 hr 3 min 42 sec) 
Heartbeat CPU 0 instructions: 55000000 cycles: 167885910 heartbeat IPC: 0.31294 cumulative IPC: 0.318988 (Simulation time: 0 hr 3 min 46 sec) 
Heartbeat CPU 0 instructions: 56000000 cycles: 171239223 heartbeat IPC: 0.298213 cumulative IPC: 0.318505 (Simulation time: 0 hr 3 min 51 sec) 
Heartbeat CPU 0 instructions: 57000000 cycles: 174408869 heartbeat IPC: 0.315493 cumulative IPC: 0.318441 (Simulation time: 0 hr 3 min 55 sec) 
Heartbeat CPU 0 instructions: 58000003 cycles: 177517612 heartbeat IPC: 0.321674 cumulative IPC: 0.318507 (Simulation time: 0 hr 3 min 59 sec) 
Heartbeat CPU 0 instructions: 59000003 cycles: 180790899 heartbeat IPC: 0.305503 cumulative IPC: 0.318231 (Simulation time: 0 hr 4 min 4 sec) 
Heartbeat CPU 0 instructions: 60000001 cycles: 183967815 heartbeat IPC: 0.31477 cumulative IPC: 0.318161 (Simulation time: 0 hr 4 min 8 sec) 
Heartbeat CPU 0 instructions: 61000001 cycles: 187262012 heartbeat IPC: 0.303564 cumulative IPC: 0.317861 (Simulation time: 0 hr 4 min 12 sec) 
Heartbeat CPU 0 instructions: 62000001 cycles: 190477240 heartbeat IPC: 0.31102 cumulative IPC: 0.317727 (Simulation time: 0 hr 4 min 17 sec) 
Heartbeat CPU 0 instructions: 63000000 cycles: 193657516 heartbeat IPC: 0.314438 cumulative IPC: 0.317664 (Simulation time: 0 hr 4 min 21 sec) 
Heartbeat CPU 0 instructions: 64000000 cycles: 196681922 heartbeat IPC: 0.330643 cumulative IPC: 0.317895 (Simulation time: 0 hr 4 min 25 sec) 
Heartbeat CPU 0 instructions: 65000000 cycles: 199968235 heartbeat IPC: 0.304292 cumulative IPC: 0.317637 (Simulation time: 0 hr 4 min 30 sec) 
Heartbeat CPU 0 instructions: 66000000 cycles: 203089598 heartbeat IPC: 0.320373 cumulative IPC: 0.317686 (Simulation time: 0 hr 4 min 34 sec) 
Heartbeat CPU 0 instructions: 67000001 cycles: 206319849 heartbeat IPC: 0.309574 cumulative IPC: 0.31754 (Simulation time: 0 hr 4 min 39 sec) 
Heartbeat CPU 0 instructions: 68000001 cycles: 209527576 heartbeat IPC: 0.311747 cumulative IPC: 0.317438 (Simulation time: 0 hr 4 min 43 sec) 
Heartbeat CPU 0 instructions: 69000001 cycles: 212690403 heartbeat IPC: 0.316173 cumulative IPC: 0.317416 (Simulation time: 0 hr 4 min 49 sec) 
Heartbeat CPU 0 instructions: 70000000 cycles: 215687525 heartbeat IPC: 0.333653 cumulative IPC: 0.317674 (Simulation time: 0 hr 4 min 56 sec) 
Heartbeat CPU 0 instructions: 71000002 cycles: 218805314 heartbeat IPC: 0.320741 cumulative IPC: 0.317724 (Simulation time: 0 hr 5 min 0 sec) 
Heartbeat CPU 0 instructions: 72000002 cycles: 221962426 heartbeat IPC: 0.316745 cumulative IPC: 0.317708 (Simulation time: 0 hr 5 min 4 sec) 
Heartbeat CPU 0 instructions: 73000001 cycles: 225043977 heartbeat IPC: 0.324512 cumulative IPC: 0.317814 (Simulation time: 0 hr 5 min 9 sec) 
Heartbeat CPU 0 instructions: 74000001 cycles: 228215325 heartbeat IPC: 0.315323 cumulative IPC: 0.317775 (Simulation time: 0 hr 5 min 14 sec) 
Heartbeat CPU 0 instructions: 75000003 cycles: 231333026 heartbeat IPC: 0.32075 cumulative IPC: 0.31782 (Simulation time: 0 hr 5 min 18 sec) 
Heartbeat CPU 0 instructions: 76000001 cycles: 234788573 heartbeat IPC: 0.289389 cumulative IPC: 0.317348 (Simulation time: 0 hr 5 min 23 sec) 
Heartbeat CPU 0 instructions: 77000000 cycles: 237814410 heartbeat IPC: 0.330487 cumulative IPC: 0.317536 (Simulation time: 0 hr 5 min 27 sec) 
Heartbeat CPU 0 instructions: 78000000 cycles: 240962437 heartbeat IPC: 0.317659 cumulative IPC: 0.317538 (Simulation time: 0 hr 5 min 31 sec) 
Heartbeat CPU 0 instructions: 79000001 cycles: 244340477 heartbeat IPC: 0.29603 cumulative IPC: 0.317204 (Simulation time: 0 hr 5 min 36 sec) 
Heartbeat CPU 0 instructions: 80000003 cycles: 247360032 heartbeat IPC: 0.331175 cumulative IPC: 0.317395 (Simulation time: 0 hr 5 min 40 sec) 
Heartbeat CPU 0 instructions: 81000001 cycles: 250657348 heartbeat IPC: 0.303276 cumulative IPC: 0.317187 (Simulation time: 0 hr 5 min 44 sec) 
Heartbeat CPU 0 instructions: 82000003 cycles: 253760079 heartbeat IPC: 0.322297 cumulative IPC: 0.317257 (Simulation time: 0 hr 5 min 49 sec) 
Heartbeat CPU 0 instructions: 83000000 cycles: 256999891 heartbeat IPC: 0.308659 cumulative IPC: 0.317136 (Simulation time: 0 hr 5 min 53 sec) 
Heartbeat CPU 0 instructions: 84000001 cycles: 260015570 heartbeat IPC: 0.331601 cumulative IPC: 0.317323 (Simulation time: 0 hr 5 min 57 sec) 
Heartbeat CPU 0 instructions: 85000003 cycles: 263283483 heartbeat IPC: 0.306006 cumulative IPC: 0.317167 (Simulation time: 0 hr 6 min 2 sec) 
Heartbeat CPU 0 instructions: 86000002 cycles: 266274817 heartbeat IPC: 0.334299 cumulative IPC: 0.317381 (Simulation time: 0 hr 6 min 6 sec) 
Heartbeat CPU 0 instructions: 87000000 cycles: 269598316 heartbeat IPC: 0.300887 cumulative IPC: 0.317155 (Simulation time: 0 hr 6 min 10 sec) 
Heartbeat CPU 0 instructions: 88000000 cycles: 272800806 heartbeat IPC: 0.312257 cumulative IPC: 0.317091 (Simulation time: 0 hr 6 min 14 sec) 
Heartbeat CPU 0 instructions: 89000000 cycles: 275753894 heartbeat IPC: 0.338629 cumulative IPC: 0.317347 (Simulation time: 0 hr 6 min 18 sec) 
Heartbeat CPU 0 instructions: 90000003 cycles: 278957060 heartbeat IPC: 0.312192 cumulative IPC: 0.317281 (Simulation time: 0 hr 6 min 23 sec) 
Heartbeat CPU 0 instructions: 91000001 cycles: 281979014 heartbeat IPC: 0.330911 cumulative IPC: 0.317442 (Simulation time: 0 hr 6 min 27 sec) 
Heartbeat CPU 0 instructions: 92000003 cycles: 285171008 heartbeat IPC: 0.313284 cumulative IPC: 0.317391 (Simulation time: 0 hr 6 min 32 sec) 
Heartbeat CPU 0 instructions: 93000002 cycles: 288368416 heartbeat IPC: 0.312753 cumulative IPC: 0.317334 (Simulation time: 0 hr 6 min 37 sec) 
Heartbeat CPU 0 instructions: 94000003 cycles: 291496997 heartbeat IPC: 0.319634 cumulative IPC: 0.317362 (Simulation time: 0 hr 6 min 42 sec) 
Heartbeat CPU 0 instructions: 95000002 cycles: 294672467 heartbeat IPC: 0.314914 cumulative IPC: 0.317333 (Simulation time: 0 hr 6 min 49 sec) 
Heartbeat CPU 0 instructions: 96000000 cycles: 297718519 heartbeat IPC: 0.328293 cumulative IPC: 0.317456 (Simulation time: 0 hr 6 min 53 sec) 
Heartbeat CPU 0 instructions: 97000000 cycles: 300964482 heartbeat IPC: 0.308075 cumulative IPC: 0.317345 (Simulation time: 0 hr 6 min 58 sec) 
Heartbeat CPU 0 instructions: 98000003 cycles: 304094020 heartbeat IPC: 0.319537 cumulative IPC: 0.317369 (Simulation time: 0 hr 7 min 2 sec) 
Heartbeat CPU 0 instructions: 99000000 cycles: 307231867 heartbeat IPC: 0.318689 cumulative IPC: 0.317384 (Simulation time: 0 hr 7 min 6 sec) 
Heartbeat CPU 0 instructions: 100000002 cycles: 310446240 heartbeat IPC: 0.311103 cumulative IPC: 0.317313 (Simulation time: 0 hr 7 min 11 sec) 
Heartbeat CPU 0 instructions: 101000001 cycles: 313700672 heartbeat IPC: 0.307273 cumulative IPC: 0.317199 (Simulation time: 0 hr 7 min 15 sec) 
Heartbeat CPU 0 instructions: 102000003 cycles: 316579517 heartbeat IPC: 0.347362 cumulative IPC: 0.317499 (Simulation time: 0 hr 7 min 20 sec) 
Heartbeat CPU 0 instructions: 103000001 cycles: 319735074 heartbeat IPC: 0.316901 cumulative IPC: 0.317492 (Simulation time: 0 hr 7 min 24 sec) 
Heartbeat CPU 0 instructions: 104000000 cycles: 322943244 heartbeat IPC: 0.311704 cumulative IPC: 0.31743 (Simulation time: 0 hr 7 min 29 sec) 
Heartbeat CPU 0 instructions: 105000000 cycles: 326133137 heartbeat IPC: 0.31349 cumulative IPC: 0.317388 (Simulation time: 0 hr 7 min 33 sec) 
Heartbeat CPU 0 instructions: 106000003 cycles: 329313934 heartbeat IPC: 0.314388 cumulative IPC: 0.317356 (Simulation time: 0 hr 7 min 39 sec) 
Heartbeat CPU 0 instructions: 107000002 cycles: 332338091 heartbeat IPC: 0.33067 cumulative IPC: 0.317488 (Simulation time: 0 hr 7 min 46 sec) 
Heartbeat CPU 0 instructions: 108000002 cycles: 335460912 heartbeat IPC: 0.320223 cumulative IPC: 0.317516 (Simulation time: 0 hr 7 min 53 sec) 
Heartbeat CPU 0 instructions: 109000000 cycles: 338864228 heartbeat IPC: 0.29383 cumulative IPC: 0.317257 (Simulation time: 0 hr 8 min 0 sec) 
Heartbeat CPU 0 instructions: 110000000 cycles: 342111307 heartbeat IPC: 0.307969 cumulative IPC: 0.317162 (Simulation time: 0 hr 8 min 7 sec) 
Heartbeat CPU 0 instructions: 111000000 cycles: 345132372 heartbeat IPC: 0.331009 cumulative IPC: 0.317293 (Simulation time: 0 hr 8 min 14 sec) 
Heartbeat CPU 0 instructions: 112000003 cycles: 348225910 heartbeat IPC: 0.323255 cumulative IPC: 0.31735 (Simulation time: 0 hr 8 min 20 sec) 
Heartbeat CPU 0 instructions: 113000002 cycles: 351324199 heartbeat IPC: 0.322758 cumulative IPC: 0.317402 (Simulation time: 0 hr 8 min 24 sec) 
Heartbeat CPU 0 instructions: 114000000 cycles: 354413945 heartbeat IPC: 0.323651 cumulative IPC: 0.317461 (Simulation time: 0 hr 8 min 31 sec) 
Heartbeat CPU 0 instructions: 115000000 cycles: 357791259 heartbeat IPC: 0.296093 cumulative IPC: 0.317243 (Simulation time: 0 hr 8 min 38 sec) 
Heartbeat CPU 0 instructions: 116000000 cycles: 360714584 heartbeat IPC: 0.342076 cumulative IPC: 0.31746 (Simulation time: 0 hr 8 min 43 sec) 
Heartbeat CPU 0 instructions: 117000000 cycles: 364135512 heartbeat IPC: 0.292318 cumulative IPC: 0.317205 (Simulation time: 0 hr 8 min 49 sec) 
Heartbeat CPU 0 instructions: 118000000 cycles: 367181104 heartbeat IPC: 0.328343 cumulative IPC: 0.317305 (Simulation time: 0 hr 8 min 56 sec) 
Heartbeat CPU 0 instructions: 119000001 cycles: 370423558 heartbeat IPC: 0.308409 cumulative IPC: 0.317221 (Simulation time: 0 hr 9 min 3 sec) 
Heartbeat CPU 0 instructions: 120000001 cycles: 373520310 heartbeat IPC: 0.322919 cumulative IPC: 0.317272 (Simulation time: 0 hr 9 min 9 sec) 
Heartbeat CPU 0 instructions: 121000000 cycles: 376522027 heartbeat IPC: 0.333142 cumulative IPC: 0.317408 (Simulation time: 0 hr 9 min 15 sec) 
Heartbeat CPU 0 instructions: 122000002 cycles: 379833202 heartbeat IPC: 0.302008 cumulative IPC: 0.317264 (Simulation time: 0 hr 9 min 22 sec) 
Heartbeat CPU 0 instructions: 123000000 cycles: 382915286 heartbeat IPC: 0.324455 cumulative IPC: 0.317326 (Simulation time: 0 hr 9 min 28 sec) 
Heartbeat CPU 0 instructions: 124000001 cycles: 386026782 heartbeat IPC: 0.321389 cumulative IPC: 0.317361 (Simulation time: 0 hr 9 min 33 sec) 
Heartbeat CPU 0 instructions: 125000001 cycles: 389417172 heartbeat IPC: 0.294951 cumulative IPC: 0.317152 (Simulation time: 0 hr 9 min 39 sec) 
Heartbeat CPU 0 instructions: 126000001 cycles: 392893672 heartbeat IPC: 0.287646 cumulative IPC: 0.316871 (Simulation time: 0 hr 9 min 44 sec) 
Heartbeat CPU 0 instructions: 127000002 cycles: 395884771 heartbeat IPC: 0.334326 cumulative IPC: 0.317013 (Simulation time: 0 hr 9 min 48 sec) 
Heartbeat CPU 0 instructions: 128000002 cycles: 398918806 heartbeat IPC: 0.329594 cumulative IPC: 0.317116 (Simulation time: 0 hr 9 min 52 sec) 
Heartbeat CPU 0 instructions: 129000002 cycles: 402555963 heartbeat IPC: 0.27494 cumulative IPC: 0.316707 (Simulation time: 0 hr 9 min 57 sec) 
Heartbeat CPU 0 instructions: 130000000 cycles: 405135207 heartbeat IPC: 0.38771 cumulative IPC: 0.317191 (Simulation time: 0 hr 10 min 1 sec) 
Heartbeat CPU 0 instructions: 131000000 cycles: 408060793 heartbeat IPC: 0.341812 cumulative IPC: 0.31738 (Simulation time: 0 hr 10 min 5 sec) 
Heartbeat CPU 0 instructions: 132000000 cycles: 411326940 heartbeat IPC: 0.306171 cumulative IPC: 0.317285 (Simulation time: 0 hr 10 min 9 sec) 
Heartbeat CPU 0 instructions: 133000000 cycles: 414354417 heartbeat IPC: 0.330308 cumulative IPC: 0.317387 (Simulation time: 0 hr 10 min 13 sec) 
Heartbeat CPU 0 instructions: 134000001 cycles: 417515752 heartbeat IPC: 0.316322 cumulative IPC: 0.317378 (Simulation time: 0 hr 10 min 18 sec) 
Heartbeat CPU 0 instructions: 135000003 cycles: 420664695 heartbeat IPC: 0.317568 cumulative IPC: 0.31738 (Simulation time: 0 hr 10 min 23 sec) 
Heartbeat CPU 0 instructions: 136000000 cycles: 423808719 heartbeat IPC: 0.318063 cumulative IPC: 0.317385 (Simulation time: 0 hr 10 min 28 sec) 
Heartbeat CPU 0 instructions: 137000002 cycles: 427011187 heartbeat IPC: 0.31226 cumulative IPC: 0.317344 (Simulation time: 0 hr 10 min 35 sec) 
Heartbeat CPU 0 instructions: 138000002 cycles: 430140983 heartbeat IPC: 0.31951 cumulative IPC: 0.317361 (Simulation time: 0 hr 10 min 39 sec) 
Heartbeat CPU 0 instructions: 139000002 cycles: 433227487 heartbeat IPC: 0.323991 cumulative IPC: 0.317411 (Simulation time: 0 hr 10 min 43 sec) 
Heartbeat CPU 0 instructions: 140000000 cycles: 436482312 heartbeat IPC: 0.307236 cumulative IPC: 0.31733 (Simulation time: 0 hr 10 min 48 sec) 
Heartbeat CPU 0 instructions: 141000002 cycles: 440004054 heartbeat IPC: 0.283951 cumulative IPC: 0.317046 (Simulation time: 0 hr 10 min 52 sec) 
Heartbeat CPU 0 instructions: 142000001 cycles: 442945266 heartbeat IPC: 0.339996 cumulative IPC: 0.317208 (Simulation time: 0 hr 10 min 56 sec) 
Heartbeat CPU 0 instructions: 143000000 cycles: 446321586 heartbeat IPC: 0.29618 cumulative IPC: 0.317039 (Simulation time: 0 hr 11 min 1 sec) 
Heartbeat CPU 0 instructions: 144000001 cycles: 449194303 heartbeat IPC: 0.348103 cumulative IPC: 0.31725 (Simulation time: 0 hr 11 min 5 sec) 
Heartbeat CPU 0 instructions: 145000003 cycles: 452497799 heartbeat IPC: 0.30271 cumulative IPC: 0.317137 (Simulation time: 0 hr 11 min 9 sec) 
Heartbeat CPU 0 instructions: 146000000 cycles: 455586354 heartbeat IPC: 0.323775 cumulative IPC: 0.317185 (Simulation time: 0 hr 11 min 14 sec) 
Heartbeat CPU 0 instructions: 147000000 cycles: 459102417 heartbeat IPC: 0.284409 cumulative IPC: 0.316919 (Simulation time: 0 hr 11 min 18 sec) 
Heartbeat CPU 0 instructions: 148000003 cycles: 462078970 heartbeat IPC: 0.33596 cumulative IPC: 0.317049 (Simulation time: 0 hr 11 min 23 sec) 
Heartbeat CPU 0 instructions: 149000001 cycles: 465259866 heartbeat IPC: 0.314376 cumulative IPC: 0.317029 (Simulation time: 0 hr 11 min 30 sec) 
Heartbeat CPU 0 instructions: 150000002 cycles: 468415247 heartbeat IPC: 0.316919 cumulative IPC: 0.317029 (Simulation time: 0 hr 11 min 38 sec) 
Heartbeat CPU 0 instructions: 151000002 cycles: 471615098 heartbeat IPC: 0.312515 cumulative IPC: 0.316996 (Simulation time: 0 hr 11 min 45 sec) 
Heartbeat CPU 0 instructions: 152000001 cycles: 474915740 heartbeat IPC: 0.302971 cumulative IPC: 0.316893 (Simulation time: 0 hr 11 min 51 sec) 
Heartbeat CPU 0 instructions: 153000002 cycles: 478136512 heartbeat IPC: 0.310485 cumulative IPC: 0.316847 (Simulation time: 0 hr 11 min 55 sec) 
Heartbeat CPU 0 instructions: 154000000 cycles: 481225625 heartbeat IPC: 0.323717 cumulative IPC: 0.316894 (Simulation time: 0 hr 12 min 1 sec) 
Heartbeat CPU 0 instructions: 155000003 cycles: 484495153 heartbeat IPC: 0.305855 cumulative IPC: 0.316815 (Simulation time: 0 hr 12 min 8 sec) 
Heartbeat CPU 0 instructions: 156000002 cycles: 487555550 heartbeat IPC: 0.326755 cumulative IPC: 0.316881 (Simulation time: 0 hr 12 min 13 sec) 
Heartbeat CPU 0 instructions: 157000001 cycles: 490685914 heartbeat IPC: 0.319451 cumulative IPC: 0.316898 (Simulation time: 0 hr 12 min 19 sec) 
Heartbeat CPU 0 instructions: 158000003 cycles: 493810245 heartbeat IPC: 0.320069 cumulative IPC: 0.31692 (Simulation time: 0 hr 12 min 24 sec) 
Heartbeat CPU 0 instructions: 159000003 cycles: 497117722 heartbeat IPC: 0.302345 cumulative IPC: 0.316817 (Simulation time: 0 hr 12 min 28 sec) 
Heartbeat CPU 0 instructions: 160000001 cycles: 500095098 heartbeat IPC: 0.335866 cumulative IPC: 0.316937 (Simulation time: 0 hr 12 min 33 sec) 
Heartbeat CPU 0 instructions: 161000003 cycles: 503113502 heartbeat IPC: 0.331302 cumulative IPC: 0.317028 (Simulation time: 0 hr 12 min 38 sec) 
Heartbeat CPU 0 instructions: 162000003 cycles: 506404537 heartbeat IPC: 0.303856 cumulative IPC: 0.316937 (Simulation time: 0 hr 12 min 44 sec) 
Heartbeat CPU 0 instructions: 163000000 cycles: 509517455 heartbeat IPC: 0.321241 cumulative IPC: 0.316965 (Simulation time: 0 hr 12 min 49 sec) 
Heartbeat CPU 0 instructions: 164000000 cycles: 512785099 heartbeat IPC: 0.306031 cumulative IPC: 0.316892 (Simulation time: 0 hr 12 min 54 sec) 
Heartbeat CPU 0 instructions: 165000000 cycles: 515745953 heartbeat IPC: 0.33774 cumulative IPC: 0.317018 (Simulation time: 0 hr 12 min 58 sec) 
Heartbeat CPU 0 instructions: 166000001 cycles: 518767608 heartbeat IPC: 0.330945 cumulative IPC: 0.317104 (Simulation time: 0 hr 13 min 3 sec) 
Heartbeat CPU 0 instructions: 167000003 cycles: 522050016 heartbeat IPC: 0.304655 cumulative IPC: 0.317021 (Simulation time: 0 hr 13 min 7 sec) 
Heartbeat CPU 0 instructions: 168000002 cycles: 524995308 heartbeat IPC: 0.339525 cumulative IPC: 0.317154 (Simulation time: 0 hr 13 min 11 sec) 
Heartbeat CPU 0 instructions: 169000001 cycles: 528196861 heartbeat IPC: 0.312348 cumulative IPC: 0.317123 (Simulation time: 0 hr 13 min 16 sec) 
Heartbeat CPU 0 instructions: 170000001 cycles: 531312565 heartbeat IPC: 0.320955 cumulative IPC: 0.317147 (Simulation time: 0 hr 13 min 22 sec) 
Heartbeat CPU 0 instructions: 171000002 cycles: 534334935 heartbeat IPC: 0.330867 cumulative IPC: 0.317229 (Simulation time: 0 hr 13 min 28 sec) 
Heartbeat CPU 0 instructions: 172000001 cycles: 537628675 heartbeat IPC: 0.303606 cumulative IPC: 0.317141 (Simulation time: 0 hr 13 min 33 sec) 
Heartbeat CPU 0 instructions: 173000003 cycles: 540743901 heartbeat IPC: 0.321005 cumulative IPC: 0.317164 (Simulation time: 0 hr 13 min 40 sec) 
Heartbeat CPU 0 instructions: 174000000 cycles: 544134513 heartbeat IPC: 0.294931 cumulative IPC: 0.317019 (Simulation time: 0 hr 13 min 46 sec) 
Heartbeat CPU 0 instructions: 175000002 cycles: 547024944 heartbeat IPC: 0.34597 cumulative IPC: 0.317179 (Simulation time: 0 hr 13 min 51 sec) 
Heartbeat CPU 0 instructions: 176000000 cycles: 549899736 heartbeat IPC: 0.347851 cumulative IPC: 0.317348 (Simulation time: 0 hr 13 min 57 sec) 
Heartbeat CPU 0 instructions: 177000001 cycles: 553273820 heartbeat IPC: 0.296377 cumulative IPC: 0.317214 (Simulation time: 0 hr 14 min 2 sec) 
Heartbeat CPU 0 instructions: 178000000 cycles: 556013917 heartbeat IPC: 0.36495 cumulative IPC: 0.317461 (Simulation time: 0 hr 14 min 8 sec) 
Heartbeat CPU 0 instructions: 179000000 cycles: 559226876 heartbeat IPC: 0.31124 cumulative IPC: 0.317423 (Simulation time: 0 hr 14 min 13 sec) 
Heartbeat CPU 0 instructions: 180000000 cycles: 562385976 heartbeat IPC: 0.316546 cumulative IPC: 0.317418 (Simulation time: 0 hr 14 min 17 sec) 
Heartbeat CPU 0 instructions: 181000000 cycles: 565721799 heartbeat IPC: 0.299776 cumulative IPC: 0.317309 (Simulation time: 0 hr 14 min 22 sec) 
Heartbeat CPU 0 instructions: 182000002 cycles: 568850022 heartbeat IPC: 0.319671 cumulative IPC: 0.317322 (Simulation time: 0 hr 14 min 27 sec) 
Heartbeat CPU 0 instructions: 183000002 cycles: 571943189 heartbeat IPC: 0.323293 cumulative IPC: 0.317356 (Simulation time: 0 hr 14 min 31 sec) 
Heartbeat CPU 0 instructions: 184000000 cycles: 575048691 heartbeat IPC: 0.322008 cumulative IPC: 0.317383 (Simulation time: 0 hr 14 min 36 sec) 
Heartbeat CPU 0 instructions: 185000002 cycles: 578123414 heartbeat IPC: 0.325233 cumulative IPC: 0.317427 (Simulation time: 0 hr 14 min 40 sec) 
Heartbeat CPU 0 instructions: 186000000 cycles: 581546185 heartbeat IPC: 0.29216 cumulative IPC: 0.317271 (Simulation time: 0 hr 14 min 45 sec) 
Heartbeat CPU 0 instructions: 187000000 cycles: 584592141 heartbeat IPC: 0.328304 cumulative IPC: 0.317331 (Simulation time: 0 hr 14 min 49 sec) 
Heartbeat CPU 0 instructions: 188000000 cycles: 587655599 heartbeat IPC: 0.326429 cumulative IPC: 0.317381 (Simulation time: 0 hr 14 min 53 sec) 
Heartbeat CPU 0 instructions: 189000001 cycles: 590316900 heartbeat IPC: 0.375756 cumulative IPC: 0.317656 (Simulation time: 0 hr 14 min 58 sec) 
Heartbeat CPU 0 instructions: 190000000 cycles: 593383365 heartbeat IPC: 0.326108 cumulative IPC: 0.317702 (Simulation time: 0 hr 15 min 3 sec) 
Heartbeat CPU 0 instructions: 191000000 cycles: 596643328 heartbeat IPC: 0.306752 cumulative IPC: 0.317639 (Simulation time: 0 hr 15 min 7 sec) 
Heartbeat CPU 0 instructions: 192000002 cycles: 600039439 heartbeat IPC: 0.294455 cumulative IPC: 0.317502 (Simulation time: 0 hr 15 min 11 sec) 
Heartbeat CPU 0 instructions: 193000001 cycles: 602901772 heartbeat IPC: 0.349365 cumulative IPC: 0.31766 (Simulation time: 0 hr 15 min 15 sec) 
Heartbeat CPU 0 instructions: 194000003 cycles: 606244606 heartbeat IPC: 0.299148 cumulative IPC: 0.317553 (Simulation time: 0 hr 15 min 19 sec) 
Heartbeat CPU 0 instructions: 195000001 cycles: 609459063 heartbeat IPC: 0.311094 cumulative IPC: 0.317518 (Simulation time: 0 hr 15 min 24 sec) 
Heartbeat CPU 0 instructions: 196000000 cycles: 612584812 heartbeat IPC: 0.319923 cumulative IPC: 0.317531 (Simulation time: 0 hr 15 min 28 sec) 
Heartbeat CPU 0 instructions: 197000000 cycles: 615871786 heartbeat IPC: 0.304231 cumulative IPC: 0.317456 (Simulation time: 0 hr 15 min 32 sec) 
Heartbeat CPU 0 instructions: 198000000 cycles: 618872595 heartbeat IPC: 0.333243 cumulative IPC: 0.317537 (Simulation time: 0 hr 15 min 36 sec) 
Heartbeat CPU 0 instructions: 199000001 cycles: 622077151 heartbeat IPC: 0.312056 cumulative IPC: 0.317507 (Simulation time: 0 hr 15 min 41 sec) 
Heartbeat CPU 0 instructions: 200000000 cycles: 625490770 heartbeat IPC: 0.292944 cumulative IPC: 0.317367 (Simulation time: 0 hr 15 min 45 sec) 
Heartbeat CPU 0 instructions: 201000000 cycles: 628383122 heartbeat IPC: 0.345739 cumulative IPC: 0.317503 (Simulation time: 0 hr 15 min 49 sec) 
Heartbeat CPU 0 instructions: 202000003 cycles: 631786942 heartbeat IPC: 0.293788 cumulative IPC: 0.31737 (Simulation time: 0 hr 15 min 53 sec) 
Heartbeat CPU 0 instructions: 203000003 cycles: 634848047 heartbeat IPC: 0.326679 cumulative IPC: 0.317417 (Simulation time: 0 hr 15 min 57 sec) 
Heartbeat CPU 0 instructions: 204000001 cycles: 637910281 heartbeat IPC: 0.326558 cumulative IPC: 0.317463 (Simulation time: 0 hr 16 min 1 sec) 
Heartbeat CPU 0 instructions: 205000000 cycles: 641095659 heartbeat IPC: 0.313934 cumulative IPC: 0.317444 (Simulation time: 0 hr 16 min 5 sec) 
Heartbeat CPU 0 instructions: 206000002 cycles: 644311377 heartbeat IPC: 0.310973 cumulative IPC: 0.317411 (Simulation time: 0 hr 16 min 10 sec) 
Heartbeat CPU 0 instructions: 207000002 cycles: 647420179 heartbeat IPC: 0.321667 cumulative IPC: 0.317432 (Simulation time: 0 hr 16 min 14 sec) 
Heartbeat CPU 0 instructions: 208000000 cycles: 650637869 heartbeat IPC: 0.310781 cumulative IPC: 0.317398 (Simulation time: 0 hr 16 min 18 sec) 
Heartbeat CPU 0 instructions: 209000000 cycles: 654446547 heartbeat IPC: 0.262558 cumulative IPC: 0.317065 (Simulation time: 0 hr 16 min 23 sec) 
Heartbeat CPU 0 instructions: 210000000 cycles: 657259312 heartbeat IPC: 0.355522 cumulative IPC: 0.317236 (Simulation time: 0 hr 16 min 27 sec) 
Heartbeat CPU 0 instructions: 211000001 cycles: 659943931 heartbeat IPC: 0.372493 cumulative IPC: 0.317471 (Simulation time: 0 hr 16 min 31 sec) 
Heartbeat CPU 0 instructions: 212000001 cycles: 663206229 heartbeat IPC: 0.306532 cumulative IPC: 0.317415 (Simulation time: 0 hr 16 min 36 sec) 
Heartbeat CPU 0 instructions: 213000000 cycles: 666466955 heartbeat IPC: 0.30668 cumulative IPC: 0.31736 (Simulation time: 0 hr 16 min 40 sec) 
Heartbeat CPU 0 instructions: 214000000 cycles: 669682443 heartbeat IPC: 0.310995 cumulative IPC: 0.317328 (Simulation time: 0 hr 16 min 44 sec) 
Heartbeat CPU 0 instructions: 215000000 cycles: 672879918 heartbeat IPC: 0.312747 cumulative IPC: 0.317305 (Simulation time: 0 hr 16 min 49 sec) 
Heartbeat CPU 0 instructions: 216000001 cycles: 675982743 heartbeat IPC: 0.322287 cumulative IPC: 0.317329 (Simulation time: 0 hr 16 min 53 sec) 
Heartbeat CPU 0 instructions: 217000001 cycles: 679191938 heartbeat IPC: 0.311605 cumulative IPC: 0.317301 (Simulation time: 0 hr 16 min 57 sec) 
Heartbeat CPU 0 instructions: 218000002 cycles: 682669337 heartbeat IPC: 0.287572 cumulative IPC: 0.317143 (Simulation time: 0 hr 17 min 2 sec) 
Heartbeat CPU 0 instructions: 219000001 cycles: 685917488 heartbeat IPC: 0.307867 cumulative IPC: 0.317098 (Simulation time: 0 hr 17 min 6 sec) 
Heartbeat CPU 0 instructions: 220000000 cycles: 689132759 heartbeat IPC: 0.311015 cumulative IPC: 0.317068 (Simulation time: 0 hr 17 min 11 sec) 
Heartbeat CPU 0 instructions: 221000000 cycles: 692424394 heartbeat IPC: 0.3038 cumulative IPC: 0.317003 (Simulation time: 0 hr 17 min 15 sec) 
Heartbeat CPU 0 instructions: 222000002 cycles: 695481055 heartbeat IPC: 0.327155 cumulative IPC: 0.317049 (Simulation time: 0 hr 17 min 19 sec) 
Heartbeat CPU 0 instructions: 223000003 cycles: 698755144 heartbeat IPC: 0.305429 cumulative IPC: 0.316992 (Simulation time: 0 hr 17 min 23 sec) 
Heartbeat CPU 0 instructions: 224000000 cycles: 701769655 heartbeat IPC: 0.331728 cumulative IPC: 0.317058 (Simulation time: 0 hr 17 min 28 sec) 
Heartbeat CPU 0 instructions: 225000000 cycles: 704936984 heartbeat IPC: 0.315723 cumulative IPC: 0.317052 (Simulation time: 0 hr 17 min 32 sec) 
Heartbeat CPU 0 instructions: 226000000 cycles: 708168355 heartbeat IPC: 0.309466 cumulative IPC: 0.317016 (Simulation time: 0 hr 17 min 36 sec) 
Heartbeat CPU 0 instructions: 227000001 cycles: 711209571 heartbeat IPC: 0.328816 cumulative IPC: 0.317068 (Simulation time: 0 hr 17 min 40 sec) 
Heartbeat CPU 0 instructions: 228000000 cycles: 714402949 heartbeat IPC: 0.313148 cumulative IPC: 0.31705 (Simulation time: 0 hr 17 min 45 sec) 
Heartbeat CPU 0 instructions: 229000000 cycles: 717774728 heartbeat IPC: 0.296579 cumulative IPC: 0.31695 (Simulation time: 0 hr 17 min 49 sec) 
Heartbeat CPU 0 instructions: 230000001 cycles: 720871389 heartbeat IPC: 0.322929 cumulative IPC: 0.316977 (Simulation time: 0 hr 17 min 53 sec) 
Heartbeat CPU 0 instructions: 231000000 cycles: 724046375 heartbeat IPC: 0.314962 cumulative IPC: 0.316968 (Simulation time: 0 hr 17 min 57 sec) 
Heartbeat CPU 0 instructions: 232000000 cycles: 727173912 heartbeat IPC: 0.31974 cumulative IPC: 0.31698 (Simulation time: 0 hr 18 min 1 sec) 
Heartbeat CPU 0 instructions: 233000000 cycles: 730610348 heartbeat IPC: 0.290999 cumulative IPC: 0.316853 (Simulation time: 0 hr 18 min 5 sec) 
Heartbeat CPU 0 instructions: 234000003 cycles: 733865361 heartbeat IPC: 0.307219 cumulative IPC: 0.316809 (Simulation time: 0 hr 18 min 9 sec) 
Heartbeat CPU 0 instructions: 235000001 cycles: 736829052 heartbeat IPC: 0.337416 cumulative IPC: 0.316895 (Simulation time: 0 hr 18 min 14 sec) 
Heartbeat CPU 0 instructions: 236000000 cycles: 739862615 heartbeat IPC: 0.329645 cumulative IPC: 0.316949 (Simulation time: 0 hr 18 min 18 sec) 
Heartbeat CPU 0 instructions: 237000000 cycles: 742803836 heartbeat IPC: 0.339995 cumulative IPC: 0.317044 (Simulation time: 0 hr 18 min 22 sec) 
Heartbeat CPU 0 instructions: 238000000 cycles: 745989490 heartbeat IPC: 0.313907 cumulative IPC: 0.31703 (Simulation time: 0 hr 18 min 26 sec) 
Heartbeat CPU 0 instructions: 239000000 cycles: 749299310 heartbeat IPC: 0.302131 cumulative IPC: 0.316962 (Simulation time: 0 hr 18 min 31 sec) 
Heartbeat CPU 0 instructions: 240000001 cycles: 752522576 heartbeat IPC: 0.310245 cumulative IPC: 0.316932 (Simulation time: 0 hr 18 min 35 sec) 
Heartbeat CPU 0 instructions: 241000000 cycles: 755764452 heartbeat IPC: 0.308463 cumulative IPC: 0.316894 (Simulation time: 0 hr 18 min 40 sec) 
Heartbeat CPU 0 instructions: 242000000 cycles: 758817133 heartbeat IPC: 0.327581 cumulative IPC: 0.316939 (Simulation time: 0 hr 18 min 44 sec) 
Heartbeat CPU 0 instructions: 243000000 cycles: 761522045 heartbeat IPC: 0.369698 cumulative IPC: 0.317133 (Simulation time: 0 hr 18 min 48 sec) 
Heartbeat CPU 0 instructions: 244000000 cycles: 764414971 heartbeat IPC: 0.345671 cumulative IPC: 0.317245 (Simulation time: 0 hr 18 min 52 sec) 
Heartbeat CPU 0 instructions: 245000000 cycles: 767513118 heartbeat IPC: 0.322774 cumulative IPC: 0.317268 (Simulation time: 0 hr 18 min 57 sec) 
Heartbeat CPU 0 instructions: 246000003 cycles: 770602233 heartbeat IPC: 0.323718 cumulative IPC: 0.317295 (Simulation time: 0 hr 19 min 1 sec) 
Heartbeat CPU 0 instructions: 247000000 cycles: 773833186 heartbeat IPC: 0.309505 cumulative IPC: 0.317261 (Simulation time: 0 hr 19 min 5 sec) 
Heartbeat CPU 0 instructions: 248000003 cycles: 776860268 heartbeat IPC: 0.330352 cumulative IPC: 0.317314 (Simulation time: 0 hr 19 min 9 sec) 
Heartbeat CPU 0 instructions: 249000001 cycles: 780099565 heartbeat IPC: 0.308708 cumulative IPC: 0.317277 (Simulation time: 0 hr 19 min 14 sec) 
Heartbeat CPU 0 instructions: 250000000 cycles: 783102374 heartbeat IPC: 0.333021 cumulative IPC: 0.31734 (Simulation time: 0 hr 19 min 18 sec) 
Heartbeat CPU 0 instructions: 251000000 cycles: 786144207 heartbeat IPC: 0.328749 cumulative IPC: 0.317385 (Simulation time: 0 hr 19 min 22 sec) 
Heartbeat CPU 0 instructions: 252000000 cycles: 789431295 heartbeat IPC: 0.304221 cumulative IPC: 0.317329 (Simulation time: 0 hr 19 min 27 sec) 
Heartbeat CPU 0 instructions: 253000000 cycles: 792502118 heartbeat IPC: 0.325646 cumulative IPC: 0.317362 (Simulation time: 0 hr 19 min 31 sec) 
Heartbeat CPU 0 instructions: 254000003 cycles: 795769012 heartbeat IPC: 0.306102 cumulative IPC: 0.317314 (Simulation time: 0 hr 19 min 35 sec) 
Heartbeat CPU 0 instructions: 255000000 cycles: 798681363 heartbeat IPC: 0.343364 cumulative IPC: 0.317412 (Simulation time: 0 hr 19 min 39 sec) 
Heartbeat CPU 0 instructions: 256000000 cycles: 801358282 heartbeat IPC: 0.373564 cumulative IPC: 0.317606 (Simulation time: 0 hr 19 min 43 sec) 
Heartbeat CPU 0 instructions: 257000003 cycles: 804524647 heartbeat IPC: 0.315821 cumulative IPC: 0.317599 (Simulation time: 0 hr 19 min 48 sec) 
Heartbeat CPU 0 instructions: 258000000 cycles: 807732711 heartbeat IPC: 0.311714 cumulative IPC: 0.317575 (Simulation time: 0 hr 19 min 52 sec) 
Heartbeat CPU 0 instructions: 259000000 cycles: 810978915 heartbeat IPC: 0.308052 cumulative IPC: 0.317536 (Simulation time: 0 hr 19 min 56 sec) 
Heartbeat CPU 0 instructions: 260000001 cycles: 814030602 heartbeat IPC: 0.327688 cumulative IPC: 0.317575 (Simulation time: 0 hr 20 min 0 sec) 
Finished CPU 0 instructions: 250000000 cycles: 787215919 cumulative IPC: 0.317575 (Simulation time: 0 hr 20 min 0 sec) 

ChampSim completed all CPUs

Region of Interest Statistics

CPU 0 cumulative IPC: 0.317575 instructions: 250000000 cycles: 787215919
L1D TOTAL     ACCESS:  103683980  HIT:   99139032  MISS:    4544948
L1D LOAD      ACCESS:   59494580  HIT:   55508472  MISS:    3986108
L1D RFO       ACCESS:   44189400  HIT:   43630560  MISS:     558840
L1D PREFETCH  ACCESS:          0  HIT:          0  MISS:          0
L1D WRITEBACK ACCESS:          0  HIT:          0  MISS:          0
L1D PREFETCH  REQUESTED:          0  ISSUED:          0  USEFUL:          0  USELESS:          0
L1D AVERAGE MISS LATENCY: 182.695 cycles
L1I TOTAL     ACCESS:   55728269  HIT:   55717593  MISS:      10676
L1I LOAD      ACCESS:   55728269  HIT:   55717593  MISS:      10676
L1I RFO       ACCESS:          0  HIT:          0  MISS:          0
L1I PREFETCH  ACCESS:          0  HIT:          0  MISS:          0
L1I WRITEBACK ACCESS:          0  HIT:          0  MISS:          0
L1I PREFETCH  REQUESTED:          0  ISSUED:          0  USEFUL:          0  USELESS:          0
L1I AVERAGE MISS LATENCY: 64.7081 cycles
L2C TOTAL     ACCESS:    6779376  HIT:    3390262  MISS:    3389114
L2C LOAD      ACCESS:    3996593  HIT:    1055739  MISS:    2940854
L2C RFO       ACCESS:     558800  HIT:     114264  MISS:     444536
L2C PREFETCH  ACCESS:          0  HIT:          0  MISS:          0
L2C WRITEBACK ACCESS:    2223983  HIT:    2220259  MISS:       3724
L2C PREFETCH  REQUESTED:          0  ISSUED:          0  USEFUL:          0  USELESS:          0
L2C AVERAGE MISS LATENCY: 217.416 cycles
LLC TOTAL     ACCESS:    5054566  HIT:    2426105  MISS:    2628461
LLC LOAD      ACCESS:    2940851  HIT:     615126  MISS:    2325725
LLC RFO       ACCESS:     444536  HIT:     148444  MISS:     296092
LLC PREFETCH  ACCESS:          0  HIT:          0  MISS:          0
LLC WRITEBACK ACCESS:    1669179  HIT:    1662535  MISS:       6644
LLC PREFETCH  REQUESTED:          0  ISSUED:          0  USEFUL:          0  USELESS:          0
LLC AVERAGE MISS LATENCY: 236.396 cycles
Major fault: 0 Minor fault: 53026

DRAM Statistics
 CHANNEL 0
 RQ ROW_BUFFER_HIT:     217237  ROW_BUFFER_MISS:    1093993
 DBUS_CONGESTED:     596396
 WQ ROW_BUFFER_HIT:     186633  ROW_BUFFER_MISS:     432703  FULL:          0

 CHANNEL 1
 RQ ROW_BUFFER_HIT:     218904  ROW_BUFFER_MISS:    1091679
 DBUS_CONGESTED:     596396
 WQ ROW_BUFFER_HIT:     186527  ROW_BUFFER_MISS:     430719  FULL:          0

 AVG_CONGESTED_CYCLE: 17

CPU 0 Branch Prediction Accuracy: 98.1575% MPKI: 3.87121 Average ROB Occupancy at Mispredict: 99.2834

Branch types
NOT_BRANCH: 197474639 78.9899%
BRANCH_DIRECT_JUMP: 2911792 1.16472%
BRANCH_INDIRECT: 841857 0.336743%
BRANCH_CONDITIONAL: 33576256 13.4305%
BRANCH_DIRECT_CALL: 4635373 1.85415%
BRANCH_INDIRECT_CALL: 2962384 1.18495%
BRANCH_RETURN: 7597757 3.0391%
BRANCH_OTHER: 0 0%

