
*** ChampSim Multicore Out-of-Order Simulator ***

Warmup Instructions: 1000000
Prefetch Warmup Instructions: 10000000
Simulation Instructions: 250000000
Stat Printing Period: 1000000
Number of CPUs: 1
LLC sets: 2048
LLC ways: 16
Off-chip DRAM Size: 32768 MB Channels: 2 Width: 64-bit Data Rate: 1024 MT/s

CPU 0 runs /scratch/cluster/cmolder/ML-DPC/ChampSimTraces/spec17/620.omnetpp-s1.trace.xz
Read seed: 229
Heartbeat CPU 0 instructions: 1000000 cycles: 560395 heartbeat IPC: 1.78446 cumulative IPC: 1.78446 (Simulation time: 0 hr 0 min 3 sec) 

Warmup complete CPU 0 instructions: 1000002 cycles: 560396 (Simulation time: 0 hr 0 min 3 sec) 

Heartbeat CPU 0 instructions: 2000003 cycles: 3105603 heartbeat IPC: 0.392896 cumulative IPC: 0.392896 (Simulation time: 0 hr 0 min 7 sec) 
Heartbeat CPU 0 instructions: 3000000 cycles: 5759997 heartbeat IPC: 0.376733 cumulative IPC: 0.384645 (Simulation time: 0 hr 0 min 11 sec) 
Heartbeat CPU 0 instructions: 4000002 cycles: 8542475 heartbeat IPC: 0.359393 cumulative IPC: 0.375842 (Simulation time: 0 hr 0 min 15 sec) 
Heartbeat CPU 0 instructions: 5000000 cycles: 11236849 heartbeat IPC: 0.371143 cumulative IPC: 0.374656 (Simulation time: 0 hr 0 min 19 sec) 
Heartbeat CPU 0 instructions: 6000000 cycles: 13930487 heartbeat IPC: 0.371245 cumulative IPC: 0.373969 (Simulation time: 0 hr 0 min 23 sec) 
Heartbeat CPU 0 instructions: 7000000 cycles: 16772443 heartbeat IPC: 0.35187 cumulative IPC: 0.370095 (Simulation time: 0 hr 0 min 27 sec) 
Heartbeat CPU 0 instructions: 8000000 cycles: 19387784 heartbeat IPC: 0.382359 cumulative IPC: 0.371799 (Simulation time: 0 hr 0 min 31 sec) 
Heartbeat CPU 0 instructions: 9000000 cycles: 22079099 heartbeat IPC: 0.371566 cumulative IPC: 0.37177 (Simulation time: 0 hr 0 min 35 sec) 
Heartbeat CPU 0 instructions: 10000001 cycles: 24835497 heartbeat IPC: 0.362793 cumulative IPC: 0.37075 (Simulation time: 0 hr 0 min 39 sec) 

Warmup complete CPU 0 instructions: 10000001 cycles: 24835497 (Simulation time: 0 hr 0 min 39 sec) 

Heartbeat CPU 0 instructions: 11000000 cycles: 27542915 heartbeat IPC: 0.369355 cumulative IPC: 0.369355 (Simulation time: 0 hr 0 min 43 sec) 
Heartbeat CPU 0 instructions: 12000001 cycles: 30339902 heartbeat IPC: 0.357528 cumulative IPC: 0.363345 (Simulation time: 0 hr 0 min 47 sec) 
Heartbeat CPU 0 instructions: 13000002 cycles: 32977462 heartbeat IPC: 0.379139 cumulative IPC: 0.368462 (Simulation time: 0 hr 0 min 51 sec) 
Heartbeat CPU 0 instructions: 14000000 cycles: 35718858 heartbeat IPC: 0.364777 cumulative IPC: 0.367533 (Simulation time: 0 hr 0 min 55 sec) 
Heartbeat CPU 0 instructions: 15000001 cycles: 38311133 heartbeat IPC: 0.385762 cumulative IPC: 0.37104 (Simulation time: 0 hr 0 min 59 sec) 
Heartbeat CPU 0 instructions: 16000003 cycles: 40875632 heartbeat IPC: 0.389941 cumulative IPC: 0.374062 (Simulation time: 0 hr 1 min 3 sec) 
Heartbeat CPU 0 instructions: 17000002 cycles: 43668568 heartbeat IPC: 0.358046 cumulative IPC: 0.371687 (Simulation time: 0 hr 1 min 7 sec) 
Heartbeat CPU 0 instructions: 18000002 cycles: 46434261 heartbeat IPC: 0.361573 cumulative IPC: 0.370392 (Simulation time: 0 hr 1 min 11 sec) 
Heartbeat CPU 0 instructions: 19000000 cycles: 49352322 heartbeat IPC: 0.342693 cumulative IPC: 0.367095 (Simulation time: 0 hr 1 min 15 sec) 
Heartbeat CPU 0 instructions: 20000000 cycles: 52352624 heartbeat IPC: 0.3333 cumulative IPC: 0.36341 (Simulation time: 0 hr 1 min 19 sec) 
Heartbeat CPU 0 instructions: 21000002 cycles: 55045540 heartbeat IPC: 0.371345 cumulative IPC: 0.364117 (Simulation time: 0 hr 1 min 23 sec) 
Heartbeat CPU 0 instructions: 22000000 cycles: 57682173 heartbeat IPC: 0.379271 cumulative IPC: 0.365334 (Simulation time: 0 hr 1 min 27 sec) 
Heartbeat CPU 0 instructions: 23000002 cycles: 60723902 heartbeat IPC: 0.328761 cumulative IPC: 0.362234 (Simulation time: 0 hr 1 min 31 sec) 
Heartbeat CPU 0 instructions: 24000002 cycles: 63489720 heartbeat IPC: 0.361557 cumulative IPC: 0.362186 (Simulation time: 0 hr 1 min 35 sec) 
Heartbeat CPU 0 instructions: 25000000 cycles: 66167161 heartbeat IPC: 0.37349 cumulative IPC: 0.362918 (Simulation time: 0 hr 1 min 39 sec) 
Heartbeat CPU 0 instructions: 26000001 cycles: 69122504 heartbeat IPC: 0.338371 cumulative IPC: 0.36128 (Simulation time: 0 hr 1 min 43 sec) 
Heartbeat CPU 0 instructions: 27000000 cycles: 71854029 heartbeat IPC: 0.366095 cumulative IPC: 0.36156 (Simulation time: 0 hr 1 min 47 sec) 
Heartbeat CPU 0 instructions: 28000002 cycles: 74718361 heartbeat IPC: 0.349122 cumulative IPC: 0.360845 (Simulation time: 0 hr 1 min 51 sec) 
Heartbeat CPU 0 instructions: 29000003 cycles: 77529341 heartbeat IPC: 0.355748 cumulative IPC: 0.360573 (Simulation time: 0 hr 1 min 55 sec) 
Heartbeat CPU 0 instructions: 30000002 cycles: 80573440 heartbeat IPC: 0.328504 cumulative IPC: 0.358822 (Simulation time: 0 hr 1 min 59 sec) 
Heartbeat CPU 0 instructions: 31000000 cycles: 83365154 heartbeat IPC: 0.358202 cumulative IPC: 0.358792 (Simulation time: 0 hr 2 min 3 sec) 
Heartbeat CPU 0 instructions: 32000000 cycles: 86241535 heartbeat IPC: 0.347659 cumulative IPC: 0.358271 (Simulation time: 0 hr 2 min 7 sec) 
Heartbeat CPU 0 instructions: 33000000 cycles: 89051218 heartbeat IPC: 0.355912 cumulative IPC: 0.358168 (Simulation time: 0 hr 2 min 11 sec) 
Heartbeat CPU 0 instructions: 34000000 cycles: 91847232 heartbeat IPC: 0.357652 cumulative IPC: 0.358146 (Simulation time: 0 hr 2 min 15 sec) 
Heartbeat CPU 0 instructions: 35000000 cycles: 94828779 heartbeat IPC: 0.335396 cumulative IPC: 0.357177 (Simulation time: 0 hr 2 min 19 sec) 
Heartbeat CPU 0 instructions: 36000000 cycles: 97665354 heartbeat IPC: 0.352538 cumulative IPC: 0.356996 (Simulation time: 0 hr 2 min 23 sec) 
Heartbeat CPU 0 instructions: 37000003 cycles: 100549140 heartbeat IPC: 0.346767 cumulative IPC: 0.356607 (Simulation time: 0 hr 2 min 27 sec) 
Heartbeat CPU 0 instructions: 38000001 cycles: 103575955 heartbeat IPC: 0.33038 cumulative IPC: 0.355599 (Simulation time: 0 hr 2 min 32 sec) 
Heartbeat CPU 0 instructions: 39000003 cycles: 106464369 heartbeat IPC: 0.346211 cumulative IPC: 0.355266 (Simulation time: 0 hr 2 min 36 sec) 
Heartbeat CPU 0 instructions: 40000000 cycles: 108950457 heartbeat IPC: 0.402237 cumulative IPC: 0.356655 (Simulation time: 0 hr 2 min 40 sec) 
Heartbeat CPU 0 instructions: 41000001 cycles: 111540707 heartbeat IPC: 0.386064 cumulative IPC: 0.357533 (Simulation time: 0 hr 2 min 44 sec) 
Heartbeat CPU 0 instructions: 42000002 cycles: 114469481 heartbeat IPC: 0.34144 cumulative IPC: 0.357007 (Simulation time: 0 hr 2 min 48 sec) 
Heartbeat CPU 0 instructions: 43000001 cycles: 117324774 heartbeat IPC: 0.350226 cumulative IPC: 0.356798 (Simulation time: 0 hr 2 min 52 sec) 
Heartbeat CPU 0 instructions: 44000000 cycles: 120221368 heartbeat IPC: 0.345233 cumulative IPC: 0.356447 (Simulation time: 0 hr 2 min 56 sec) 
Heartbeat CPU 0 instructions: 45000001 cycles: 123347159 heartbeat IPC: 0.319919 cumulative IPC: 0.355288 (Simulation time: 0 hr 3 min 0 sec) 
Heartbeat CPU 0 instructions: 46000000 cycles: 126170859 heartbeat IPC: 0.354145 cumulative IPC: 0.355256 (Simulation time: 0 hr 3 min 4 sec) 
Heartbeat CPU 0 instructions: 47000001 cycles: 129177484 heartbeat IPC: 0.332599 cumulative IPC: 0.354603 (Simulation time: 0 hr 3 min 9 sec) 
Heartbeat CPU 0 instructions: 48000002 cycles: 132144338 heartbeat IPC: 0.337058 cumulative IPC: 0.354118 (Simulation time: 0 hr 3 min 13 sec) 
Heartbeat CPU 0 instructions: 49000003 cycles: 134869918 heartbeat IPC: 0.366895 cumulative IPC: 0.354435 (Simulation time: 0 hr 3 min 17 sec) 
Heartbeat CPU 0 instructions: 50000000 cycles: 137881811 heartbeat IPC: 0.332016 cumulative IPC: 0.353837 (Simulation time: 0 hr 3 min 21 sec) 
Heartbeat CPU 0 instructions: 51000000 cycles: 140600099 heartbeat IPC: 0.367879 cumulative IPC: 0.354167 (Simulation time: 0 hr 3 min 25 sec) 
Heartbeat CPU 0 instructions: 52000000 cycles: 143847428 heartbeat IPC: 0.307945 cumulative IPC: 0.352906 (Simulation time: 0 hr 3 min 30 sec) 
Heartbeat CPU 0 instructions: 53000002 cycles: 146946537 heartbeat IPC: 0.322674 cumulative IPC: 0.352139 (Simulation time: 0 hr 3 min 34 sec) 
Heartbeat CPU 0 instructions: 54000000 cycles: 149580400 heartbeat IPC: 0.37967 cumulative IPC: 0.35272 (Simulation time: 0 hr 3 min 38 sec) 
Heartbeat CPU 0 instructions: 55000000 cycles: 152228560 heartbeat IPC: 0.377621 cumulative IPC: 0.353237 (Simulation time: 0 hr 3 min 42 sec) 
Heartbeat CPU 0 instructions: 56000001 cycles: 155114644 heartbeat IPC: 0.346491 cumulative IPC: 0.353088 (Simulation time: 0 hr 3 min 46 sec) 
Heartbeat CPU 0 instructions: 57000000 cycles: 158039084 heartbeat IPC: 0.341945 cumulative IPC: 0.352843 (Simulation time: 0 hr 3 min 50 sec) 
Heartbeat CPU 0 instructions: 58000000 cycles: 160879569 heartbeat IPC: 0.352053 cumulative IPC: 0.352827 (Simulation time: 0 hr 3 min 54 sec) 
Heartbeat CPU 0 instructions: 59000003 cycles: 163852682 heartbeat IPC: 0.336349 cumulative IPC: 0.352474 (Simulation time: 0 hr 3 min 58 sec) 
Heartbeat CPU 0 instructions: 60000001 cycles: 166530343 heartbeat IPC: 0.37346 cumulative IPC: 0.352871 (Simulation time: 0 hr 4 min 3 sec) 
Heartbeat CPU 0 instructions: 61000000 cycles: 169363762 heartbeat IPC: 0.35293 cumulative IPC: 0.352872 (Simulation time: 0 hr 4 min 7 sec) 
Heartbeat CPU 0 instructions: 62000001 cycles: 172251558 heartbeat IPC: 0.346285 cumulative IPC: 0.352743 (Simulation time: 0 hr 4 min 11 sec) 
Heartbeat CPU 0 instructions: 63000003 cycles: 175072668 heartbeat IPC: 0.354471 cumulative IPC: 0.352776 (Simulation time: 0 hr 4 min 15 sec) 
Heartbeat CPU 0 instructions: 64000003 cycles: 177840374 heartbeat IPC: 0.36131 cumulative IPC: 0.35293 (Simulation time: 0 hr 4 min 19 sec) 
Heartbeat CPU 0 instructions: 65000001 cycles: 180775656 heartbeat IPC: 0.340682 cumulative IPC: 0.352699 (Simulation time: 0 hr 4 min 23 sec) 
Heartbeat CPU 0 instructions: 66000000 cycles: 183466994 heartbeat IPC: 0.371562 cumulative IPC: 0.353019 (Simulation time: 0 hr 4 min 27 sec) 
Heartbeat CPU 0 instructions: 67000002 cycles: 186486432 heartbeat IPC: 0.331188 cumulative IPC: 0.352612 (Simulation time: 0 hr 4 min 31 sec) 
Heartbeat CPU 0 instructions: 68000000 cycles: 189070255 heartbeat IPC: 0.387023 cumulative IPC: 0.353153 (Simulation time: 0 hr 4 min 35 sec) 
Heartbeat CPU 0 instructions: 69000000 cycles: 192010505 heartbeat IPC: 0.340107 cumulative IPC: 0.352924 (Simulation time: 0 hr 4 min 39 sec) 
Heartbeat CPU 0 instructions: 70000001 cycles: 194666699 heartbeat IPC: 0.376479 cumulative IPC: 0.353292 (Simulation time: 0 hr 4 min 44 sec) 
Heartbeat CPU 0 instructions: 71000001 cycles: 197378187 heartbeat IPC: 0.368801 cumulative IPC: 0.353536 (Simulation time: 0 hr 4 min 48 sec) 
Heartbeat CPU 0 instructions: 72000003 cycles: 200190716 heartbeat IPC: 0.355553 cumulative IPC: 0.353568 (Simulation time: 0 hr 4 min 52 sec) 
Heartbeat CPU 0 instructions: 73000000 cycles: 203135559 heartbeat IPC: 0.339576 cumulative IPC: 0.353337 (Simulation time: 0 hr 4 min 56 sec) 
Heartbeat CPU 0 instructions: 74000000 cycles: 206101424 heartbeat IPC: 0.33717 cumulative IPC: 0.353072 (Simulation time: 0 hr 5 min 0 sec) 
Heartbeat CPU 0 instructions: 75000000 cycles: 208908046 heartbeat IPC: 0.3563 cumulative IPC: 0.353122 (Simulation time: 0 hr 5 min 5 sec) 
Heartbeat CPU 0 instructions: 76000002 cycles: 211853028 heartbeat IPC: 0.339561 cumulative IPC: 0.352908 (Simulation time: 0 hr 5 min 9 sec) 
Heartbeat CPU 0 instructions: 77000000 cycles: 214750499 heartbeat IPC: 0.345128 cumulative IPC: 0.352789 (Simulation time: 0 hr 5 min 13 sec) 
Heartbeat CPU 0 instructions: 78000001 cycles: 217479636 heartbeat IPC: 0.366417 cumulative IPC: 0.352982 (Simulation time: 0 hr 5 min 17 sec) 
Heartbeat CPU 0 instructions: 79000000 cycles: 220463231 heartbeat IPC: 0.335166 cumulative IPC: 0.352711 (Simulation time: 0 hr 5 min 22 sec) 
Heartbeat CPU 0 instructions: 80000002 cycles: 223340359 heartbeat IPC: 0.34757 cumulative IPC: 0.352636 (Simulation time: 0 hr 5 min 26 sec) 
Heartbeat CPU 0 instructions: 81000003 cycles: 226175554 heartbeat IPC: 0.35271 cumulative IPC: 0.352637 (Simulation time: 0 hr 5 min 30 sec) 
Heartbeat CPU 0 instructions: 82000001 cycles: 229048011 heartbeat IPC: 0.348133 cumulative IPC: 0.352574 (Simulation time: 0 hr 5 min 34 sec) 
Heartbeat CPU 0 instructions: 83000002 cycles: 231914815 heartbeat IPC: 0.348821 cumulative IPC: 0.352522 (Simulation time: 0 hr 5 min 38 sec) 
Heartbeat CPU 0 instructions: 84000000 cycles: 234876151 heartbeat IPC: 0.337685 cumulative IPC: 0.352313 (Simulation time: 0 hr 5 min 42 sec) 
Heartbeat CPU 0 instructions: 85000000 cycles: 237617176 heartbeat IPC: 0.364827 cumulative IPC: 0.352474 (Simulation time: 0 hr 5 min 46 sec) 
Heartbeat CPU 0 instructions: 86000001 cycles: 240413810 heartbeat IPC: 0.357573 cumulative IPC: 0.35254 (Simulation time: 0 hr 5 min 50 sec) 
Heartbeat CPU 0 instructions: 87000001 cycles: 242863595 heartbeat IPC: 0.408199 cumulative IPC: 0.353165 (Simulation time: 0 hr 5 min 54 sec) 
Heartbeat CPU 0 instructions: 88000000 cycles: 245498790 heartbeat IPC: 0.379478 cumulative IPC: 0.35348 (Simulation time: 0 hr 5 min 58 sec) 
Heartbeat CPU 0 instructions: 89000001 cycles: 247964069 heartbeat IPC: 0.405634 cumulative IPC: 0.354056 (Simulation time: 0 hr 6 min 2 sec) 
Heartbeat CPU 0 instructions: 90000003 cycles: 251140666 heartbeat IPC: 0.314803 cumulative IPC: 0.353505 (Simulation time: 0 hr 6 min 7 sec) 
Heartbeat CPU 0 instructions: 91000000 cycles: 253778786 heartbeat IPC: 0.379057 cumulative IPC: 0.353799 (Simulation time: 0 hr 6 min 11 sec) 
Heartbeat CPU 0 instructions: 92000002 cycles: 256847031 heartbeat IPC: 0.32592 cumulative IPC: 0.353431 (Simulation time: 0 hr 6 min 15 sec) 
Heartbeat CPU 0 instructions: 93000003 cycles: 259838461 heartbeat IPC: 0.334289 cumulative IPC: 0.353187 (Simulation time: 0 hr 6 min 19 sec) 
Heartbeat CPU 0 instructions: 94000000 cycles: 262987199 heartbeat IPC: 0.317587 cumulative IPC: 0.352716 (Simulation time: 0 hr 6 min 23 sec) 
Heartbeat CPU 0 instructions: 95000003 cycles: 265637565 heartbeat IPC: 0.377308 cumulative IPC: 0.352987 (Simulation time: 0 hr 6 min 27 sec) 
Heartbeat CPU 0 instructions: 96000002 cycles: 268476362 heartbeat IPC: 0.352262 cumulative IPC: 0.352979 (Simulation time: 0 hr 6 min 31 sec) 
Heartbeat CPU 0 instructions: 97000000 cycles: 271770067 heartbeat IPC: 0.303609 cumulative IPC: 0.35232 (Simulation time: 0 hr 6 min 36 sec) 
Heartbeat CPU 0 instructions: 98000001 cycles: 274710854 heartbeat IPC: 0.340045 cumulative IPC: 0.352176 (Simulation time: 0 hr 6 min 40 sec) 
Heartbeat CPU 0 instructions: 99000000 cycles: 277755862 heartbeat IPC: 0.328406 cumulative IPC: 0.351889 (Simulation time: 0 hr 6 min 44 sec) 
Heartbeat CPU 0 instructions: 100000000 cycles: 280626236 heartbeat IPC: 0.348387 cumulative IPC: 0.35185 (Simulation time: 0 hr 6 min 48 sec) 
Heartbeat CPU 0 instructions: 101000002 cycles: 283495096 heartbeat IPC: 0.348571 cumulative IPC: 0.351814 (Simulation time: 0 hr 6 min 52 sec) 
Heartbeat CPU 0 instructions: 102000000 cycles: 286608111 heartbeat IPC: 0.321231 cumulative IPC: 0.35145 (Simulation time: 0 hr 6 min 56 sec) 
Heartbeat CPU 0 instructions: 103000000 cycles: 289192658 heartbeat IPC: 0.386915 cumulative IPC: 0.351797 (Simulation time: 0 hr 7 min 0 sec) 
Heartbeat CPU 0 instructions: 104000002 cycles: 292183155 heartbeat IPC: 0.334393 cumulative IPC: 0.351602 (Simulation time: 0 hr 7 min 5 sec) 
Heartbeat CPU 0 instructions: 105000000 cycles: 294855677 heartbeat IPC: 0.374178 cumulative IPC: 0.351826 (Simulation time: 0 hr 7 min 9 sec) 
Heartbeat CPU 0 instructions: 106000000 cycles: 297995422 heartbeat IPC: 0.318497 cumulative IPC: 0.351442 (Simulation time: 0 hr 7 min 13 sec) 
Heartbeat CPU 0 instructions: 107000000 cycles: 301182819 heartbeat IPC: 0.313736 cumulative IPC: 0.351008 (Simulation time: 0 hr 7 min 18 sec) 
Heartbeat CPU 0 instructions: 108000002 cycles: 303878111 heartbeat IPC: 0.371018 cumulative IPC: 0.351201 (Simulation time: 0 hr 7 min 22 sec) 
Heartbeat CPU 0 instructions: 109000000 cycles: 306334881 heartbeat IPC: 0.407038 cumulative IPC: 0.351688 (Simulation time: 0 hr 7 min 26 sec) 
Heartbeat CPU 0 instructions: 110000000 cycles: 308931254 heartbeat IPC: 0.385153 cumulative IPC: 0.351994 (Simulation time: 0 hr 7 min 31 sec) 
Heartbeat CPU 0 instructions: 111000000 cycles: 311968224 heartbeat IPC: 0.329276 cumulative IPC: 0.351754 (Simulation time: 0 hr 7 min 35 sec) 
Heartbeat CPU 0 instructions: 112000000 cycles: 314764623 heartbeat IPC: 0.357603 cumulative IPC: 0.35181 (Simulation time: 0 hr 7 min 39 sec) 
Heartbeat CPU 0 instructions: 113000001 cycles: 317805051 heartbeat IPC: 0.328901 cumulative IPC: 0.351572 (Simulation time: 0 hr 7 min 43 sec) 
Heartbeat CPU 0 instructions: 114000001 cycles: 320697711 heartbeat IPC: 0.345703 cumulative IPC: 0.351515 (Simulation time: 0 hr 7 min 48 sec) 
Heartbeat CPU 0 instructions: 115000003 cycles: 323233641 heartbeat IPC: 0.394333 cumulative IPC: 0.351879 (Simulation time: 0 hr 7 min 52 sec) 
Heartbeat CPU 0 instructions: 116000000 cycles: 326010792 heartbeat IPC: 0.36008 cumulative IPC: 0.351954 (Simulation time: 0 hr 7 min 56 sec) 
Heartbeat CPU 0 instructions: 117000002 cycles: 328985151 heartbeat IPC: 0.336208 cumulative IPC: 0.351801 (Simulation time: 0 hr 8 min 0 sec) 
Heartbeat CPU 0 instructions: 118000000 cycles: 331768903 heartbeat IPC: 0.359227 cumulative IPC: 0.351868 (Simulation time: 0 hr 8 min 5 sec) 
Heartbeat CPU 0 instructions: 119000000 cycles: 334544566 heartbeat IPC: 0.360274 cumulative IPC: 0.351943 (Simulation time: 0 hr 8 min 9 sec) 
Heartbeat CPU 0 instructions: 120000003 cycles: 337378387 heartbeat IPC: 0.352881 cumulative IPC: 0.351952 (Simulation time: 0 hr 8 min 13 sec) 
Heartbeat CPU 0 instructions: 121000000 cycles: 340167718 heartbeat IPC: 0.358508 cumulative IPC: 0.35201 (Simulation time: 0 hr 8 min 17 sec) 
Heartbeat CPU 0 instructions: 122000001 cycles: 343215926 heartbeat IPC: 0.328062 cumulative IPC: 0.35178 (Simulation time: 0 hr 8 min 22 sec) 
Heartbeat CPU 0 instructions: 123000003 cycles: 345896623 heartbeat IPC: 0.373038 cumulative IPC: 0.351958 (Simulation time: 0 hr 8 min 26 sec) 
Heartbeat CPU 0 instructions: 124000000 cycles: 349060349 heartbeat IPC: 0.316082 cumulative IPC: 0.351608 (Simulation time: 0 hr 8 min 30 sec) 
Heartbeat CPU 0 instructions: 125000000 cycles: 351824498 heartbeat IPC: 0.361775 cumulative IPC: 0.351694 (Simulation time: 0 hr 8 min 34 sec) 
Heartbeat CPU 0 instructions: 126000002 cycles: 354657794 heartbeat IPC: 0.352947 cumulative IPC: 0.351705 (Simulation time: 0 hr 8 min 38 sec) 
Heartbeat CPU 0 instructions: 127000000 cycles: 357368590 heartbeat IPC: 0.368895 cumulative IPC: 0.351845 (Simulation time: 0 hr 8 min 43 sec) 
Heartbeat CPU 0 instructions: 128000003 cycles: 360143142 heartbeat IPC: 0.36042 cumulative IPC: 0.351916 (Simulation time: 0 hr 8 min 47 sec) 
Heartbeat CPU 0 instructions: 129000000 cycles: 363220873 heartbeat IPC: 0.324914 cumulative IPC: 0.35167 (Simulation time: 0 hr 8 min 51 sec) 
Heartbeat CPU 0 instructions: 130000000 cycles: 366342690 heartbeat IPC: 0.320326 cumulative IPC: 0.351384 (Simulation time: 0 hr 8 min 55 sec) 
Heartbeat CPU 0 instructions: 131000002 cycles: 369005202 heartbeat IPC: 0.375586 cumulative IPC: 0.351571 (Simulation time: 0 hr 8 min 59 sec) 
Heartbeat CPU 0 instructions: 132000000 cycles: 372016026 heartbeat IPC: 0.332134 cumulative IPC: 0.351402 (Simulation time: 0 hr 9 min 3 sec) 
Heartbeat CPU 0 instructions: 133000003 cycles: 374926286 heartbeat IPC: 0.343613 cumulative IPC: 0.351337 (Simulation time: 0 hr 9 min 7 sec) 
Heartbeat CPU 0 instructions: 134000002 cycles: 377766086 heartbeat IPC: 0.352137 cumulative IPC: 0.351344 (Simulation time: 0 hr 9 min 11 sec) 
Heartbeat CPU 0 instructions: 135000000 cycles: 380582300 heartbeat IPC: 0.355086 cumulative IPC: 0.351373 (Simulation time: 0 hr 9 min 15 sec) 
Heartbeat CPU 0 instructions: 136000001 cycles: 383415453 heartbeat IPC: 0.352964 cumulative IPC: 0.351386 (Simulation time: 0 hr 9 min 19 sec) 
Heartbeat CPU 0 instructions: 137000003 cycles: 386157093 heartbeat IPC: 0.364746 cumulative IPC: 0.351487 (Simulation time: 0 hr 9 min 23 sec) 
Heartbeat CPU 0 instructions: 138000001 cycles: 389004227 heartbeat IPC: 0.35123 cumulative IPC: 0.351485 (Simulation time: 0 hr 9 min 27 sec) 
Heartbeat CPU 0 instructions: 139000000 cycles: 392343269 heartbeat IPC: 0.299487 cumulative IPC: 0.351013 (Simulation time: 0 hr 9 min 31 sec) 
Heartbeat CPU 0 instructions: 140000001 cycles: 394842323 heartbeat IPC: 0.400152 cumulative IPC: 0.351345 (Simulation time: 0 hr 9 min 35 sec) 
Heartbeat CPU 0 instructions: 141000001 cycles: 397738766 heartbeat IPC: 0.345251 cumulative IPC: 0.351298 (Simulation time: 0 hr 9 min 39 sec) 
Heartbeat CPU 0 instructions: 142000001 cycles: 400405236 heartbeat IPC: 0.375028 cumulative IPC: 0.351466 (Simulation time: 0 hr 9 min 43 sec) 
Heartbeat CPU 0 instructions: 143000000 cycles: 403389294 heartbeat IPC: 0.335114 cumulative IPC: 0.351337 (Simulation time: 0 hr 9 min 47 sec) 
Heartbeat CPU 0 instructions: 144000000 cycles: 406290265 heartbeat IPC: 0.344712 cumulative IPC: 0.351287 (Simulation time: 0 hr 9 min 51 sec) 
Heartbeat CPU 0 instructions: 145000001 cycles: 409110233 heartbeat IPC: 0.354614 cumulative IPC: 0.351311 (Simulation time: 0 hr 9 min 55 sec) 
Heartbeat CPU 0 instructions: 146000000 cycles: 412114428 heartbeat IPC: 0.332868 cumulative IPC: 0.351168 (Simulation time: 0 hr 9 min 59 sec) 
Heartbeat CPU 0 instructions: 147000003 cycles: 415011775 heartbeat IPC: 0.345144 cumulative IPC: 0.351123 (Simulation time: 0 hr 10 min 3 sec) 
Heartbeat CPU 0 instructions: 148000003 cycles: 418062471 heartbeat IPC: 0.327794 cumulative IPC: 0.350942 (Simulation time: 0 hr 10 min 7 sec) 
Heartbeat CPU 0 instructions: 149000001 cycles: 420912511 heartbeat IPC: 0.350872 cumulative IPC: 0.350942 (Simulation time: 0 hr 10 min 11 sec) 
Heartbeat CPU 0 instructions: 150000002 cycles: 423692326 heartbeat IPC: 0.359737 cumulative IPC: 0.351003 (Simulation time: 0 hr 10 min 15 sec) 
Heartbeat CPU 0 instructions: 151000003 cycles: 426780844 heartbeat IPC: 0.32378 cumulative IPC: 0.350794 (Simulation time: 0 hr 10 min 19 sec) 
Heartbeat CPU 0 instructions: 152000000 cycles: 429675189 heartbeat IPC: 0.3455 cumulative IPC: 0.350756 (Simulation time: 0 hr 10 min 23 sec) 
Heartbeat CPU 0 instructions: 153000001 cycles: 432611129 heartbeat IPC: 0.340607 cumulative IPC: 0.350683 (Simulation time: 0 hr 10 min 27 sec) 
Heartbeat CPU 0 instructions: 154000000 cycles: 435483098 heartbeat IPC: 0.348193 cumulative IPC: 0.350666 (Simulation time: 0 hr 10 min 30 sec) 
Heartbeat CPU 0 instructions: 155000002 cycles: 438655056 heartbeat IPC: 0.315263 cumulative IPC: 0.350394 (Simulation time: 0 hr 10 min 35 sec) 
Heartbeat CPU 0 instructions: 156000002 cycles: 441618626 heartbeat IPC: 0.337431 cumulative IPC: 0.350302 (Simulation time: 0 hr 10 min 39 sec) 
Heartbeat CPU 0 instructions: 157000000 cycles: 444306770 heartbeat IPC: 0.372003 cumulative IPC: 0.350441 (Simulation time: 0 hr 10 min 43 sec) 
Heartbeat CPU 0 instructions: 158000002 cycles: 447290926 heartbeat IPC: 0.335104 cumulative IPC: 0.350333 (Simulation time: 0 hr 10 min 47 sec) 
Heartbeat CPU 0 instructions: 159000001 cycles: 449789488 heartbeat IPC: 0.40023 cumulative IPC: 0.350626 (Simulation time: 0 hr 10 min 52 sec) 
Heartbeat CPU 0 instructions: 160000000 cycles: 452804402 heartbeat IPC: 0.331684 cumulative IPC: 0.350493 (Simulation time: 0 hr 10 min 56 sec) 
Heartbeat CPU 0 instructions: 161000002 cycles: 455924543 heartbeat IPC: 0.320499 cumulative IPC: 0.350276 (Simulation time: 0 hr 11 min 0 sec) 
Heartbeat CPU 0 instructions: 162000001 cycles: 458230201 heartbeat IPC: 0.433715 cumulative IPC: 0.35072 (Simulation time: 0 hr 11 min 4 sec) 
Heartbeat CPU 0 instructions: 163000001 cycles: 461102774 heartbeat IPC: 0.34812 cumulative IPC: 0.350702 (Simulation time: 0 hr 11 min 8 sec) 
Heartbeat CPU 0 instructions: 164000001 cycles: 463895865 heartbeat IPC: 0.358026 cumulative IPC: 0.350749 (Simulation time: 0 hr 11 min 12 sec) 
Heartbeat CPU 0 instructions: 165000000 cycles: 466777312 heartbeat IPC: 0.347048 cumulative IPC: 0.350725 (Simulation time: 0 hr 11 min 16 sec) 
Heartbeat CPU 0 instructions: 166000003 cycles: 469660940 heartbeat IPC: 0.346786 cumulative IPC: 0.350699 (Simulation time: 0 hr 11 min 20 sec) 
Heartbeat CPU 0 instructions: 167000000 cycles: 472582763 heartbeat IPC: 0.342251 cumulative IPC: 0.350644 (Simulation time: 0 hr 11 min 24 sec) 
Heartbeat CPU 0 instructions: 168000001 cycles: 475344482 heartbeat IPC: 0.362094 cumulative IPC: 0.350714 (Simulation time: 0 hr 11 min 28 sec) 
Heartbeat CPU 0 instructions: 169000000 cycles: 478330260 heartbeat IPC: 0.334921 cumulative IPC: 0.35061 (Simulation time: 0 hr 11 min 32 sec) 
Heartbeat CPU 0 instructions: 170000000 cycles: 480942524 heartbeat IPC: 0.38281 cumulative IPC: 0.350795 (Simulation time: 0 hr 11 min 36 sec) 
Heartbeat CPU 0 instructions: 171000001 cycles: 483794801 heartbeat IPC: 0.350597 cumulative IPC: 0.350794 (Simulation time: 0 hr 11 min 39 sec) 
Heartbeat CPU 0 instructions: 172000003 cycles: 486609296 heartbeat IPC: 0.355304 cumulative IPC: 0.350821 (Simulation time: 0 hr 11 min 43 sec) 
Heartbeat CPU 0 instructions: 173000000 cycles: 489317146 heartbeat IPC: 0.369296 cumulative IPC: 0.350929 (Simulation time: 0 hr 11 min 47 sec) 
Heartbeat CPU 0 instructions: 174000002 cycles: 492397530 heartbeat IPC: 0.324636 cumulative IPC: 0.350756 (Simulation time: 0 hr 11 min 51 sec) 
Heartbeat CPU 0 instructions: 175000000 cycles: 495235873 heartbeat IPC: 0.352318 cumulative IPC: 0.350765 (Simulation time: 0 hr 11 min 55 sec) 
Heartbeat CPU 0 instructions: 176000000 cycles: 498147831 heartbeat IPC: 0.343412 cumulative IPC: 0.35072 (Simulation time: 0 hr 11 min 59 sec) 
Heartbeat CPU 0 instructions: 177000000 cycles: 501072603 heartbeat IPC: 0.341907 cumulative IPC: 0.350666 (Simulation time: 0 hr 12 min 3 sec) 
Heartbeat CPU 0 instructions: 178000000 cycles: 503725539 heartbeat IPC: 0.376941 cumulative IPC: 0.350811 (Simulation time: 0 hr 12 min 7 sec) 
Heartbeat CPU 0 instructions: 179000002 cycles: 506779560 heartbeat IPC: 0.327438 cumulative IPC: 0.350663 (Simulation time: 0 hr 12 min 11 sec) 
Heartbeat CPU 0 instructions: 180000000 cycles: 509541186 heartbeat IPC: 0.362105 cumulative IPC: 0.350728 (Simulation time: 0 hr 12 min 15 sec) 
Heartbeat CPU 0 instructions: 181000000 cycles: 512578645 heartbeat IPC: 0.329223 cumulative IPC: 0.350594 (Simulation time: 0 hr 12 min 19 sec) 
Heartbeat CPU 0 instructions: 182000002 cycles: 515400231 heartbeat IPC: 0.354411 cumulative IPC: 0.350616 (Simulation time: 0 hr 12 min 23 sec) 
Heartbeat CPU 0 instructions: 183000002 cycles: 518068413 heartbeat IPC: 0.374787 cumulative IPC: 0.350747 (Simulation time: 0 hr 12 min 27 sec) 
Heartbeat CPU 0 instructions: 184000000 cycles: 520957037 heartbeat IPC: 0.346185 cumulative IPC: 0.35072 (Simulation time: 0 hr 12 min 31 sec) 
Heartbeat CPU 0 instructions: 185000001 cycles: 523961613 heartbeat IPC: 0.332826 cumulative IPC: 0.350613 (Simulation time: 0 hr 12 min 35 sec) 
Heartbeat CPU 0 instructions: 186000001 cycles: 527084951 heartbeat IPC: 0.32017 cumulative IPC: 0.350423 (Simulation time: 0 hr 12 min 39 sec) 
Heartbeat CPU 0 instructions: 187000000 cycles: 529957720 heartbeat IPC: 0.348096 cumulative IPC: 0.35041 (Simulation time: 0 hr 12 min 43 sec) 
Heartbeat CPU 0 instructions: 188000003 cycles: 532757547 heartbeat IPC: 0.357166 cumulative IPC: 0.350447 (Simulation time: 0 hr 12 min 47 sec) 
Heartbeat CPU 0 instructions: 189000001 cycles: 535717530 heartbeat IPC: 0.337839 cumulative IPC: 0.350374 (Simulation time: 0 hr 12 min 51 sec) 
Heartbeat CPU 0 instructions: 190000003 cycles: 538510067 heartbeat IPC: 0.358098 cumulative IPC: 0.350416 (Simulation time: 0 hr 12 min 55 sec) 
Heartbeat CPU 0 instructions: 191000001 cycles: 541254535 heartbeat IPC: 0.364369 cumulative IPC: 0.350491 (Simulation time: 0 hr 12 min 58 sec) 
Heartbeat CPU 0 instructions: 192000000 cycles: 544142473 heartbeat IPC: 0.346267 cumulative IPC: 0.350467 (Simulation time: 0 hr 13 min 2 sec) 
Heartbeat CPU 0 instructions: 193000000 cycles: 547036833 heartbeat IPC: 0.3455 cumulative IPC: 0.35044 (Simulation time: 0 hr 13 min 6 sec) 
Heartbeat CPU 0 instructions: 194000000 cycles: 549865925 heartbeat IPC: 0.35347 cumulative IPC: 0.350456 (Simulation time: 0 hr 13 min 10 sec) 
Heartbeat CPU 0 instructions: 195000002 cycles: 552745231 heartbeat IPC: 0.347307 cumulative IPC: 0.350439 (Simulation time: 0 hr 13 min 14 sec) 
Heartbeat CPU 0 instructions: 196000003 cycles: 555747343 heartbeat IPC: 0.333099 cumulative IPC: 0.350341 (Simulation time: 0 hr 13 min 18 sec) 
Heartbeat CPU 0 instructions: 197000000 cycles: 558371078 heartbeat IPC: 0.381135 cumulative IPC: 0.350492 (Simulation time: 0 hr 13 min 22 sec) 
Heartbeat CPU 0 instructions: 198000000 cycles: 561377943 heartbeat IPC: 0.332572 cumulative IPC: 0.350392 (Simulation time: 0 hr 13 min 26 sec) 
Heartbeat CPU 0 instructions: 199000002 cycles: 564176380 heartbeat IPC: 0.357343 cumulative IPC: 0.350428 (Simulation time: 0 hr 13 min 30 sec) 
Heartbeat CPU 0 instructions: 200000000 cycles: 566982935 heartbeat IPC: 0.356308 cumulative IPC: 0.350458 (Simulation time: 0 hr 13 min 34 sec) 
Heartbeat CPU 0 instructions: 201000000 cycles: 569859646 heartbeat IPC: 0.347619 cumulative IPC: 0.350443 (Simulation time: 0 hr 13 min 38 sec) 
Heartbeat CPU 0 instructions: 202000002 cycles: 572615973 heartbeat IPC: 0.362802 cumulative IPC: 0.350505 (Simulation time: 0 hr 13 min 42 sec) 
Heartbeat CPU 0 instructions: 203000000 cycles: 575507255 heartbeat IPC: 0.345867 cumulative IPC: 0.350481 (Simulation time: 0 hr 13 min 46 sec) 
Heartbeat CPU 0 instructions: 204000003 cycles: 578548276 heartbeat IPC: 0.328838 cumulative IPC: 0.350362 (Simulation time: 0 hr 13 min 50 sec) 
Heartbeat CPU 0 instructions: 205000002 cycles: 581319657 heartbeat IPC: 0.360831 cumulative IPC: 0.350414 (Simulation time: 0 hr 13 min 54 sec) 
Heartbeat CPU 0 instructions: 206000002 cycles: 584127944 heartbeat IPC: 0.356089 cumulative IPC: 0.350443 (Simulation time: 0 hr 13 min 58 sec) 
Heartbeat CPU 0 instructions: 207000002 cycles: 587257685 heartbeat IPC: 0.319515 cumulative IPC: 0.350271 (Simulation time: 0 hr 14 min 2 sec) 
Heartbeat CPU 0 instructions: 208000000 cycles: 590266507 heartbeat IPC: 0.332355 cumulative IPC: 0.350175 (Simulation time: 0 hr 14 min 6 sec) 
Heartbeat CPU 0 instructions: 209000000 cycles: 592955661 heartbeat IPC: 0.371864 cumulative IPC: 0.350278 (Simulation time: 0 hr 14 min 10 sec) 
Heartbeat CPU 0 instructions: 210000000 cycles: 595868161 heartbeat IPC: 0.343348 cumulative IPC: 0.350243 (Simulation time: 0 hr 14 min 14 sec) 
Heartbeat CPU 0 instructions: 211000003 cycles: 598943966 heartbeat IPC: 0.325119 cumulative IPC: 0.350108 (Simulation time: 0 hr 14 min 18 sec) 
Heartbeat CPU 0 instructions: 212000000 cycles: 601839410 heartbeat IPC: 0.345369 cumulative IPC: 0.350084 (Simulation time: 0 hr 14 min 22 sec) 
Heartbeat CPU 0 instructions: 213000003 cycles: 604608075 heartbeat IPC: 0.361186 cumulative IPC: 0.350137 (Simulation time: 0 hr 14 min 26 sec) 
Heartbeat CPU 0 instructions: 214000002 cycles: 607352494 heartbeat IPC: 0.364375 cumulative IPC: 0.350204 (Simulation time: 0 hr 14 min 30 sec) 
Heartbeat CPU 0 instructions: 215000000 cycles: 610156477 heartbeat IPC: 0.356635 cumulative IPC: 0.350235 (Simulation time: 0 hr 14 min 34 sec) 
Heartbeat CPU 0 instructions: 216000003 cycles: 613134771 heartbeat IPC: 0.335764 cumulative IPC: 0.350162 (Simulation time: 0 hr 14 min 38 sec) 
Heartbeat CPU 0 instructions: 217000000 cycles: 616315629 heartbeat IPC: 0.31438 cumulative IPC: 0.349969 (Simulation time: 0 hr 14 min 42 sec) 
Heartbeat CPU 0 instructions: 218000000 cycles: 618462810 heartbeat IPC: 0.465727 cumulative IPC: 0.350388 (Simulation time: 0 hr 14 min 46 sec) 
Heartbeat CPU 0 instructions: 219000003 cycles: 621377031 heartbeat IPC: 0.343146 cumulative IPC: 0.350353 (Simulation time: 0 hr 14 min 50 sec) 
Heartbeat CPU 0 instructions: 220000000 cycles: 624292815 heartbeat IPC: 0.34296 cumulative IPC: 0.350317 (Simulation time: 0 hr 14 min 55 sec) 
Heartbeat CPU 0 instructions: 221000000 cycles: 627165873 heartbeat IPC: 0.348061 cumulative IPC: 0.350306 (Simulation time: 0 hr 14 min 59 sec) 
Heartbeat CPU 0 instructions: 222000003 cycles: 629657637 heartbeat IPC: 0.401323 cumulative IPC: 0.350516 (Simulation time: 0 hr 15 min 3 sec) 
Heartbeat CPU 0 instructions: 223000001 cycles: 632585392 heartbeat IPC: 0.341558 cumulative IPC: 0.350473 (Simulation time: 0 hr 15 min 7 sec) 
Heartbeat CPU 0 instructions: 224000003 cycles: 635439391 heartbeat IPC: 0.350386 cumulative IPC: 0.350473 (Simulation time: 0 hr 15 min 11 sec) 
Heartbeat CPU 0 instructions: 225000000 cycles: 638346652 heartbeat IPC: 0.343965 cumulative IPC: 0.350442 (Simulation time: 0 hr 15 min 15 sec) 
Heartbeat CPU 0 instructions: 226000000 cycles: 640923378 heartbeat IPC: 0.388089 cumulative IPC: 0.350599 (Simulation time: 0 hr 15 min 19 sec) 
Heartbeat CPU 0 instructions: 227000000 cycles: 643777511 heartbeat IPC: 0.350369 cumulative IPC: 0.350598 (Simulation time: 0 hr 15 min 23 sec) 
Heartbeat CPU 0 instructions: 228000000 cycles: 646700493 heartbeat IPC: 0.342116 cumulative IPC: 0.350558 (Simulation time: 0 hr 15 min 27 sec) 
Heartbeat CPU 0 instructions: 229000001 cycles: 649615704 heartbeat IPC: 0.343029 cumulative IPC: 0.350523 (Simulation time: 0 hr 15 min 31 sec) 
Heartbeat CPU 0 instructions: 230000002 cycles: 652515544 heartbeat IPC: 0.344847 cumulative IPC: 0.350497 (Simulation time: 0 hr 15 min 35 sec) 
Heartbeat CPU 0 instructions: 231000000 cycles: 655412954 heartbeat IPC: 0.345135 cumulative IPC: 0.350472 (Simulation time: 0 hr 15 min 39 sec) 
Heartbeat CPU 0 instructions: 232000003 cycles: 658314721 heartbeat IPC: 0.344619 cumulative IPC: 0.350446 (Simulation time: 0 hr 15 min 43 sec) 
Heartbeat CPU 0 instructions: 233000002 cycles: 661268153 heartbeat IPC: 0.338589 cumulative IPC: 0.350391 (Simulation time: 0 hr 15 min 47 sec) 
Heartbeat CPU 0 instructions: 234000002 cycles: 664163735 heartbeat IPC: 0.345354 cumulative IPC: 0.350368 (Simulation time: 0 hr 15 min 51 sec) 
Heartbeat CPU 0 instructions: 235000003 cycles: 667046840 heartbeat IPC: 0.346849 cumulative IPC: 0.350352 (Simulation time: 0 hr 15 min 55 sec) 
Heartbeat CPU 0 instructions: 236000003 cycles: 669964032 heartbeat IPC: 0.342795 cumulative IPC: 0.350318 (Simulation time: 0 hr 15 min 59 sec) 
Heartbeat CPU 0 instructions: 237000000 cycles: 672720941 heartbeat IPC: 0.362724 cumulative IPC: 0.350371 (Simulation time: 0 hr 16 min 3 sec) 
Heartbeat CPU 0 instructions: 238000000 cycles: 675764286 heartbeat IPC: 0.328586 cumulative IPC: 0.350269 (Simulation time: 0 hr 16 min 7 sec) 
Heartbeat CPU 0 instructions: 239000001 cycles: 678524869 heartbeat IPC: 0.362243 cumulative IPC: 0.350319 (Simulation time: 0 hr 16 min 11 sec) 
Heartbeat CPU 0 instructions: 240000001 cycles: 681315954 heartbeat IPC: 0.358284 cumulative IPC: 0.350353 (Simulation time: 0 hr 16 min 15 sec) 
Heartbeat CPU 0 instructions: 241000003 cycles: 684305018 heartbeat IPC: 0.334554 cumulative IPC: 0.350282 (Simulation time: 0 hr 16 min 19 sec) 
Heartbeat CPU 0 instructions: 242000000 cycles: 687277722 heartbeat IPC: 0.336393 cumulative IPC: 0.350219 (Simulation time: 0 hr 16 min 23 sec) 
Heartbeat CPU 0 instructions: 243000003 cycles: 690099972 heartbeat IPC: 0.354328 cumulative IPC: 0.350237 (Simulation time: 0 hr 16 min 27 sec) 
Heartbeat CPU 0 instructions: 244000000 cycles: 692997191 heartbeat IPC: 0.345158 cumulative IPC: 0.350215 (Simulation time: 0 hr 16 min 31 sec) 
Heartbeat CPU 0 instructions: 245000000 cycles: 695962675 heartbeat IPC: 0.337213 cumulative IPC: 0.350157 (Simulation time: 0 hr 16 min 35 sec) 
Heartbeat CPU 0 instructions: 246000000 cycles: 698703584 heartbeat IPC: 0.364842 cumulative IPC: 0.350217 (Simulation time: 0 hr 16 min 39 sec) 
Heartbeat CPU 0 instructions: 247000001 cycles: 701628023 heartbeat IPC: 0.341946 cumulative IPC: 0.350181 (Simulation time: 0 hr 16 min 42 sec) 
Heartbeat CPU 0 instructions: 248000000 cycles: 704504522 heartbeat IPC: 0.347644 cumulative IPC: 0.35017 (Simulation time: 0 hr 16 min 46 sec) 
Heartbeat CPU 0 instructions: 249000001 cycles: 707247039 heartbeat IPC: 0.364629 cumulative IPC: 0.350229 (Simulation time: 0 hr 16 min 50 sec) 
Heartbeat CPU 0 instructions: 250000000 cycles: 710054926 heartbeat IPC: 0.356139 cumulative IPC: 0.350253 (Simulation time: 0 hr 16 min 54 sec) 
Heartbeat CPU 0 instructions: 251000002 cycles: 712934875 heartbeat IPC: 0.347229 cumulative IPC: 0.35024 (Simulation time: 0 hr 16 min 58 sec) 
Heartbeat CPU 0 instructions: 252000000 cycles: 715810579 heartbeat IPC: 0.34774 cumulative IPC: 0.35023 (Simulation time: 0 hr 17 min 2 sec) 
Heartbeat CPU 0 instructions: 253000000 cycles: 718454422 heartbeat IPC: 0.378237 cumulative IPC: 0.350336 (Simulation time: 0 hr 17 min 6 sec) 
Heartbeat CPU 0 instructions: 254000001 cycles: 721597009 heartbeat IPC: 0.318209 cumulative IPC: 0.350192 (Simulation time: 0 hr 17 min 10 sec) 
Heartbeat CPU 0 instructions: 255000003 cycles: 724519784 heartbeat IPC: 0.342141 cumulative IPC: 0.350158 (Simulation time: 0 hr 17 min 14 sec) 
Heartbeat CPU 0 instructions: 256000001 cycles: 727049344 heartbeat IPC: 0.395325 cumulative IPC: 0.350321 (Simulation time: 0 hr 17 min 18 sec) 
Heartbeat CPU 0 instructions: 257000000 cycles: 730092889 heartbeat IPC: 0.328564 cumulative IPC: 0.350227 (Simulation time: 0 hr 17 min 22 sec) 
Heartbeat CPU 0 instructions: 258000002 cycles: 732962204 heartbeat IPC: 0.348516 cumulative IPC: 0.35022 (Simulation time: 0 hr 17 min 26 sec) 
Heartbeat CPU 0 instructions: 259000001 cycles: 735957386 heartbeat IPC: 0.333869 cumulative IPC: 0.350151 (Simulation time: 0 hr 17 min 30 sec) 
Heartbeat CPU 0 instructions: 260000000 cycles: 738686242 heartbeat IPC: 0.366454 cumulative IPC: 0.350213 (Simulation time: 0 hr 17 min 34 sec) 
Finished CPU 0 instructions: 250000003 cycles: 713850746 cumulative IPC: 0.350213 (Simulation time: 0 hr 17 min 34 sec) 

ChampSim completed all CPUs

Region of Interest Statistics

CPU 0 cumulative IPC: 0.350213 instructions: 250000003 cycles: 713850746
L1D TOTAL     ACCESS:  104048644  HIT:   99595530  MISS:    4453114
L1D LOAD      ACCESS:   59319911  HIT:   55451594  MISS:    3868317
L1D RFO       ACCESS:   44728733  HIT:   44143936  MISS:     584797
L1D PREFETCH  ACCESS:          0  HIT:          0  MISS:          0
L1D WRITEBACK ACCESS:          0  HIT:          0  MISS:          0
L1D PREFETCH  REQUESTED:          0  ISSUED:          0  USEFUL:          0  USELESS:          0
L1D AVERAGE MISS LATENCY: 152.128 cycles
L1I TOTAL     ACCESS:   56434577  HIT:   56420760  MISS:      13817
L1I LOAD      ACCESS:   56434577  HIT:   56420760  MISS:      13817
L1I RFO       ACCESS:          0  HIT:          0  MISS:          0
L1I PREFETCH  ACCESS:          0  HIT:          0  MISS:          0
L1I WRITEBACK ACCESS:          0  HIT:          0  MISS:          0
L1I PREFETCH  REQUESTED:          0  ISSUED:          0  USEFUL:          0  USELESS:          0
L1I AVERAGE MISS LATENCY: 39.2042 cycles
L2C TOTAL     ACCESS:    6680069  HIT:    3647054  MISS:    3033015
L2C LOAD      ACCESS:    3881975  HIT:    1244451  MISS:    2637524
L2C RFO       ACCESS:     584760  HIT:     192510  MISS:     392250
L2C PREFETCH  ACCESS:          0  HIT:          0  MISS:          0
L2C WRITEBACK ACCESS:    2213334  HIT:    2210093  MISS:       3241
L2C PREFETCH  REQUESTED:          0  ISSUED:          0  USEFUL:          0  USELESS:          0
L2C AVERAGE MISS LATENCY: 194.828 cycles
LLC TOTAL     ACCESS:    4980191  HIT:    2397375  MISS:    2582816
LLC LOAD      ACCESS:    2637519  HIT:     632383  MISS:    2005136
LLC RFO       ACCESS:     392249  HIT:     183520  MISS:     208729
LLC PREFETCH  ACCESS:     440759  HIT:      81068  MISS:     359691
LLC WRITEBACK ACCESS:    1509664  HIT:    1500404  MISS:       9260
LLC PREFETCH  REQUESTED:     464324  ISSUED:     463894  USEFUL:      84793  USELESS:     269006
LLC AVERAGE MISS LATENCY: 219.64 cycles
Major fault: 0 Minor fault: 47330

DRAM Statistics
 CHANNEL 0
 RQ ROW_BUFFER_HIT:     348227  ROW_BUFFER_MISS:     939464
 DBUS_CONGESTED:     649261
 WQ ROW_BUFFER_HIT:     181391  ROW_BUFFER_MISS:     368301  FULL:          0

 CHANNEL 1
 RQ ROW_BUFFER_HIT:     347706  ROW_BUFFER_MISS:     938151
 DBUS_CONGESTED:     649261
 WQ ROW_BUFFER_HIT:     180223  ROW_BUFFER_MISS:     367627  FULL:          0

 AVG_CONGESTED_CYCLE: 17

CPU 0 Branch Prediction Accuracy: 98.2051% MPKI: 3.73375 Average ROB Occupancy at Mispredict: 94.8892

Branch types
NOT_BRANCH: 197996149 79.1985%
BRANCH_DIRECT_JUMP: 2845297 1.13812%
BRANCH_INDIRECT: 839449 0.33578%
BRANCH_CONDITIONAL: 33458567 13.3834%
BRANCH_DIRECT_CALL: 4445841 1.77834%
BRANCH_INDIRECT_CALL: 2984286 1.19371%
BRANCH_RETURN: 7430128 2.97205%
BRANCH_OTHER: 0 0%

