
*** ChampSim Multicore Out-of-Order Simulator ***

Warmup Instructions: 1000000
Prefetch Warmup Instructions: 450000000
Simulation Instructions: 500000000
Stat Printing Period: 1000000
Number of CPUs: 1
LLC sets: 2048
LLC ways: 16
Off-chip DRAM Size: 4096 MB Channels: 1 Width: 64-bit Data Rate: 3200 MT/s

CPU 0 runs /scratch/cluster/cmolder/ML-DPC/ChampSimTraces/spec06/429.mcf-s0.trace.gz
Read seed: 629
Heartbeat CPU 0 instructions: 1000000 cycles: 475201 heartbeat IPC: 2.10437 cumulative IPC: 2.10437 (Simulation time: 0 hr 0 min 8 sec) 

Warmup complete CPU 0 instructions: 1000003 cycles: 475202 (Simulation time: 0 hr 0 min 8 sec) 

Heartbeat CPU 0 instructions: 2000000 cycles: 17436176 heartbeat IPC: 0.0589589 cumulative IPC: 0.0589587 (Simulation time: 0 hr 0 min 23 sec) 
Heartbeat CPU 0 instructions: 3000000 cycles: 35440604 heartbeat IPC: 0.0555419 cumulative IPC: 0.0571993 (Simulation time: 0 hr 0 min 39 sec) 
Heartbeat CPU 0 instructions: 4000000 cycles: 52749778 heartbeat IPC: 0.0577728 cumulative IPC: 0.0573892 (Simulation time: 0 hr 0 min 55 sec) 
Heartbeat CPU 0 instructions: 5000000 cycles: 67860748 heartbeat IPC: 0.0661771 cumulative IPC: 0.0593599 (Simulation time: 0 hr 1 min 9 sec) 
Heartbeat CPU 0 instructions: 6000002 cycles: 83493875 heartbeat IPC: 0.0639669 cumulative IPC: 0.0602274 (Simulation time: 0 hr 1 min 24 sec) 
Heartbeat CPU 0 instructions: 7000001 cycles: 99219637 heartbeat IPC: 0.0635899 cumulative IPC: 0.0607629 (Simulation time: 0 hr 1 min 38 sec) 
Heartbeat CPU 0 instructions: 8000000 cycles: 115258963 heartbeat IPC: 0.0623467 cumulative IPC: 0.0609842 (Simulation time: 0 hr 1 min 54 sec) 
Heartbeat CPU 0 instructions: 9000001 cycles: 131498054 heartbeat IPC: 0.0615799 cumulative IPC: 0.061058 (Simulation time: 0 hr 2 min 10 sec) 
Heartbeat CPU 0 instructions: 10000002 cycles: 148161195 heartbeat IPC: 0.0600128 cumulative IPC: 0.0609401 (Simulation time: 0 hr 2 min 28 sec) 
Heartbeat CPU 0 instructions: 11000000 cycles: 164394364 heartbeat IPC: 0.0616021 cumulative IPC: 0.0610057 (Simulation time: 0 hr 2 min 45 sec) 
Heartbeat CPU 0 instructions: 12000002 cycles: 179397462 heartbeat IPC: 0.066653 cumulative IPC: 0.0614792 (Simulation time: 0 hr 2 min 59 sec) 
Heartbeat CPU 0 instructions: 13000002 cycles: 194646544 heartbeat IPC: 0.0655777 cumulative IPC: 0.0618011 (Simulation time: 0 hr 3 min 15 sec) 
Heartbeat CPU 0 instructions: 14000000 cycles: 208359151 heartbeat IPC: 0.0729254 cumulative IPC: 0.0625349 (Simulation time: 0 hr 3 min 28 sec) 
Heartbeat CPU 0 instructions: 15000001 cycles: 223561081 heartbeat IPC: 0.0657812 cumulative IPC: 0.0627561 (Simulation time: 0 hr 3 min 43 sec) 
Heartbeat CPU 0 instructions: 16000001 cycles: 240800942 heartbeat IPC: 0.0580051 cumulative IPC: 0.0624153 (Simulation time: 0 hr 4 min 0 sec) 
Heartbeat CPU 0 instructions: 17000000 cycles: 256735120 heartbeat IPC: 0.0627581 cumulative IPC: 0.0624366 (Simulation time: 0 hr 4 min 17 sec) 
Heartbeat CPU 0 instructions: 18000002 cycles: 271858449 heartbeat IPC: 0.0661231 cumulative IPC: 0.062642 (Simulation time: 0 hr 4 min 31 sec) 
Heartbeat CPU 0 instructions: 19000001 cycles: 288336920 heartbeat IPC: 0.0606852 cumulative IPC: 0.06253 (Simulation time: 0 hr 4 min 47 sec) 
Heartbeat CPU 0 instructions: 20000000 cycles: 304236266 heartbeat IPC: 0.0628956 cumulative IPC: 0.0625492 (Simulation time: 0 hr 5 min 2 sec) 
Heartbeat CPU 0 instructions: 21000000 cycles: 320063966 heartbeat IPC: 0.0631804 cumulative IPC: 0.0625804 (Simulation time: 0 hr 5 min 17 sec) 
Heartbeat CPU 0 instructions: 22000000 cycles: 336305386 heartbeat IPC: 0.061571 cumulative IPC: 0.0625316 (Simulation time: 0 hr 5 min 32 sec) 
Heartbeat CPU 0 instructions: 23000000 cycles: 352504672 heartbeat IPC: 0.0617311 cumulative IPC: 0.0624948 (Simulation time: 0 hr 5 min 48 sec) 
Heartbeat CPU 0 instructions: 24000001 cycles: 369877579 heartbeat IPC: 0.0575609 cumulative IPC: 0.0622627 (Simulation time: 0 hr 6 min 6 sec) 
Heartbeat CPU 0 instructions: 25000001 cycles: 383998752 heartbeat IPC: 0.0708156 cumulative IPC: 0.0625776 (Simulation time: 0 hr 6 min 20 sec) 
Heartbeat CPU 0 instructions: 26000001 cycles: 395648623 heartbeat IPC: 0.0858379 cumulative IPC: 0.0632634 (Simulation time: 0 hr 6 min 32 sec) 
Heartbeat CPU 0 instructions: 27000000 cycles: 407584095 heartbeat IPC: 0.0837838 cumulative IPC: 0.063865 (Simulation time: 0 hr 6 min 45 sec) 
Heartbeat CPU 0 instructions: 28000001 cycles: 423915912 heartbeat IPC: 0.0612302 cumulative IPC: 0.0637634 (Simulation time: 0 hr 7 min 2 sec) 
Heartbeat CPU 0 instructions: 29000000 cycles: 436078654 heartbeat IPC: 0.0822182 cumulative IPC: 0.0642786 (Simulation time: 0 hr 7 min 16 sec) 
Heartbeat CPU 0 instructions: 30000001 cycles: 446470765 heartbeat IPC: 0.0962269 cumulative IPC: 0.0650231 (Simulation time: 0 hr 7 min 27 sec) 
Heartbeat CPU 0 instructions: 31000000 cycles: 457641315 heartbeat IPC: 0.089521 cumulative IPC: 0.0656217 (Simulation time: 0 hr 7 min 40 sec) 
Heartbeat CPU 0 instructions: 32000001 cycles: 473910383 heartbeat IPC: 0.0614664 cumulative IPC: 0.0654789 (Simulation time: 0 hr 7 min 57 sec) 
Heartbeat CPU 0 instructions: 33000000 cycles: 485245471 heartbeat IPC: 0.0882215 cumulative IPC: 0.0660106 (Simulation time: 0 hr 8 min 10 sec) 
Heartbeat CPU 0 instructions: 34000001 cycles: 497469172 heartbeat IPC: 0.0818084 cumulative IPC: 0.0663992 (Simulation time: 0 hr 8 min 23 sec) 
Heartbeat CPU 0 instructions: 35000002 cycles: 510271944 heartbeat IPC: 0.0781082 cumulative IPC: 0.0666932 (Simulation time: 0 hr 8 min 36 sec) 
Heartbeat CPU 0 instructions: 36000001 cycles: 527358208 heartbeat IPC: 0.0585265 cumulative IPC: 0.0664284 (Simulation time: 0 hr 8 min 54 sec) 
Heartbeat CPU 0 instructions: 37000002 cycles: 540709725 heartbeat IPC: 0.0748979 cumulative IPC: 0.0666377 (Simulation time: 0 hr 9 min 8 sec) 
Heartbeat CPU 0 instructions: 38000000 cycles: 553898184 heartbeat IPC: 0.0758237 cumulative IPC: 0.0668566 (Simulation time: 0 hr 9 min 23 sec) 
Heartbeat CPU 0 instructions: 39000000 cycles: 564768685 heartbeat IPC: 0.0919921 cumulative IPC: 0.0673408 (Simulation time: 0 hr 9 min 35 sec) 
Heartbeat CPU 0 instructions: 40000001 cycles: 580639877 heartbeat IPC: 0.0630073 cumulative IPC: 0.0672223 (Simulation time: 0 hr 9 min 52 sec) 
Heartbeat CPU 0 instructions: 41000000 cycles: 592391877 heartbeat IPC: 0.0850918 cumulative IPC: 0.0675771 (Simulation time: 0 hr 10 min 5 sec) 
Heartbeat CPU 0 instructions: 42000001 cycles: 602718862 heartbeat IPC: 0.0968338 cumulative IPC: 0.0680788 (Simulation time: 0 hr 10 min 17 sec) 
Heartbeat CPU 0 instructions: 43000002 cycles: 615320943 heartbeat IPC: 0.0793521 cumulative IPC: 0.0683098 (Simulation time: 0 hr 10 min 31 sec) 
Heartbeat CPU 0 instructions: 44000000 cycles: 629246403 heartbeat IPC: 0.0718108 cumulative IPC: 0.0683874 (Simulation time: 0 hr 10 min 47 sec) 
Heartbeat CPU 0 instructions: 45000000 cycles: 638119547 heartbeat IPC: 0.1127 cumulative IPC: 0.069004 (Simulation time: 0 hr 10 min 58 sec) 
Heartbeat CPU 0 instructions: 46000003 cycles: 650125834 heartbeat IPC: 0.0832899 cumulative IPC: 0.069268 (Simulation time: 0 hr 11 min 11 sec) 
Heartbeat CPU 0 instructions: 47000000 cycles: 664289940 heartbeat IPC: 0.0706008 cumulative IPC: 0.0692964 (Simulation time: 0 hr 11 min 28 sec) 
Heartbeat CPU 0 instructions: 48000000 cycles: 673553996 heartbeat IPC: 0.107944 cumulative IPC: 0.0698284 (Simulation time: 0 hr 11 min 39 sec) 
Heartbeat CPU 0 instructions: 49000000 cycles: 685570923 heartbeat IPC: 0.083216 cumulative IPC: 0.0700632 (Simulation time: 0 hr 11 min 52 sec) 
Heartbeat CPU 0 instructions: 50000000 cycles: 699855028 heartbeat IPC: 0.0700079 cumulative IPC: 0.0700621 (Simulation time: 0 hr 12 min 9 sec) 
Heartbeat CPU 0 instructions: 51000000 cycles: 708681803 heartbeat IPC: 0.113292 cumulative IPC: 0.0706009 (Simulation time: 0 hr 12 min 19 sec) 
Heartbeat CPU 0 instructions: 52000003 cycles: 720027210 heartbeat IPC: 0.0881417 cumulative IPC: 0.0708774 (Simulation time: 0 hr 12 min 32 sec) 
Heartbeat CPU 0 instructions: 53000001 cycles: 735171299 heartbeat IPC: 0.0660322 cumulative IPC: 0.0707776 (Simulation time: 0 hr 12 min 49 sec) 
Heartbeat CPU 0 instructions: 54000001 cycles: 744366070 heartbeat IPC: 0.108757 cumulative IPC: 0.071247 (Simulation time: 0 hr 13 min 0 sec) 
Heartbeat CPU 0 instructions: 55000000 cycles: 754744905 heartbeat IPC: 0.0963498 cumulative IPC: 0.0715924 (Simulation time: 0 hr 13 min 12 sec) 
Heartbeat CPU 0 instructions: 56000000 cycles: 770696345 heartbeat IPC: 0.0626903 cumulative IPC: 0.0714081 (Simulation time: 0 hr 13 min 30 sec) 
Heartbeat CPU 0 instructions: 57000002 cycles: 779693244 heartbeat IPC: 0.11115 cumulative IPC: 0.0718669 (Simulation time: 0 hr 13 min 41 sec) 
Heartbeat CPU 0 instructions: 58000002 cycles: 788661581 heartbeat IPC: 0.111503 cumulative IPC: 0.0723179 (Simulation time: 0 hr 13 min 52 sec) 
Heartbeat CPU 0 instructions: 59000001 cycles: 805175127 heartbeat IPC: 0.0605563 cumulative IPC: 0.0720766 (Simulation time: 0 hr 14 min 11 sec) 
Heartbeat CPU 0 instructions: 60000000 cycles: 814582552 heartbeat IPC: 0.106299 cumulative IPC: 0.072472 (Simulation time: 0 hr 14 min 24 sec) 
Heartbeat CPU 0 instructions: 61000001 cycles: 824117610 heartbeat IPC: 0.104876 cumulative IPC: 0.0728471 (Simulation time: 0 hr 14 min 35 sec) 
Heartbeat CPU 0 instructions: 62000002 cycles: 837992388 heartbeat IPC: 0.0720733 cumulative IPC: 0.0728343 (Simulation time: 0 hr 14 min 50 sec) 
Heartbeat CPU 0 instructions: 63000000 cycles: 849916769 heartbeat IPC: 0.0838616 cumulative IPC: 0.0729891 (Simulation time: 0 hr 15 min 5 sec) 
Heartbeat CPU 0 instructions: 64000000 cycles: 858389458 heartbeat IPC: 0.118026 cumulative IPC: 0.0734339 (Simulation time: 0 hr 15 min 15 sec) 
Heartbeat CPU 0 instructions: 65000000 cycles: 867673994 heartbeat IPC: 0.107706 cumulative IPC: 0.0738008 (Simulation time: 0 hr 15 min 26 sec) 
Heartbeat CPU 0 instructions: 66000000 cycles: 883731029 heartbeat IPC: 0.062278 cumulative IPC: 0.0735914 (Simulation time: 0 hr 15 min 44 sec) 
Heartbeat CPU 0 instructions: 67000000 cycles: 892152811 heartbeat IPC: 0.11874 cumulative IPC: 0.0740178 (Simulation time: 0 hr 15 min 55 sec) 
Heartbeat CPU 0 instructions: 68000001 cycles: 900597624 heartbeat IPC: 0.118416 cumulative IPC: 0.0744343 (Simulation time: 0 hr 16 min 5 sec) 
Heartbeat CPU 0 instructions: 69000001 cycles: 914940151 heartbeat IPC: 0.0697227 cumulative IPC: 0.0743604 (Simulation time: 0 hr 16 min 21 sec) 
Heartbeat CPU 0 instructions: 70000001 cycles: 926048832 heartbeat IPC: 0.0900197 cumulative IPC: 0.0745484 (Simulation time: 0 hr 16 min 35 sec) 
Heartbeat CPU 0 instructions: 71000000 cycles: 934319971 heartbeat IPC: 0.120902 cumulative IPC: 0.0749589 (Simulation time: 0 hr 16 min 45 sec) 
Heartbeat CPU 0 instructions: 72000002 cycles: 944115263 heartbeat IPC: 0.10209 cumulative IPC: 0.0752406 (Simulation time: 0 hr 16 min 57 sec) 
Heartbeat CPU 0 instructions: 73000000 cycles: 959749131 heartbeat IPC: 0.0639636 cumulative IPC: 0.0750568 (Simulation time: 0 hr 17 min 15 sec) 
Heartbeat CPU 0 instructions: 74000000 cycles: 968338708 heartbeat IPC: 0.11642 cumulative IPC: 0.0754239 (Simulation time: 0 hr 17 min 26 sec) 
Heartbeat CPU 0 instructions: 75000002 cycles: 977294553 heartbeat IPC: 0.111659 cumulative IPC: 0.0757561 (Simulation time: 0 hr 17 min 37 sec) 
Heartbeat CPU 0 instructions: 76000002 cycles: 991063660 heartbeat IPC: 0.0726264 cumulative IPC: 0.0757126 (Simulation time: 0 hr 17 min 52 sec) 
Heartbeat CPU 0 instructions: 77000000 cycles: 1003776366 heartbeat IPC: 0.0786613 cumulative IPC: 0.0757499 (Simulation time: 0 hr 18 min 7 sec) 
Heartbeat CPU 0 instructions: 78000001 cycles: 1013651671 heartbeat IPC: 0.101263 cumulative IPC: 0.0759986 (Simulation time: 0 hr 18 min 19 sec) 
Heartbeat CPU 0 instructions: 79000000 cycles: 1023567888 heartbeat IPC: 0.100845 cumulative IPC: 0.0762394 (Simulation time: 0 hr 18 min 31 sec) 
Heartbeat CPU 0 instructions: 80000001 cycles: 1040058814 heartbeat IPC: 0.0606395 cumulative IPC: 0.075992 (Simulation time: 0 hr 18 min 50 sec) 
Heartbeat CPU 0 instructions: 81000000 cycles: 1050563525 heartbeat IPC: 0.0951953 cumulative IPC: 0.0761841 (Simulation time: 0 hr 19 min 2 sec) 
Heartbeat CPU 0 instructions: 82000002 cycles: 1061181148 heartbeat IPC: 0.0941832 cumulative IPC: 0.0763642 (Simulation time: 0 hr 19 min 14 sec) 
Heartbeat CPU 0 instructions: 83000000 cycles: 1075732708 heartbeat IPC: 0.068721 cumulative IPC: 0.0762608 (Simulation time: 0 hr 19 min 30 sec) 
Heartbeat CPU 0 instructions: 84000001 cycles: 1089544174 heartbeat IPC: 0.0724037 cumulative IPC: 0.0762119 (Simulation time: 0 hr 19 min 46 sec) 
Heartbeat CPU 0 instructions: 85000000 cycles: 1098799865 heartbeat IPC: 0.108042 cumulative IPC: 0.0764801 (Simulation time: 0 hr 19 min 58 sec) 
Heartbeat CPU 0 instructions: 86000000 cycles: 1108986591 heartbeat IPC: 0.098167 cumulative IPC: 0.0766794 (Simulation time: 0 hr 20 min 10 sec) 
Heartbeat CPU 0 instructions: 87000003 cycles: 1125254894 heartbeat IPC: 0.0614694 cumulative IPC: 0.0764594 (Simulation time: 0 hr 20 min 28 sec) 
Heartbeat CPU 0 instructions: 88000000 cycles: 1135250929 heartbeat IPC: 0.100039 cumulative IPC: 0.0766671 (Simulation time: 0 hr 20 min 40 sec) 
Heartbeat CPU 0 instructions: 89000000 cycles: 1145703286 heartbeat IPC: 0.0956722 cumulative IPC: 0.0768406 (Simulation time: 0 hr 20 min 52 sec) 
Heartbeat CPU 0 instructions: 90000003 cycles: 1160851739 heartbeat IPC: 0.0660135 cumulative IPC: 0.0766992 (Simulation time: 0 hr 21 min 9 sec) 
Heartbeat CPU 0 instructions: 91000002 cycles: 1172363197 heartbeat IPC: 0.0868699 cumulative IPC: 0.0767991 (Simulation time: 0 hr 21 min 23 sec) 
Heartbeat CPU 0 instructions: 92000000 cycles: 1182260088 heartbeat IPC: 0.101042 cumulative IPC: 0.0770022 (Simulation time: 0 hr 21 min 35 sec) 
Heartbeat CPU 0 instructions: 93000000 cycles: 1195338678 heartbeat IPC: 0.0764608 cumulative IPC: 0.0769962 (Simulation time: 0 hr 21 min 50 sec) 
Heartbeat CPU 0 instructions: 94000000 cycles: 1209345441 heartbeat IPC: 0.0713941 cumulative IPC: 0.0769313 (Simulation time: 0 hr 22 min 6 sec) 
Heartbeat CPU 0 instructions: 95000001 cycles: 1219494757 heartbeat IPC: 0.0985289 cumulative IPC: 0.0771111 (Simulation time: 0 hr 22 min 18 sec) 
Heartbeat CPU 0 instructions: 96000000 cycles: 1229721391 heartbeat IPC: 0.0977838 cumulative IPC: 0.0772831 (Simulation time: 0 hr 22 min 30 sec) 
Heartbeat CPU 0 instructions: 97000002 cycles: 1246420705 heartbeat IPC: 0.0598828 cumulative IPC: 0.0770499 (Simulation time: 0 hr 22 min 49 sec) 
Heartbeat CPU 0 instructions: 98000000 cycles: 1256782001 heartbeat IPC: 0.0965128 cumulative IPC: 0.0772104 (Simulation time: 0 hr 23 min 2 sec) 
Heartbeat CPU 0 instructions: 99000000 cycles: 1267537631 heartbeat IPC: 0.0929746 cumulative IPC: 0.0773443 (Simulation time: 0 hr 23 min 14 sec) 
Heartbeat CPU 0 instructions: 100000002 cycles: 1282705832 heartbeat IPC: 0.0659275 cumulative IPC: 0.0772092 (Simulation time: 0 hr 23 min 30 sec) 
Heartbeat CPU 0 instructions: 101000000 cycles: 1296095118 heartbeat IPC: 0.0746864 cumulative IPC: 0.0771831 (Simulation time: 0 hr 23 min 46 sec) 
Heartbeat CPU 0 instructions: 102000001 cycles: 1307512683 heartbeat IPC: 0.0875844 cumulative IPC: 0.077274 (Simulation time: 0 hr 23 min 59 sec) 
Heartbeat CPU 0 instructions: 103000000 cycles: 1318349466 heartbeat IPC: 0.0922782 cumulative IPC: 0.0773974 (Simulation time: 0 hr 24 min 11 sec) 
Heartbeat CPU 0 instructions: 104000001 cycles: 1335083163 heartbeat IPC: 0.0597597 cumulative IPC: 0.0771762 (Simulation time: 0 hr 24 min 29 sec) 
Heartbeat CPU 0 instructions: 105000000 cycles: 1347349111 heartbeat IPC: 0.0815264 cumulative IPC: 0.0772158 (Simulation time: 0 hr 24 min 44 sec) 
Heartbeat CPU 0 instructions: 106000001 cycles: 1358698187 heartbeat IPC: 0.088113 cumulative IPC: 0.0773069 (Simulation time: 0 hr 24 min 56 sec) 
Heartbeat CPU 0 instructions: 107000001 cycles: 1371778717 heartbeat IPC: 0.0764495 cumulative IPC: 0.0772987 (Simulation time: 0 hr 25 min 10 sec) 
Heartbeat CPU 0 instructions: 108000000 cycles: 1387481866 heartbeat IPC: 0.0636814 cumulative IPC: 0.0771445 (Simulation time: 0 hr 25 min 29 sec) 
Heartbeat CPU 0 instructions: 109000001 cycles: 1398630059 heartbeat IPC: 0.0897007 cumulative IPC: 0.0772447 (Simulation time: 0 hr 25 min 41 sec) 
Heartbeat CPU 0 instructions: 110000000 cycles: 1411055409 heartbeat IPC: 0.0804806 cumulative IPC: 0.0772732 (Simulation time: 0 hr 25 min 54 sec) 
Heartbeat CPU 0 instructions: 111000002 cycles: 1426370569 heartbeat IPC: 0.0652949 cumulative IPC: 0.0771445 (Simulation time: 0 hr 26 min 11 sec) 
Heartbeat CPU 0 instructions: 112000000 cycles: 1440589263 heartbeat IPC: 0.0703298 cumulative IPC: 0.0770772 (Simulation time: 0 hr 26 min 27 sec) 
Heartbeat CPU 0 instructions: 113000000 cycles: 1452153496 heartbeat IPC: 0.0864735 cumulative IPC: 0.0771521 (Simulation time: 0 hr 26 min 40 sec) 
Heartbeat CPU 0 instructions: 114000000 cycles: 1465291421 heartbeat IPC: 0.0761155 cumulative IPC: 0.0771428 (Simulation time: 0 hr 26 min 54 sec) 
Heartbeat CPU 0 instructions: 115000001 cycles: 1480734465 heartbeat IPC: 0.0647541 cumulative IPC: 0.0770135 (Simulation time: 0 hr 27 min 11 sec) 
Heartbeat CPU 0 instructions: 116000003 cycles: 1496105363 heartbeat IPC: 0.0650581 cumulative IPC: 0.0768907 (Simulation time: 0 hr 27 min 28 sec) 
Heartbeat CPU 0 instructions: 117000000 cycles: 1509331409 heartbeat IPC: 0.0756082 cumulative IPC: 0.0768794 (Simulation time: 0 hr 27 min 42 sec) 
Heartbeat CPU 0 instructions: 118000001 cycles: 1522549224 heartbeat IPC: 0.0756555 cumulative IPC: 0.0768688 (Simulation time: 0 hr 27 min 55 sec) 
Heartbeat CPU 0 instructions: 119000002 cycles: 1534978996 heartbeat IPC: 0.0804521 cumulative IPC: 0.0768978 (Simulation time: 0 hr 28 min 9 sec) 
Heartbeat CPU 0 instructions: 120000002 cycles: 1550950867 heartbeat IPC: 0.0626101 cumulative IPC: 0.0767506 (Simulation time: 0 hr 28 min 27 sec) 
Heartbeat CPU 0 instructions: 121000000 cycles: 1563414944 heartbeat IPC: 0.0802304 cumulative IPC: 0.0767784 (Simulation time: 0 hr 28 min 41 sec) 
Heartbeat CPU 0 instructions: 122000002 cycles: 1577079363 heartbeat IPC: 0.0731829 cumulative IPC: 0.0767472 (Simulation time: 0 hr 28 min 55 sec) 
Heartbeat CPU 0 instructions: 123000003 cycles: 1589637372 heartbeat IPC: 0.0796305 cumulative IPC: 0.07677 (Simulation time: 0 hr 29 min 9 sec) 
Heartbeat CPU 0 instructions: 124000000 cycles: 1606904260 heartbeat IPC: 0.0579141 cumulative IPC: 0.0765673 (Simulation time: 0 hr 29 min 27 sec) 
Heartbeat CPU 0 instructions: 125000002 cycles: 1620512795 heartbeat IPC: 0.0734834 cumulative IPC: 0.0765414 (Simulation time: 0 hr 29 min 42 sec) 
Heartbeat CPU 0 instructions: 126000001 cycles: 1634306799 heartbeat IPC: 0.0724952 cumulative IPC: 0.0765073 (Simulation time: 0 hr 29 min 56 sec) 
Heartbeat CPU 0 instructions: 127000000 cycles: 1647217410 heartbeat IPC: 0.0774556 cumulative IPC: 0.0765147 (Simulation time: 0 hr 30 min 10 sec) 
Heartbeat CPU 0 instructions: 128000002 cycles: 1661975617 heartbeat IPC: 0.067759 cumulative IPC: 0.0764369 (Simulation time: 0 hr 30 min 26 sec) 
Heartbeat CPU 0 instructions: 129000000 cycles: 1678580500 heartbeat IPC: 0.0602231 cumulative IPC: 0.0762765 (Simulation time: 0 hr 30 min 44 sec) 
Heartbeat CPU 0 instructions: 130000000 cycles: 1691429516 heartbeat IPC: 0.077827 cumulative IPC: 0.0762883 (Simulation time: 0 hr 30 min 58 sec) 
Heartbeat CPU 0 instructions: 131000000 cycles: 1702129882 heartbeat IPC: 0.0934547 cumulative IPC: 0.0763962 (Simulation time: 0 hr 31 min 10 sec) 
Heartbeat CPU 0 instructions: 132000000 cycles: 1715843906 heartbeat IPC: 0.0729181 cumulative IPC: 0.0763684 (Simulation time: 0 hr 31 min 25 sec) 
Heartbeat CPU 0 instructions: 133000000 cycles: 1729884703 heartbeat IPC: 0.071221 cumulative IPC: 0.0763266 (Simulation time: 0 hr 31 min 41 sec) 
Heartbeat CPU 0 instructions: 134000000 cycles: 1740022572 heartbeat IPC: 0.0986401 cumulative IPC: 0.0764567 (Simulation time: 0 hr 31 min 54 sec) 
Heartbeat CPU 0 instructions: 135000000 cycles: 1749573824 heartbeat IPC: 0.104698 cumulative IPC: 0.0766109 (Simulation time: 0 hr 32 min 6 sec) 
Heartbeat CPU 0 instructions: 136000000 cycles: 1764141055 heartbeat IPC: 0.0686472 cumulative IPC: 0.0765451 (Simulation time: 0 hr 32 min 22 sec) 
Heartbeat CPU 0 instructions: 137000001 cycles: 1778591308 heartbeat IPC: 0.069203 cumulative IPC: 0.0764854 (Simulation time: 0 hr 32 min 38 sec) 
Heartbeat CPU 0 instructions: 138000001 cycles: 1791844249 heartbeat IPC: 0.075455 cumulative IPC: 0.0764778 (Simulation time: 0 hr 32 min 52 sec) 
Heartbeat CPU 0 instructions: 139000002 cycles: 1805011280 heartbeat IPC: 0.0759473 cumulative IPC: 0.076474 (Simulation time: 0 hr 33 min 6 sec) 
Heartbeat CPU 0 instructions: 140000000 cycles: 1817403438 heartbeat IPC: 0.080696 cumulative IPC: 0.0765027 (Simulation time: 0 hr 33 min 20 sec) 
Heartbeat CPU 0 instructions: 141000001 cycles: 1834376785 heartbeat IPC: 0.058916 cumulative IPC: 0.07634 (Simulation time: 0 hr 33 min 38 sec) 
Heartbeat CPU 0 instructions: 142000000 cycles: 1846325574 heartbeat IPC: 0.0836904 cumulative IPC: 0.0763876 (Simulation time: 0 hr 33 min 52 sec) 
Heartbeat CPU 0 instructions: 143000000 cycles: 1858658870 heartbeat IPC: 0.0810813 cumulative IPC: 0.0764187 (Simulation time: 0 hr 34 min 5 sec) 
Heartbeat CPU 0 instructions: 144000003 cycles: 1870794868 heartbeat IPC: 0.0823997 cumulative IPC: 0.0764575 (Simulation time: 0 hr 34 min 18 sec) 
Heartbeat CPU 0 instructions: 145000000 cycles: 1887325731 heartbeat IPC: 0.0604927 cumulative IPC: 0.0763176 (Simulation time: 0 hr 34 min 36 sec) 
Heartbeat CPU 0 instructions: 146000001 cycles: 1899608160 heartbeat IPC: 0.0814172 cumulative IPC: 0.0763506 (Simulation time: 0 hr 34 min 51 sec) 
Heartbeat CPU 0 instructions: 147000000 cycles: 1911614304 heartbeat IPC: 0.0832906 cumulative IPC: 0.0763942 (Simulation time: 0 hr 35 min 4 sec) 
Heartbeat CPU 0 instructions: 148000000 cycles: 1924640432 heartbeat IPC: 0.0767688 cumulative IPC: 0.0763968 (Simulation time: 0 hr 35 min 18 sec) 
Heartbeat CPU 0 instructions: 149000000 cycles: 1940070203 heartbeat IPC: 0.0648098 cumulative IPC: 0.0763046 (Simulation time: 0 hr 35 min 34 sec) 
Heartbeat CPU 0 instructions: 150000001 cycles: 1954279535 heartbeat IPC: 0.0703764 cumulative IPC: 0.0762615 (Simulation time: 0 hr 35 min 51 sec) 
Heartbeat CPU 0 instructions: 151000000 cycles: 1968238528 heartbeat IPC: 0.0716383 cumulative IPC: 0.0762287 (Simulation time: 0 hr 36 min 7 sec) 
Heartbeat CPU 0 instructions: 152000000 cycles: 1981385840 heartbeat IPC: 0.0760612 cumulative IPC: 0.0762276 (Simulation time: 0 hr 36 min 21 sec) 
Heartbeat CPU 0 instructions: 153000000 cycles: 1993664303 heartbeat IPC: 0.0814434 cumulative IPC: 0.0762597 (Simulation time: 0 hr 36 min 34 sec) 
Heartbeat CPU 0 instructions: 154000000 cycles: 2009690006 heartbeat IPC: 0.0623998 cumulative IPC: 0.0761492 (Simulation time: 0 hr 36 min 54 sec) 
Heartbeat CPU 0 instructions: 155000000 cycles: 2021773752 heartbeat IPC: 0.0827558 cumulative IPC: 0.0761886 (Simulation time: 0 hr 37 min 7 sec) 
Heartbeat CPU 0 instructions: 156000000 cycles: 2035071707 heartbeat IPC: 0.0751995 cumulative IPC: 0.0761822 (Simulation time: 0 hr 37 min 21 sec) 
Heartbeat CPU 0 instructions: 157000001 cycles: 2048667627 heartbeat IPC: 0.0735516 cumulative IPC: 0.0761647 (Simulation time: 0 hr 37 min 34 sec) 
Heartbeat CPU 0 instructions: 158000002 cycles: 2065359432 heartbeat IPC: 0.0599097 cumulative IPC: 0.0760333 (Simulation time: 0 hr 37 min 52 sec) 
Heartbeat CPU 0 instructions: 159000000 cycles: 2080272380 heartbeat IPC: 0.0670557 cumulative IPC: 0.0759689 (Simulation time: 0 hr 38 min 9 sec) 
Heartbeat CPU 0 instructions: 160000002 cycles: 2092959741 heartbeat IPC: 0.0788188 cumulative IPC: 0.0759862 (Simulation time: 0 hr 38 min 23 sec) 
Heartbeat CPU 0 instructions: 161000000 cycles: 2106885655 heartbeat IPC: 0.0718084 cumulative IPC: 0.0759586 (Simulation time: 0 hr 38 min 38 sec) 
Heartbeat CPU 0 instructions: 162000000 cycles: 2120134052 heartbeat IPC: 0.0754808 cumulative IPC: 0.0759556 (Simulation time: 0 hr 38 min 52 sec) 
Heartbeat CPU 0 instructions: 163000001 cycles: 2136868110 heartbeat IPC: 0.0597584 cumulative IPC: 0.0758287 (Simulation time: 0 hr 39 min 10 sec) 
Heartbeat CPU 0 instructions: 164000002 cycles: 2150218248 heartbeat IPC: 0.0749057 cumulative IPC: 0.075823 (Simulation time: 0 hr 39 min 25 sec) 
Heartbeat CPU 0 instructions: 165000000 cycles: 2163479327 heartbeat IPC: 0.0754085 cumulative IPC: 0.0758205 (Simulation time: 0 hr 39 min 39 sec) 
Heartbeat CPU 0 instructions: 166000001 cycles: 2176470799 heartbeat IPC: 0.0769736 cumulative IPC: 0.0758274 (Simulation time: 0 hr 39 min 54 sec) 
Heartbeat CPU 0 instructions: 167000003 cycles: 2190034472 heartbeat IPC: 0.0737265 cumulative IPC: 0.0758143 (Simulation time: 0 hr 40 min 8 sec) 
Heartbeat CPU 0 instructions: 168000003 cycles: 2205548464 heartbeat IPC: 0.0644579 cumulative IPC: 0.0757344 (Simulation time: 0 hr 40 min 25 sec) 
Heartbeat CPU 0 instructions: 169000000 cycles: 2218609454 heartbeat IPC: 0.0765636 cumulative IPC: 0.0757393 (Simulation time: 0 hr 40 min 40 sec) 
Heartbeat CPU 0 instructions: 170000000 cycles: 2230760387 heartbeat IPC: 0.0822982 cumulative IPC: 0.0757751 (Simulation time: 0 hr 40 min 53 sec) 
Heartbeat CPU 0 instructions: 171000002 cycles: 2243288311 heartbeat IPC: 0.0798218 cumulative IPC: 0.0757977 (Simulation time: 0 hr 41 min 6 sec) 
Heartbeat CPU 0 instructions: 172000002 cycles: 2260095995 heartbeat IPC: 0.0594966 cumulative IPC: 0.0756764 (Simulation time: 0 hr 41 min 25 sec) 
Heartbeat CPU 0 instructions: 173000001 cycles: 2273272030 heartbeat IPC: 0.0758953 cumulative IPC: 0.0756777 (Simulation time: 0 hr 41 min 39 sec) 
Heartbeat CPU 0 instructions: 174000001 cycles: 2288456786 heartbeat IPC: 0.0658555 cumulative IPC: 0.0756125 (Simulation time: 0 hr 41 min 55 sec) 
Heartbeat CPU 0 instructions: 175000000 cycles: 2300287839 heartbeat IPC: 0.0845232 cumulative IPC: 0.0756583 (Simulation time: 0 hr 42 min 8 sec) 
Heartbeat CPU 0 instructions: 176000000 cycles: 2315783058 heartbeat IPC: 0.064536 cumulative IPC: 0.0755839 (Simulation time: 0 hr 42 min 25 sec) 
Heartbeat CPU 0 instructions: 177000000 cycles: 2329570517 heartbeat IPC: 0.0725297 cumulative IPC: 0.0755658 (Simulation time: 0 hr 42 min 42 sec) 
Heartbeat CPU 0 instructions: 178000000 cycles: 2341264270 heartbeat IPC: 0.0855157 cumulative IPC: 0.0756155 (Simulation time: 0 hr 42 min 56 sec) 
Heartbeat CPU 0 instructions: 179000002 cycles: 2351531716 heartbeat IPC: 0.0973954 cumulative IPC: 0.0757106 (Simulation time: 0 hr 43 min 8 sec) 
Heartbeat CPU 0 instructions: 180000001 cycles: 2366833149 heartbeat IPC: 0.0653533 cumulative IPC: 0.0756437 (Simulation time: 0 hr 43 min 26 sec) 
Heartbeat CPU 0 instructions: 181000000 cycles: 2379658116 heartbeat IPC: 0.0779728 cumulative IPC: 0.0756562 (Simulation time: 0 hr 43 min 43 sec) 
Heartbeat CPU 0 instructions: 182000002 cycles: 2391582651 heartbeat IPC: 0.0838609 cumulative IPC: 0.0756971 (Simulation time: 0 hr 43 min 57 sec) 
Heartbeat CPU 0 instructions: 183000000 cycles: 2405079299 heartbeat IPC: 0.0740923 cumulative IPC: 0.0756881 (Simulation time: 0 hr 44 min 12 sec) 
Heartbeat CPU 0 instructions: 184000000 cycles: 2419150755 heartbeat IPC: 0.0710659 cumulative IPC: 0.0756612 (Simulation time: 0 hr 44 min 28 sec) 
Heartbeat CPU 0 instructions: 185000000 cycles: 2434996267 heartbeat IPC: 0.0631094 cumulative IPC: 0.0755795 (Simulation time: 0 hr 44 min 46 sec) 
Heartbeat CPU 0 instructions: 186000000 cycles: 2447455187 heartbeat IPC: 0.0802638 cumulative IPC: 0.0756034 (Simulation time: 0 hr 45 min 1 sec) 
Heartbeat CPU 0 instructions: 187000000 cycles: 2459959408 heartbeat IPC: 0.079973 cumulative IPC: 0.0756256 (Simulation time: 0 hr 45 min 15 sec) 
Heartbeat CPU 0 instructions: 188000001 cycles: 2474023547 heartbeat IPC: 0.0711029 cumulative IPC: 0.0755999 (Simulation time: 0 hr 45 min 29 sec) 
Heartbeat CPU 0 instructions: 189000000 cycles: 2488765725 heartbeat IPC: 0.0678325 cumulative IPC: 0.0755539 (Simulation time: 0 hr 45 min 46 sec) 
Heartbeat CPU 0 instructions: 190000000 cycles: 2504532964 heartbeat IPC: 0.0634226 cumulative IPC: 0.0754775 (Simulation time: 0 hr 46 min 4 sec) 
Heartbeat CPU 0 instructions: 191000001 cycles: 2515099701 heartbeat IPC: 0.0946367 cumulative IPC: 0.075558 (Simulation time: 0 hr 46 min 16 sec) 
Heartbeat CPU 0 instructions: 192000000 cycles: 2525823897 heartbeat IPC: 0.093247 cumulative IPC: 0.0756331 (Simulation time: 0 hr 46 min 29 sec) 
Heartbeat CPU 0 instructions: 193000003 cycles: 2539722886 heartbeat IPC: 0.0719479 cumulative IPC: 0.0756129 (Simulation time: 0 hr 46 min 45 sec) 
Heartbeat CPU 0 instructions: 194000000 cycles: 2552615470 heartbeat IPC: 0.0775637 cumulative IPC: 0.0756228 (Simulation time: 0 hr 47 min 1 sec) 
Heartbeat CPU 0 instructions: 195000000 cycles: 2561475796 heartbeat IPC: 0.112863 cumulative IPC: 0.0757516 (Simulation time: 0 hr 47 min 13 sec) 
Heartbeat CPU 0 instructions: 196000000 cycles: 2576764313 heartbeat IPC: 0.0654086 cumulative IPC: 0.0756903 (Simulation time: 0 hr 47 min 29 sec) 
Heartbeat CPU 0 instructions: 197000001 cycles: 2591514558 heartbeat IPC: 0.0677956 cumulative IPC: 0.0756453 (Simulation time: 0 hr 47 min 46 sec) 
Heartbeat CPU 0 instructions: 198000000 cycles: 2608502177 heartbeat IPC: 0.0588663 cumulative IPC: 0.075536 (Simulation time: 0 hr 48 min 6 sec) 
Heartbeat CPU 0 instructions: 199000000 cycles: 2621092294 heartbeat IPC: 0.0794274 cumulative IPC: 0.0755547 (Simulation time: 0 hr 48 min 20 sec) 
Heartbeat CPU 0 instructions: 200000000 cycles: 2632159250 heartbeat IPC: 0.0903591 cumulative IPC: 0.075617 (Simulation time: 0 hr 48 min 33 sec) 
Heartbeat CPU 0 instructions: 201000000 cycles: 2644033053 heartbeat IPC: 0.084219 cumulative IPC: 0.0756556 (Simulation time: 0 hr 48 min 47 sec) 
Heartbeat CPU 0 instructions: 202000001 cycles: 2660725164 heartbeat IPC: 0.0599086 cumulative IPC: 0.0755568 (Simulation time: 0 hr 49 min 6 sec) 
Heartbeat CPU 0 instructions: 203000000 cycles: 2675156334 heartbeat IPC: 0.0692944 cumulative IPC: 0.075523 (Simulation time: 0 hr 49 min 22 sec) 
Heartbeat CPU 0 instructions: 204000001 cycles: 2686590617 heartbeat IPC: 0.0874564 cumulative IPC: 0.0755738 (Simulation time: 0 hr 49 min 36 sec) 
Heartbeat CPU 0 instructions: 205000000 cycles: 2698626109 heartbeat IPC: 0.0830875 cumulative IPC: 0.0756073 (Simulation time: 0 hr 49 min 50 sec) 
Heartbeat CPU 0 instructions: 206000000 cycles: 2715015909 heartbeat IPC: 0.0610136 cumulative IPC: 0.0755192 (Simulation time: 0 hr 50 min 9 sec) 
Heartbeat CPU 0 instructions: 207000000 cycles: 2726984031 heartbeat IPC: 0.0835553 cumulative IPC: 0.0755545 (Simulation time: 0 hr 50 min 24 sec) 
Heartbeat CPU 0 instructions: 208000000 cycles: 2738471567 heartbeat IPC: 0.0870509 cumulative IPC: 0.0756027 (Simulation time: 0 hr 50 min 37 sec) 
Heartbeat CPU 0 instructions: 209000000 cycles: 2751370211 heartbeat IPC: 0.0775275 cumulative IPC: 0.0756118 (Simulation time: 0 hr 50 min 52 sec) 
Heartbeat CPU 0 instructions: 210000000 cycles: 2767305333 heartbeat IPC: 0.0627545 cumulative IPC: 0.0755377 (Simulation time: 0 hr 51 min 10 sec) 
Heartbeat CPU 0 instructions: 211000000 cycles: 2780944670 heartbeat IPC: 0.0733173 cumulative IPC: 0.0755268 (Simulation time: 0 hr 51 min 26 sec) 
Heartbeat CPU 0 instructions: 212000000 cycles: 2794428110 heartbeat IPC: 0.074165 cumulative IPC: 0.0755202 (Simulation time: 0 hr 51 min 40 sec) 
Heartbeat CPU 0 instructions: 213000002 cycles: 2809414884 heartbeat IPC: 0.0667256 cumulative IPC: 0.0754733 (Simulation time: 0 hr 51 min 56 sec) 
Heartbeat CPU 0 instructions: 214000001 cycles: 2823376313 heartbeat IPC: 0.0716258 cumulative IPC: 0.0754543 (Simulation time: 0 hr 52 min 11 sec) 
Heartbeat CPU 0 instructions: 215000003 cycles: 2839333510 heartbeat IPC: 0.0626678 cumulative IPC: 0.0753824 (Simulation time: 0 hr 52 min 29 sec) 
Heartbeat CPU 0 instructions: 216000002 cycles: 2854308530 heartbeat IPC: 0.0667778 cumulative IPC: 0.0753373 (Simulation time: 0 hr 52 min 46 sec) 
Heartbeat CPU 0 instructions: 217000001 cycles: 2870980979 heartbeat IPC: 0.0599791 cumulative IPC: 0.0752481 (Simulation time: 0 hr 53 min 3 sec) 
Heartbeat CPU 0 instructions: 218000001 cycles: 2884893098 heartbeat IPC: 0.0718798 cumulative IPC: 0.0752318 (Simulation time: 0 hr 53 min 19 sec) 
Heartbeat CPU 0 instructions: 219000000 cycles: 2898384007 heartbeat IPC: 0.0741239 cumulative IPC: 0.0752267 (Simulation time: 0 hr 53 min 34 sec) 
Heartbeat CPU 0 instructions: 220000000 cycles: 2913770567 heartbeat IPC: 0.0649918 cumulative IPC: 0.0751726 (Simulation time: 0 hr 53 min 51 sec) 
Heartbeat CPU 0 instructions: 221000000 cycles: 2929094029 heartbeat IPC: 0.0652594 cumulative IPC: 0.0751207 (Simulation time: 0 hr 54 min 9 sec) 
Heartbeat CPU 0 instructions: 222000000 cycles: 2943321561 heartbeat IPC: 0.0702863 cumulative IPC: 0.0750974 (Simulation time: 0 hr 54 min 24 sec) 
Heartbeat CPU 0 instructions: 223000001 cycles: 2956408882 heartbeat IPC: 0.0764099 cumulative IPC: 0.0751032 (Simulation time: 0 hr 54 min 39 sec) 
Heartbeat CPU 0 instructions: 224000000 cycles: 2968206838 heartbeat IPC: 0.0847604 cumulative IPC: 0.0751416 (Simulation time: 0 hr 54 min 53 sec) 
Heartbeat CPU 0 instructions: 225000003 cycles: 2984966514 heartbeat IPC: 0.0596672 cumulative IPC: 0.0750547 (Simulation time: 0 hr 55 min 13 sec) 
Heartbeat CPU 0 instructions: 226000001 cycles: 2997065081 heartbeat IPC: 0.0826543 cumulative IPC: 0.0750853 (Simulation time: 0 hr 55 min 28 sec) 
Heartbeat CPU 0 instructions: 227000000 cycles: 3011485376 heartbeat IPC: 0.0693466 cumulative IPC: 0.0750579 (Simulation time: 0 hr 55 min 45 sec) 
Heartbeat CPU 0 instructions: 228000000 cycles: 3025965595 heartbeat IPC: 0.0690597 cumulative IPC: 0.0750292 (Simulation time: 0 hr 56 min 1 sec) 
Heartbeat CPU 0 instructions: 229000001 cycles: 3040649486 heartbeat IPC: 0.0681019 cumulative IPC: 0.0749957 (Simulation time: 0 hr 56 min 17 sec) 
Heartbeat CPU 0 instructions: 230000002 cycles: 3055795348 heartbeat IPC: 0.0660247 cumulative IPC: 0.0749512 (Simulation time: 0 hr 56 min 35 sec) 
Heartbeat CPU 0 instructions: 231000000 cycles: 3071250149 heartbeat IPC: 0.0647047 cumulative IPC: 0.0748997 (Simulation time: 0 hr 56 min 54 sec) 
Heartbeat CPU 0 instructions: 232000000 cycles: 3084431927 heartbeat IPC: 0.0758623 cumulative IPC: 0.0749038 (Simulation time: 0 hr 57 min 9 sec) 
Heartbeat CPU 0 instructions: 233000003 cycles: 3098020929 heartbeat IPC: 0.0735891 cumulative IPC: 0.074898 (Simulation time: 0 hr 57 min 24 sec) 
Heartbeat CPU 0 instructions: 234000002 cycles: 3112576131 heartbeat IPC: 0.0687039 cumulative IPC: 0.074869 (Simulation time: 0 hr 57 min 40 sec) 
Heartbeat CPU 0 instructions: 235000002 cycles: 3126375765 heartbeat IPC: 0.0724657 cumulative IPC: 0.0748584 (Simulation time: 0 hr 57 min 55 sec) 
Heartbeat CPU 0 instructions: 236000001 cycles: 3140275559 heartbeat IPC: 0.0719434 cumulative IPC: 0.0748455 (Simulation time: 0 hr 58 min 12 sec) 
Heartbeat CPU 0 instructions: 237000002 cycles: 3157075093 heartbeat IPC: 0.0595255 cumulative IPC: 0.074764 (Simulation time: 0 hr 58 min 31 sec) 
Heartbeat CPU 0 instructions: 238000000 cycles: 3171326583 heartbeat IPC: 0.070168 cumulative IPC: 0.0747433 (Simulation time: 0 hr 58 min 47 sec) 
Heartbeat CPU 0 instructions: 239000001 cycles: 3185895242 heartbeat IPC: 0.0686406 cumulative IPC: 0.0747154 (Simulation time: 0 hr 59 min 3 sec) 
Heartbeat CPU 0 instructions: 240000000 cycles: 3198571795 heartbeat IPC: 0.0788857 cumulative IPC: 0.074732 (Simulation time: 0 hr 59 min 17 sec) 
Heartbeat CPU 0 instructions: 241000000 cycles: 3211755923 heartbeat IPC: 0.0758488 cumulative IPC: 0.0747365 (Simulation time: 0 hr 59 min 32 sec) 
Heartbeat CPU 0 instructions: 242000000 cycles: 3225874534 heartbeat IPC: 0.0708285 cumulative IPC: 0.0747194 (Simulation time: 0 hr 59 min 48 sec) 
Heartbeat CPU 0 instructions: 243000002 cycles: 3242399602 heartbeat IPC: 0.0605142 cumulative IPC: 0.074647 (Simulation time: 1 hr 0 min 7 sec) 
Heartbeat CPU 0 instructions: 244000000 cycles: 3256251069 heartbeat IPC: 0.0721944 cumulative IPC: 0.0746366 (Simulation time: 1 hr 0 min 22 sec) 
Heartbeat CPU 0 instructions: 245000000 cycles: 3266976156 heartbeat IPC: 0.0932393 cumulative IPC: 0.0746977 (Simulation time: 1 hr 0 min 36 sec) 
Heartbeat CPU 0 instructions: 246000003 cycles: 3282246139 heartbeat IPC: 0.0654882 cumulative IPC: 0.0746548 (Simulation time: 1 hr 0 min 53 sec) 
Heartbeat CPU 0 instructions: 247000002 cycles: 3296012407 heartbeat IPC: 0.0726413 cumulative IPC: 0.0746464 (Simulation time: 1 hr 1 min 8 sec) 
Heartbeat CPU 0 instructions: 248000000 cycles: 3310296002 heartbeat IPC: 0.0700102 cumulative IPC: 0.0746264 (Simulation time: 1 hr 1 min 24 sec) 
Heartbeat CPU 0 instructions: 249000000 cycles: 3326143130 heartbeat IPC: 0.0631029 cumulative IPC: 0.0745715 (Simulation time: 1 hr 1 min 41 sec) 
Heartbeat CPU 0 instructions: 250000000 cycles: 3343390281 heartbeat IPC: 0.0579806 cumulative IPC: 0.0744859 (Simulation time: 1 hr 2 min 1 sec) 
Heartbeat CPU 0 instructions: 251000001 cycles: 3357086516 heartbeat IPC: 0.0730128 cumulative IPC: 0.0744799 (Simulation time: 1 hr 2 min 16 sec) 
Heartbeat CPU 0 instructions: 252000002 cycles: 3369574957 heartbeat IPC: 0.0800741 cumulative IPC: 0.0745006 (Simulation time: 1 hr 2 min 30 sec) 
Heartbeat CPU 0 instructions: 253000000 cycles: 3384348334 heartbeat IPC: 0.0676892 cumulative IPC: 0.0744709 (Simulation time: 1 hr 2 min 46 sec) 
Heartbeat CPU 0 instructions: 254000002 cycles: 3397544849 heartbeat IPC: 0.0757777 cumulative IPC: 0.074476 (Simulation time: 1 hr 3 min 2 sec) 
Heartbeat CPU 0 instructions: 255000001 cycles: 3408026002 heartbeat IPC: 0.0954093 cumulative IPC: 0.0745403 (Simulation time: 1 hr 3 min 16 sec) 
Heartbeat CPU 0 instructions: 256000002 cycles: 3422374510 heartbeat IPC: 0.0696937 cumulative IPC: 0.07452 (Simulation time: 1 hr 3 min 34 sec) 
Heartbeat CPU 0 instructions: 257000000 cycles: 3430466718 heartbeat IPC: 0.123575 cumulative IPC: 0.0746358 (Simulation time: 1 hr 3 min 47 sec) 
Heartbeat CPU 0 instructions: 258000001 cycles: 3445114569 heartbeat IPC: 0.0682695 cumulative IPC: 0.0746087 (Simulation time: 1 hr 4 min 6 sec) 
Heartbeat CPU 0 instructions: 259000000 cycles: 3452178153 heartbeat IPC: 0.141571 cumulative IPC: 0.0747457 (Simulation time: 1 hr 4 min 19 sec) 
Heartbeat CPU 0 instructions: 260000000 cycles: 3459641390 heartbeat IPC: 0.13399 cumulative IPC: 0.0748735 (Simulation time: 1 hr 4 min 33 sec) 
Heartbeat CPU 0 instructions: 261000001 cycles: 3476273939 heartbeat IPC: 0.0601231 cumulative IPC: 0.074803 (Simulation time: 1 hr 4 min 53 sec) 
Heartbeat CPU 0 instructions: 262000002 cycles: 3483255497 heartbeat IPC: 0.143235 cumulative IPC: 0.0749401 (Simulation time: 1 hr 5 min 5 sec) 
Heartbeat CPU 0 instructions: 263000000 cycles: 3489908577 heartbeat IPC: 0.150306 cumulative IPC: 0.0750838 (Simulation time: 1 hr 5 min 17 sec) 
Heartbeat CPU 0 instructions: 264000000 cycles: 3495771176 heartbeat IPC: 0.170573 cumulative IPC: 0.075244 (Simulation time: 1 hr 5 min 29 sec) 
Heartbeat CPU 0 instructions: 265000000 cycles: 3506528328 heartbeat IPC: 0.0929614 cumulative IPC: 0.0752983 (Simulation time: 1 hr 5 min 44 sec) 
Heartbeat CPU 0 instructions: 266000000 cycles: 3518778824 heartbeat IPC: 0.0816294 cumulative IPC: 0.0753204 (Simulation time: 1 hr 6 min 1 sec) 
Heartbeat CPU 0 instructions: 267000001 cycles: 3525525624 heartbeat IPC: 0.148219 cumulative IPC: 0.0754599 (Simulation time: 1 hr 6 min 13 sec) 
Heartbeat CPU 0 instructions: 268000000 cycles: 3532025824 heartbeat IPC: 0.153841 cumulative IPC: 0.0756042 (Simulation time: 1 hr 6 min 25 sec) 
Heartbeat CPU 0 instructions: 269000000 cycles: 3538317837 heartbeat IPC: 0.158932 cumulative IPC: 0.0757524 (Simulation time: 1 hr 6 min 37 sec) 
Heartbeat CPU 0 instructions: 270000000 cycles: 3553429946 heartbeat IPC: 0.0661721 cumulative IPC: 0.0757116 (Simulation time: 1 hr 6 min 56 sec) 
Heartbeat CPU 0 instructions: 271000001 cycles: 3561588738 heartbeat IPC: 0.122567 cumulative IPC: 0.075819 (Simulation time: 1 hr 7 min 10 sec) 
Heartbeat CPU 0 instructions: 272000001 cycles: 3567932963 heartbeat IPC: 0.157624 cumulative IPC: 0.0759645 (Simulation time: 1 hr 7 min 22 sec) 
Heartbeat CPU 0 instructions: 273000000 cycles: 3574335074 heartbeat IPC: 0.156198 cumulative IPC: 0.0761082 (Simulation time: 1 hr 7 min 34 sec) 
Heartbeat CPU 0 instructions: 274000000 cycles: 3582990434 heartbeat IPC: 0.115535 cumulative IPC: 0.0762034 (Simulation time: 1 hr 7 min 48 sec) 
Heartbeat CPU 0 instructions: 275000000 cycles: 3599553707 heartbeat IPC: 0.0603745 cumulative IPC: 0.0761306 (Simulation time: 1 hr 8 min 8 sec) 
Heartbeat CPU 0 instructions: 276000000 cycles: 3607493240 heartbeat IPC: 0.125952 cumulative IPC: 0.0762403 (Simulation time: 1 hr 8 min 22 sec) 
Heartbeat CPU 0 instructions: 277000000 cycles: 3615619898 heartbeat IPC: 0.123052 cumulative IPC: 0.0763455 (Simulation time: 1 hr 8 min 35 sec) 
Heartbeat CPU 0 instructions: 278000000 cycles: 3623509630 heartbeat IPC: 0.126747 cumulative IPC: 0.0764553 (Simulation time: 1 hr 8 min 48 sec) 
Heartbeat CPU 0 instructions: 279000000 cycles: 3631950941 heartbeat IPC: 0.118465 cumulative IPC: 0.0765529 (Simulation time: 1 hr 9 min 1 sec) 
Heartbeat CPU 0 instructions: 280000001 cycles: 3644938630 heartbeat IPC: 0.0769961 cumulative IPC: 0.0765545 (Simulation time: 1 hr 9 min 18 sec) 
Heartbeat CPU 0 instructions: 281000000 cycles: 3657222407 heartbeat IPC: 0.0814081 cumulative IPC: 0.0765708 (Simulation time: 1 hr 9 min 35 sec) 
Heartbeat CPU 0 instructions: 282000001 cycles: 3666091898 heartbeat IPC: 0.112746 cumulative IPC: 0.0766583 (Simulation time: 1 hr 9 min 49 sec) 
Heartbeat CPU 0 instructions: 283000001 cycles: 3676381893 heartbeat IPC: 0.0971818 cumulative IPC: 0.0767158 (Simulation time: 1 hr 10 min 4 sec) 
Heartbeat CPU 0 instructions: 284000000 cycles: 3686076395 heartbeat IPC: 0.103151 cumulative IPC: 0.0767853 (Simulation time: 1 hr 10 min 19 sec) 
Heartbeat CPU 0 instructions: 285000000 cycles: 3698443222 heartbeat IPC: 0.0808615 cumulative IPC: 0.0767989 (Simulation time: 1 hr 10 min 35 sec) 
Heartbeat CPU 0 instructions: 286000000 cycles: 3712705876 heartbeat IPC: 0.0701132 cumulative IPC: 0.0767732 (Simulation time: 1 hr 10 min 52 sec) 
Heartbeat CPU 0 instructions: 287000000 cycles: 3725338089 heartbeat IPC: 0.0791627 cumulative IPC: 0.0767813 (Simulation time: 1 hr 11 min 9 sec) 
Heartbeat CPU 0 instructions: 288000001 cycles: 3735442690 heartbeat IPC: 0.0989649 cumulative IPC: 0.0768414 (Simulation time: 1 hr 11 min 24 sec) 
Heartbeat CPU 0 instructions: 289000000 cycles: 3745722369 heartbeat IPC: 0.0972792 cumulative IPC: 0.0768975 (Simulation time: 1 hr 11 min 38 sec) 
Heartbeat CPU 0 instructions: 290000003 cycles: 3757186774 heartbeat IPC: 0.0872268 cumulative IPC: 0.076929 (Simulation time: 1 hr 11 min 52 sec) 
Heartbeat CPU 0 instructions: 291000003 cycles: 3769804473 heartbeat IPC: 0.0792538 cumulative IPC: 0.0769368 (Simulation time: 1 hr 12 min 6 sec) 
Heartbeat CPU 0 instructions: 292000000 cycles: 3786520392 heartbeat IPC: 0.059823 cumulative IPC: 0.0768612 (Simulation time: 1 hr 12 min 26 sec) 
Heartbeat CPU 0 instructions: 293000000 cycles: 3801246992 heartbeat IPC: 0.0679043 cumulative IPC: 0.0768265 (Simulation time: 1 hr 12 min 42 sec) 
Heartbeat CPU 0 instructions: 294000000 cycles: 3816670631 heartbeat IPC: 0.0648355 cumulative IPC: 0.076778 (Simulation time: 1 hr 12 min 58 sec) 
Heartbeat CPU 0 instructions: 295000000 cycles: 3830956014 heartbeat IPC: 0.0700016 cumulative IPC: 0.0767528 (Simulation time: 1 hr 13 min 13 sec) 
Heartbeat CPU 0 instructions: 296000000 cycles: 3845709367 heartbeat IPC: 0.0677812 cumulative IPC: 0.0767183 (Simulation time: 1 hr 13 min 27 sec) 
Heartbeat CPU 0 instructions: 297000000 cycles: 3861280230 heartbeat IPC: 0.0642225 cumulative IPC: 0.0766679 (Simulation time: 1 hr 13 min 43 sec) 
Heartbeat CPU 0 instructions: 298000002 cycles: 3877255661 heartbeat IPC: 0.0625962 cumulative IPC: 0.07661 (Simulation time: 1 hr 14 min 0 sec) 
Heartbeat CPU 0 instructions: 299000000 cycles: 3892166570 heartbeat IPC: 0.0670649 cumulative IPC: 0.0765734 (Simulation time: 1 hr 14 min 18 sec) 
Heartbeat CPU 0 instructions: 300000000 cycles: 3907408947 heartbeat IPC: 0.0656066 cumulative IPC: 0.0765306 (Simulation time: 1 hr 14 min 34 sec) 
Heartbeat CPU 0 instructions: 301000000 cycles: 3923237816 heartbeat IPC: 0.0631757 cumulative IPC: 0.0764767 (Simulation time: 1 hr 14 min 51 sec) 
Heartbeat CPU 0 instructions: 302000000 cycles: 3938195591 heartbeat IPC: 0.0668549 cumulative IPC: 0.0764402 (Simulation time: 1 hr 15 min 6 sec) 
Heartbeat CPU 0 instructions: 303000002 cycles: 3952911391 heartbeat IPC: 0.0679543 cumulative IPC: 0.0764086 (Simulation time: 1 hr 15 min 22 sec) 
Heartbeat CPU 0 instructions: 304000000 cycles: 3968115823 heartbeat IPC: 0.0657702 cumulative IPC: 0.0763678 (Simulation time: 1 hr 15 min 37 sec) 
Heartbeat CPU 0 instructions: 305000003 cycles: 3984938413 heartbeat IPC: 0.0594441 cumulative IPC: 0.0762964 (Simulation time: 1 hr 15 min 56 sec) 
Heartbeat CPU 0 instructions: 306000000 cycles: 3999474701 heartbeat IPC: 0.0687931 cumulative IPC: 0.0762691 (Simulation time: 1 hr 16 min 12 sec) 
Heartbeat CPU 0 instructions: 307000001 cycles: 4013281090 heartbeat IPC: 0.0724303 cumulative IPC: 0.0762559 (Simulation time: 1 hr 16 min 28 sec) 
Heartbeat CPU 0 instructions: 308000000 cycles: 4028871015 heartbeat IPC: 0.0641439 cumulative IPC: 0.076209 (Simulation time: 1 hr 16 min 43 sec) 
Heartbeat CPU 0 instructions: 309000000 cycles: 4045289525 heartbeat IPC: 0.0609069 cumulative IPC: 0.0761469 (Simulation time: 1 hr 17 min 0 sec) 
Heartbeat CPU 0 instructions: 310000000 cycles: 4060920497 heartbeat IPC: 0.0639756 cumulative IPC: 0.0761 (Simulation time: 1 hr 17 min 16 sec) 
Heartbeat CPU 0 instructions: 311000000 cycles: 4076788622 heartbeat IPC: 0.0630194 cumulative IPC: 0.0760491 (Simulation time: 1 hr 17 min 32 sec) 
Heartbeat CPU 0 instructions: 312000001 cycles: 4092486602 heartbeat IPC: 0.0637025 cumulative IPC: 0.0760017 (Simulation time: 1 hr 17 min 48 sec) 
Heartbeat CPU 0 instructions: 313000000 cycles: 4107762618 heartbeat IPC: 0.065462 cumulative IPC: 0.0759625 (Simulation time: 1 hr 18 min 7 sec) 
Heartbeat CPU 0 instructions: 314000000 cycles: 4115479415 heartbeat IPC: 0.129587 cumulative IPC: 0.0760631 (Simulation time: 1 hr 18 min 18 sec) 
Heartbeat CPU 0 instructions: 315000000 cycles: 4122872328 heartbeat IPC: 0.135265 cumulative IPC: 0.0761693 (Simulation time: 1 hr 18 min 29 sec) 
Heartbeat CPU 0 instructions: 316000002 cycles: 4136712185 heartbeat IPC: 0.0722552 cumulative IPC: 0.0761562 (Simulation time: 1 hr 18 min 45 sec) 
Heartbeat CPU 0 instructions: 317000000 cycles: 4147177876 heartbeat IPC: 0.0955501 cumulative IPC: 0.0762051 (Simulation time: 1 hr 19 min 0 sec) 
Heartbeat CPU 0 instructions: 318000003 cycles: 4154059550 heartbeat IPC: 0.145314 cumulative IPC: 0.0763196 (Simulation time: 1 hr 19 min 11 sec) 
Heartbeat CPU 0 instructions: 319000000 cycles: 4170142442 heartbeat IPC: 0.0621777 cumulative IPC: 0.0762651 (Simulation time: 1 hr 19 min 30 sec) 
Heartbeat CPU 0 instructions: 320000001 cycles: 4182517199 heartbeat IPC: 0.0808097 cumulative IPC: 0.0762785 (Simulation time: 1 hr 19 min 46 sec) 
Heartbeat CPU 0 instructions: 321000000 cycles: 4194505294 heartbeat IPC: 0.083416 cumulative IPC: 0.0762989 (Simulation time: 1 hr 20 min 2 sec) 
Heartbeat CPU 0 instructions: 322000002 cycles: 4201329090 heartbeat IPC: 0.146546 cumulative IPC: 0.076413 (Simulation time: 1 hr 20 min 14 sec) 
Heartbeat CPU 0 instructions: 323000000 cycles: 4208214208 heartbeat IPC: 0.145241 cumulative IPC: 0.0765257 (Simulation time: 1 hr 20 min 25 sec) 
Heartbeat CPU 0 instructions: 324000002 cycles: 4224958978 heartbeat IPC: 0.0597203 cumulative IPC: 0.076459 (Simulation time: 1 hr 20 min 44 sec) 
Heartbeat CPU 0 instructions: 325000000 cycles: 4232247967 heartbeat IPC: 0.137193 cumulative IPC: 0.0765637 (Simulation time: 1 hr 20 min 56 sec) 
Heartbeat CPU 0 instructions: 326000002 cycles: 4240327378 heartbeat IPC: 0.123772 cumulative IPC: 0.0766536 (Simulation time: 1 hr 21 min 8 sec) 
Heartbeat CPU 0 instructions: 327000000 cycles: 4251879241 heartbeat IPC: 0.0865659 cumulative IPC: 0.0766805 (Simulation time: 1 hr 21 min 22 sec) 
Heartbeat CPU 0 instructions: 328000001 cycles: 4267492301 heartbeat IPC: 0.064049 cumulative IPC: 0.0766343 (Simulation time: 1 hr 21 min 40 sec) 
Heartbeat CPU 0 instructions: 329000001 cycles: 4278994770 heartbeat IPC: 0.0869379 cumulative IPC: 0.076662 (Simulation time: 1 hr 21 min 54 sec) 
Heartbeat CPU 0 instructions: 330000000 cycles: 4291224325 heartbeat IPC: 0.081769 cumulative IPC: 0.0766766 (Simulation time: 1 hr 22 min 8 sec) 
Heartbeat CPU 0 instructions: 331000003 cycles: 4304953705 heartbeat IPC: 0.0728367 cumulative IPC: 0.0766643 (Simulation time: 1 hr 22 min 22 sec) 
Heartbeat CPU 0 instructions: 332000003 cycles: 4320621399 heartbeat IPC: 0.0638256 cumulative IPC: 0.0766178 (Simulation time: 1 hr 22 min 40 sec) 
Heartbeat CPU 0 instructions: 333000000 cycles: 4335865578 heartbeat IPC: 0.0655986 cumulative IPC: 0.076579 (Simulation time: 1 hr 22 min 58 sec) 
Heartbeat CPU 0 instructions: 334000000 cycles: 4350711090 heartbeat IPC: 0.0673604 cumulative IPC: 0.0765476 (Simulation time: 1 hr 23 min 13 sec) 
Heartbeat CPU 0 instructions: 335000002 cycles: 4365795158 heartbeat IPC: 0.0662952 cumulative IPC: 0.0765121 (Simulation time: 1 hr 23 min 29 sec) 
Heartbeat CPU 0 instructions: 336000000 cycles: 4379604389 heartbeat IPC: 0.0724152 cumulative IPC: 0.0764992 (Simulation time: 1 hr 23 min 44 sec) 
Heartbeat CPU 0 instructions: 337000000 cycles: 4393804114 heartbeat IPC: 0.0704239 cumulative IPC: 0.0764796 (Simulation time: 1 hr 23 min 59 sec) 
Heartbeat CPU 0 instructions: 338000000 cycles: 4408653848 heartbeat IPC: 0.0673413 cumulative IPC: 0.0764488 (Simulation time: 1 hr 24 min 15 sec) 
Heartbeat CPU 0 instructions: 339000002 cycles: 4424270776 heartbeat IPC: 0.0640332 cumulative IPC: 0.076405 (Simulation time: 1 hr 24 min 33 sec) 
Heartbeat CPU 0 instructions: 340000001 cycles: 4437547088 heartbeat IPC: 0.075322 cumulative IPC: 0.0764017 (Simulation time: 1 hr 24 min 47 sec) 
Heartbeat CPU 0 instructions: 341000000 cycles: 4451649406 heartbeat IPC: 0.0709103 cumulative IPC: 0.0763843 (Simulation time: 1 hr 25 min 2 sec) 
Heartbeat CPU 0 instructions: 342000000 cycles: 4465041955 heartbeat IPC: 0.0746684 cumulative IPC: 0.0763792 (Simulation time: 1 hr 25 min 16 sec) 
Heartbeat CPU 0 instructions: 343000000 cycles: 4480033006 heartbeat IPC: 0.0667065 cumulative IPC: 0.0763468 (Simulation time: 1 hr 25 min 33 sec) 
Heartbeat CPU 0 instructions: 344000000 cycles: 4495824511 heartbeat IPC: 0.0633252 cumulative IPC: 0.0763011 (Simulation time: 1 hr 25 min 51 sec) 
Heartbeat CPU 0 instructions: 345000000 cycles: 4510301161 heartbeat IPC: 0.0690768 cumulative IPC: 0.0762779 (Simulation time: 1 hr 26 min 6 sec) 
Heartbeat CPU 0 instructions: 346000000 cycles: 4523890390 heartbeat IPC: 0.0735877 cumulative IPC: 0.0762698 (Simulation time: 1 hr 26 min 21 sec) 
Heartbeat CPU 0 instructions: 347000000 cycles: 4537843486 heartbeat IPC: 0.0716687 cumulative IPC: 0.0762557 (Simulation time: 1 hr 26 min 35 sec) 
Heartbeat CPU 0 instructions: 348000000 cycles: 4553506218 heartbeat IPC: 0.0638458 cumulative IPC: 0.076213 (Simulation time: 1 hr 26 min 51 sec) 
Heartbeat CPU 0 instructions: 349000000 cycles: 4568624330 heartbeat IPC: 0.0661458 cumulative IPC: 0.0761796 (Simulation time: 1 hr 27 min 8 sec) 
Heartbeat CPU 0 instructions: 350000001 cycles: 4585182490 heartbeat IPC: 0.0603932 cumulative IPC: 0.0761226 (Simulation time: 1 hr 27 min 26 sec) 
Heartbeat CPU 0 instructions: 351000000 cycles: 4600766882 heartbeat IPC: 0.0641667 cumulative IPC: 0.0760821 (Simulation time: 1 hr 27 min 41 sec) 
Heartbeat CPU 0 instructions: 352000000 cycles: 4615955506 heartbeat IPC: 0.0658387 cumulative IPC: 0.0760484 (Simulation time: 1 hr 27 min 56 sec) 
Heartbeat CPU 0 instructions: 353000000 cycles: 4635566307 heartbeat IPC: 0.0509923 cumulative IPC: 0.0759424 (Simulation time: 1 hr 28 min 17 sec) 
Heartbeat CPU 0 instructions: 354000000 cycles: 4650145456 heartbeat IPC: 0.0685911 cumulative IPC: 0.0759194 (Simulation time: 1 hr 28 min 33 sec) 
Heartbeat CPU 0 instructions: 355000000 cycles: 4666166821 heartbeat IPC: 0.0624167 cumulative IPC: 0.075873 (Simulation time: 1 hr 28 min 49 sec) 
Heartbeat CPU 0 instructions: 356000000 cycles: 4682927703 heartbeat IPC: 0.0596627 cumulative IPC: 0.075815 (Simulation time: 1 hr 29 min 5 sec) 
Heartbeat CPU 0 instructions: 357000000 cycles: 4698560341 heartbeat IPC: 0.0639687 cumulative IPC: 0.0757755 (Simulation time: 1 hr 29 min 21 sec) 
Heartbeat CPU 0 instructions: 358000001 cycles: 4715424386 heartbeat IPC: 0.0592978 cumulative IPC: 0.0757166 (Simulation time: 1 hr 29 min 41 sec) 
Heartbeat CPU 0 instructions: 359000002 cycles: 4730054859 heartbeat IPC: 0.0683506 cumulative IPC: 0.0756938 (Simulation time: 1 hr 29 min 57 sec) 
Heartbeat CPU 0 instructions: 360000001 cycles: 4745141748 heartbeat IPC: 0.0662827 cumulative IPC: 0.0756639 (Simulation time: 1 hr 30 min 13 sec) 
Heartbeat CPU 0 instructions: 361000000 cycles: 4760901871 heartbeat IPC: 0.0634512 cumulative IPC: 0.0756235 (Simulation time: 1 hr 30 min 29 sec) 
Heartbeat CPU 0 instructions: 362000001 cycles: 4777865227 heartbeat IPC: 0.0589507 cumulative IPC: 0.0755643 (Simulation time: 1 hr 30 min 46 sec) 
Heartbeat CPU 0 instructions: 363000000 cycles: 4794147608 heartbeat IPC: 0.061416 cumulative IPC: 0.0755162 (Simulation time: 1 hr 31 min 2 sec) 
Heartbeat CPU 0 instructions: 364000000 cycles: 4809822727 heartbeat IPC: 0.0637954 cumulative IPC: 0.075478 (Simulation time: 1 hr 31 min 18 sec) 
Heartbeat CPU 0 instructions: 365000001 cycles: 4826591910 heartbeat IPC: 0.0596333 cumulative IPC: 0.075423 (Simulation time: 1 hr 31 min 34 sec) 
Heartbeat CPU 0 instructions: 366000000 cycles: 4843055898 heartbeat IPC: 0.0607386 cumulative IPC: 0.075373 (Simulation time: 1 hr 31 min 51 sec) 
Heartbeat CPU 0 instructions: 367000002 cycles: 4859728465 heartbeat IPC: 0.0599789 cumulative IPC: 0.0753202 (Simulation time: 1 hr 32 min 8 sec) 
Heartbeat CPU 0 instructions: 368000002 cycles: 4876658142 heartbeat IPC: 0.0590679 cumulative IPC: 0.0752638 (Simulation time: 1 hr 32 min 27 sec) 
Heartbeat CPU 0 instructions: 369000000 cycles: 4889924705 heartbeat IPC: 0.0753773 cumulative IPC: 0.0752641 (Simulation time: 1 hr 32 min 42 sec) 
Heartbeat CPU 0 instructions: 370000001 cycles: 4903667639 heartbeat IPC: 0.0727647 cumulative IPC: 0.0752571 (Simulation time: 1 hr 32 min 56 sec) 
Heartbeat CPU 0 instructions: 371000000 cycles: 4919329865 heartbeat IPC: 0.0638478 cumulative IPC: 0.0752208 (Simulation time: 1 hr 33 min 12 sec) 
Heartbeat CPU 0 instructions: 372000001 cycles: 4935501971 heartbeat IPC: 0.0618349 cumulative IPC: 0.0751769 (Simulation time: 1 hr 33 min 29 sec) 
Heartbeat CPU 0 instructions: 373000002 cycles: 4951541794 heartbeat IPC: 0.0623449 cumulative IPC: 0.0751353 (Simulation time: 1 hr 33 min 46 sec) 
Heartbeat CPU 0 instructions: 374000000 cycles: 4967300179 heartbeat IPC: 0.0634582 cumulative IPC: 0.0750983 (Simulation time: 1 hr 34 min 3 sec) 
Heartbeat CPU 0 instructions: 375000000 cycles: 4983558818 heartbeat IPC: 0.0615058 cumulative IPC: 0.0750539 (Simulation time: 1 hr 34 min 21 sec) 
Heartbeat CPU 0 instructions: 376000000 cycles: 5000003553 heartbeat IPC: 0.0608097 cumulative IPC: 0.0750071 (Simulation time: 1 hr 34 min 39 sec) 
Heartbeat CPU 0 instructions: 377000000 cycles: 5014441149 heartbeat IPC: 0.0692636 cumulative IPC: 0.0749905 (Simulation time: 1 hr 34 min 55 sec) 
Heartbeat CPU 0 instructions: 378000001 cycles: 5029601827 heartbeat IPC: 0.0659602 cumulative IPC: 0.0749633 (Simulation time: 1 hr 35 min 11 sec) 
Heartbeat CPU 0 instructions: 379000003 cycles: 5045149236 heartbeat IPC: 0.0643195 cumulative IPC: 0.0749305 (Simulation time: 1 hr 35 min 27 sec) 
Heartbeat CPU 0 instructions: 380000000 cycles: 5061482784 heartbeat IPC: 0.0612235 cumulative IPC: 0.0748863 (Simulation time: 1 hr 35 min 45 sec) 
Heartbeat CPU 0 instructions: 381000002 cycles: 5077285846 heartbeat IPC: 0.063279 cumulative IPC: 0.0748501 (Simulation time: 1 hr 36 min 2 sec) 
Heartbeat CPU 0 instructions: 382000000 cycles: 5092567447 heartbeat IPC: 0.065438 cumulative IPC: 0.0748219 (Simulation time: 1 hr 36 min 18 sec) 
Heartbeat CPU 0 instructions: 383000002 cycles: 5107297500 heartbeat IPC: 0.0678886 cumulative IPC: 0.0748019 (Simulation time: 1 hr 36 min 34 sec) 
Heartbeat CPU 0 instructions: 384000000 cycles: 5123209110 heartbeat IPC: 0.0628471 cumulative IPC: 0.0747648 (Simulation time: 1 hr 36 min 52 sec) 
Heartbeat CPU 0 instructions: 385000000 cycles: 5139774804 heartbeat IPC: 0.0603657 cumulative IPC: 0.0747183 (Simulation time: 1 hr 37 min 11 sec) 
Heartbeat CPU 0 instructions: 386000001 cycles: 5154996558 heartbeat IPC: 0.0656955 cumulative IPC: 0.0746917 (Simulation time: 1 hr 37 min 27 sec) 
Heartbeat CPU 0 instructions: 387000000 cycles: 5171750334 heartbeat IPC: 0.059688 cumulative IPC: 0.0746431 (Simulation time: 1 hr 37 min 44 sec) 
Heartbeat CPU 0 instructions: 388000002 cycles: 5188356599 heartbeat IPC: 0.0602184 cumulative IPC: 0.0745969 (Simulation time: 1 hr 38 min 1 sec) 
Heartbeat CPU 0 instructions: 389000001 cycles: 5204855821 heartbeat IPC: 0.0606089 cumulative IPC: 0.0745526 (Simulation time: 1 hr 38 min 17 sec) 
Heartbeat CPU 0 instructions: 390000001 cycles: 5221487271 heartbeat IPC: 0.060127 cumulative IPC: 0.0745066 (Simulation time: 1 hr 38 min 35 sec) 
Heartbeat CPU 0 instructions: 391000000 cycles: 5238088393 heartbeat IPC: 0.0602368 cumulative IPC: 0.0744614 (Simulation time: 1 hr 38 min 52 sec) 
Heartbeat CPU 0 instructions: 392000000 cycles: 5253424965 heartbeat IPC: 0.0652036 cumulative IPC: 0.0744344 (Simulation time: 1 hr 39 min 8 sec) 
Heartbeat CPU 0 instructions: 393000000 cycles: 5269978987 heartbeat IPC: 0.0604083 cumulative IPC: 0.0743903 (Simulation time: 1 hr 39 min 25 sec) 
Heartbeat CPU 0 instructions: 394000003 cycles: 5285308423 heartbeat IPC: 0.0652342 cumulative IPC: 0.0743637 (Simulation time: 1 hr 39 min 41 sec) 
Heartbeat CPU 0 instructions: 395000001 cycles: 5301573781 heartbeat IPC: 0.0614802 cumulative IPC: 0.0743242 (Simulation time: 1 hr 39 min 58 sec) 
Heartbeat CPU 0 instructions: 396000000 cycles: 5318360735 heartbeat IPC: 0.05957 cumulative IPC: 0.0742776 (Simulation time: 1 hr 40 min 17 sec) 
Heartbeat CPU 0 instructions: 397000001 cycles: 5334120503 heartbeat IPC: 0.0634528 cumulative IPC: 0.0742457 (Simulation time: 1 hr 40 min 33 sec) 
Heartbeat CPU 0 instructions: 398000000 cycles: 5350496037 heartbeat IPC: 0.0610666 cumulative IPC: 0.0742053 (Simulation time: 1 hr 40 min 49 sec) 
Heartbeat CPU 0 instructions: 399000001 cycles: 5367774159 heartbeat IPC: 0.0578767 cumulative IPC: 0.0741528 (Simulation time: 1 hr 41 min 5 sec) 
Heartbeat CPU 0 instructions: 400000000 cycles: 5384791032 heartbeat IPC: 0.0587651 cumulative IPC: 0.0741041 (Simulation time: 1 hr 41 min 22 sec) 
Heartbeat CPU 0 instructions: 401000002 cycles: 5400629843 heartbeat IPC: 0.0631362 cumulative IPC: 0.074072 (Simulation time: 1 hr 41 min 37 sec) 
Heartbeat CPU 0 instructions: 402000002 cycles: 5416656061 heartbeat IPC: 0.0623978 cumulative IPC: 0.0740374 (Simulation time: 1 hr 41 min 52 sec) 
Heartbeat CPU 0 instructions: 403000000 cycles: 5433697252 heartbeat IPC: 0.0586812 cumulative IPC: 0.0739892 (Simulation time: 1 hr 42 min 9 sec) 
Heartbeat CPU 0 instructions: 404000000 cycles: 5450275652 heartbeat IPC: 0.0603195 cumulative IPC: 0.0739477 (Simulation time: 1 hr 42 min 27 sec) 
Heartbeat CPU 0 instructions: 405000000 cycles: 5466848362 heartbeat IPC: 0.0603402 cumulative IPC: 0.0739064 (Simulation time: 1 hr 42 min 43 sec) 
Heartbeat CPU 0 instructions: 406000002 cycles: 5483388824 heartbeat IPC: 0.0604579 cumulative IPC: 0.0738658 (Simulation time: 1 hr 43 min 0 sec) 
Heartbeat CPU 0 instructions: 407000000 cycles: 5500691255 heartbeat IPC: 0.0577952 cumulative IPC: 0.0738153 (Simulation time: 1 hr 43 min 18 sec) 
Heartbeat CPU 0 instructions: 408000002 cycles: 5517865601 heartbeat IPC: 0.0582265 cumulative IPC: 0.0737668 (Simulation time: 1 hr 43 min 35 sec) 
Heartbeat CPU 0 instructions: 409000002 cycles: 5534613419 heartbeat IPC: 0.0597093 cumulative IPC: 0.0737242 (Simulation time: 1 hr 43 min 53 sec) 
Heartbeat CPU 0 instructions: 410000000 cycles: 5551750538 heartbeat IPC: 0.0583527 cumulative IPC: 0.0736768 (Simulation time: 1 hr 44 min 12 sec) 
Heartbeat CPU 0 instructions: 411000001 cycles: 5568049856 heartbeat IPC: 0.0613523 cumulative IPC: 0.0736407 (Simulation time: 1 hr 44 min 29 sec) 
Heartbeat CPU 0 instructions: 412000000 cycles: 5584540781 heartbeat IPC: 0.0606394 cumulative IPC: 0.0736023 (Simulation time: 1 hr 44 min 46 sec) 
Heartbeat CPU 0 instructions: 413000000 cycles: 5601273804 heartbeat IPC: 0.0597621 cumulative IPC: 0.0735609 (Simulation time: 1 hr 45 min 3 sec) 
Heartbeat CPU 0 instructions: 414000000 cycles: 5616980375 heartbeat IPC: 0.0636676 cumulative IPC: 0.0735333 (Simulation time: 1 hr 45 min 20 sec) 
Heartbeat CPU 0 instructions: 415000000 cycles: 5632119531 heartbeat IPC: 0.0660539 cumulative IPC: 0.0735132 (Simulation time: 1 hr 45 min 36 sec) 
Heartbeat CPU 0 instructions: 416000002 cycles: 5645856119 heartbeat IPC: 0.0727984 cumulative IPC: 0.0735114 (Simulation time: 1 hr 45 min 51 sec) 
Heartbeat CPU 0 instructions: 417000000 cycles: 5661676948 heartbeat IPC: 0.0632077 cumulative IPC: 0.0734826 (Simulation time: 1 hr 46 min 8 sec) 
Heartbeat CPU 0 instructions: 418000000 cycles: 5677111698 heartbeat IPC: 0.0647889 cumulative IPC: 0.073459 (Simulation time: 1 hr 46 min 24 sec) 
Heartbeat CPU 0 instructions: 419000000 cycles: 5694040402 heartbeat IPC: 0.0590713 cumulative IPC: 0.0734162 (Simulation time: 1 hr 46 min 44 sec) 
Heartbeat CPU 0 instructions: 420000000 cycles: 5705206336 heartbeat IPC: 0.0895581 cumulative IPC: 0.0734478 (Simulation time: 1 hr 46 min 59 sec) 
Heartbeat CPU 0 instructions: 421000000 cycles: 5712510921 heartbeat IPC: 0.1369 cumulative IPC: 0.073529 (Simulation time: 1 hr 47 min 10 sec) 
Heartbeat CPU 0 instructions: 422000000 cycles: 5720055056 heartbeat IPC: 0.132553 cumulative IPC: 0.0736068 (Simulation time: 1 hr 47 min 21 sec) 
Heartbeat CPU 0 instructions: 423000003 cycles: 5735863807 heartbeat IPC: 0.0632563 cumulative IPC: 0.0735783 (Simulation time: 1 hr 47 min 39 sec) 
Heartbeat CPU 0 instructions: 424000000 cycles: 5745928155 heartbeat IPC: 0.0993603 cumulative IPC: 0.0736234 (Simulation time: 1 hr 47 min 52 sec) 
Heartbeat CPU 0 instructions: 425000000 cycles: 5754062863 heartbeat IPC: 0.12293 cumulative IPC: 0.0736931 (Simulation time: 1 hr 48 min 3 sec) 
Heartbeat CPU 0 instructions: 426000000 cycles: 5761747991 heartbeat IPC: 0.130121 cumulative IPC: 0.0737684 (Simulation time: 1 hr 48 min 14 sec) 
Heartbeat CPU 0 instructions: 427000001 cycles: 5777826620 heartbeat IPC: 0.0621944 cumulative IPC: 0.0737362 (Simulation time: 1 hr 48 min 33 sec) 
Heartbeat CPU 0 instructions: 428000001 cycles: 5787474188 heartbeat IPC: 0.103653 cumulative IPC: 0.0737861 (Simulation time: 1 hr 48 min 45 sec) 
Heartbeat CPU 0 instructions: 429000000 cycles: 5796513005 heartbeat IPC: 0.110634 cumulative IPC: 0.0738435 (Simulation time: 1 hr 48 min 56 sec) 
Heartbeat CPU 0 instructions: 430000000 cycles: 5809859082 heartbeat IPC: 0.0749284 cumulative IPC: 0.073846 (Simulation time: 1 hr 49 min 12 sec) 
Heartbeat CPU 0 instructions: 431000000 cycles: 5823114599 heartbeat IPC: 0.0754403 cumulative IPC: 0.0738497 (Simulation time: 1 hr 49 min 27 sec) 
Heartbeat CPU 0 instructions: 432000000 cycles: 5832758542 heartbeat IPC: 0.103692 cumulative IPC: 0.073899 (Simulation time: 1 hr 49 min 39 sec) 
Heartbeat CPU 0 instructions: 433000000 cycles: 5842541589 heartbeat IPC: 0.102218 cumulative IPC: 0.0739464 (Simulation time: 1 hr 49 min 52 sec) 
Heartbeat CPU 0 instructions: 434000000 cycles: 5858086260 heartbeat IPC: 0.0643307 cumulative IPC: 0.0739209 (Simulation time: 1 hr 50 min 10 sec) 
Heartbeat CPU 0 instructions: 435000001 cycles: 5865199295 heartbeat IPC: 0.140587 cumulative IPC: 0.0740018 (Simulation time: 1 hr 50 min 20 sec) 
Heartbeat CPU 0 instructions: 436000001 cycles: 5875107867 heartbeat IPC: 0.100923 cumulative IPC: 0.0740472 (Simulation time: 1 hr 50 min 33 sec) 
Heartbeat CPU 0 instructions: 437000000 cycles: 5888890457 heartbeat IPC: 0.0725552 cumulative IPC: 0.0740437 (Simulation time: 1 hr 50 min 49 sec) 
Heartbeat CPU 0 instructions: 438000001 cycles: 5901137800 heartbeat IPC: 0.0816504 cumulative IPC: 0.0740595 (Simulation time: 1 hr 51 min 4 sec) 
Heartbeat CPU 0 instructions: 439000000 cycles: 5910166592 heartbeat IPC: 0.110757 cumulative IPC: 0.0741155 (Simulation time: 1 hr 51 min 15 sec) 
Heartbeat CPU 0 instructions: 440000000 cycles: 5923276511 heartbeat IPC: 0.0762781 cumulative IPC: 0.0741203 (Simulation time: 1 hr 51 min 30 sec) 
Heartbeat CPU 0 instructions: 441000000 cycles: 5936994786 heartbeat IPC: 0.0728955 cumulative IPC: 0.0741175 (Simulation time: 1 hr 51 min 47 sec) 
Heartbeat CPU 0 instructions: 442000000 cycles: 5946548876 heartbeat IPC: 0.104667 cumulative IPC: 0.0741666 (Simulation time: 1 hr 51 min 59 sec) 
Heartbeat CPU 0 instructions: 443000001 cycles: 5958104007 heartbeat IPC: 0.0865417 cumulative IPC: 0.0741906 (Simulation time: 1 hr 52 min 13 sec) 
Heartbeat CPU 0 instructions: 444000000 cycles: 5973314352 heartbeat IPC: 0.0657447 cumulative IPC: 0.0741691 (Simulation time: 1 hr 52 min 31 sec) 
Heartbeat CPU 0 instructions: 445000000 cycles: 5982220541 heartbeat IPC: 0.112281 cumulative IPC: 0.0742258 (Simulation time: 1 hr 52 min 43 sec) 
Heartbeat CPU 0 instructions: 446000000 cycles: 5992284611 heartbeat IPC: 0.0993634 cumulative IPC: 0.0742681 (Simulation time: 1 hr 52 min 57 sec) 
Heartbeat CPU 0 instructions: 447000000 cycles: 6008477090 heartbeat IPC: 0.0617571 cumulative IPC: 0.0742343 (Simulation time: 1 hr 53 min 16 sec) 
Heartbeat CPU 0 instructions: 448000000 cycles: 6017173541 heartbeat IPC: 0.114989 cumulative IPC: 0.0742932 (Simulation time: 1 hr 53 min 27 sec) 
Heartbeat CPU 0 instructions: 449000000 cycles: 6026087886 heartbeat IPC: 0.112179 cumulative IPC: 0.0743493 (Simulation time: 1 hr 53 min 39 sec) 
Heartbeat CPU 0 instructions: 450000000 cycles: 6042485688 heartbeat IPC: 0.0609838 cumulative IPC: 0.074313 (Simulation time: 1 hr 53 min 58 sec) 

Warmup complete CPU 0 instructions: 450000001 cycles: 6042485689 (Simulation time: 1 hr 53 min 58 sec) 

Heartbeat CPU 0 instructions: 451000000 cycles: 6051933683 heartbeat IPC: 0.105843 cumulative IPC: 0.105842 (Simulation time: 1 hr 54 min 11 sec) 
Heartbeat CPU 0 instructions: 452000000 cycles: 6060482990 heartbeat IPC: 0.116969 cumulative IPC: 0.111128 (Simulation time: 1 hr 54 min 22 sec) 
Heartbeat CPU 0 instructions: 453000001 cycles: 6070761849 heartbeat IPC: 0.0972872 cumulative IPC: 0.106096 (Simulation time: 1 hr 54 min 36 sec) 
Heartbeat CPU 0 instructions: 454000002 cycles: 6080168724 heartbeat IPC: 0.106305 cumulative IPC: 0.106149 (Simulation time: 1 hr 54 min 49 sec) 
Heartbeat CPU 0 instructions: 455000000 cycles: 6088954974 heartbeat IPC: 0.113814 cumulative IPC: 0.107598 (Simulation time: 1 hr 55 min 0 sec) 
Heartbeat CPU 0 instructions: 456000002 cycles: 6098865231 heartbeat IPC: 0.100906 cumulative IPC: 0.106422 (Simulation time: 1 hr 55 min 14 sec) 
Heartbeat CPU 0 instructions: 457000003 cycles: 6108695600 heartbeat IPC: 0.101726 cumulative IPC: 0.105724 (Simulation time: 1 hr 55 min 27 sec) 
Heartbeat CPU 0 instructions: 458000000 cycles: 6116997615 heartbeat IPC: 0.120452 cumulative IPC: 0.107365 (Simulation time: 1 hr 55 min 39 sec) 
Heartbeat CPU 0 instructions: 459000001 cycles: 6126421857 heartbeat IPC: 0.106109 cumulative IPC: 0.107224 (Simulation time: 1 hr 55 min 51 sec) 
Heartbeat CPU 0 instructions: 460000001 cycles: 6136370449 heartbeat IPC: 0.100517 cumulative IPC: 0.106514 (Simulation time: 1 hr 56 min 5 sec) 
Heartbeat CPU 0 instructions: 461000000 cycles: 6144572442 heartbeat IPC: 0.121921 cumulative IPC: 0.107751 (Simulation time: 1 hr 56 min 16 sec) 
Heartbeat CPU 0 instructions: 462000000 cycles: 6153466008 heartbeat IPC: 0.112441 cumulative IPC: 0.108127 (Simulation time: 1 hr 56 min 27 sec) 
Heartbeat CPU 0 instructions: 463000000 cycles: 6163889993 heartbeat IPC: 0.0959326 cumulative IPC: 0.10708 (Simulation time: 1 hr 56 min 42 sec) 
Heartbeat CPU 0 instructions: 464000000 cycles: 6172110489 heartbeat IPC: 0.121647 cumulative IPC: 0.108004 (Simulation time: 1 hr 56 min 53 sec) 
Heartbeat CPU 0 instructions: 465000002 cycles: 6180672551 heartbeat IPC: 0.116795 cumulative IPC: 0.108549 (Simulation time: 1 hr 57 min 5 sec) 
Heartbeat CPU 0 instructions: 466000000 cycles: 6191248001 heartbeat IPC: 0.0945584 cumulative IPC: 0.107554 (Simulation time: 1 hr 57 min 20 sec) 
Heartbeat CPU 0 instructions: 467000000 cycles: 6199384342 heartbeat IPC: 0.122905 cumulative IPC: 0.10835 (Simulation time: 1 hr 57 min 31 sec) 
Heartbeat CPU 0 instructions: 468000001 cycles: 6207606613 heartbeat IPC: 0.121621 cumulative IPC: 0.109011 (Simulation time: 1 hr 57 min 42 sec) 
Heartbeat CPU 0 instructions: 469000000 cycles: 6218360166 heartbeat IPC: 0.0929924 cumulative IPC: 0.108032 (Simulation time: 1 hr 57 min 57 sec) 
Heartbeat CPU 0 instructions: 470000002 cycles: 6226738129 heartbeat IPC: 0.119361 cumulative IPC: 0.108547 (Simulation time: 1 hr 58 min 9 sec) 
Heartbeat CPU 0 instructions: 471000002 cycles: 6234772721 heartbeat IPC: 0.124462 cumulative IPC: 0.109212 (Simulation time: 1 hr 58 min 21 sec) 
Heartbeat CPU 0 instructions: 472000000 cycles: 6245151973 heartbeat IPC: 0.0963459 cumulative IPC: 0.108553 (Simulation time: 1 hr 58 min 35 sec) 
Heartbeat CPU 0 instructions: 473000000 cycles: 6256146323 heartbeat IPC: 0.0909558 cumulative IPC: 0.107647 (Simulation time: 1 hr 58 min 50 sec) 
Heartbeat CPU 0 instructions: 474000000 cycles: 6265513591 heartbeat IPC: 0.106755 cumulative IPC: 0.10761 (Simulation time: 1 hr 59 min 2 sec) 
Heartbeat CPU 0 instructions: 475000001 cycles: 6275211919 heartbeat IPC: 0.103111 cumulative IPC: 0.107422 (Simulation time: 1 hr 59 min 16 sec) 
Heartbeat CPU 0 instructions: 476000000 cycles: 6285783815 heartbeat IPC: 0.0945903 cumulative IPC: 0.106865 (Simulation time: 1 hr 59 min 31 sec) 
Heartbeat CPU 0 instructions: 477000000 cycles: 6294877279 heartbeat IPC: 0.109969 cumulative IPC: 0.106977 (Simulation time: 1 hr 59 min 43 sec) 
Heartbeat CPU 0 instructions: 478000000 cycles: 6304089972 heartbeat IPC: 0.108546 cumulative IPC: 0.107032 (Simulation time: 1 hr 59 min 55 sec) 
Heartbeat CPU 0 instructions: 479000002 cycles: 6314979505 heartbeat IPC: 0.0918315 cumulative IPC: 0.106424 (Simulation time: 2 hr 0 min 11 sec) 
Heartbeat CPU 0 instructions: 480000000 cycles: 6324861485 heartbeat IPC: 0.101194 cumulative IPC: 0.106241 (Simulation time: 2 hr 0 min 25 sec) 
Heartbeat CPU 0 instructions: 481000001 cycles: 6333602698 heartbeat IPC: 0.114401 cumulative IPC: 0.106486 (Simulation time: 2 hr 0 min 36 sec) 
Heartbeat CPU 0 instructions: 482000003 cycles: 6344484089 heartbeat IPC: 0.0919002 cumulative IPC: 0.105961 (Simulation time: 2 hr 0 min 51 sec) 
Heartbeat CPU 0 instructions: 483000002 cycles: 6353834179 heartbeat IPC: 0.106951 cumulative IPC: 0.105991 (Simulation time: 2 hr 1 min 4 sec) 
Heartbeat CPU 0 instructions: 484000000 cycles: 6363124209 heartbeat IPC: 0.107642 cumulative IPC: 0.106038 (Simulation time: 2 hr 1 min 16 sec) 
Heartbeat CPU 0 instructions: 485000001 cycles: 6373824127 heartbeat IPC: 0.0934588 cumulative IPC: 0.105632 (Simulation time: 2 hr 1 min 31 sec) 
Heartbeat CPU 0 instructions: 486000000 cycles: 6384085209 heartbeat IPC: 0.0974555 cumulative IPC: 0.105387 (Simulation time: 2 hr 1 min 45 sec) 
Heartbeat CPU 0 instructions: 487000000 cycles: 6394755975 heartbeat IPC: 0.093714 cumulative IPC: 0.105033 (Simulation time: 2 hr 1 min 58 sec) 
Heartbeat CPU 0 instructions: 488000003 cycles: 6405430360 heartbeat IPC: 0.0936825 cumulative IPC: 0.104699 (Simulation time: 2 hr 2 min 12 sec) 
Heartbeat CPU 0 instructions: 489000001 cycles: 6417079119 heartbeat IPC: 0.0858459 cumulative IPC: 0.104113 (Simulation time: 2 hr 2 min 28 sec) 
Heartbeat CPU 0 instructions: 490000000 cycles: 6429347986 heartbeat IPC: 0.081507 cumulative IPC: 0.103396 (Simulation time: 2 hr 2 min 43 sec) 
Heartbeat CPU 0 instructions: 491000002 cycles: 6440911454 heartbeat IPC: 0.0864794 cumulative IPC: 0.102905 (Simulation time: 2 hr 2 min 56 sec) 
Heartbeat CPU 0 instructions: 492000002 cycles: 6452183715 heartbeat IPC: 0.0887133 cumulative IPC: 0.102515 (Simulation time: 2 hr 3 min 10 sec) 
Heartbeat CPU 0 instructions: 493000000 cycles: 6464005447 heartbeat IPC: 0.0845898 cumulative IPC: 0.102012 (Simulation time: 2 hr 3 min 26 sec) 
Heartbeat CPU 0 instructions: 494000003 cycles: 6476808862 heartbeat IPC: 0.0781044 cumulative IPC: 0.101307 (Simulation time: 2 hr 3 min 41 sec) 
Heartbeat CPU 0 instructions: 495000000 cycles: 6489322782 heartbeat IPC: 0.0799108 cumulative IPC: 0.100708 (Simulation time: 2 hr 3 min 55 sec) 
Heartbeat CPU 0 instructions: 496000000 cycles: 6501279893 heartbeat IPC: 0.0836322 cumulative IPC: 0.100263 (Simulation time: 2 hr 4 min 9 sec) 
Heartbeat CPU 0 instructions: 497000000 cycles: 6512504595 heartbeat IPC: 0.0890892 cumulative IPC: 0.099996 (Simulation time: 2 hr 4 min 24 sec) 
Heartbeat CPU 0 instructions: 498000000 cycles: 6524909187 heartbeat IPC: 0.0806153 cumulative IPC: 0.0994976 (Simulation time: 2 hr 4 min 39 sec) 
Heartbeat CPU 0 instructions: 499000001 cycles: 6538887249 heartbeat IPC: 0.0715408 cumulative IPC: 0.0987104 (Simulation time: 2 hr 4 min 54 sec) 
Heartbeat CPU 0 instructions: 500000000 cycles: 6550428259 heartbeat IPC: 0.0866474 cumulative IPC: 0.0984363 (Simulation time: 2 hr 5 min 8 sec) 
Heartbeat CPU 0 instructions: 501000000 cycles: 6562122439 heartbeat IPC: 0.0855126 cumulative IPC: 0.0981455 (Simulation time: 2 hr 5 min 22 sec) 
Heartbeat CPU 0 instructions: 502000000 cycles: 6574314753 heartbeat IPC: 0.0820189 cumulative IPC: 0.0977758 (Simulation time: 2 hr 5 min 38 sec) 
Heartbeat CPU 0 instructions: 503000000 cycles: 6585185576 heartbeat IPC: 0.0919894 cumulative IPC: 0.0976599 (Simulation time: 2 hr 5 min 51 sec) 
Heartbeat CPU 0 instructions: 504000000 cycles: 6592953742 heartbeat IPC: 0.128731 cumulative IPC: 0.0980983 (Simulation time: 2 hr 6 min 2 sec) 
Heartbeat CPU 0 instructions: 505000000 cycles: 6602646915 heartbeat IPC: 0.103165 cumulative IPC: 0.098186 (Simulation time: 2 hr 6 min 16 sec) 
Heartbeat CPU 0 instructions: 506000000 cycles: 6612418778 heartbeat IPC: 0.102335 cumulative IPC: 0.0982571 (Simulation time: 2 hr 6 min 29 sec) 
Heartbeat CPU 0 instructions: 507000001 cycles: 6621001608 heartbeat IPC: 0.116512 cumulative IPC: 0.098528 (Simulation time: 2 hr 6 min 40 sec) 
Heartbeat CPU 0 instructions: 508000000 cycles: 6629680524 heartbeat IPC: 0.115222 cumulative IPC: 0.0987747 (Simulation time: 2 hr 6 min 52 sec) 
Heartbeat CPU 0 instructions: 509000002 cycles: 6640309775 heartbeat IPC: 0.0940802 cumulative IPC: 0.0986912 (Simulation time: 2 hr 7 min 7 sec) 
Heartbeat CPU 0 instructions: 510000001 cycles: 6651067576 heartbeat IPC: 0.0929557 cumulative IPC: 0.0985899 (Simulation time: 2 hr 7 min 20 sec) 
Heartbeat CPU 0 instructions: 511000001 cycles: 6661778719 heartbeat IPC: 0.0933607 cumulative IPC: 0.0984994 (Simulation time: 2 hr 7 min 33 sec) 
Heartbeat CPU 0 instructions: 512000000 cycles: 6671936100 heartbeat IPC: 0.0984505 cumulative IPC: 0.0984986 (Simulation time: 2 hr 7 min 46 sec) 
Heartbeat CPU 0 instructions: 513000002 cycles: 6683287247 heartbeat IPC: 0.088097 cumulative IPC: 0.0983144 (Simulation time: 2 hr 8 min 2 sec) 
Heartbeat CPU 0 instructions: 514000000 cycles: 6695789138 heartbeat IPC: 0.0799877 cumulative IPC: 0.0979637 (Simulation time: 2 hr 8 min 16 sec) 
Heartbeat CPU 0 instructions: 515000001 cycles: 6708519387 heartbeat IPC: 0.0785531 cumulative IPC: 0.0975927 (Simulation time: 2 hr 8 min 31 sec) 
Heartbeat CPU 0 instructions: 516000000 cycles: 6721380775 heartbeat IPC: 0.077752 cumulative IPC: 0.0972168 (Simulation time: 2 hr 8 min 46 sec) 
Heartbeat CPU 0 instructions: 517000000 cycles: 6732428697 heartbeat IPC: 0.0905148 cumulative IPC: 0.0971095 (Simulation time: 2 hr 9 min 1 sec) 
Heartbeat CPU 0 instructions: 518000000 cycles: 6744424615 heartbeat IPC: 0.0833617 cumulative IPC: 0.0968745 (Simulation time: 2 hr 9 min 15 sec) 
Heartbeat CPU 0 instructions: 519000002 cycles: 6756430738 heartbeat IPC: 0.083291 cumulative IPC: 0.0966461 (Simulation time: 2 hr 9 min 30 sec) 
Heartbeat CPU 0 instructions: 520000000 cycles: 6768709378 heartbeat IPC: 0.0814421 cumulative IPC: 0.096389 (Simulation time: 2 hr 9 min 44 sec) 
Heartbeat CPU 0 instructions: 521000000 cycles: 6779960980 heartbeat IPC: 0.0888762 cumulative IPC: 0.0962744 (Simulation time: 2 hr 10 min 0 sec) 
Heartbeat CPU 0 instructions: 522000000 cycles: 6793086426 heartbeat IPC: 0.0761879 cumulative IPC: 0.0959232 (Simulation time: 2 hr 10 min 16 sec) 
Heartbeat CPU 0 instructions: 523000000 cycles: 6805010456 heartbeat IPC: 0.0838643 cumulative IPC: 0.0957346 (Simulation time: 2 hr 10 min 30 sec) 
Heartbeat CPU 0 instructions: 524000000 cycles: 6818539969 heartbeat IPC: 0.0739125 cumulative IPC: 0.0953542 (Simulation time: 2 hr 10 min 46 sec) 
Heartbeat CPU 0 instructions: 525000003 cycles: 6832801414 heartbeat IPC: 0.0701193 cumulative IPC: 0.0948988 (Simulation time: 2 hr 11 min 2 sec) 
Heartbeat CPU 0 instructions: 526000001 cycles: 6844609685 heartbeat IPC: 0.0846862 cumulative IPC: 0.0947484 (Simulation time: 2 hr 11 min 17 sec) 
Heartbeat CPU 0 instructions: 527000000 cycles: 6858333738 heartbeat IPC: 0.0728647 cumulative IPC: 0.0943803 (Simulation time: 2 hr 11 min 33 sec) 
Heartbeat CPU 0 instructions: 528000000 cycles: 6872392832 heartbeat IPC: 0.0711283 cumulative IPC: 0.0939864 (Simulation time: 2 hr 11 min 49 sec) 
Heartbeat CPU 0 instructions: 529000000 cycles: 6887105791 heartbeat IPC: 0.0679673 cumulative IPC: 0.0935332 (Simulation time: 2 hr 12 min 5 sec) 
Heartbeat CPU 0 instructions: 530000002 cycles: 6901541909 heartbeat IPC: 0.0692708 cumulative IPC: 0.0931255 (Simulation time: 2 hr 12 min 21 sec) 
Heartbeat CPU 0 instructions: 531000002 cycles: 6915957098 heartbeat IPC: 0.0693713 cumulative IPC: 0.0927334 (Simulation time: 2 hr 12 min 37 sec) 
Heartbeat CPU 0 instructions: 532000001 cycles: 6929323318 heartbeat IPC: 0.0748154 cumulative IPC: 0.0924634 (Simulation time: 2 hr 12 min 52 sec) 
Heartbeat CPU 0 instructions: 533000001 cycles: 6940951850 heartbeat IPC: 0.0859954 cumulative IPC: 0.0923797 (Simulation time: 2 hr 13 min 8 sec) 
Heartbeat CPU 0 instructions: 534000002 cycles: 6957439036 heartbeat IPC: 0.0606532 cumulative IPC: 0.091808 (Simulation time: 2 hr 13 min 26 sec) 
Heartbeat CPU 0 instructions: 535000002 cycles: 6974092590 heartbeat IPC: 0.0600472 cumulative IPC: 0.0912402 (Simulation time: 2 hr 13 min 43 sec) 
Heartbeat CPU 0 instructions: 536000001 cycles: 6988837297 heartbeat IPC: 0.0678209 cumulative IPC: 0.0908753 (Simulation time: 2 hr 13 min 59 sec) 
Heartbeat CPU 0 instructions: 537000000 cycles: 7002340048 heartbeat IPC: 0.0740589 cumulative IPC: 0.0906387 (Simulation time: 2 hr 14 min 14 sec) 
[...]
Heartbeat CPU 0 instructions: 837000002 cycles: 10674059475 heartbeat IPC: 0.0865937 cumulative IPC: 0.0835569 (Simulation time: 3 hr 29 min 44 sec) 
Heartbeat CPU 0 instructions: 838000002 cycles: 10684523634 heartbeat IPC: 0.0955643 cumulative IPC: 0.083584 (Simulation time: 3 hr 29 min 59 sec) 
Heartbeat CPU 0 instructions: 839000001 cycles: 10695049567 heartbeat IPC: 0.0950034 cumulative IPC: 0.0836098 (Simulation time: 3 hr 30 min 13 sec) 
Heartbeat CPU 0 instructions: 840000003 cycles: 10704513996 heartbeat IPC: 0.105659 cumulative IPC: 0.0836546 (Simulation time: 3 hr 30 min 26 sec) 
Heartbeat CPU 0 instructions: 841000000 cycles: 10714080626 heartbeat IPC: 0.10453 cumulative IPC: 0.0836973 (Simulation time: 3 hr 30 min 40 sec) 
Heartbeat CPU 0 instructions: 842000000 cycles: 10723014298 heartbeat IPC: 0.111936 cumulative IPC: 0.0837512 (Simulation time: 3 hr 30 min 52 sec) 
Heartbeat CPU 0 instructions: 843000000 cycles: 10734648173 heartbeat IPC: 0.0859559 cumulative IPC: 0.0837567 (Simulation time: 3 hr 31 min 7 sec) 
Heartbeat CPU 0 instructions: 844000003 cycles: 10745249590 heartbeat IPC: 0.0943273 cumulative IPC: 0.0837805 (Simulation time: 3 hr 31 min 22 sec) 
Heartbeat CPU 0 instructions: 845000000 cycles: 10756321259 heartbeat IPC: 0.0903203 cumulative IPC: 0.0837959 (Simulation time: 3 hr 31 min 37 sec) 
Heartbeat CPU 0 instructions: 846000002 cycles: 10767434189 heartbeat IPC: 0.0899855 cumulative IPC: 0.0838104 (Simulation time: 3 hr 31 min 52 sec) 
Heartbeat CPU 0 instructions: 847000000 cycles: 10778749991 heartbeat IPC: 0.0883718 cumulative IPC: 0.0838213 (Simulation time: 3 hr 32 min 7 sec) 
Heartbeat CPU 0 instructions: 848000000 cycles: 10789180072 heartbeat IPC: 0.0958765 cumulative IPC: 0.0838478 (Simulation time: 3 hr 32 min 22 sec) 
Heartbeat CPU 0 instructions: 849000000 cycles: 10799592169 heartbeat IPC: 0.0960421 cumulative IPC: 0.0838745 (Simulation time: 3 hr 32 min 36 sec) 
Heartbeat CPU 0 instructions: 850000000 cycles: 10809725182 heartbeat IPC: 0.0986873 cumulative IPC: 0.083906 (Simulation time: 3 hr 32 min 50 sec) 
Heartbeat CPU 0 instructions: 851000003 cycles: 10820407465 heartbeat IPC: 0.0936132 cumulative IPC: 0.0839277 (Simulation time: 3 hr 33 min 4 sec) 
Heartbeat CPU 0 instructions: 852000001 cycles: 10831905420 heartbeat IPC: 0.0869718 cumulative IPC: 0.083935 (Simulation time: 3 hr 33 min 19 sec) 
Heartbeat CPU 0 instructions: 853000000 cycles: 10843765746 heartbeat IPC: 0.0843146 cumulative IPC: 0.0839359 (Simulation time: 3 hr 33 min 34 sec) 
Heartbeat CPU 0 instructions: 854000002 cycles: 10852959043 heartbeat IPC: 0.108775 cumulative IPC: 0.0839834 (Simulation time: 3 hr 33 min 47 sec) 
Heartbeat CPU 0 instructions: 855000000 cycles: 10862804865 heartbeat IPC: 0.101566 cumulative IPC: 0.0840193 (Simulation time: 3 hr 34 min 0 sec) 
Heartbeat CPU 0 instructions: 856000002 cycles: 10871802389 heartbeat IPC: 0.111142 cumulative IPC: 0.0840699 (Simulation time: 3 hr 34 min 12 sec) 
Heartbeat CPU 0 instructions: 857000001 cycles: 10882830008 heartbeat IPC: 0.0906813 cumulative IPC: 0.0840849 (Simulation time: 3 hr 34 min 27 sec) 
Heartbeat CPU 0 instructions: 858000000 cycles: 10893118989 heartbeat IPC: 0.0971913 cumulative IPC: 0.0841127 (Simulation time: 3 hr 34 min 42 sec) 
Heartbeat CPU 0 instructions: 859000001 cycles: 10901877766 heartbeat IPC: 0.114171 cumulative IPC: 0.0841669 (Simulation time: 3 hr 34 min 55 sec) 
Heartbeat CPU 0 instructions: 860000000 cycles: 10908990057 heartbeat IPC: 0.140602 cumulative IPC: 0.0842494 (Simulation time: 3 hr 35 min 6 sec) 
Heartbeat CPU 0 instructions: 861000002 cycles: 10919071008 heartbeat IPC: 0.0991972 cumulative IPC: 0.0842803 (Simulation time: 3 hr 35 min 20 sec) 
Heartbeat CPU 0 instructions: 862000000 cycles: 10927372886 heartbeat IPC: 0.120454 cumulative IPC: 0.0843418 (Simulation time: 3 hr 35 min 32 sec) 
Heartbeat CPU 0 instructions: 863000000 cycles: 10934312288 heartbeat IPC: 0.144105 cumulative IPC: 0.0844265 (Simulation time: 3 hr 35 min 43 sec) 
Heartbeat CPU 0 instructions: 864000002 cycles: 10942513190 heartbeat IPC: 0.121938 cumulative IPC: 0.0844893 (Simulation time: 3 hr 35 min 55 sec) 
Heartbeat CPU 0 instructions: 865000000 cycles: 10952574514 heartbeat IPC: 0.0993903 cumulative IPC: 0.0845199 (Simulation time: 3 hr 36 min 9 sec) 
Heartbeat CPU 0 instructions: 866000000 cycles: 10959419902 heartbeat IPC: 0.146084 cumulative IPC: 0.0846056 (Simulation time: 3 hr 36 min 21 sec) 
Heartbeat CPU 0 instructions: 867000001 cycles: 10966464461 heartbeat IPC: 0.141954 cumulative IPC: 0.0846876 (Simulation time: 3 hr 36 min 32 sec) 
Heartbeat CPU 0 instructions: 868000001 cycles: 10976921682 heartbeat IPC: 0.0956277 cumulative IPC: 0.0847108 (Simulation time: 3 hr 36 min 47 sec) 
Heartbeat CPU 0 instructions: 869000000 cycles: 10985496184 heartbeat IPC: 0.116625 cumulative IPC: 0.0847662 (Simulation time: 3 hr 37 min 0 sec) 
Heartbeat CPU 0 instructions: 870000000 cycles: 10992917368 heartbeat IPC: 0.134749 cumulative IPC: 0.0848411 (Simulation time: 3 hr 37 min 12 sec) 
Heartbeat CPU 0 instructions: 871000000 cycles: 11000583918 heartbeat IPC: 0.130437 cumulative IPC: 0.0849116 (Simulation time: 3 hr 37 min 24 sec) 
Heartbeat CPU 0 instructions: 872000000 cycles: 11011618481 heartbeat IPC: 0.0906243 cumulative IPC: 0.0849243 (Simulation time: 3 hr 37 min 39 sec) 
Heartbeat CPU 0 instructions: 873000000 cycles: 11020380686 heartbeat IPC: 0.114127 cumulative IPC: 0.0849757 (Simulation time: 3 hr 37 min 52 sec) 
Heartbeat CPU 0 instructions: 874000000 cycles: 11028731734 heartbeat IPC: 0.119745 cumulative IPC: 0.0850339 (Simulation time: 3 hr 38 min 5 sec) 
Heartbeat CPU 0 instructions: 875000000 cycles: 11036092660 heartbeat IPC: 0.135852 cumulative IPC: 0.0851088 (Simulation time: 3 hr 38 min 16 sec) 
Heartbeat CPU 0 instructions: 876000003 cycles: 11046721660 heartbeat IPC: 0.0940825 cumulative IPC: 0.0851279 (Simulation time: 3 hr 38 min 31 sec) 
Heartbeat CPU 0 instructions: 877000000 cycles: 11055603223 heartbeat IPC: 0.112592 cumulative IPC: 0.0851765 (Simulation time: 3 hr 38 min 45 sec) 
Heartbeat CPU 0 instructions: 878000002 cycles: 11064303101 heartbeat IPC: 0.114944 cumulative IPC: 0.0852281 (Simulation time: 3 hr 38 min 57 sec) 
Heartbeat CPU 0 instructions: 879000002 cycles: 11074027067 heartbeat IPC: 0.102839 cumulative IPC: 0.0852621 (Simulation time: 3 hr 39 min 10 sec) 
Heartbeat CPU 0 instructions: 880000000 cycles: 11083437429 heartbeat IPC: 0.106266 cumulative IPC: 0.0853014 (Simulation time: 3 hr 39 min 23 sec) 
Heartbeat CPU 0 instructions: 881000003 cycles: 11093388481 heartbeat IPC: 0.100492 cumulative IPC: 0.0853313 (Simulation time: 3 hr 39 min 36 sec) 
Heartbeat CPU 0 instructions: 882000003 cycles: 11104526386 heartbeat IPC: 0.0897835 cumulative IPC: 0.0853411 (Simulation time: 3 hr 39 min 51 sec) 
Heartbeat CPU 0 instructions: 883000002 cycles: 11113706399 heartbeat IPC: 0.108932 cumulative IPC: 0.0853838 (Simulation time: 3 hr 40 min 5 sec) 
Heartbeat CPU 0 instructions: 884000001 cycles: 11122713775 heartbeat IPC: 0.11102 cumulative IPC: 0.0854292 (Simulation time: 3 hr 40 min 17 sec) 
Heartbeat CPU 0 instructions: 885000000 cycles: 11131632025 heartbeat IPC: 0.11213 cumulative IPC: 0.085476 (Simulation time: 3 hr 40 min 29 sec) 
Heartbeat CPU 0 instructions: 886000001 cycles: 11140597772 heartbeat IPC: 0.111536 cumulative IPC: 0.0855219 (Simulation time: 3 hr 40 min 41 sec) 
Heartbeat CPU 0 instructions: 887000001 cycles: 11151870143 heartbeat IPC: 0.0887125 cumulative IPC: 0.0855289 (Simulation time: 3 hr 40 min 55 sec) 
Heartbeat CPU 0 instructions: 888000000 cycles: 11161183020 heartbeat IPC: 0.107378 cumulative IPC: 0.0855686 (Simulation time: 3 hr 41 min 8 sec) 
Heartbeat CPU 0 instructions: 889000000 cycles: 11170292706 heartbeat IPC: 0.109773 cumulative IPC: 0.0856116 (Simulation time: 3 hr 41 min 22 sec) 
Heartbeat CPU 0 instructions: 890000000 cycles: 11180436469 heartbeat IPC: 0.0985827 cumulative IPC: 0.0856373 (Simulation time: 3 hr 41 min 36 sec) 
Heartbeat CPU 0 instructions: 891000000 cycles: 11190367860 heartbeat IPC: 0.100691 cumulative IPC: 0.0856663 (Simulation time: 3 hr 41 min 49 sec) 
Heartbeat CPU 0 instructions: 892000000 cycles: 11200251847 heartbeat IPC: 0.101174 cumulative IPC: 0.085696 (Simulation time: 3 hr 42 min 2 sec) 
Heartbeat CPU 0 instructions: 893000003 cycles: 11211338945 heartbeat IPC: 0.0901952 cumulative IPC: 0.0857057 (Simulation time: 3 hr 42 min 16 sec) 
Heartbeat CPU 0 instructions: 894000000 cycles: 11222114893 heartbeat IPC: 0.092799 cumulative IPC: 0.0857204 (Simulation time: 3 hr 42 min 30 sec) 
Heartbeat CPU 0 instructions: 895000000 cycles: 11233052702 heartbeat IPC: 0.091426 cumulative IPC: 0.0857324 (Simulation time: 3 hr 42 min 43 sec) 
Heartbeat CPU 0 instructions: 896000002 cycles: 11243600186 heartbeat IPC: 0.0948095 cumulative IPC: 0.0857509 (Simulation time: 3 hr 42 min 57 sec) 
Heartbeat CPU 0 instructions: 897000002 cycles: 11254139941 heartbeat IPC: 0.0948789 cumulative IPC: 0.0857693 (Simulation time: 3 hr 43 min 11 sec) 
Heartbeat CPU 0 instructions: 898000000 cycles: 11265172564 heartbeat IPC: 0.0906401 cumulative IPC: 0.0857796 (Simulation time: 3 hr 43 min 26 sec) 
Heartbeat CPU 0 instructions: 899000000 cycles: 11276110694 heartbeat IPC: 0.0914233 cumulative IPC: 0.0857914 (Simulation time: 3 hr 43 min 40 sec) 
Heartbeat CPU 0 instructions: 900000002 cycles: 11286520343 heartbeat IPC: 0.0960649 cumulative IPC: 0.0858118 (Simulation time: 3 hr 43 min 53 sec) 
Heartbeat CPU 0 instructions: 901000000 cycles: 11297279520 heartbeat IPC: 0.0929437 cumulative IPC: 0.0858264 (Simulation time: 3 hr 44 min 7 sec) 
Heartbeat CPU 0 instructions: 902000000 cycles: 11308386698 heartbeat IPC: 0.0900319 cumulative IPC: 0.0858353 (Simulation time: 3 hr 44 min 21 sec) 
Heartbeat CPU 0 instructions: 903000000 cycles: 11319539512 heartbeat IPC: 0.0896635 cumulative IPC: 0.0858434 (Simulation time: 3 hr 44 min 36 sec) 
Heartbeat CPU 0 instructions: 904000000 cycles: 11330330285 heartbeat IPC: 0.0926718 cumulative IPC: 0.0858573 (Simulation time: 3 hr 44 min 51 sec) 
Heartbeat CPU 0 instructions: 905000003 cycles: 11342498698 heartbeat IPC: 0.0821802 cumulative IPC: 0.0858488 (Simulation time: 3 hr 45 min 7 sec) 
Heartbeat CPU 0 instructions: 906000000 cycles: 11353387606 heartbeat IPC: 0.0918363 cumulative IPC: 0.0858611 (Simulation time: 3 hr 45 min 22 sec) 
Heartbeat CPU 0 instructions: 907000003 cycles: 11363398191 heartbeat IPC: 0.0998946 cumulative IPC: 0.0858875 (Simulation time: 3 hr 45 min 35 sec) 
Heartbeat CPU 0 instructions: 908000002 cycles: 11373870586 heartbeat IPC: 0.095489 cumulative IPC: 0.0859064 (Simulation time: 3 hr 45 min 49 sec) 
Heartbeat CPU 0 instructions: 909000001 cycles: 11384183267 heartbeat IPC: 0.0969679 cumulative IPC: 0.0859277 (Simulation time: 3 hr 46 min 2 sec) 
Heartbeat CPU 0 instructions: 910000001 cycles: 11394528157 heartbeat IPC: 0.0966661 cumulative IPC: 0.0859485 (Simulation time: 3 hr 46 min 15 sec) 
Heartbeat CPU 0 instructions: 911000001 cycles: 11405694782 heartbeat IPC: 0.0895526 cumulative IPC: 0.085956 (Simulation time: 3 hr 46 min 28 sec) 
Heartbeat CPU 0 instructions: 912000000 cycles: 11417368874 heartbeat IPC: 0.0856597 cumulative IPC: 0.0859554 (Simulation time: 3 hr 46 min 43 sec) 
Heartbeat CPU 0 instructions: 913000000 cycles: 11428438218 heartbeat IPC: 0.0903396 cumulative IPC: 0.0859644 (Simulation time: 3 hr 46 min 57 sec) 
Heartbeat CPU 0 instructions: 914000000 cycles: 11440318108 heartbeat IPC: 0.0841759 cumulative IPC: 0.0859604 (Simulation time: 3 hr 47 min 13 sec) 
Heartbeat CPU 0 instructions: 915000000 cycles: 11451719978 heartbeat IPC: 0.0877049 cumulative IPC: 0.0859641 (Simulation time: 3 hr 47 min 27 sec) 
Heartbeat CPU 0 instructions: 916000002 cycles: 11462071085 heartbeat IPC: 0.0966082 cumulative IPC: 0.0859844 (Simulation time: 3 hr 47 min 40 sec) 
Heartbeat CPU 0 instructions: 917000001 cycles: 11473099113 heartbeat IPC: 0.090678 cumulative IPC: 0.085994 (Simulation time: 3 hr 47 min 53 sec) 
Heartbeat CPU 0 instructions: 918000000 cycles: 11484301519 heartbeat IPC: 0.0892664 cumulative IPC: 0.0860007 (Simulation time: 3 hr 48 min 7 sec) 
Heartbeat CPU 0 instructions: 919000000 cycles: 11492539800 heartbeat IPC: 0.121385 cumulative IPC: 0.0860542 (Simulation time: 3 hr 48 min 18 sec) 
Heartbeat CPU 0 instructions: 920000001 cycles: 11501451398 heartbeat IPC: 0.112213 cumulative IPC: 0.0860969 (Simulation time: 3 hr 48 min 30 sec) 
Heartbeat CPU 0 instructions: 921000001 cycles: 11513085850 heartbeat IPC: 0.0859516 cumulative IPC: 0.0860966 (Simulation time: 3 hr 48 min 46 sec) 
Heartbeat CPU 0 instructions: 922000001 cycles: 11522129866 heartbeat IPC: 0.11057 cumulative IPC: 0.086137 (Simulation time: 3 hr 48 min 58 sec) 
Heartbeat CPU 0 instructions: 923000001 cycles: 11529256358 heartbeat IPC: 0.140321 cumulative IPC: 0.0862074 (Simulation time: 3 hr 49 min 9 sec) 
Heartbeat CPU 0 instructions: 924000000 cycles: 11537929912 heartbeat IPC: 0.115293 cumulative IPC: 0.0862533 (Simulation time: 3 hr 49 min 20 sec) 
Heartbeat CPU 0 instructions: 925000000 cycles: 11546852251 heartbeat IPC: 0.112078 cumulative IPC: 0.0862951 (Simulation time: 3 hr 49 min 33 sec) 
Heartbeat CPU 0 instructions: 926000001 cycles: 11553222668 heartbeat IPC: 0.156976 cumulative IPC: 0.0863768 (Simulation time: 3 hr 49 min 43 sec) 
Heartbeat CPU 0 instructions: 927000002 cycles: 11562004868 heartbeat IPC: 0.113867 cumulative IPC: 0.0864206 (Simulation time: 3 hr 49 min 55 sec) 
Heartbeat CPU 0 instructions: 928000001 cycles: 11570876233 heartbeat IPC: 0.112722 cumulative IPC: 0.0864628 (Simulation time: 3 hr 50 min 8 sec) 
Heartbeat CPU 0 instructions: 929000002 cycles: 11577694906 heartbeat IPC: 0.146656 cumulative IPC: 0.0865369 (Simulation time: 3 hr 50 min 19 sec) 
Heartbeat CPU 0 instructions: 930000000 cycles: 11588449497 heartbeat IPC: 0.0929834 cumulative IPC: 0.0865494 (Simulation time: 3 hr 50 min 32 sec) 
Heartbeat CPU 0 instructions: 931000000 cycles: 11599720695 heartbeat IPC: 0.0887217 cumulative IPC: 0.0865538 (Simulation time: 3 hr 50 min 46 sec) 
Heartbeat CPU 0 instructions: 932000000 cycles: 11609952531 heartbeat IPC: 0.0977342 cumulative IPC: 0.0865744 (Simulation time: 3 hr 50 min 59 sec) 
Heartbeat CPU 0 instructions: 933000002 cycles: 11621454345 heartbeat IPC: 0.086943 cumulative IPC: 0.0865751 (Simulation time: 3 hr 51 min 14 sec) 
Heartbeat CPU 0 instructions: 934000002 cycles: 11632653893 heartbeat IPC: 0.0892893 cumulative IPC: 0.0865806 (Simulation time: 3 hr 51 min 28 sec) 
Heartbeat CPU 0 instructions: 935000000 cycles: 11644036414 heartbeat IPC: 0.0878538 cumulative IPC: 0.0865832 (Simulation time: 3 hr 51 min 42 sec) 
Heartbeat CPU 0 instructions: 936000002 cycles: 11653625010 heartbeat IPC: 0.104291 cumulative IPC: 0.0866134 (Simulation time: 3 hr 51 min 55 sec) 
Heartbeat CPU 0 instructions: 937000002 cycles: 11664422554 heartbeat IPC: 0.0926137 cumulative IPC: 0.086625 (Simulation time: 3 hr 52 min 8 sec) 
Heartbeat CPU 0 instructions: 938000000 cycles: 11676239978 heartbeat IPC: 0.0846206 cumulative IPC: 0.0866207 (Simulation time: 3 hr 52 min 22 sec) 
Heartbeat CPU 0 instructions: 939000000 cycles: 11687652990 heartbeat IPC: 0.0876193 cumulative IPC: 0.0866228 (Simulation time: 3 hr 52 min 35 sec) 
Heartbeat CPU 0 instructions: 940000002 cycles: 11698674916 heartbeat IPC: 0.0907284 cumulative IPC: 0.0866308 (Simulation time: 3 hr 52 min 48 sec) 
Heartbeat CPU 0 instructions: 941000000 cycles: 11710082757 heartbeat IPC: 0.0876588 cumulative IPC: 0.0866328 (Simulation time: 3 hr 53 min 2 sec) 
Heartbeat CPU 0 instructions: 942000002 cycles: 11720838673 heartbeat IPC: 0.0929723 cumulative IPC: 0.0866448 (Simulation time: 3 hr 53 min 16 sec) 
Heartbeat CPU 0 instructions: 943000001 cycles: 11731631253 heartbeat IPC: 0.0926562 cumulative IPC: 0.0866563 (Simulation time: 3 hr 53 min 29 sec) 
Heartbeat CPU 0 instructions: 944000003 cycles: 11743047568 heartbeat IPC: 0.0875941 cumulative IPC: 0.0866581 (Simulation time: 3 hr 53 min 43 sec) 
Heartbeat CPU 0 instructions: 945000000 cycles: 11755247443 heartbeat IPC: 0.0819678 cumulative IPC: 0.0866481 (Simulation time: 3 hr 53 min 59 sec) 
Heartbeat CPU 0 instructions: 946000000 cycles: 11766600598 heartbeat IPC: 0.0880812 cumulative IPC: 0.086651 (Simulation time: 3 hr 54 min 13 sec) 
Heartbeat CPU 0 instructions: 947000003 cycles: 11777339732 heartbeat IPC: 0.0931177 cumulative IPC: 0.0866631 (Simulation time: 3 hr 54 min 26 sec) 
Heartbeat CPU 0 instructions: 948000000 cycles: 11788249719 heartbeat IPC: 0.0916589 cumulative IPC: 0.0866725 (Simulation time: 3 hr 54 min 39 sec) 
Heartbeat CPU 0 instructions: 949000001 cycles: 11799549896 heartbeat IPC: 0.0884943 cumulative IPC: 0.0866761 (Simulation time: 3 hr 54 min 52 sec) 
Heartbeat CPU 0 instructions: 950000002 cycles: 11811101676 heartbeat IPC: 0.0865668 cumulative IPC: 0.0866759 (Simulation time: 3 hr 55 min 6 sec) 
Finished CPU 0 instructions: 500000001 cycles: 5768615987 cumulative IPC: 0.0866759 (Simulation time: 3 hr 55 min 6 sec) 

ChampSim completed all CPUs

Region of Interest Statistics

CPU 0 cumulative IPC: 0.0866759 instructions: 500000001 cycles: 5768615987
L1D TOTAL     ACCESS:  117191847  HIT:   41904289  MISS:   75287558
L1D LOAD      ACCESS:  102070105  HIT:   27531815  MISS:   74538290
L1D RFO       ACCESS:   15121742  HIT:   14372474  MISS:     749268
L1D PREFETCH  ACCESS:          0  HIT:          0  MISS:          0
L1D WRITEBACK ACCESS:          0  HIT:          0  MISS:          0
L1D PREFETCH  REQUESTED:          0  ISSUED:          0  USEFUL:          0  USELESS:          0
L1D AVERAGE MISS LATENCY: 148.115 cycles
L1I TOTAL     ACCESS:   94993166  HIT:   94993166  MISS:          0
L1I LOAD      ACCESS:   94993166  HIT:   94993166  MISS:          0
L1I RFO       ACCESS:          0  HIT:          0  MISS:          0
L1I PREFETCH  ACCESS:          0  HIT:          0  MISS:          0
L1I WRITEBACK ACCESS:          0  HIT:          0  MISS:          0
L1I PREFETCH  REQUESTED:          0  ISSUED:          0  USEFUL:          0  USELESS:          0
L1I AVERAGE MISS LATENCY: -nan cycles
L2C TOTAL     ACCESS:   83170497  HIT:   28871227  MISS:   54299270
L2C LOAD      ACCESS:   74537285  HIT:   20722058  MISS:   53815227
L2C RFO       ACCESS:     749253  HIT:     265454  MISS:     483799
L2C PREFETCH  ACCESS:          0  HIT:          0  MISS:          0
L2C WRITEBACK ACCESS:    7883959  HIT:    7883715  MISS:        244
L2C PREFETCH  REQUESTED:          0  ISSUED:          0  USEFUL:          0  USELESS:          0
L2C AVERAGE MISS LATENCY: 181.04 cycles
LLC TOTAL     ACCESS:  131433574  HIT:   84144701  MISS:   47288873
LLC LOAD      ACCESS:   53815185  HIT:   27872238  MISS:   25942947
LLC RFO       ACCESS:     483799  HIT:     178169  MISS:     305630
LLC PREFETCH  ACCESS:   71113328  HIT:   50116391  MISS:   20996937
LLC WRITEBACK ACCESS:    6021262  HIT:    5977903  MISS:      43359
LLC PREFETCH  REQUESTED:   83639828  ISSUED:   83639828  USEFUL:   14293778  USELESS:    6701230
LLC AVERAGE MISS LATENCY: 284.454 cycles
Major fault: 0 Minor fault: 428296
performance stats:
mapping cache size: 27410314
divergence: 44511482

DRAM Statistics
 CHANNEL 0
 RQ ROW_BUFFER_HIT:     702087  ROW_BUFFER_MISS:   46535289
 DBUS_CONGESTED:   14137443
 WQ ROW_BUFFER_HIT:    1817880  ROW_BUFFER_MISS:    3853151  FULL:          0

 AVG_CONGESTED_CYCLE: 6

CPU 0 Branch Prediction Accuracy: 93.9262% MPKI: 17.519 Average ROB Occupancy at Mispredict: 32.4847

Branch types
NOT_BRANCH: 355783516 71.1567%
BRANCH_DIRECT_JUMP: 5207349 1.04147%
BRANCH_INDIRECT: 0 0%
BRANCH_CONDITIONAL: 138861421 27.7723%
BRANCH_DIRECT_CALL: 73965 0.014793%
BRANCH_INDIRECT_CALL: 0 0%
BRANCH_RETURN: 73965 0.014793%
BRANCH_OTHER: 0 0%


gzip: stdout: Broken pipe
