
*** ChampSim Multicore Out-of-Order Simulator ***

Warmup Instructions: 1000000
Prefetch Warmup Instructions: 450000000
Simulation Instructions: 500000000
Stat Printing Period: 1000000
Number of CPUs: 1
LLC sets: 2048
LLC ways: 16
Off-chip DRAM Size: 4096 MB Channels: 1 Width: 64-bit Data Rate: 3200 MT/s

CPU 0 runs /scratch/cluster/cmolder/ML-DPC/ChampSimTraces/spec06/429.mcf-s2.trace.gz
Read seed: 577
Heartbeat CPU 0 instructions: 1000003 cycles: 435287 heartbeat IPC: 2.29734 cumulative IPC: 2.29734 (Simulation time: 0 hr 0 min 7 sec) 

Warmup complete CPU 0 instructions: 1000003 cycles: 435287 (Simulation time: 0 hr 0 min 7 sec) 

Heartbeat CPU 0 instructions: 2000000 cycles: 6829863 heartbeat IPC: 0.156382 cumulative IPC: 0.156382 (Simulation time: 0 hr 0 min 17 sec) 
Heartbeat CPU 0 instructions: 3000001 cycles: 19643671 heartbeat IPC: 0.0780409 cumulative IPC: 0.104121 (Simulation time: 0 hr 0 min 32 sec) 
Heartbeat CPU 0 instructions: 4000001 cycles: 31105497 heartbeat IPC: 0.0872461 cumulative IPC: 0.0978147 (Simulation time: 0 hr 0 min 47 sec) 
Heartbeat CPU 0 instructions: 5000001 cycles: 37296302 heartbeat IPC: 0.16153 cumulative IPC: 0.108516 (Simulation time: 0 hr 0 min 58 sec) 
Heartbeat CPU 0 instructions: 6000000 cycles: 45555388 heartbeat IPC: 0.121079 cumulative IPC: 0.110815 (Simulation time: 0 hr 1 min 10 sec) 
Heartbeat CPU 0 instructions: 7000003 cycles: 61714564 heartbeat IPC: 0.0618845 cumulative IPC: 0.0979124 (Simulation time: 0 hr 1 min 29 sec) 
Heartbeat CPU 0 instructions: 8000000 cycles: 68526668 heartbeat IPC: 0.146797 cumulative IPC: 0.102803 (Simulation time: 0 hr 1 min 41 sec) 
Heartbeat CPU 0 instructions: 9000002 cycles: 74790636 heartbeat IPC: 0.159644 cumulative IPC: 0.107591 (Simulation time: 0 hr 1 min 52 sec) 
Heartbeat CPU 0 instructions: 10000002 cycles: 89807229 heartbeat IPC: 0.066593 cumulative IPC: 0.100703 (Simulation time: 0 hr 2 min 9 sec) 
Heartbeat CPU 0 instructions: 11000000 cycles: 104311834 heartbeat IPC: 0.0689435 cumulative IPC: 0.0962681 (Simulation time: 0 hr 2 min 27 sec) 
Heartbeat CPU 0 instructions: 12000000 cycles: 111113309 heartbeat IPC: 0.147027 cumulative IPC: 0.0993874 (Simulation time: 0 hr 2 min 40 sec) 
Heartbeat CPU 0 instructions: 13000001 cycles: 120197421 heartbeat IPC: 0.110082 cumulative IPC: 0.100199 (Simulation time: 0 hr 2 min 53 sec) 
Heartbeat CPU 0 instructions: 14000000 cycles: 136434188 heartbeat IPC: 0.0615886 cumulative IPC: 0.095589 (Simulation time: 0 hr 3 min 11 sec) 
Heartbeat CPU 0 instructions: 15000000 cycles: 143086046 heartbeat IPC: 0.150334 cumulative IPC: 0.0981418 (Simulation time: 0 hr 3 min 24 sec) 
Heartbeat CPU 0 instructions: 16000001 cycles: 149235853 heartbeat IPC: 0.162607 cumulative IPC: 0.100806 (Simulation time: 0 hr 3 min 35 sec) 
Heartbeat CPU 0 instructions: 17000000 cycles: 165462680 heartbeat IPC: 0.0616263 cumulative IPC: 0.0969536 (Simulation time: 0 hr 3 min 53 sec) 
Heartbeat CPU 0 instructions: 18000001 cycles: 172971889 heartbeat IPC: 0.13317 cumulative IPC: 0.0985298 (Simulation time: 0 hr 4 min 6 sec) 
Heartbeat CPU 0 instructions: 19000002 cycles: 179892116 heartbeat IPC: 0.144504 cumulative IPC: 0.100303 (Simulation time: 0 hr 4 min 18 sec) 
Heartbeat CPU 0 instructions: 20000002 cycles: 196501092 heartbeat IPC: 0.0602084 cumulative IPC: 0.0969062 (Simulation time: 0 hr 4 min 39 sec) 
Heartbeat CPU 0 instructions: 21000000 cycles: 213013669 heartbeat IPC: 0.0605598 cumulative IPC: 0.0940829 (Simulation time: 0 hr 4 min 58 sec) 
Heartbeat CPU 0 instructions: 22000000 cycles: 219539754 heartbeat IPC: 0.153231 cumulative IPC: 0.0958447 (Simulation time: 0 hr 5 min 10 sec) 
Heartbeat CPU 0 instructions: 23000000 cycles: 225726702 heartbeat IPC: 0.161631 cumulative IPC: 0.0976513 (Simulation time: 0 hr 5 min 21 sec) 
Heartbeat CPU 0 instructions: 24000001 cycles: 239828680 heartbeat IPC: 0.0709121 cumulative IPC: 0.0960762 (Simulation time: 0 hr 5 min 38 sec) 
Heartbeat CPU 0 instructions: 25000003 cycles: 249450820 heartbeat IPC: 0.103927 cumulative IPC: 0.0963795 (Simulation time: 0 hr 5 min 52 sec) 
Heartbeat CPU 0 instructions: 26000003 cycles: 255607551 heartbeat IPC: 0.162424 cumulative IPC: 0.097973 (Simulation time: 0 hr 6 min 3 sec) 
Heartbeat CPU 0 instructions: 27000000 cycles: 266829026 heartbeat IPC: 0.0891146 cumulative IPC: 0.0975999 (Simulation time: 0 hr 6 min 17 sec) 
Heartbeat CPU 0 instructions: 28000000 cycles: 279652534 heartbeat IPC: 0.0779818 cumulative IPC: 0.0966989 (Simulation time: 0 hr 6 min 34 sec) 
Heartbeat CPU 0 instructions: 29000000 cycles: 286441570 heartbeat IPC: 0.147296 cumulative IPC: 0.0978999 (Simulation time: 0 hr 6 min 46 sec) 
Heartbeat CPU 0 instructions: 30000001 cycles: 295587729 heartbeat IPC: 0.109336 cumulative IPC: 0.0982543 (Simulation time: 0 hr 6 min 59 sec) 
Heartbeat CPU 0 instructions: 31000002 cycles: 310543529 heartbeat IPC: 0.0668638 cumulative IPC: 0.0967404 (Simulation time: 0 hr 7 min 17 sec) 
Heartbeat CPU 0 instructions: 32000000 cycles: 317347557 heartbeat IPC: 0.146971 cumulative IPC: 0.0978189 (Simulation time: 0 hr 7 min 29 sec) 
Heartbeat CPU 0 instructions: 33000000 cycles: 325916192 heartbeat IPC: 0.116705 cumulative IPC: 0.0983161 (Simulation time: 0 hr 7 min 41 sec) 
Heartbeat CPU 0 instructions: 34000001 cycles: 341901661 heartbeat IPC: 0.0625569 cumulative IPC: 0.096642 (Simulation time: 0 hr 8 min 0 sec) 
Heartbeat CPU 0 instructions: 35000001 cycles: 350225577 heartbeat IPC: 0.120136 cumulative IPC: 0.0972011 (Simulation time: 0 hr 8 min 13 sec) 
Heartbeat CPU 0 instructions: 36000000 cycles: 358865710 heartbeat IPC: 0.115739 cumulative IPC: 0.097648 (Simulation time: 0 hr 8 min 26 sec) 
Heartbeat CPU 0 instructions: 37000003 cycles: 370644873 heartbeat IPC: 0.0848959 cumulative IPC: 0.0972422 (Simulation time: 0 hr 8 min 42 sec) 
Heartbeat CPU 0 instructions: 38000001 cycles: 383007893 heartbeat IPC: 0.0808862 cumulative IPC: 0.0967137 (Simulation time: 0 hr 8 min 58 sec) 
Heartbeat CPU 0 instructions: 39000000 cycles: 389372857 heartbeat IPC: 0.15711 cumulative IPC: 0.097702 (Simulation time: 0 hr 9 min 9 sec) 
Heartbeat CPU 0 instructions: 40000002 cycles: 397239395 heartbeat IPC: 0.127121 cumulative IPC: 0.0982853 (Simulation time: 0 hr 9 min 22 sec) 
Heartbeat CPU 0 instructions: 41000002 cycles: 413090632 heartbeat IPC: 0.0630866 cumulative IPC: 0.0969332 (Simulation time: 0 hr 9 min 40 sec) 
Heartbeat CPU 0 instructions: 42000002 cycles: 420207031 heartbeat IPC: 0.140521 cumulative IPC: 0.0976721 (Simulation time: 0 hr 9 min 52 sec) 
Heartbeat CPU 0 instructions: 43000001 cycles: 426540210 heartbeat IPC: 0.157898 cumulative IPC: 0.0985673 (Simulation time: 0 hr 10 min 2 sec) 
Heartbeat CPU 0 instructions: 44000000 cycles: 441102880 heartbeat IPC: 0.0686687 cumulative IPC: 0.0975792 (Simulation time: 0 hr 10 min 19 sec) 
Heartbeat CPU 0 instructions: 45000000 cycles: 450445071 heartbeat IPC: 0.107041 cumulative IPC: 0.0977756 (Simulation time: 0 hr 10 min 33 sec) 
Heartbeat CPU 0 instructions: 46000002 cycles: 456836781 heartbeat IPC: 0.156453 cumulative IPC: 0.0985974 (Simulation time: 0 hr 10 min 43 sec) 
Heartbeat CPU 0 instructions: 47000003 cycles: 467925013 heartbeat IPC: 0.0901858 cumulative IPC: 0.0983979 (Simulation time: 0 hr 10 min 57 sec) 
Heartbeat CPU 0 instructions: 48000001 cycles: 480972203 heartbeat IPC: 0.0766447 cumulative IPC: 0.0978073 (Simulation time: 0 hr 11 min 13 sec) 
Heartbeat CPU 0 instructions: 49000002 cycles: 487779248 heartbeat IPC: 0.146907 cumulative IPC: 0.0984931 (Simulation time: 0 hr 11 min 24 sec) 
Heartbeat CPU 0 instructions: 50000002 cycles: 496054953 heartbeat IPC: 0.120836 cumulative IPC: 0.0988661 (Simulation time: 0 hr 11 min 37 sec) 
Heartbeat CPU 0 instructions: 51000002 cycles: 511811807 heartbeat IPC: 0.0634644 cumulative IPC: 0.0977753 (Simulation time: 0 hr 11 min 56 sec) 
Heartbeat CPU 0 instructions: 52000000 cycles: 518801440 heartbeat IPC: 0.143069 cumulative IPC: 0.098386 (Simulation time: 0 hr 12 min 7 sec) 
Heartbeat CPU 0 instructions: 53000001 cycles: 525418473 heartbeat IPC: 0.151125 cumulative IPC: 0.0990508 (Simulation time: 0 hr 12 min 19 sec) 
Heartbeat CPU 0 instructions: 54000003 cycles: 541956368 heartbeat IPC: 0.0604673 cumulative IPC: 0.0978725 (Simulation time: 0 hr 12 min 38 sec) 
Heartbeat CPU 0 instructions: 55000000 cycles: 549531874 heartbeat IPC: 0.132004 cumulative IPC: 0.0983433 (Simulation time: 0 hr 12 min 51 sec) 
Heartbeat CPU 0 instructions: 56000000 cycles: 556269542 heartbeat IPC: 0.148419 cumulative IPC: 0.0989504 (Simulation time: 0 hr 13 min 3 sec) 
Heartbeat CPU 0 instructions: 57000001 cycles: 570926805 heartbeat IPC: 0.0682256 cumulative IPC: 0.098161 (Simulation time: 0 hr 13 min 20 sec) 
Heartbeat CPU 0 instructions: 58000001 cycles: 580493192 heartbeat IPC: 0.104533 cumulative IPC: 0.0982661 (Simulation time: 0 hr 13 min 35 sec) 
Heartbeat CPU 0 instructions: 59000000 cycles: 587214205 heartbeat IPC: 0.148787 cumulative IPC: 0.0988447 (Simulation time: 0 hr 13 min 45 sec) 
Heartbeat CPU 0 instructions: 60000000 cycles: 600439498 heartbeat IPC: 0.0756127 cumulative IPC: 0.0983326 (Simulation time: 0 hr 14 min 1 sec) 
Heartbeat CPU 0 instructions: 61000001 cycles: 611781467 heartbeat IPC: 0.0881682 cumulative IPC: 0.0981441 (Simulation time: 0 hr 14 min 17 sec) 
Heartbeat CPU 0 instructions: 62000000 cycles: 618525949 heartbeat IPC: 0.148269 cumulative IPC: 0.098691 (Simulation time: 0 hr 14 min 28 sec) 
Heartbeat CPU 0 instructions: 63000001 cycles: 630406706 heartbeat IPC: 0.0841698 cumulative IPC: 0.0984172 (Simulation time: 0 hr 14 min 43 sec) 
Heartbeat CPU 0 instructions: 64000002 cycles: 643398511 heartbeat IPC: 0.0769717 cumulative IPC: 0.0979838 (Simulation time: 0 hr 14 min 59 sec) 
Heartbeat CPU 0 instructions: 65000000 cycles: 650754397 heartbeat IPC: 0.135945 cumulative IPC: 0.0984132 (Simulation time: 0 hr 15 min 10 sec) 
Heartbeat CPU 0 instructions: 66000000 cycles: 659840994 heartbeat IPC: 0.110052 cumulative IPC: 0.0985736 (Simulation time: 0 hr 15 min 23 sec) 
Heartbeat CPU 0 instructions: 67000003 cycles: 676729434 heartbeat IPC: 0.0592123 cumulative IPC: 0.0975907 (Simulation time: 0 hr 15 min 42 sec) 
Heartbeat CPU 0 instructions: 68000000 cycles: 683634947 heartbeat IPC: 0.144811 cumulative IPC: 0.098068 (Simulation time: 0 hr 15 min 54 sec) 
Heartbeat CPU 0 instructions: 69000001 cycles: 690105347 heartbeat IPC: 0.15455 cumulative IPC: 0.0985979 (Simulation time: 0 hr 16 min 6 sec) 
Heartbeat CPU 0 instructions: 70000003 cycles: 705450176 heartbeat IPC: 0.0651687 cumulative IPC: 0.0978703 (Simulation time: 0 hr 16 min 23 sec) 
Heartbeat CPU 0 instructions: 71000000 cycles: 716699782 heartbeat IPC: 0.0888917 cumulative IPC: 0.0977293 (Simulation time: 0 hr 16 min 39 sec) 
Heartbeat CPU 0 instructions: 72000002 cycles: 723994257 heartbeat IPC: 0.13709 cumulative IPC: 0.0981261 (Simulation time: 0 hr 16 min 50 sec) 
Heartbeat CPU 0 instructions: 73000003 cycles: 734707351 heartbeat IPC: 0.0933438 cumulative IPC: 0.0980563 (Simulation time: 0 hr 17 min 4 sec) 
Heartbeat CPU 0 instructions: 74000003 cycles: 748113392 heartbeat IPC: 0.0745932 cumulative IPC: 0.0976356 (Simulation time: 0 hr 17 min 21 sec) 
Heartbeat CPU 0 instructions: 75000002 cycles: 754966739 heartbeat IPC: 0.145914 cumulative IPC: 0.0980741 (Simulation time: 0 hr 17 min 32 sec) 
Heartbeat CPU 0 instructions: 76000002 cycles: 762887892 heartbeat IPC: 0.126244 cumulative IPC: 0.0983668 (Simulation time: 0 hr 17 min 44 sec) 
Heartbeat CPU 0 instructions: 77000000 cycles: 780769674 heartbeat IPC: 0.0559227 cumulative IPC: 0.0973941 (Simulation time: 0 hr 18 min 4 sec) 
Heartbeat CPU 0 instructions: 78000002 cycles: 788191816 heartbeat IPC: 0.134732 cumulative IPC: 0.0977459 (Simulation time: 0 hr 18 min 17 sec) 
Heartbeat CPU 0 instructions: 79000002 cycles: 794949838 heartbeat IPC: 0.147972 cumulative IPC: 0.0981732 (Simulation time: 0 hr 18 min 28 sec) 
Heartbeat CPU 0 instructions: 80000000 cycles: 809462277 heartbeat IPC: 0.0689063 cumulative IPC: 0.0976482 (Simulation time: 0 hr 18 min 45 sec) 
Heartbeat CPU 0 instructions: 81000001 cycles: 818915465 heartbeat IPC: 0.105785 cumulative IPC: 0.0977421 (Simulation time: 0 hr 19 min 0 sec) 
Heartbeat CPU 0 instructions: 82000000 cycles: 826177133 heartbeat IPC: 0.137709 cumulative IPC: 0.0980936 (Simulation time: 0 hr 19 min 12 sec) 
Heartbeat CPU 0 instructions: 83000002 cycles: 837688170 heartbeat IPC: 0.0868733 cumulative IPC: 0.0979393 (Simulation time: 0 hr 19 min 26 sec) 
Heartbeat CPU 0 instructions: 84000003 cycles: 850533172 heartbeat IPC: 0.0778514 cumulative IPC: 0.0976358 (Simulation time: 0 hr 19 min 42 sec) 
Heartbeat CPU 0 instructions: 85000000 cycles: 857120900 heartbeat IPC: 0.151797 cumulative IPC: 0.0980523 (Simulation time: 0 hr 19 min 53 sec) 
Heartbeat CPU 0 instructions: 86000003 cycles: 868471727 heartbeat IPC: 0.0880996 cumulative IPC: 0.0979222 (Simulation time: 0 hr 20 min 8 sec) 
Heartbeat CPU 0 instructions: 87000000 cycles: 884360002 heartbeat IPC: 0.0629393 cumulative IPC: 0.0972933 (Simulation time: 0 hr 20 min 26 sec) 
Heartbeat CPU 0 instructions: 88000000 cycles: 892670723 heartbeat IPC: 0.120327 cumulative IPC: 0.0975079 (Simulation time: 0 hr 20 min 39 sec) 
Heartbeat CPU 0 instructions: 89000001 cycles: 899189324 heartbeat IPC: 0.153407 cumulative IPC: 0.0979133 (Simulation time: 0 hr 20 min 50 sec) 
Heartbeat CPU 0 instructions: 90000000 cycles: 912375195 heartbeat IPC: 0.0758387 cumulative IPC: 0.0975941 (Simulation time: 0 hr 21 min 6 sec) 
Heartbeat CPU 0 instructions: 91000001 cycles: 923162091 heartbeat IPC: 0.0927052 cumulative IPC: 0.097537 (Simulation time: 0 hr 21 min 21 sec) 
Heartbeat CPU 0 instructions: 92000000 cycles: 929696029 heartbeat IPC: 0.153047 cumulative IPC: 0.0979273 (Simulation time: 0 hr 21 min 32 sec) 
Heartbeat CPU 0 instructions: 93000003 cycles: 940236555 heartbeat IPC: 0.0948722 cumulative IPC: 0.097893 (Simulation time: 0 hr 21 min 46 sec) 
Heartbeat CPU 0 instructions: 94000000 cycles: 953537252 heartbeat IPC: 0.0751838 cumulative IPC: 0.0975761 (Simulation time: 0 hr 22 min 3 sec) 
Heartbeat CPU 0 instructions: 95000000 cycles: 961949223 heartbeat IPC: 0.118878 cumulative IPC: 0.0977625 (Simulation time: 0 hr 22 min 15 sec) 
Heartbeat CPU 0 instructions: 96000002 cycles: 969778278 heartbeat IPC: 0.12773 cumulative IPC: 0.0980045 (Simulation time: 0 hr 22 min 28 sec) 
Heartbeat CPU 0 instructions: 97000002 cycles: 986057899 heartbeat IPC: 0.0614265 cumulative IPC: 0.0974004 (Simulation time: 0 hr 22 min 47 sec) 
Heartbeat CPU 0 instructions: 98000000 cycles: 993268912 heartbeat IPC: 0.138676 cumulative IPC: 0.0977002 (Simulation time: 0 hr 22 min 59 sec) 
Heartbeat CPU 0 instructions: 99000000 cycles: 1000229825 heartbeat IPC: 0.143659 cumulative IPC: 0.0980201 (Simulation time: 0 hr 23 min 10 sec) 
Heartbeat CPU 0 instructions: 100000000 cycles: 1015470750 heartbeat IPC: 0.0656128 cumulative IPC: 0.0975335 (Simulation time: 0 hr 23 min 28 sec) 
Heartbeat CPU 0 instructions: 101000000 cycles: 1024370346 heartbeat IPC: 0.112365 cumulative IPC: 0.0976624 (Simulation time: 0 hr 23 min 41 sec) 
Heartbeat CPU 0 instructions: 102000000 cycles: 1030993385 heartbeat IPC: 0.150988 cumulative IPC: 0.0980051 (Simulation time: 0 hr 23 min 53 sec) 
Heartbeat CPU 0 instructions: 103000000 cycles: 1044354599 heartbeat IPC: 0.0748435 cumulative IPC: 0.0977087 (Simulation time: 0 hr 24 min 9 sec) 
Heartbeat CPU 0 instructions: 104000000 cycles: 1058511982 heartbeat IPC: 0.0706345 cumulative IPC: 0.0973464 (Simulation time: 0 hr 24 min 26 sec) 
Heartbeat CPU 0 instructions: 105000000 cycles: 1065372904 heartbeat IPC: 0.145753 cumulative IPC: 0.0976583 (Simulation time: 0 hr 24 min 37 sec) 
Heartbeat CPU 0 instructions: 106000001 cycles: 1071537883 heartbeat IPC: 0.162207 cumulative IPC: 0.0980298 (Simulation time: 0 hr 24 min 48 sec) 
Heartbeat CPU 0 instructions: 107000003 cycles: 1087947366 heartbeat IPC: 0.0609405 cumulative IPC: 0.0974702 (Simulation time: 0 hr 25 min 7 sec) 
Heartbeat CPU 0 instructions: 108000000 cycles: 1095279443 heartbeat IPC: 0.136387 cumulative IPC: 0.0977308 (Simulation time: 0 hr 25 min 19 sec) 
Heartbeat CPU 0 instructions: 109000002 cycles: 1101613096 heartbeat IPC: 0.157887 cumulative IPC: 0.0980768 (Simulation time: 0 hr 25 min 30 sec) 
Heartbeat CPU 0 instructions: 110000000 cycles: 1112985665 heartbeat IPC: 0.0879307 cumulative IPC: 0.0979731 (Simulation time: 0 hr 25 min 45 sec) 
Heartbeat CPU 0 instructions: 111000000 cycles: 1125441911 heartbeat IPC: 0.080281 cumulative IPC: 0.0977772 (Simulation time: 0 hr 26 min 1 sec) 
Heartbeat CPU 0 instructions: 112000000 cycles: 1131626890 heartbeat IPC: 0.161682 cumulative IPC: 0.0981266 (Simulation time: 0 hr 26 min 12 sec) 
Heartbeat CPU 0 instructions: 113000000 cycles: 1141981381 heartbeat IPC: 0.0965765 cumulative IPC: 0.0981125 (Simulation time: 0 hr 26 min 26 sec) 
Heartbeat CPU 0 instructions: 114000001 cycles: 1157412938 heartbeat IPC: 0.0648023 cumulative IPC: 0.0976683 (Simulation time: 0 hr 26 min 45 sec) 
Heartbeat CPU 0 instructions: 115000000 cycles: 1167001018 heartbeat IPC: 0.104296 cumulative IPC: 0.0977227 (Simulation time: 0 hr 26 min 59 sec) 
Heartbeat CPU 0 instructions: 116000003 cycles: 1173261231 heartbeat IPC: 0.159739 cumulative IPC: 0.0980538 (Simulation time: 0 hr 27 min 11 sec) 
Heartbeat CPU 0 instructions: 117000001 cycles: 1185051513 heartbeat IPC: 0.0848154 cumulative IPC: 0.097922 (Simulation time: 0 hr 27 min 26 sec) 
Heartbeat CPU 0 instructions: 118000000 cycles: 1197042727 heartbeat IPC: 0.0833943 cumulative IPC: 0.0977764 (Simulation time: 0 hr 27 min 42 sec) 
Heartbeat CPU 0 instructions: 119000001 cycles: 1203349179 heartbeat IPC: 0.158568 cumulative IPC: 0.0980951 (Simulation time: 0 hr 27 min 54 sec) 
Heartbeat CPU 0 instructions: 120000002 cycles: 1211712103 heartbeat IPC: 0.119576 cumulative IPC: 0.0982434 (Simulation time: 0 hr 28 min 6 sec) 
Heartbeat CPU 0 instructions: 121000000 cycles: 1226981051 heartbeat IPC: 0.0654923 cumulative IPC: 0.0978357 (Simulation time: 0 hr 28 min 25 sec) 
Heartbeat CPU 0 instructions: 122000001 cycles: 1233377298 heartbeat IPC: 0.156342 cumulative IPC: 0.0981392 (Simulation time: 0 hr 28 min 37 sec) 
Heartbeat CPU 0 instructions: 123000000 cycles: 1239873208 heartbeat IPC: 0.153943 cumulative IPC: 0.0984317 (Simulation time: 0 hr 28 min 49 sec) 
Heartbeat CPU 0 instructions: 124000003 cycles: 1255714956 heartbeat IPC: 0.0631245 cumulative IPC: 0.0979861 (Simulation time: 0 hr 29 min 8 sec) 
Heartbeat CPU 0 instructions: 125000000 cycles: 1263741939 heartbeat IPC: 0.124579 cumulative IPC: 0.0981551 (Simulation time: 0 hr 29 min 22 sec) 
Heartbeat CPU 0 instructions: 126000001 cycles: 1270179630 heartbeat IPC: 0.155335 cumulative IPC: 0.098445 (Simulation time: 0 hr 29 min 33 sec) 
Heartbeat CPU 0 instructions: 127000003 cycles: 1283633948 heartbeat IPC: 0.0743257 cumulative IPC: 0.0981921 (Simulation time: 0 hr 29 min 51 sec) 
Heartbeat CPU 0 instructions: 128000000 cycles: 1294036021 heartbeat IPC: 0.0961344 cumulative IPC: 0.0981756 (Simulation time: 0 hr 30 min 6 sec) 
Heartbeat CPU 0 instructions: 129000001 cycles: 1300285000 heartbeat IPC: 0.160026 cumulative IPC: 0.0984729 (Simulation time: 0 hr 30 min 18 sec) 
Heartbeat CPU 0 instructions: 130000001 cycles: 1310791881 heartbeat IPC: 0.0951757 cumulative IPC: 0.0984465 (Simulation time: 0 hr 30 min 32 sec) 
Heartbeat CPU 0 instructions: 131000001 cycles: 1325231445 heartbeat IPC: 0.0692542 cumulative IPC: 0.0981283 (Simulation time: 0 hr 30 min 51 sec) 
Heartbeat CPU 0 instructions: 132000000 cycles: 1332552772 heartbeat IPC: 0.136587 cumulative IPC: 0.0983397 (Simulation time: 0 hr 31 min 3 sec) 
Heartbeat CPU 0 instructions: 133000003 cycles: 1339541812 heartbeat IPC: 0.143082 cumulative IPC: 0.0985732 (Simulation time: 0 hr 31 min 14 sec) 
Heartbeat CPU 0 instructions: 134000002 cycles: 1356180577 heartbeat IPC: 0.0601006 cumulative IPC: 0.098101 (Simulation time: 0 hr 31 min 34 sec) 
Heartbeat CPU 0 instructions: 135000000 cycles: 1363012386 heartbeat IPC: 0.146374 cumulative IPC: 0.0983431 (Simulation time: 0 hr 31 min 46 sec) 
Heartbeat CPU 0 instructions: 136000001 cycles: 1374578659 heartbeat IPC: 0.0864584 cumulative IPC: 0.098243 (Simulation time: 0 hr 32 min 1 sec) 
Heartbeat CPU 0 instructions: 137000001 cycles: 1386478233 heartbeat IPC: 0.0840366 cumulative IPC: 0.0981211 (Simulation time: 0 hr 32 min 18 sec) 
Heartbeat CPU 0 instructions: 138000002 cycles: 1399083292 heartbeat IPC: 0.0793333 cumulative IPC: 0.0979517 (Simulation time: 0 hr 32 min 34 sec) 
Heartbeat CPU 0 instructions: 139000003 cycles: 1405511338 heartbeat IPC: 0.155568 cumulative IPC: 0.0982153 (Simulation time: 0 hr 32 min 46 sec) 
Heartbeat CPU 0 instructions: 140000002 cycles: 1413507801 heartbeat IPC: 0.125055 cumulative IPC: 0.0983672 (Simulation time: 0 hr 32 min 59 sec) 
Heartbeat CPU 0 instructions: 141000003 cycles: 1429012808 heartbeat IPC: 0.0644954 cumulative IPC: 0.0979996 (Simulation time: 0 hr 33 min 19 sec) 
Heartbeat CPU 0 instructions: 142000000 cycles: 1435364765 heartbeat IPC: 0.157431 cumulative IPC: 0.0982627 (Simulation time: 0 hr 33 min 31 sec) 
Heartbeat CPU 0 instructions: 143000000 cycles: 1441585995 heartbeat IPC: 0.16074 cumulative IPC: 0.0985324 (Simulation time: 0 hr 33 min 43 sec) 
Heartbeat CPU 0 instructions: 144000001 cycles: 1457778066 heartbeat IPC: 0.0617587 cumulative IPC: 0.0981238 (Simulation time: 0 hr 34 min 3 sec) 
Heartbeat CPU 0 instructions: 145000000 cycles: 1465195015 heartbeat IPC: 0.134826 cumulative IPC: 0.0983096 (Simulation time: 0 hr 34 min 16 sec) 
Heartbeat CPU 0 instructions: 146000002 cycles: 1471713118 heartbeat IPC: 0.153419 cumulative IPC: 0.0985538 (Simulation time: 0 hr 34 min 28 sec) 
Heartbeat CPU 0 instructions: 147000001 cycles: 1485936454 heartbeat IPC: 0.0703069 cumulative IPC: 0.0982833 (Simulation time: 0 hr 34 min 46 sec) 
Heartbeat CPU 0 instructions: 148000001 cycles: 1495470570 heartbeat IPC: 0.104886 cumulative IPC: 0.0983254 (Simulation time: 0 hr 35 min 1 sec) 
Heartbeat CPU 0 instructions: 149000003 cycles: 1502075447 heartbeat IPC: 0.151404 cumulative IPC: 0.0985589 (Simulation time: 0 hr 35 min 14 sec) 
Heartbeat CPU 0 instructions: 150000001 cycles: 1514284754 heartbeat IPC: 0.0819046 cumulative IPC: 0.0984246 (Simulation time: 0 hr 35 min 30 sec) 
Heartbeat CPU 0 instructions: 151000003 cycles: 1526586917 heartbeat IPC: 0.0812867 cumulative IPC: 0.0982864 (Simulation time: 0 hr 35 min 47 sec) 
Heartbeat CPU 0 instructions: 152000001 cycles: 1533019457 heartbeat IPC: 0.155459 cumulative IPC: 0.0985264 (Simulation time: 0 hr 35 min 59 sec) 
Heartbeat CPU 0 instructions: 153000003 cycles: 1543167836 heartbeat IPC: 0.0985381 cumulative IPC: 0.0985265 (Simulation time: 0 hr 36 min 14 sec) 
Heartbeat CPU 0 instructions: 154000000 cycles: 1556764754 heartbeat IPC: 0.0735459 cumulative IPC: 0.0983082 (Simulation time: 0 hr 36 min 31 sec) 
Heartbeat CPU 0 instructions: 155000003 cycles: 1563262443 heartbeat IPC: 0.153901 cumulative IPC: 0.0985394 (Simulation time: 0 hr 36 min 43 sec) 
Heartbeat CPU 0 instructions: 156000001 cycles: 1577650559 heartbeat IPC: 0.0695017 cumulative IPC: 0.0982745 (Simulation time: 0 hr 37 min 1 sec) 
Heartbeat CPU 0 instructions: 157000001 cycles: 1593145792 heartbeat IPC: 0.064536 cumulative IPC: 0.0979462 (Simulation time: 0 hr 37 min 21 sec) 
Heartbeat CPU 0 instructions: 158000001 cycles: 1603671444 heartbeat IPC: 0.095006 cumulative IPC: 0.0979269 (Simulation time: 0 hr 37 min 37 sec) 
Heartbeat CPU 0 instructions: 159000000 cycles: 1613140759 heartbeat IPC: 0.105604 cumulative IPC: 0.097972 (Simulation time: 0 hr 37 min 50 sec) 
Heartbeat CPU 0 instructions: 160000001 cycles: 1624465976 heartbeat IPC: 0.0882986 cumulative IPC: 0.0979046 (Simulation time: 0 hr 38 min 5 sec) 
Heartbeat CPU 0 instructions: 161000001 cycles: 1639924354 heartbeat IPC: 0.0646898 cumulative IPC: 0.0975914 (Simulation time: 0 hr 38 min 24 sec) 
Heartbeat CPU 0 instructions: 162000000 cycles: 1646955733 heartbeat IPC: 0.142219 cumulative IPC: 0.097782 (Simulation time: 0 hr 38 min 36 sec) 
Heartbeat CPU 0 instructions: 163000001 cycles: 1658418222 heartbeat IPC: 0.0872412 cumulative IPC: 0.0977091 (Simulation time: 0 hr 38 min 52 sec) 
Heartbeat CPU 0 instructions: 164000000 cycles: 1673258734 heartbeat IPC: 0.0673831 cumulative IPC: 0.09744 (Simulation time: 0 hr 39 min 10 sec) 
Heartbeat CPU 0 instructions: 165000000 cycles: 1685117041 heartbeat IPC: 0.0843291 cumulative IPC: 0.0973478 (Simulation time: 0 hr 39 min 26 sec) 
Heartbeat CPU 0 instructions: 166000000 cycles: 1691976541 heartbeat IPC: 0.145783 cumulative IPC: 0.0975442 (Simulation time: 0 hr 39 min 38 sec) 
Heartbeat CPU 0 instructions: 167000000 cycles: 1703789286 heartbeat IPC: 0.0846543 cumulative IPC: 0.0974548 (Simulation time: 0 hr 39 min 53 sec) 
Heartbeat CPU 0 instructions: 168000001 cycles: 1716938184 heartbeat IPC: 0.0760521 cumulative IPC: 0.0972908 (Simulation time: 0 hr 40 min 10 sec) 
Heartbeat CPU 0 instructions: 169000002 cycles: 1729259372 heartbeat IPC: 0.0811611 cumulative IPC: 0.0971759 (Simulation time: 0 hr 40 min 27 sec) 
Heartbeat CPU 0 instructions: 170000001 cycles: 1742295272 heartbeat IPC: 0.0767112 cumulative IPC: 0.0970227 (Simulation time: 0 hr 40 min 44 sec) 
Heartbeat CPU 0 instructions: 171000001 cycles: 1756554082 heartbeat IPC: 0.0701321 cumulative IPC: 0.0968044 (Simulation time: 0 hr 41 min 3 sec) 
Heartbeat CPU 0 instructions: 172000000 cycles: 1766539217 heartbeat IPC: 0.100149 cumulative IPC: 0.0968233 (Simulation time: 0 hr 41 min 18 sec) 
Heartbeat CPU 0 instructions: 173000000 cycles: 1775027014 heartbeat IPC: 0.117816 cumulative IPC: 0.0969237 (Simulation time: 0 hr 41 min 31 sec) 
Heartbeat CPU 0 instructions: 174000003 cycles: 1786538966 heartbeat IPC: 0.0868665 cumulative IPC: 0.0968589 (Simulation time: 0 hr 41 min 46 sec) 
Heartbeat CPU 0 instructions: 175000001 cycles: 1802330379 heartbeat IPC: 0.0633254 cumulative IPC: 0.096565 (Simulation time: 0 hr 42 min 5 sec) 
Heartbeat CPU 0 instructions: 176000000 cycles: 1809106746 heartbeat IPC: 0.147572 cumulative IPC: 0.0967561 (Simulation time: 0 hr 42 min 16 sec) 
Heartbeat CPU 0 instructions: 177000001 cycles: 1815582858 heartbeat IPC: 0.154414 cumulative IPC: 0.0969618 (Simulation time: 0 hr 42 min 26 sec) 
Heartbeat CPU 0 instructions: 178000000 cycles: 1830682987 heartbeat IPC: 0.0662245 cumulative IPC: 0.0967082 (Simulation time: 0 hr 42 min 45 sec) 
Heartbeat CPU 0 instructions: 179000000 cycles: 1842689015 heartbeat IPC: 0.0832915 cumulative IPC: 0.0966208 (Simulation time: 0 hr 43 min 1 sec) 
Heartbeat CPU 0 instructions: 180000000 cycles: 1849720091 heartbeat IPC: 0.142226 cumulative IPC: 0.0967942 (Simulation time: 0 hr 43 min 14 sec) 
Heartbeat CPU 0 instructions: 181000001 cycles: 1861675051 heartbeat IPC: 0.0836474 cumulative IPC: 0.0967097 (Simulation time: 0 hr 43 min 30 sec) 
Heartbeat CPU 0 instructions: 182000000 cycles: 1878145256 heartbeat IPC: 0.0607156 cumulative IPC: 0.096394 (Simulation time: 0 hr 43 min 49 sec) 
Heartbeat CPU 0 instructions: 183000001 cycles: 1885547781 heartbeat IPC: 0.135089 cumulative IPC: 0.096546 (Simulation time: 0 hr 44 min 2 sec) 
Heartbeat CPU 0 instructions: 184000001 cycles: 1893027408 heartbeat IPC: 0.133697 cumulative IPC: 0.0966928 (Simulation time: 0 hr 44 min 14 sec) 
Heartbeat CPU 0 instructions: 185000000 cycles: 1907047530 heartbeat IPC: 0.071326 cumulative IPC: 0.0965063 (Simulation time: 0 hr 44 min 32 sec) 
Heartbeat CPU 0 instructions: 186000003 cycles: 1920550456 heartbeat IPC: 0.0740582 cumulative IPC: 0.0963484 (Simulation time: 0 hr 44 min 50 sec) 
Heartbeat CPU 0 instructions: 187000000 cycles: 1928838701 heartbeat IPC: 0.120652 cumulative IPC: 0.0964528 (Simulation time: 0 hr 45 min 2 sec) 
Heartbeat CPU 0 instructions: 188000000 cycles: 1939323068 heartbeat IPC: 0.0953801 cumulative IPC: 0.096447 (Simulation time: 0 hr 45 min 16 sec) 
Heartbeat CPU 0 instructions: 189000001 cycles: 1953206011 heartbeat IPC: 0.0720309 cumulative IPC: 0.0962735 (Simulation time: 0 hr 45 min 33 sec) 
Heartbeat CPU 0 instructions: 190000000 cycles: 1963818169 heartbeat IPC: 0.0942314 cumulative IPC: 0.0962624 (Simulation time: 0 hr 45 min 47 sec) 
Heartbeat CPU 0 instructions: 191000002 cycles: 1970500136 heartbeat IPC: 0.149657 cumulative IPC: 0.0964435 (Simulation time: 0 hr 45 min 56 sec) 
Heartbeat CPU 0 instructions: 192000002 cycles: 1978818329 heartbeat IPC: 0.120218 cumulative IPC: 0.0965435 (Simulation time: 0 hr 46 min 8 sec) 
Heartbeat CPU 0 instructions: 193000002 cycles: 1995579352 heartbeat IPC: 0.0596622 cumulative IPC: 0.0962337 (Simulation time: 0 hr 46 min 28 sec) 
Heartbeat CPU 0 instructions: 194000001 cycles: 2002805304 heartbeat IPC: 0.13839 cumulative IPC: 0.0963858 (Simulation time: 0 hr 46 min 41 sec) 
Heartbeat CPU 0 instructions: 195000001 cycles: 2009302738 heartbeat IPC: 0.153907 cumulative IPC: 0.0965718 (Simulation time: 0 hr 46 min 52 sec) 
Heartbeat CPU 0 instructions: 196000000 cycles: 2024568189 heartbeat IPC: 0.0655073 cumulative IPC: 0.0963375 (Simulation time: 0 hr 47 min 10 sec) 
Heartbeat CPU 0 instructions: 197000003 cycles: 2035460814 heartbeat IPC: 0.0918055 cumulative IPC: 0.0963133 (Simulation time: 0 hr 47 min 25 sec) 
Heartbeat CPU 0 instructions: 198000000 cycles: 2042079739 heartbeat IPC: 0.151081 cumulative IPC: 0.0964908 (Simulation time: 0 hr 47 min 37 sec) 
Heartbeat CPU 0 instructions: 199000002 cycles: 2053517954 heartbeat IPC: 0.0874264 cumulative IPC: 0.0964403 (Simulation time: 0 hr 47 min 51 sec) 
Heartbeat CPU 0 instructions: 200000000 cycles: 2066213245 heartbeat IPC: 0.0787692 cumulative IPC: 0.0963317 (Simulation time: 0 hr 48 min 9 sec) 
Heartbeat CPU 0 instructions: 201000001 cycles: 2072659584 heartbeat IPC: 0.155127 cumulative IPC: 0.0965146 (Simulation time: 0 hr 48 min 21 sec) 
Heartbeat CPU 0 instructions: 202000002 cycles: 2082171480 heartbeat IPC: 0.105132 cumulative IPC: 0.096554 (Simulation time: 0 hr 48 min 35 sec) 
Heartbeat CPU 0 instructions: 203000002 cycles: 2096557367 heartbeat IPC: 0.0695126 cumulative IPC: 0.0963684 (Simulation time: 0 hr 48 min 55 sec) 
Heartbeat CPU 0 instructions: 204000000 cycles: 2103215606 heartbeat IPC: 0.15019 cumulative IPC: 0.0965388 (Simulation time: 0 hr 49 min 7 sec) 
Heartbeat CPU 0 instructions: 205000002 cycles: 2111414365 heartbeat IPC: 0.12197 cumulative IPC: 0.0966376 (Simulation time: 0 hr 49 min 20 sec) 
Heartbeat CPU 0 instructions: 206000000 cycles: 2127071975 heartbeat IPC: 0.0638666 cumulative IPC: 0.0963963 (Simulation time: 0 hr 49 min 39 sec) 
Heartbeat CPU 0 instructions: 207000001 cycles: 2133796477 heartbeat IPC: 0.14871 cumulative IPC: 0.0965612 (Simulation time: 0 hr 49 min 51 sec) 
Heartbeat CPU 0 instructions: 208000002 cycles: 2140723787 heartbeat IPC: 0.144356 cumulative IPC: 0.0967159 (Simulation time: 0 hr 50 min 3 sec) 
Heartbeat CPU 0 instructions: 209000000 cycles: 2157451727 heartbeat IPC: 0.0597801 cumulative IPC: 0.0964295 (Simulation time: 0 hr 50 min 23 sec) 
Heartbeat CPU 0 instructions: 210000000 cycles: 2164419862 heartbeat IPC: 0.14351 cumulative IPC: 0.0965811 (Simulation time: 0 hr 50 min 36 sec) 
Heartbeat CPU 0 instructions: 211000003 cycles: 2171520877 heartbeat IPC: 0.140825 cumulative IPC: 0.0967258 (Simulation time: 0 hr 50 min 48 sec) 
Heartbeat CPU 0 instructions: 212000003 cycles: 2187175420 heartbeat IPC: 0.0638792 cumulative IPC: 0.0964907 (Simulation time: 0 hr 51 min 8 sec) 
Heartbeat CPU 0 instructions: 213000001 cycles: 2196640622 heartbeat IPC: 0.10565 cumulative IPC: 0.0965301 (Simulation time: 0 hr 51 min 22 sec) 
Heartbeat CPU 0 instructions: 214000000 cycles: 2202945045 heartbeat IPC: 0.158619 cumulative IPC: 0.0967079 (Simulation time: 0 hr 51 min 34 sec) 
Heartbeat CPU 0 instructions: 215000002 cycles: 2215163519 heartbeat IPC: 0.0818434 cumulative IPC: 0.0966258 (Simulation time: 0 hr 51 min 50 sec) 
Heartbeat CPU 0 instructions: 216000000 cycles: 2229068999 heartbeat IPC: 0.071914 cumulative IPC: 0.0964717 (Simulation time: 0 hr 52 min 8 sec) 
Heartbeat CPU 0 instructions: 217000001 cycles: 2238356604 heartbeat IPC: 0.10767 cumulative IPC: 0.0965181 (Simulation time: 0 hr 52 min 22 sec) 
Heartbeat CPU 0 instructions: 218000003 cycles: 2245102772 heartbeat IPC: 0.148233 cumulative IPC: 0.0966736 (Simulation time: 0 hr 52 min 34 sec) 
Heartbeat CPU 0 instructions: 219000001 cycles: 2261936338 heartbeat IPC: 0.059405 cumulative IPC: 0.0963961 (Simulation time: 0 hr 52 min 53 sec) 
Heartbeat CPU 0 instructions: 220000000 cycles: 2269132167 heartbeat IPC: 0.138969 cumulative IPC: 0.0965312 (Simulation time: 0 hr 53 min 6 sec) 
Heartbeat CPU 0 instructions: 221000000 cycles: 2275963045 heartbeat IPC: 0.146394 cumulative IPC: 0.0966809 (Simulation time: 0 hr 53 min 18 sec) 
Heartbeat CPU 0 instructions: 222000003 cycles: 2291077778 heartbeat IPC: 0.0661608 cumulative IPC: 0.0964795 (Simulation time: 0 hr 53 min 37 sec) 
Heartbeat CPU 0 instructions: 223000000 cycles: 2302899626 heartbeat IPC: 0.0845889 cumulative IPC: 0.0964184 (Simulation time: 0 hr 53 min 54 sec) 
Heartbeat CPU 0 instructions: 224000002 cycles: 2318321698 heartbeat IPC: 0.0648423 cumulative IPC: 0.0962083 (Simulation time: 0 hr 54 min 14 sec) 
Heartbeat CPU 0 instructions: 225000000 cycles: 2325668601 heartbeat IPC: 0.136111 cumulative IPC: 0.0963344 (Simulation time: 0 hr 54 min 26 sec) 
Heartbeat CPU 0 instructions: 226000001 cycles: 2341471065 heartbeat IPC: 0.0632813 cumulative IPC: 0.0961113 (Simulation time: 0 hr 54 min 45 sec) 
Heartbeat CPU 0 instructions: 227000002 cycles: 2352435604 heartbeat IPC: 0.0912032 cumulative IPC: 0.0960884 (Simulation time: 0 hr 55 min 1 sec) 
Heartbeat CPU 0 instructions: 228000000 cycles: 2360060143 heartbeat IPC: 0.131155 cumulative IPC: 0.0962017 (Simulation time: 0 hr 55 min 13 sec) 
Heartbeat CPU 0 instructions: 229000000 cycles: 2369130502 heartbeat IPC: 0.110249 cumulative IPC: 0.0962555 (Simulation time: 0 hr 55 min 26 sec) 
Heartbeat CPU 0 instructions: 230000001 cycles: 2384010945 heartbeat IPC: 0.0672024 cumulative IPC: 0.0960741 (Simulation time: 0 hr 55 min 45 sec) 
Heartbeat CPU 0 instructions: 231000000 cycles: 2393020653 heartbeat IPC: 0.110991 cumulative IPC: 0.0961303 (Simulation time: 0 hr 55 min 58 sec) 
Heartbeat CPU 0 instructions: 232000001 cycles: 2399747756 heartbeat IPC: 0.148653 cumulative IPC: 0.0962776 (Simulation time: 0 hr 56 min 9 sec) 
Heartbeat CPU 0 instructions: 233000001 cycles: 2413378457 heartbeat IPC: 0.0733638 cumulative IPC: 0.0961481 (Simulation time: 0 hr 56 min 26 sec) 
Heartbeat CPU 0 instructions: 234000002 cycles: 2423784848 heartbeat IPC: 0.0960949 cumulative IPC: 0.0961479 (Simulation time: 0 hr 56 min 40 sec) 
Heartbeat CPU 0 instructions: 235000000 cycles: 2430314169 heartbeat IPC: 0.153155 cumulative IPC: 0.0963011 (Simulation time: 0 hr 56 min 50 sec) 
Heartbeat CPU 0 instructions: 236000002 cycles: 2438767916 heartbeat IPC: 0.118291 cumulative IPC: 0.0963773 (Simulation time: 0 hr 57 min 3 sec) 
Heartbeat CPU 0 instructions: 237000002 cycles: 2454086382 heartbeat IPC: 0.0652807 cumulative IPC: 0.0961832 (Simulation time: 0 hr 57 min 23 sec) 
Heartbeat CPU 0 instructions: 238000000 cycles: 2460666234 heartbeat IPC: 0.151979 cumulative IPC: 0.0963324 (Simulation time: 0 hr 57 min 34 sec) 
Heartbeat CPU 0 instructions: 239000000 cycles: 2468387662 heartbeat IPC: 0.12951 cumulative IPC: 0.0964362 (Simulation time: 0 hr 57 min 47 sec) 
Heartbeat CPU 0 instructions: 240000001 cycles: 2483042152 heartbeat IPC: 0.0682385 cumulative IPC: 0.0962698 (Simulation time: 0 hr 58 min 5 sec) 
Heartbeat CPU 0 instructions: 241000003 cycles: 2492572811 heartbeat IPC: 0.104925 cumulative IPC: 0.0963029 (Simulation time: 0 hr 58 min 20 sec) 
Heartbeat CPU 0 instructions: 242000000 cycles: 2499265312 heartbeat IPC: 0.149421 cumulative IPC: 0.0964451 (Simulation time: 0 hr 58 min 32 sec) 
Heartbeat CPU 0 instructions: 243000001 cycles: 2512162697 heartbeat IPC: 0.0775352 cumulative IPC: 0.096348 (Simulation time: 0 hr 58 min 49 sec) 
Heartbeat CPU 0 instructions: 244000001 cycles: 2523477531 heartbeat IPC: 0.0883796 cumulative IPC: 0.0963123 (Simulation time: 0 hr 59 min 5 sec) 
Heartbeat CPU 0 instructions: 245000000 cycles: 2530227674 heartbeat IPC: 0.148145 cumulative IPC: 0.0964506 (Simulation time: 0 hr 59 min 17 sec) 
Heartbeat CPU 0 instructions: 246000001 cycles: 2541513986 heartbeat IPC: 0.088603 cumulative IPC: 0.0964157 (Simulation time: 0 hr 59 min 32 sec) 
Heartbeat CPU 0 instructions: 247000001 cycles: 2554696537 heartbeat IPC: 0.0758579 cumulative IPC: 0.0963096 (Simulation time: 0 hr 59 min 50 sec) 
Heartbeat CPU 0 instructions: 248000001 cycles: 2561429470 heartbeat IPC: 0.148524 cumulative IPC: 0.0964469 (Simulation time: 1 hr 0 min 2 sec) 
Heartbeat CPU 0 instructions: 249000003 cycles: 2570000840 heartbeat IPC: 0.116668 cumulative IPC: 0.0965144 (Simulation time: 1 hr 0 min 15 sec) 
Heartbeat CPU 0 instructions: 250000000 cycles: 2586309297 heartbeat IPC: 0.0613177 cumulative IPC: 0.0962924 (Simulation time: 1 hr 0 min 35 sec) 
Heartbeat CPU 0 instructions: 251000003 cycles: 2593026944 heartbeat IPC: 0.148862 cumulative IPC: 0.0964286 (Simulation time: 1 hr 0 min 48 sec) 
Heartbeat CPU 0 instructions: 252000000 cycles: 2599420224 heartbeat IPC: 0.156414 cumulative IPC: 0.0965762 (Simulation time: 1 hr 0 min 59 sec) 
Heartbeat CPU 0 instructions: 253000000 cycles: 2614813641 heartbeat IPC: 0.0649628 cumulative IPC: 0.09639 (Simulation time: 1 hr 1 min 18 sec) 
Heartbeat CPU 0 instructions: 254000000 cycles: 2623342069 heartbeat IPC: 0.117255 cumulative IPC: 0.0964579 (Simulation time: 1 hr 1 min 32 sec) 
Heartbeat CPU 0 instructions: 255000000 cycles: 2629781763 heartbeat IPC: 0.155287 cumulative IPC: 0.0966019 (Simulation time: 1 hr 1 min 43 sec) 
Heartbeat CPU 0 instructions: 256000000 cycles: 2642215826 heartbeat IPC: 0.0804242 cumulative IPC: 0.0965258 (Simulation time: 1 hr 2 min 0 sec) 
Heartbeat CPU 0 instructions: 257000000 cycles: 2653751990 heartbeat IPC: 0.0866839 cumulative IPC: 0.096483 (Simulation time: 1 hr 2 min 16 sec) 
Heartbeat CPU 0 instructions: 258000000 cycles: 2662603684 heartbeat IPC: 0.112973 cumulative IPC: 0.0965378 (Simulation time: 1 hr 2 min 30 sec) 
Heartbeat CPU 0 instructions: 259000003 cycles: 2670030016 heartbeat IPC: 0.134656 cumulative IPC: 0.0966439 (Simulation time: 1 hr 2 min 42 sec) 
Heartbeat CPU 0 instructions: 260000000 cycles: 2686433515 heartbeat IPC: 0.0609624 cumulative IPC: 0.096426 (Simulation time: 1 hr 3 min 2 sec) 
Heartbeat CPU 0 instructions: 261000001 cycles: 2693367247 heartbeat IPC: 0.144223 cumulative IPC: 0.096549 (Simulation time: 1 hr 3 min 14 sec) 
Heartbeat CPU 0 instructions: 262000000 cycles: 2700767709 heartbeat IPC: 0.135127 cumulative IPC: 0.0966548 (Simulation time: 1 hr 3 min 26 sec) 
Heartbeat CPU 0 instructions: 263000001 cycles: 2715098136 heartbeat IPC: 0.0697817 cumulative IPC: 0.0965129 (Simulation time: 1 hr 3 min 44 sec) 
Heartbeat CPU 0 instructions: 264000000 cycles: 2725162171 heartbeat IPC: 0.0993636 cumulative IPC: 0.0965234 (Simulation time: 1 hr 3 min 59 sec) 
Heartbeat CPU 0 instructions: 265000003 cycles: 2732328184 heartbeat IPC: 0.139548 cumulative IPC: 0.0966363 (Simulation time: 1 hr 4 min 11 sec) 
Heartbeat CPU 0 instructions: 266000003 cycles: 2742767216 heartbeat IPC: 0.0957943 cumulative IPC: 0.0966331 (Simulation time: 1 hr 4 min 26 sec) 
Heartbeat CPU 0 instructions: 267000000 cycles: 2756398409 heartbeat IPC: 0.0733609 cumulative IPC: 0.096518 (Simulation time: 1 hr 4 min 44 sec) 
Heartbeat CPU 0 instructions: 268000001 cycles: 2763232739 heartbeat IPC: 0.14632 cumulative IPC: 0.0966412 (Simulation time: 1 hr 4 min 56 sec) 
Heartbeat CPU 0 instructions: 269000000 cycles: 2770775298 heartbeat IPC: 0.132581 cumulative IPC: 0.096739 (Simulation time: 1 hr 5 min 8 sec) 
Heartbeat CPU 0 instructions: 270000001 cycles: 2787140713 heartbeat IPC: 0.0611045 cumulative IPC: 0.0965298 (Simulation time: 1 hr 5 min 28 sec) 
Heartbeat CPU 0 instructions: 271000003 cycles: 2793622559 heartbeat IPC: 0.154277 cumulative IPC: 0.0966638 (Simulation time: 1 hr 5 min 41 sec) 
Heartbeat CPU 0 instructions: 272000002 cycles: 2800451153 heartbeat IPC: 0.146443 cumulative IPC: 0.0967852 (Simulation time: 1 hr 5 min 52 sec) 
Heartbeat CPU 0 instructions: 273000001 cycles: 2814002044 heartbeat IPC: 0.0737958 cumulative IPC: 0.0966744 (Simulation time: 1 hr 6 min 8 sec) 
Heartbeat CPU 0 instructions: 274000001 cycles: 2824528167 heartbeat IPC: 0.0950017 cumulative IPC: 0.0966682 (Simulation time: 1 hr 6 min 23 sec) 
Heartbeat CPU 0 instructions: 275000000 cycles: 2831043307 heartbeat IPC: 0.153488 cumulative IPC: 0.096799 (Simulation time: 1 hr 6 min 33 sec) 
Heartbeat CPU 0 instructions: 276000000 cycles: 2839539362 heartbeat IPC: 0.117702 cumulative IPC: 0.0968615 (Simulation time: 1 hr 6 min 45 sec) 
Heartbeat CPU 0 instructions: 277000000 cycles: 2855294429 heartbeat IPC: 0.0634716 cumulative IPC: 0.0966773 (Simulation time: 1 hr 7 min 4 sec) 
Heartbeat CPU 0 instructions: 278000000 cycles: 2861779171 heartbeat IPC: 0.154208 cumulative IPC: 0.0968077 (Simulation time: 1 hr 7 min 16 sec) 
Heartbeat CPU 0 instructions: 279000000 cycles: 2868063603 heartbeat IPC: 0.159123 cumulative IPC: 0.0969442 (Simulation time: 1 hr 7 min 26 sec) 
Heartbeat CPU 0 instructions: 280000002 cycles: 2881279218 heartbeat IPC: 0.0756682 cumulative IPC: 0.0968466 (Simulation time: 1 hr 7 min 42 sec) 
Heartbeat CPU 0 instructions: 281000001 cycles: 2891806841 heartbeat IPC: 0.0949881 cumulative IPC: 0.0968399 (Simulation time: 1 hr 7 min 57 sec) 
Heartbeat CPU 0 instructions: 282000000 cycles: 2898013454 heartbeat IPC: 0.161118 cumulative IPC: 0.0969775 (Simulation time: 1 hr 8 min 8 sec) 
Heartbeat CPU 0 instructions: 283000001 cycles: 2905553489 heartbeat IPC: 0.132626 cumulative IPC: 0.0970701 (Simulation time: 1 hr 8 min 20 sec) 
Heartbeat CPU 0 instructions: 284000001 cycles: 2921492076 heartbeat IPC: 0.0627408 cumulative IPC: 0.0968827 (Simulation time: 1 hr 8 min 39 sec) 
Heartbeat CPU 0 instructions: 285000001 cycles: 2928125941 heartbeat IPC: 0.150742 cumulative IPC: 0.0970048 (Simulation time: 1 hr 8 min 50 sec) 
Heartbeat CPU 0 instructions: 286000000 cycles: 2934965229 heartbeat IPC: 0.146214 cumulative IPC: 0.0971195 (Simulation time: 1 hr 9 min 2 sec) 
Heartbeat CPU 0 instructions: 287000002 cycles: 2946728419 heartbeat IPC: 0.0850111 cumulative IPC: 0.0970711 (Simulation time: 1 hr 9 min 17 sec) 
Heartbeat CPU 0 instructions: 288000000 cycles: 2958814615 heartbeat IPC: 0.0827389 cumulative IPC: 0.0970126 (Simulation time: 1 hr 9 min 33 sec) 
Heartbeat CPU 0 instructions: 289000001 cycles: 2965507728 heartbeat IPC: 0.149407 cumulative IPC: 0.0971308 (Simulation time: 1 hr 9 min 45 sec) 
Heartbeat CPU 0 instructions: 290000003 cycles: 2975734187 heartbeat IPC: 0.0977858 cumulative IPC: 0.0971331 (Simulation time: 1 hr 10 min 0 sec) 
Heartbeat CPU 0 instructions: 291000002 cycles: 2991429353 heartbeat IPC: 0.0637138 cumulative IPC: 0.0969577 (Simulation time: 1 hr 10 min 20 sec) 
Heartbeat CPU 0 instructions: 292000002 cycles: 3000166530 heartbeat IPC: 0.114453 cumulative IPC: 0.0970087 (Simulation time: 1 hr 10 min 34 sec) 
Heartbeat CPU 0 instructions: 293000000 cycles: 3012130147 heartbeat IPC: 0.0835866 cumulative IPC: 0.0969554 (Simulation time: 1 hr 10 min 50 sec) 
Heartbeat CPU 0 instructions: 294000001 cycles: 3021619590 heartbeat IPC: 0.10538 cumulative IPC: 0.0969818 (Simulation time: 1 hr 11 min 4 sec) 
Heartbeat CPU 0 instructions: 295000001 cycles: 3036396065 heartbeat IPC: 0.0676751 cumulative IPC: 0.0968392 (Simulation time: 1 hr 11 min 23 sec) 
Heartbeat CPU 0 instructions: 296000001 cycles: 3043819577 heartbeat IPC: 0.134707 cumulative IPC: 0.0969316 (Simulation time: 1 hr 11 min 36 sec) 
Heartbeat CPU 0 instructions: 297000000 cycles: 3050598925 heartbeat IPC: 0.147507 cumulative IPC: 0.097044 (Simulation time: 1 hr 11 min 47 sec) 
Heartbeat CPU 0 instructions: 298000001 cycles: 3067028380 heartbeat IPC: 0.0608664 cumulative IPC: 0.0968501 (Simulation time: 1 hr 12 min 7 sec) 
Heartbeat CPU 0 instructions: 299000001 cycles: 3078847257 heartbeat IPC: 0.0846104 cumulative IPC: 0.0968032 (Simulation time: 1 hr 12 min 22 sec) 
Heartbeat CPU 0 instructions: 300000000 cycles: 3085937981 heartbeat IPC: 0.141029 cumulative IPC: 0.0969048 (Simulation time: 1 hr 12 min 32 sec) 
Heartbeat CPU 0 instructions: 301000003 cycles: 3094005929 heartbeat IPC: 0.123948 cumulative IPC: 0.0969753 (Simulation time: 1 hr 12 min 43 sec) 
Heartbeat CPU 0 instructions: 302000001 cycles: 3110314520 heartbeat IPC: 0.0613173 cumulative IPC: 0.0967883 (Simulation time: 1 hr 13 min 3 sec) 
Heartbeat CPU 0 instructions: 303000000 cycles: 3117372283 heartbeat IPC: 0.141688 cumulative IPC: 0.09689 (Simulation time: 1 hr 13 min 13 sec) 
Heartbeat CPU 0 instructions: 304000001 cycles: 3125229742 heartbeat IPC: 0.127268 cumulative IPC: 0.0969664 (Simulation time: 1 hr 13 min 24 sec) 
Heartbeat CPU 0 instructions: 305000002 cycles: 3138298409 heartbeat IPC: 0.076519 cumulative IPC: 0.0968812 (Simulation time: 1 hr 13 min 41 sec) 
Heartbeat CPU 0 instructions: 306000001 cycles: 3149893599 heartbeat IPC: 0.0862426 cumulative IPC: 0.0968421 (Simulation time: 1 hr 13 min 57 sec) 
Heartbeat CPU 0 instructions: 307000002 cycles: 3156583359 heartbeat IPC: 0.149482 cumulative IPC: 0.0969536 (Simulation time: 1 hr 14 min 8 sec) 
Heartbeat CPU 0 instructions: 308000000 cycles: 3167892042 heartbeat IPC: 0.0884274 cumulative IPC: 0.0969232 (Simulation time: 1 hr 14 min 23 sec) 
Heartbeat CPU 0 instructions: 309000002 cycles: 3182040470 heartbeat IPC: 0.0706794 cumulative IPC: 0.0968065 (Simulation time: 1 hr 14 min 41 sec) 
Heartbeat CPU 0 instructions: 310000000 cycles: 3188625868 heartbeat IPC: 0.151851 cumulative IPC: 0.0969202 (Simulation time: 1 hr 14 min 53 sec) 
Heartbeat CPU 0 instructions: 311000000 cycles: 3198422600 heartbeat IPC: 0.102075 cumulative IPC: 0.096936 (Simulation time: 1 hr 15 min 7 sec) 
Heartbeat CPU 0 instructions: 312000002 cycles: 3214175045 heartbeat IPC: 0.0634823 cumulative IPC: 0.096772 (Simulation time: 1 hr 15 min 26 sec) 
Heartbeat CPU 0 instructions: 313000000 cycles: 3222481761 heartbeat IPC: 0.120384 cumulative IPC: 0.0968329 (Simulation time: 1 hr 15 min 39 sec) 
Heartbeat CPU 0 instructions: 314000001 cycles: 3229104972 heartbeat IPC: 0.150984 cumulative IPC: 0.096944 (Simulation time: 1 hr 15 min 51 sec) 
Heartbeat CPU 0 instructions: 315000002 cycles: 3241844160 heartbeat IPC: 0.078498 cumulative IPC: 0.0968715 (Simulation time: 1 hr 16 min 8 sec) 
Heartbeat CPU 0 instructions: 316000001 cycles: 3254228232 heartbeat IPC: 0.0807488 cumulative IPC: 0.0968101 (Simulation time: 1 hr 16 min 25 sec) 
Heartbeat CPU 0 instructions: 317000002 cycles: 3262388371 heartbeat IPC: 0.122547 cumulative IPC: 0.0968745 (Simulation time: 1 hr 16 min 38 sec) 
Heartbeat CPU 0 instructions: 318000001 cycles: 3271815366 heartbeat IPC: 0.106078 cumulative IPC: 0.096901 (Simulation time: 1 hr 16 min 52 sec) 
Heartbeat CPU 0 instructions: 319000000 cycles: 3287085273 heartbeat IPC: 0.0654882 cumulative IPC: 0.0967551 (Simulation time: 1 hr 17 min 11 sec) 
Heartbeat CPU 0 instructions: 320000000 cycles: 3294783133 heartbeat IPC: 0.129906 cumulative IPC: 0.0968325 (Simulation time: 1 hr 17 min 23 sec) 
Heartbeat CPU 0 instructions: 321000000 cycles: 3301960642 heartbeat IPC: 0.139324 cumulative IPC: 0.0969249 (Simulation time: 1 hr 17 min 33 sec) 
Heartbeat CPU 0 instructions: 322000002 cycles: 3315398580 heartbeat IPC: 0.0744163 cumulative IPC: 0.0968337 (Simulation time: 1 hr 17 min 49 sec) 
Heartbeat CPU 0 instructions: 323000001 cycles: 3326348912 heartbeat IPC: 0.0913213 cumulative IPC: 0.0968155 (Simulation time: 1 hr 18 min 3 sec) 
Heartbeat CPU 0 instructions: 324000000 cycles: 3333766194 heartbeat IPC: 0.13482 cumulative IPC: 0.0969001 (Simulation time: 1 hr 18 min 14 sec) 
Heartbeat CPU 0 instructions: 325000000 cycles: 3341945694 heartbeat IPC: 0.122257 cumulative IPC: 0.0969621 (Simulation time: 1 hr 18 min 26 sec) 
Heartbeat CPU 0 instructions: 326000000 cycles: 3357970538 heartbeat IPC: 0.0624031 cumulative IPC: 0.0967972 (Simulation time: 1 hr 18 min 45 sec) 
Heartbeat CPU 0 instructions: 327000000 cycles: 3364785288 heartbeat IPC: 0.146741 cumulative IPC: 0.0968984 (Simulation time: 1 hr 18 min 56 sec) 
Heartbeat CPU 0 instructions: 328000000 cycles: 3374224403 heartbeat IPC: 0.105942 cumulative IPC: 0.0969237 (Simulation time: 1 hr 19 min 8 sec) 
Heartbeat CPU 0 instructions: 329000000 cycles: 3387439717 heartbeat IPC: 0.0756698 cumulative IPC: 0.0968407 (Simulation time: 1 hr 19 min 25 sec) 
Heartbeat CPU 0 instructions: 330000000 cycles: 3398989467 heartbeat IPC: 0.086582 cumulative IPC: 0.0968059 (Simulation time: 1 hr 19 min 40 sec) 
Heartbeat CPU 0 instructions: 331000003 cycles: 3405672883 heartbeat IPC: 0.149625 cumulative IPC: 0.0969095 (Simulation time: 1 hr 19 min 50 sec) 
Heartbeat CPU 0 instructions: 332000000 cycles: 3413167269 heartbeat IPC: 0.133433 cumulative IPC: 0.0969897 (Simulation time: 1 hr 20 min 1 sec) 
Heartbeat CPU 0 instructions: 333000000 cycles: 3429711137 heartbeat IPC: 0.0604454 cumulative IPC: 0.0968134 (Simulation time: 1 hr 20 min 21 sec) 
Heartbeat CPU 0 instructions: 334000000 cycles: 3438159765 heartbeat IPC: 0.118362 cumulative IPC: 0.0968664 (Simulation time: 1 hr 20 min 33 sec) 
Heartbeat CPU 0 instructions: 335000000 cycles: 3444765702 heartbeat IPC: 0.151379 cumulative IPC: 0.096971 (Simulation time: 1 hr 20 min 44 sec) 
Heartbeat CPU 0 instructions: 336000002 cycles: 3457576348 heartbeat IPC: 0.0780602 cumulative IPC: 0.0969009 (Simulation time: 1 hr 21 min 0 sec) 
Heartbeat CPU 0 instructions: 337000001 cycles: 3468817291 heartbeat IPC: 0.0889604 cumulative IPC: 0.0968751 (Simulation time: 1 hr 21 min 16 sec) 
Heartbeat CPU 0 instructions: 338000000 cycles: 3475403633 heartbeat IPC: 0.151829 cumulative IPC: 0.0969793 (Simulation time: 1 hr 21 min 28 sec) 
Heartbeat CPU 0 instructions: 339000001 cycles: 3484623731 heartbeat IPC: 0.108459 cumulative IPC: 0.0970097 (Simulation time: 1 hr 21 min 41 sec) 
Heartbeat CPU 0 instructions: 340000001 cycles: 3499397320 heartbeat IPC: 0.0676884 cumulative IPC: 0.0968859 (Simulation time: 1 hr 21 min 59 sec) 
Heartbeat CPU 0 instructions: 341000000 cycles: 3506045391 heartbeat IPC: 0.150419 cumulative IPC: 0.0969874 (Simulation time: 1 hr 22 min 11 sec) 
Heartbeat CPU 0 instructions: 342000002 cycles: 3512548520 heartbeat IPC: 0.153772 cumulative IPC: 0.0970925 (Simulation time: 1 hr 22 min 22 sec) 
Heartbeat CPU 0 instructions: 343000003 cycles: 3529403822 heartbeat IPC: 0.0593286 cumulative IPC: 0.0969122 (Simulation time: 1 hr 22 min 42 sec) 
Heartbeat CPU 0 instructions: 344000000 cycles: 3536749688 heartbeat IPC: 0.136131 cumulative IPC: 0.0969936 (Simulation time: 1 hr 22 min 55 sec) 
Heartbeat CPU 0 instructions: 345000003 cycles: 3543363518 heartbeat IPC: 0.151199 cumulative IPC: 0.0970948 (Simulation time: 1 hr 23 min 7 sec) 
Heartbeat CPU 0 instructions: 346000000 cycles: 3557449666 heartbeat IPC: 0.0709915 cumulative IPC: 0.0969915 (Simulation time: 1 hr 23 min 24 sec) 
Heartbeat CPU 0 instructions: 347000000 cycles: 3567636157 heartbeat IPC: 0.0981692 cumulative IPC: 0.0969948 (Simulation time: 1 hr 23 min 40 sec) 
Heartbeat CPU 0 instructions: 348000002 cycles: 3574294559 heartbeat IPC: 0.150186 cumulative IPC: 0.0970939 (Simulation time: 1 hr 23 min 51 sec) 
Heartbeat CPU 0 instructions: 349000001 cycles: 3586114886 heartbeat IPC: 0.0845999 cumulative IPC: 0.0970527 (Simulation time: 1 hr 24 min 7 sec) 
Heartbeat CPU 0 instructions: 350000002 cycles: 3598826509 heartbeat IPC: 0.0786682 cumulative IPC: 0.0969878 (Simulation time: 1 hr 24 min 25 sec) 
Heartbeat CPU 0 instructions: 351000002 cycles: 3605889972 heartbeat IPC: 0.141574 cumulative IPC: 0.0970751 (Simulation time: 1 hr 24 min 37 sec) 
Heartbeat CPU 0 instructions: 352000000 cycles: 3615491773 heartbeat IPC: 0.104147 cumulative IPC: 0.0970939 (Simulation time: 1 hr 24 min 50 sec) 
Heartbeat CPU 0 instructions: 353000002 cycles: 3630281619 heartbeat IPC: 0.0676141 cumulative IPC: 0.0969738 (Simulation time: 1 hr 25 min 9 sec) 
Heartbeat CPU 0 instructions: 354000000 cycles: 3637149675 heartbeat IPC: 0.145601 cumulative IPC: 0.0970656 (Simulation time: 1 hr 25 min 21 sec) 
Heartbeat CPU 0 instructions: 355000000 cycles: 3644601988 heartbeat IPC: 0.134187 cumulative IPC: 0.0971415 (Simulation time: 1 hr 25 min 33 sec) 
Heartbeat CPU 0 instructions: 356000002 cycles: 3661172947 heartbeat IPC: 0.0603467 cumulative IPC: 0.096975 (Simulation time: 1 hr 25 min 53 sec) 
Heartbeat CPU 0 instructions: 357000000 cycles: 3668274871 heartbeat IPC: 0.140807 cumulative IPC: 0.0970599 (Simulation time: 1 hr 26 min 5 sec) 
Heartbeat CPU 0 instructions: 358000001 cycles: 3674741482 heartbeat IPC: 0.154641 cumulative IPC: 0.0971612 (Simulation time: 1 hr 26 min 16 sec) 
Heartbeat CPU 0 instructions: 359000002 cycles: 3688861878 heartbeat IPC: 0.0708196 cumulative IPC: 0.0970604 (Simulation time: 1 hr 26 min 33 sec) 
Heartbeat CPU 0 instructions: 360000000 cycles: 3700360940 heartbeat IPC: 0.0869634 cumulative IPC: 0.097029 (Simulation time: 1 hr 26 min 49 sec) 
Heartbeat CPU 0 instructions: 361000000 cycles: 3707753558 heartbeat IPC: 0.13527 cumulative IPC: 0.0971052 (Simulation time: 1 hr 27 min 1 sec) 
Heartbeat CPU 0 instructions: 362000002 cycles: 3715814458 heartbeat IPC: 0.124056 cumulative IPC: 0.0971637 (Simulation time: 1 hr 27 min 13 sec) 
Heartbeat CPU 0 instructions: 363000000 cycles: 3731594820 heartbeat IPC: 0.0633698 cumulative IPC: 0.0970208 (Simulation time: 1 hr 27 min 31 sec) 
Heartbeat CPU 0 instructions: 364000000 cycles: 3738209723 heartbeat IPC: 0.151174 cumulative IPC: 0.0971166 (Simulation time: 1 hr 27 min 43 sec) 
Heartbeat CPU 0 instructions: 365000000 cycles: 3744646192 heartbeat IPC: 0.155365 cumulative IPC: 0.0972167 (Simulation time: 1 hr 27 min 54 sec) 
Heartbeat CPU 0 instructions: 366000002 cycles: 3759292894 heartbeat IPC: 0.0682749 cumulative IPC: 0.097104 (Simulation time: 1 hr 28 min 12 sec) 
Heartbeat CPU 0 instructions: 367000002 cycles: 3768880646 heartbeat IPC: 0.1043 cumulative IPC: 0.0971223 (Simulation time: 1 hr 28 min 26 sec) 
Heartbeat CPU 0 instructions: 368000002 cycles: 3775323570 heartbeat IPC: 0.155209 cumulative IPC: 0.0972214 (Simulation time: 1 hr 28 min 37 sec) 
Heartbeat CPU 0 instructions: 369000001 cycles: 3785613795 heartbeat IPC: 0.0971795 cumulative IPC: 0.0972213 (Simulation time: 1 hr 28 min 51 sec) 
Heartbeat CPU 0 instructions: 370000000 cycles: 3799351380 heartbeat IPC: 0.0727929 cumulative IPC: 0.097133 (Simulation time: 1 hr 29 min 9 sec) 
Heartbeat CPU 0 instructions: 371000002 cycles: 3806540758 heartbeat IPC: 0.139094 cumulative IPC: 0.0972122 (Simulation time: 1 hr 29 min 21 sec) 
Heartbeat CPU 0 instructions: 372000000 cycles: 3816882536 heartbeat IPC: 0.096695 cumulative IPC: 0.0972108 (Simulation time: 1 hr 29 min 33 sec) 
Heartbeat CPU 0 instructions: 373000003 cycles: 3828129379 heartbeat IPC: 0.0889141 cumulative IPC: 0.0971864 (Simulation time: 1 hr 29 min 47 sec) 
Heartbeat CPU 0 instructions: 374000000 cycles: 3841439575 heartbeat IPC: 0.0751301 cumulative IPC: 0.09711 (Simulation time: 1 hr 30 min 4 sec) 
Heartbeat CPU 0 instructions: 375000001 cycles: 3849056321 heartbeat IPC: 0.13129 cumulative IPC: 0.0971777 (Simulation time: 1 hr 30 min 14 sec) 
Heartbeat CPU 0 instructions: 376000000 cycles: 3855678242 heartbeat IPC: 0.151013 cumulative IPC: 0.0972701 (Simulation time: 1 hr 30 min 24 sec) 
Heartbeat CPU 0 instructions: 377000000 cycles: 3868677976 heartbeat IPC: 0.0769247 cumulative IPC: 0.0972018 (Simulation time: 1 hr 30 min 40 sec) 
Heartbeat CPU 0 instructions: 378000001 cycles: 3879986898 heartbeat IPC: 0.0884258 cumulative IPC: 0.0971762 (Simulation time: 1 hr 30 min 55 sec) 
Heartbeat CPU 0 instructions: 379000000 cycles: 3888360072 heartbeat IPC: 0.119429 cumulative IPC: 0.0972241 (Simulation time: 1 hr 31 min 6 sec) 
Heartbeat CPU 0 instructions: 380000003 cycles: 3894923034 heartbeat IPC: 0.152371 cumulative IPC: 0.097317 (Simulation time: 1 hr 31 min 18 sec) 
Heartbeat CPU 0 instructions: 381000003 cycles: 3911228228 heartbeat IPC: 0.0613302 cumulative IPC: 0.097167 (Simulation time: 1 hr 31 min 38 sec) 
Heartbeat CPU 0 instructions: 382000000 cycles: 3919197439 heartbeat IPC: 0.125483 cumulative IPC: 0.0972246 (Simulation time: 1 hr 31 min 52 sec) 
Heartbeat CPU 0 instructions: 383000000 cycles: 3925415216 heartbeat IPC: 0.160829 cumulative IPC: 0.0973253 (Simulation time: 1 hr 32 min 4 sec) 
Heartbeat CPU 0 instructions: 384000000 cycles: 3937346040 heartbeat IPC: 0.0838165 cumulative IPC: 0.0972844 (Simulation time: 1 hr 32 min 20 sec) 
Heartbeat CPU 0 instructions: 385000000 cycles: 3949312433 heartbeat IPC: 0.0835674 cumulative IPC: 0.0972428 (Simulation time: 1 hr 32 min 37 sec) 
Heartbeat CPU 0 instructions: 386000001 cycles: 3955541718 heartbeat IPC: 0.160532 cumulative IPC: 0.0973425 (Simulation time: 1 hr 32 min 48 sec) 
Heartbeat CPU 0 instructions: 387000003 cycles: 3963182415 heartbeat IPC: 0.130878 cumulative IPC: 0.0974072 (Simulation time: 1 hr 33 min 0 sec) 
Heartbeat CPU 0 instructions: 388000002 cycles: 3979172318 heartbeat IPC: 0.0625394 cumulative IPC: 0.097267 (Simulation time: 1 hr 33 min 19 sec) 
Heartbeat CPU 0 instructions: 389000002 cycles: 3985660660 heartbeat IPC: 0.154123 cumulative IPC: 0.0973596 (Simulation time: 1 hr 33 min 31 sec) 
Heartbeat CPU 0 instructions: 390000003 cycles: 3992055953 heartbeat IPC: 0.156365 cumulative IPC: 0.0974542 (Simulation time: 1 hr 33 min 43 sec) 
Heartbeat CPU 0 instructions: 391000003 cycles: 4006570248 heartbeat IPC: 0.0688976 cumulative IPC: 0.0973507 (Simulation time: 1 hr 34 min 0 sec) 
Heartbeat CPU 0 instructions: 392000000 cycles: 4015944696 heartbeat IPC: 0.106673 cumulative IPC: 0.0973724 (Simulation time: 1 hr 34 min 15 sec) 
Heartbeat CPU 0 instructions: 393000003 cycles: 4022069770 heartbeat IPC: 0.163264 cumulative IPC: 0.0974728 (Simulation time: 1 hr 34 min 26 sec) 
Heartbeat CPU 0 instructions: 394000003 cycles: 4032178500 heartbeat IPC: 0.0989244 cumulative IPC: 0.0974764 (Simulation time: 1 hr 34 min 41 sec) 
Heartbeat CPU 0 instructions: 395000000 cycles: 4045761602 heartbeat IPC: 0.0736207 cumulative IPC: 0.0973963 (Simulation time: 1 hr 34 min 58 sec) 
Heartbeat CPU 0 instructions: 396000000 cycles: 4052099863 heartbeat IPC: 0.157772 cumulative IPC: 0.0974908 (Simulation time: 1 hr 35 min 10 sec) 
Heartbeat CPU 0 instructions: 397000000 cycles: 4058759816 heartbeat IPC: 0.150151 cumulative IPC: 0.0975772 (Simulation time: 1 hr 35 min 21 sec) 
Heartbeat CPU 0 instructions: 398000002 cycles: 4074379116 heartbeat IPC: 0.0640235 cumulative IPC: 0.0974486 (Simulation time: 1 hr 35 min 40 sec) 
Heartbeat CPU 0 instructions: 399000002 cycles: 4083209307 heartbeat IPC: 0.113248 cumulative IPC: 0.0974827 (Simulation time: 1 hr 35 min 53 sec) 
Heartbeat CPU 0 instructions: 400000000 cycles: 4089608370 heartbeat IPC: 0.156273 cumulative IPC: 0.0975747 (Simulation time: 1 hr 36 min 3 sec) 
Heartbeat CPU 0 instructions: 401000002 cycles: 4097698908 heartbeat IPC: 0.123601 cumulative IPC: 0.0976261 (Simulation time: 1 hr 36 min 14 sec) 
Heartbeat CPU 0 instructions: 402000001 cycles: 4113591098 heartbeat IPC: 0.0629239 cumulative IPC: 0.0974921 (Simulation time: 1 hr 36 min 34 sec) 
Heartbeat CPU 0 instructions: 403000000 cycles: 4120214925 heartbeat IPC: 0.15097 cumulative IPC: 0.097578 (Simulation time: 1 hr 36 min 44 sec) 
Heartbeat CPU 0 instructions: 404000000 cycles: 4126709739 heartbeat IPC: 0.153969 cumulative IPC: 0.0976668 (Simulation time: 1 hr 36 min 54 sec) 
Heartbeat CPU 0 instructions: 405000002 cycles: 4137924312 heartbeat IPC: 0.0891699 cumulative IPC: 0.0976438 (Simulation time: 1 hr 37 min 9 sec) 
Heartbeat CPU 0 instructions: 406000000 cycles: 4151020332 heartbeat IPC: 0.0763589 cumulative IPC: 0.0975766 (Simulation time: 1 hr 37 min 26 sec) 
Heartbeat CPU 0 instructions: 407000000 cycles: 4157735892 heartbeat IPC: 0.148908 cumulative IPC: 0.0976595 (Simulation time: 1 hr 37 min 36 sec) 
Heartbeat CPU 0 instructions: 408000000 cycles: 4167831168 heartbeat IPC: 0.0990562 cumulative IPC: 0.0976629 (Simulation time: 1 hr 37 min 49 sec) 
Heartbeat CPU 0 instructions: 409000002 cycles: 4181655299 heartbeat IPC: 0.0723374 cumulative IPC: 0.0975792 (Simulation time: 1 hr 38 min 6 sec) 
Heartbeat CPU 0 instructions: 410000000 cycles: 4193038911 heartbeat IPC: 0.0878454 cumulative IPC: 0.0975527 (Simulation time: 1 hr 38 min 21 sec) 
Heartbeat CPU 0 instructions: 411000000 cycles: 4199857867 heartbeat IPC: 0.14665 cumulative IPC: 0.0976325 (Simulation time: 1 hr 38 min 32 sec) 
Heartbeat CPU 0 instructions: 412000000 cycles: 4208766679 heartbeat IPC: 0.112248 cumulative IPC: 0.0976634 (Simulation time: 1 hr 38 min 44 sec) 
Heartbeat CPU 0 instructions: 413000000 cycles: 4224333306 heartbeat IPC: 0.06424 cumulative IPC: 0.0975402 (Simulation time: 1 hr 39 min 3 sec) 
Heartbeat CPU 0 instructions: 414000002 cycles: 4231000272 heartbeat IPC: 0.149994 cumulative IPC: 0.0976229 (Simulation time: 1 hr 39 min 14 sec) 
Heartbeat CPU 0 instructions: 415000003 cycles: 4237352953 heartbeat IPC: 0.157414 cumulative IPC: 0.0977125 (Simulation time: 1 hr 39 min 25 sec) 
Heartbeat CPU 0 instructions: 416000001 cycles: 4251322008 heartbeat IPC: 0.0715867 cumulative IPC: 0.0976267 (Simulation time: 1 hr 39 min 43 sec) 
Heartbeat CPU 0 instructions: 417000000 cycles: 4261549937 heartbeat IPC: 0.0977714 cumulative IPC: 0.097627 (Simulation time: 1 hr 39 min 58 sec) 
Heartbeat CPU 0 instructions: 418000000 cycles: 4268286522 heartbeat IPC: 0.148443 cumulative IPC: 0.0977072 (Simulation time: 1 hr 40 min 9 sec) 
Heartbeat CPU 0 instructions: 419000003 cycles: 4279151643 heartbeat IPC: 0.0920379 cumulative IPC: 0.0976929 (Simulation time: 1 hr 40 min 24 sec) 
Heartbeat CPU 0 instructions: 420000000 cycles: 4292396772 heartbeat IPC: 0.0754992 cumulative IPC: 0.0976244 (Simulation time: 1 hr 40 min 42 sec) 
Heartbeat CPU 0 instructions: 421000000 cycles: 4299074288 heartbeat IPC: 0.149756 cumulative IPC: 0.0977053 (Simulation time: 1 hr 40 min 55 sec) 
Heartbeat CPU 0 instructions: 422000001 cycles: 4307129061 heartbeat IPC: 0.12415 cumulative IPC: 0.0977548 (Simulation time: 1 hr 41 min 8 sec) 
Heartbeat CPU 0 instructions: 423000001 cycles: 4324651904 heartbeat IPC: 0.0570684 cumulative IPC: 0.0975899 (Simulation time: 1 hr 41 min 28 sec) 
Heartbeat CPU 0 instructions: 424000002 cycles: 4333839970 heartbeat IPC: 0.108837 cumulative IPC: 0.0976138 (Simulation time: 1 hr 41 min 43 sec) 
Heartbeat CPU 0 instructions: 425000000 cycles: 4340187251 heartbeat IPC: 0.157547 cumulative IPC: 0.0977014 (Simulation time: 1 hr 41 min 55 sec) 
Heartbeat CPU 0 instructions: 426000000 cycles: 4352853603 heartbeat IPC: 0.0789493 cumulative IPC: 0.0976469 (Simulation time: 1 hr 42 min 11 sec) 
Heartbeat CPU 0 instructions: 427000000 cycles: 4364127706 heartbeat IPC: 0.0886988 cumulative IPC: 0.0976237 (Simulation time: 1 hr 42 min 28 sec) 
Heartbeat CPU 0 instructions: 428000000 cycles: 4370505732 heartbeat IPC: 0.156788 cumulative IPC: 0.0977101 (Simulation time: 1 hr 42 min 39 sec) 
Heartbeat CPU 0 instructions: 429000000 cycles: 4379245145 heartbeat IPC: 0.114424 cumulative IPC: 0.0977435 (Simulation time: 1 hr 42 min 53 sec) 
Heartbeat CPU 0 instructions: 430000001 cycles: 4395205352 heartbeat IPC: 0.0626559 cumulative IPC: 0.097616 (Simulation time: 1 hr 43 min 13 sec) 
Heartbeat CPU 0 instructions: 431000001 cycles: 4402072853 heartbeat IPC: 0.145613 cumulative IPC: 0.0976909 (Simulation time: 1 hr 43 min 24 sec) 
Heartbeat CPU 0 instructions: 432000000 cycles: 4408641722 heartbeat IPC: 0.152233 cumulative IPC: 0.0977722 (Simulation time: 1 hr 43 min 34 sec) 
Heartbeat CPU 0 instructions: 433000000 cycles: 4421874271 heartbeat IPC: 0.0755712 cumulative IPC: 0.0977057 (Simulation time: 1 hr 43 min 51 sec) 
Heartbeat CPU 0 instructions: 434000002 cycles: 4433093820 heartbeat IPC: 0.0891303 cumulative IPC: 0.097684 (Simulation time: 1 hr 44 min 6 sec) 
Heartbeat CPU 0 instructions: 435000003 cycles: 4439956329 heartbeat IPC: 0.145719 cumulative IPC: 0.0977583 (Simulation time: 1 hr 44 min 17 sec) 
Heartbeat CPU 0 instructions: 436000000 cycles: 4448974730 heartbeat IPC: 0.110884 cumulative IPC: 0.0977849 (Simulation time: 1 hr 44 min 29 sec) 
Heartbeat CPU 0 instructions: 437000001 cycles: 4465650208 heartbeat IPC: 0.0599684 cumulative IPC: 0.0976437 (Simulation time: 1 hr 44 min 51 sec) 
Heartbeat CPU 0 instructions: 438000000 cycles: 4472957359 heartbeat IPC: 0.136852 cumulative IPC: 0.0977077 (Simulation time: 1 hr 45 min 2 sec) 
Heartbeat CPU 0 instructions: 439000002 cycles: 4479947690 heartbeat IPC: 0.143055 cumulative IPC: 0.0977785 (Simulation time: 1 hr 45 min 12 sec) 
Heartbeat CPU 0 instructions: 440000000 cycles: 4493464192 heartbeat IPC: 0.0739835 cumulative IPC: 0.0977069 (Simulation time: 1 hr 45 min 29 sec) 
Heartbeat CPU 0 instructions: 441000001 cycles: 4504439590 heartbeat IPC: 0.091113 cumulative IPC: 0.0976909 (Simulation time: 1 hr 45 min 44 sec) 
Heartbeat CPU 0 instructions: 442000000 cycles: 4511934310 heartbeat IPC: 0.133427 cumulative IPC: 0.0977502 (Simulation time: 1 hr 45 min 56 sec) 
Heartbeat CPU 0 instructions: 443000003 cycles: 4520984041 heartbeat IPC: 0.110501 cumulative IPC: 0.0977757 (Simulation time: 1 hr 46 min 10 sec) 
Heartbeat CPU 0 instructions: 444000003 cycles: 4536366392 heartbeat IPC: 0.0650096 cumulative IPC: 0.0976646 (Simulation time: 1 hr 46 min 29 sec) 
Heartbeat CPU 0 instructions: 445000000 cycles: 4543171017 heartbeat IPC: 0.146958 cumulative IPC: 0.0977385 (Simulation time: 1 hr 46 min 42 sec) 
Heartbeat CPU 0 instructions: 446000003 cycles: 4551913582 heartbeat IPC: 0.114383 cumulative IPC: 0.0977704 (Simulation time: 1 hr 46 min 55 sec) 
Heartbeat CPU 0 instructions: 447000000 cycles: 4567383022 heartbeat IPC: 0.0646434 cumulative IPC: 0.0976582 (Simulation time: 1 hr 47 min 14 sec) 
Heartbeat CPU 0 instructions: 448000002 cycles: 4577448128 heartbeat IPC: 0.0993534 cumulative IPC: 0.0976619 (Simulation time: 1 hr 47 min 29 sec) 
Heartbeat CPU 0 instructions: 449000002 cycles: 4588047697 heartbeat IPC: 0.0943435 cumulative IPC: 0.0976543 (Simulation time: 1 hr 47 min 44 sec) 
Heartbeat CPU 0 instructions: 450000002 cycles: 4598540473 heartbeat IPC: 0.0953037 cumulative IPC: 0.0976489 (Simulation time: 1 hr 48 min 0 sec) 

Warmup complete CPU 0 instructions: 450000002 cycles: 4598540473 (Simulation time: 1 hr 48 min 0 sec) 

Heartbeat CPU 0 instructions: 451000000 cycles: 4608446830 heartbeat IPC: 0.100945 cumulative IPC: 0.100945 (Simulation time: 1 hr 48 min 15 sec) 
Heartbeat CPU 0 instructions: 452000003 cycles: 4617168630 heartbeat IPC: 0.114656 cumulative IPC: 0.107364 (Simulation time: 1 hr 48 min 30 sec) 
Heartbeat CPU 0 instructions: 453000000 cycles: 4623762160 heartbeat IPC: 0.151663 cumulative IPC: 0.118945 (Simulation time: 1 hr 48 min 42 sec) 
Heartbeat CPU 0 instructions: 454000003 cycles: 4633688640 heartbeat IPC: 0.100741 cumulative IPC: 0.113804 (Simulation time: 1 hr 48 min 57 sec) 
Heartbeat CPU 0 instructions: 455000001 cycles: 4641289722 heartbeat IPC: 0.13156 cumulative IPC: 0.116961 (Simulation time: 1 hr 49 min 11 sec) 
Heartbeat CPU 0 instructions: 456000000 cycles: 4647678472 heartbeat IPC: 0.156525 cumulative IPC: 0.122105 (Simulation time: 1 hr 49 min 22 sec) 
Heartbeat CPU 0 instructions: 457000002 cycles: 4656868083 heartbeat IPC: 0.108819 cumulative IPC: 0.120012 (Simulation time: 1 hr 49 min 36 sec) 
Heartbeat CPU 0 instructions: 458000002 cycles: 4665146656 heartbeat IPC: 0.120794 cumulative IPC: 0.120109 (Simulation time: 1 hr 49 min 51 sec) 
Heartbeat CPU 0 instructions: 459000002 cycles: 4671445730 heartbeat IPC: 0.158753 cumulative IPC: 0.123448 (Simulation time: 1 hr 50 min 3 sec) 
Heartbeat CPU 0 instructions: 460000000 cycles: 4679438010 heartbeat IPC: 0.12512 cumulative IPC: 0.123613 (Simulation time: 1 hr 50 min 17 sec) 
Heartbeat CPU 0 instructions: 461000002 cycles: 4688771546 heartbeat IPC: 0.107141 cumulative IPC: 0.121909 (Simulation time: 1 hr 50 min 32 sec) 
Heartbeat CPU 0 instructions: 462000000 cycles: 4695023752 heartbeat IPC: 0.159943 cumulative IPC: 0.124374 (Simulation time: 1 hr 50 min 44 sec) 
Heartbeat CPU 0 instructions: 463000000 cycles: 4701766051 heartbeat IPC: 0.148317 cumulative IPC: 0.125938 (Simulation time: 1 hr 50 min 56 sec) 
Heartbeat CPU 0 instructions: 464000002 cycles: 4712155187 heartbeat IPC: 0.0962546 cumulative IPC: 0.123223 (Simulation time: 1 hr 51 min 12 sec) 
Heartbeat CPU 0 instructions: 465000000 cycles: 4719373633 heartbeat IPC: 0.138534 cumulative IPC: 0.124138 (Simulation time: 1 hr 51 min 25 sec) 
Heartbeat CPU 0 instructions: 466000001 cycles: 4728337303 heartbeat IPC: 0.111562 cumulative IPC: 0.12327 (Simulation time: 1 hr 51 min 40 sec) 
Heartbeat CPU 0 instructions: 467000000 cycles: 4736746436 heartbeat IPC: 0.118918 cumulative IPC: 0.123005 (Simulation time: 1 hr 51 min 54 sec) 
Heartbeat CPU 0 instructions: 468000001 cycles: 4745743766 heartbeat IPC: 0.111144 cumulative IPC: 0.12228 (Simulation time: 1 hr 52 min 9 sec) 
Heartbeat CPU 0 instructions: 469000003 cycles: 4753082689 heartbeat IPC: 0.13626 cumulative IPC: 0.122944 (Simulation time: 1 hr 52 min 21 sec) 
Heartbeat CPU 0 instructions: 470000003 cycles: 4759963611 heartbeat IPC: 0.145329 cumulative IPC: 0.123898 (Simulation time: 1 hr 52 min 33 sec) 
Heartbeat CPU 0 instructions: 471000001 cycles: 4769820055 heartbeat IPC: 0.101456 cumulative IPC: 0.122607 (Simulation time: 1 hr 52 min 48 sec) 
Heartbeat CPU 0 instructions: 472000001 cycles: 4777586966 heartbeat IPC: 0.128751 cumulative IPC: 0.122873 (Simulation time: 1 hr 53 min 1 sec) 
Heartbeat CPU 0 instructions: 473000000 cycles: 4786700441 heartbeat IPC: 0.109728 cumulative IPC: 0.122236 (Simulation time: 1 hr 53 min 16 sec) 
Heartbeat CPU 0 instructions: 474000001 cycles: 4794293807 heartbeat IPC: 0.131694 cumulative IPC: 0.122603 (Simulation time: 1 hr 53 min 29 sec) 
Heartbeat CPU 0 instructions: 475000000 cycles: 4804083590 heartbeat IPC: 0.102147 cumulative IPC: 0.121629 (Simulation time: 1 hr 53 min 44 sec) 
Heartbeat CPU 0 instructions: 476000001 cycles: 4810442651 heartbeat IPC: 0.157256 cumulative IPC: 0.122698 (Simulation time: 1 hr 53 min 58 sec) 
Heartbeat CPU 0 instructions: 477000002 cycles: 4817008830 heartbeat IPC: 0.152296 cumulative IPC: 0.123588 (Simulation time: 1 hr 54 min 10 sec) 
Heartbeat CPU 0 instructions: 478000002 cycles: 4827638789 heartbeat IPC: 0.0940737 cumulative IPC: 0.122218 (Simulation time: 1 hr 54 min 26 sec) 
Heartbeat CPU 0 instructions: 479000001 cycles: 4834094320 heartbeat IPC: 0.154906 cumulative IPC: 0.123114 (Simulation time: 1 hr 54 min 38 sec) 
Heartbeat CPU 0 instructions: 480000000 cycles: 4842777727 heartbeat IPC: 0.115162 cumulative IPC: 0.122831 (Simulation time: 1 hr 54 min 52 sec) 
Heartbeat CPU 0 instructions: 481000003 cycles: 4851704317 heartbeat IPC: 0.112025 cumulative IPC: 0.12245 (Simulation time: 1 hr 55 min 8 sec) 
Heartbeat CPU 0 instructions: 482000000 cycles: 4861230766 heartbeat IPC: 0.104971 cumulative IPC: 0.121816 (Simulation time: 1 hr 55 min 23 sec) 
Heartbeat CPU 0 instructions: 483000000 cycles: 4868348284 heartbeat IPC: 0.140498 cumulative IPC: 0.122309 (Simulation time: 1 hr 55 min 36 sec) 
Heartbeat CPU 0 instructions: 484000000 cycles: 4877765822 heartbeat IPC: 0.106185 cumulative IPC: 0.121765 (Simulation time: 1 hr 55 min 51 sec) 
Heartbeat CPU 0 instructions: 485000002 cycles: 4887211845 heartbeat IPC: 0.105865 cumulative IPC: 0.121245 (Simulation time: 1 hr 56 min 6 sec) 
Heartbeat CPU 0 instructions: 486000000 cycles: 4895048298 heartbeat IPC: 0.127608 cumulative IPC: 0.121413 (Simulation time: 1 hr 56 min 20 sec) 
Heartbeat CPU 0 instructions: 487000002 cycles: 4901568835 heartbeat IPC: 0.153362 cumulative IPC: 0.122101 (Simulation time: 1 hr 56 min 32 sec) 
Heartbeat CPU 0 instructions: 488000000 cycles: 4910343628 heartbeat IPC: 0.113963 cumulative IPC: 0.121872 (Simulation time: 1 hr 56 min 46 sec) 
Heartbeat CPU 0 instructions: 489000000 cycles: 4919206996 heartbeat IPC: 0.112824 cumulative IPC: 0.121622 (Simulation time: 1 hr 57 min 0 sec) 
Heartbeat CPU 0 instructions: 490000001 cycles: 4925586504 heartbeat IPC: 0.156752 cumulative IPC: 0.122307 (Simulation time: 1 hr 57 min 13 sec) 
Heartbeat CPU 0 instructions: 491000000 cycles: 4933466992 heartbeat IPC: 0.126896 cumulative IPC: 0.122415 (Simulation time: 1 hr 57 min 26 sec) 
Heartbeat CPU 0 instructions: 492000003 cycles: 4943192958 heartbeat IPC: 0.102818 cumulative IPC: 0.121862 (Simulation time: 1 hr 57 min 41 sec) 
Heartbeat CPU 0 instructions: 493000000 cycles: 4949943753 heartbeat IPC: 0.14813 cumulative IPC: 0.122367 (Simulation time: 1 hr 57 min 54 sec) 
Heartbeat CPU 0 instructions: 494000003 cycles: 4956722188 heartbeat IPC: 0.147527 cumulative IPC: 0.122843 (Simulation time: 1 hr 58 min 7 sec) 
Heartbeat CPU 0 instructions: 495000000 cycles: 4967158011 heartbeat IPC: 0.0958235 cumulative IPC: 0.122078 (Simulation time: 1 hr 58 min 22 sec) 
Heartbeat CPU 0 instructions: 496000001 cycles: 4973759125 heartbeat IPC: 0.15149 cumulative IPC: 0.122595 (Simulation time: 1 hr 58 min 35 sec) 
Heartbeat CPU 0 instructions: 497000001 cycles: 4980149186 heartbeat IPC: 0.156493 cumulative IPC: 0.123163 (Simulation time: 1 hr 58 min 47 sec) 
Heartbeat CPU 0 instructions: 498000000 cycles: 4990043955 heartbeat IPC: 0.101063 cumulative IPC: 0.122604 (Simulation time: 1 hr 59 min 2 sec) 
Heartbeat CPU 0 instructions: 499000000 cycles: 4998272201 heartbeat IPC: 0.121533 cumulative IPC: 0.122582 (Simulation time: 1 hr 59 min 16 sec) 
Heartbeat CPU 0 instructions: 500000000 cycles: 5005041995 heartbeat IPC: 0.147715 cumulative IPC: 0.123001 (Simulation time: 1 hr 59 min 29 sec) 
Heartbeat CPU 0 instructions: 501000001 cycles: 5013385048 heartbeat IPC: 0.11986 cumulative IPC: 0.122938 (Simulation time: 1 hr 59 min 42 sec) 
Heartbeat CPU 0 instructions: 502000002 cycles: 5022327888 heartbeat IPC: 0.111821 cumulative IPC: 0.122703 (Simulation time: 1 hr 59 min 56 sec) 
Heartbeat CPU 0 instructions: 503000001 cycles: 5028576392 heartbeat IPC: 0.160038 cumulative IPC: 0.123246 (Simulation time: 2 hr 0 min 8 sec) 
Heartbeat CPU 0 instructions: 504000000 cycles: 5036042259 heartbeat IPC: 0.133943 cumulative IPC: 0.123428 (Simulation time: 2 hr 0 min 21 sec) 
Heartbeat CPU 0 instructions: 505000001 cycles: 5045871090 heartbeat IPC: 0.101742 cumulative IPC: 0.122952 (Simulation time: 2 hr 0 min 36 sec) 
Heartbeat CPU 0 instructions: 506000000 cycles: 5052256372 heartbeat IPC: 0.15661 cumulative IPC: 0.123425 (Simulation time: 2 hr 0 min 49 sec) 
Heartbeat CPU 0 instructions: 507000001 cycles: 5058944156 heartbeat IPC: 0.149527 cumulative IPC: 0.123804 (Simulation time: 2 hr 1 min 1 sec) 
Heartbeat CPU 0 instructions: 508000002 cycles: 5069321303 heartbeat IPC: 0.0963657 cumulative IPC: 0.1232 (Simulation time: 2 hr 1 min 17 sec) 
Heartbeat CPU 0 instructions: 509000001 cycles: 5075849423 heartbeat IPC: 0.153183 cumulative IPC: 0.12361 (Simulation time: 2 hr 1 min 30 sec) 
Heartbeat CPU 0 instructions: 510000000 cycles: 5083489293 heartbeat IPC: 0.130892 cumulative IPC: 0.123724 (Simulation time: 2 hr 1 min 44 sec) 
Heartbeat CPU 0 instructions: 511000000 cycles: 5092876491 heartbeat IPC: 0.106528 cumulative IPC: 0.123398 (Simulation time: 2 hr 1 min 59 sec) 
Heartbeat CPU 0 instructions: 512000000 cycles: 5100975090 heartbeat IPC: 0.123478 cumulative IPC: 0.123399 (Simulation time: 2 hr 2 min 13 sec) 
Heartbeat CPU 0 instructions: 513000000 cycles: 5107668768 heartbeat IPC: 0.149395 cumulative IPC: 0.123741 (Simulation time: 2 hr 2 min 25 sec) 
Heartbeat CPU 0 instructions: 514000000 cycles: 5115349758 heartbeat IPC: 0.130192 cumulative IPC: 0.123837 (Simulation time: 2 hr 2 min 37 sec) 
Heartbeat CPU 0 instructions: 515000002 cycles: 5125290069 heartbeat IPC: 0.100601 cumulative IPC: 0.123398 (Simulation time: 2 hr 2 min 51 sec) 
Heartbeat CPU 0 instructions: 516000000 cycles: 5132157844 heartbeat IPC: 0.145607 cumulative IPC: 0.123684 (Simulation time: 2 hr 3 min 1 sec) 
Heartbeat CPU 0 instructions: 517000000 cycles: 5139028807 heartbeat IPC: 0.14554 cumulative IPC: 0.123962 (Simulation time: 2 hr 3 min 11 sec) 
Heartbeat CPU 0 instructions: 518000003 cycles: 5148526019 heartbeat IPC: 0.105294 cumulative IPC: 0.12364 (Simulation time: 2 hr 3 min 24 sec) 
Heartbeat CPU 0 instructions: 519000001 cycles: 5157186864 heartbeat IPC: 0.115462 cumulative IPC: 0.123513 (Simulation time: 2 hr 3 min 37 sec) 
Heartbeat CPU 0 instructions: 520000002 cycles: 5163977358 heartbeat IPC: 0.147265 cumulative IPC: 0.123798 (Simulation time: 2 hr 3 min 46 sec) 
Heartbeat CPU 0 instructions: 521000003 cycles: 5171031338 heartbeat IPC: 0.141764 cumulative IPC: 0.124019 (Simulation time: 2 hr 3 min 56 sec) 
Heartbeat CPU 0 instructions: 522000001 cycles: 5181719545 heartbeat IPC: 0.0935609 cumulative IPC: 0.123461 (Simulation time: 2 hr 4 min 12 sec) 
Heartbeat CPU 0 instructions: 523000000 cycles: 5189157252 heartbeat IPC: 0.13445 cumulative IPC: 0.1236 (Simulation time: 2 hr 4 min 22 sec) 
Heartbeat CPU 0 instructions: 524000000 cycles: 5196078478 heartbeat IPC: 0.144483 cumulative IPC: 0.123841 (Simulation time: 2 hr 4 min 32 sec) 
Heartbeat CPU 0 instructions: 525000001 cycles: 5204605592 heartbeat IPC: 0.117273 cumulative IPC: 0.123749 (Simulation time: 2 hr 4 min 45 sec) 
Heartbeat CPU 0 instructions: 526000001 cycles: 5214132698 heartbeat IPC: 0.104964 cumulative IPC: 0.123458 (Simulation time: 2 hr 4 min 58 sec) 
Heartbeat CPU 0 instructions: 527000002 cycles: 5221072729 heartbeat IPC: 0.144092 cumulative IPC: 0.123688 (Simulation time: 2 hr 5 min 8 sec) 
Heartbeat CPU 0 instructions: 528000000 cycles: 5227899045 heartbeat IPC: 0.146492 cumulative IPC: 0.123936 (Simulation time: 2 hr 5 min 17 sec) 
Heartbeat CPU 0 instructions: 529000001 cycles: 5238390742 heartbeat IPC: 0.0953136 cumulative IPC: 0.123466 (Simulation time: 2 hr 5 min 32 sec) 
Heartbeat CPU 0 instructions: 530000003 cycles: 5246665326 heartbeat IPC: 0.120852 cumulative IPC: 0.123433 (Simulation time: 2 hr 5 min 44 sec) 
Heartbeat CPU 0 instructions: 531000002 cycles: 5253173209 heartbeat IPC: 0.15366 cumulative IPC: 0.123733 (Simulation time: 2 hr 5 min 56 sec) 
Heartbeat CPU 0 instructions: 532000000 cycles: 5260997016 heartbeat IPC: 0.127815 cumulative IPC: 0.123782 (Simulation time: 2 hr 6 min 9 sec) 
Heartbeat CPU 0 instructions: 533000002 cycles: 5270793484 heartbeat IPC: 0.102078 cumulative IPC: 0.123465 (Simulation time: 2 hr 6 min 23 sec) 
Heartbeat CPU 0 instructions: 534000000 cycles: 5277236491 heartbeat IPC: 0.155207 cumulative IPC: 0.123767 (Simulation time: 2 hr 6 min 35 sec) 
Heartbeat CPU 0 instructions: 535000003 cycles: 5283918117 heartbeat IPC: 0.149665 cumulative IPC: 0.124019 (Simulation time: 2 hr 6 min 47 sec) 
Heartbeat CPU 0 instructions: 536000002 cycles: 5294565395 heartbeat IPC: 0.0939206 cumulative IPC: 0.123559 (Simulation time: 2 hr 7 min 2 sec) 
Heartbeat CPU 0 instructions: 537000001 cycles: 5301359180 heartbeat IPC: 0.147193 cumulative IPC: 0.123787 (Simulation time: 2 hr 7 min 15 sec) 
Heartbeat CPU 0 instructions: 538000000 cycles: 5307860598 heartbeat IPC: 0.153812 cumulative IPC: 0.124062 (Simulation time: 2 hr 7 min 27 sec) 
Heartbeat CPU 0 instructions: 539000000 cycles: 5317892759 heartbeat IPC: 0.0996794 cumulative IPC: 0.123722 (Simulation time: 2 hr 7 min 42 sec) 
[...]
Heartbeat CPU 0 instructions: 835000000 cycles: 7626613461 heartbeat IPC: 0.0962554 cumulative IPC: 0.127144 (Simulation time: 3 hr 13 min 28 sec) 
Heartbeat CPU 0 instructions: 836000000 cycles: 7632839568 heartbeat IPC: 0.160614 cumulative IPC: 0.127212 (Simulation time: 3 hr 13 min 40 sec) 
Heartbeat CPU 0 instructions: 837000000 cycles: 7638669150 heartbeat IPC: 0.171539 cumulative IPC: 0.127297 (Simulation time: 3 hr 13 min 51 sec) 
Heartbeat CPU 0 instructions: 838000000 cycles: 7646635353 heartbeat IPC: 0.12553 cumulative IPC: 0.127293 (Simulation time: 3 hr 14 min 4 sec) 
Heartbeat CPU 0 instructions: 839000000 cycles: 7655580860 heartbeat IPC: 0.111788 cumulative IPC: 0.127247 (Simulation time: 3 hr 14 min 18 sec) 
Heartbeat CPU 0 instructions: 840000003 cycles: 7661480873 heartbeat IPC: 0.169492 cumulative IPC: 0.127329 (Simulation time: 3 hr 14 min 29 sec) 
Heartbeat CPU 0 instructions: 841000000 cycles: 7667233810 heartbeat IPC: 0.173824 cumulative IPC: 0.127416 (Simulation time: 3 hr 14 min 40 sec) 
Heartbeat CPU 0 instructions: 842000000 cycles: 7677179534 heartbeat IPC: 0.100546 cumulative IPC: 0.127329 (Simulation time: 3 hr 14 min 56 sec) 
Heartbeat CPU 0 instructions: 843000002 cycles: 7684052747 heartbeat IPC: 0.145493 cumulative IPC: 0.127369 (Simulation time: 3 hr 15 min 8 sec) 
Heartbeat CPU 0 instructions: 844000001 cycles: 7689956575 heartbeat IPC: 0.169381 cumulative IPC: 0.12745 (Simulation time: 3 hr 15 min 20 sec) 
Heartbeat CPU 0 instructions: 845000000 cycles: 7697043780 heartbeat IPC: 0.141099 cumulative IPC: 0.127481 (Simulation time: 3 hr 15 min 32 sec) 
Heartbeat CPU 0 instructions: 846000003 cycles: 7706811299 heartbeat IPC: 0.10238 cumulative IPC: 0.127402 (Simulation time: 3 hr 15 min 48 sec) 
Heartbeat CPU 0 instructions: 847000000 cycles: 7712944593 heartbeat IPC: 0.163044 cumulative IPC: 0.127472 (Simulation time: 3 hr 15 min 59 sec) 
Heartbeat CPU 0 instructions: 848000001 cycles: 7719213137 heartbeat IPC: 0.159527 cumulative IPC: 0.127537 (Simulation time: 3 hr 16 min 11 sec) 
Heartbeat CPU 0 instructions: 849000000 cycles: 7728919023 heartbeat IPC: 0.10303 cumulative IPC: 0.127461 (Simulation time: 3 hr 16 min 25 sec) 
Heartbeat CPU 0 instructions: 850000000 cycles: 7736767423 heartbeat IPC: 0.127415 cumulative IPC: 0.127461 (Simulation time: 3 hr 16 min 38 sec) 
Heartbeat CPU 0 instructions: 851000000 cycles: 7744689091 heartbeat IPC: 0.126236 cumulative IPC: 0.127457 (Simulation time: 3 hr 16 min 51 sec) 
Heartbeat CPU 0 instructions: 852000001 cycles: 7753445826 heartbeat IPC: 0.114198 cumulative IPC: 0.127421 (Simulation time: 3 hr 17 min 6 sec) 
Heartbeat CPU 0 instructions: 853000002 cycles: 7762335347 heartbeat IPC: 0.112492 cumulative IPC: 0.127379 (Simulation time: 3 hr 17 min 19 sec) 
Heartbeat CPU 0 instructions: 854000002 cycles: 7770513386 heartbeat IPC: 0.122279 cumulative IPC: 0.127366 (Simulation time: 3 hr 17 min 34 sec) 
Heartbeat CPU 0 instructions: 855000001 cycles: 7776641893 heartbeat IPC: 0.163172 cumulative IPC: 0.127435 (Simulation time: 3 hr 17 min 45 sec) 
Heartbeat CPU 0 instructions: 856000003 cycles: 7783419806 heartbeat IPC: 0.147538 cumulative IPC: 0.127477 (Simulation time: 3 hr 17 min 56 sec) 
Heartbeat CPU 0 instructions: 857000000 cycles: 7793678580 heartbeat IPC: 0.0974772 cumulative IPC: 0.127381 (Simulation time: 3 hr 18 min 12 sec) 
Heartbeat CPU 0 instructions: 858000000 cycles: 7800136282 heartbeat IPC: 0.154854 cumulative IPC: 0.127436 (Simulation time: 3 hr 18 min 23 sec) 
Heartbeat CPU 0 instructions: 859000001 cycles: 7806309737 heartbeat IPC: 0.161984 cumulative IPC: 0.127503 (Simulation time: 3 hr 18 min 35 sec) 
Heartbeat CPU 0 instructions: 860000000 cycles: 7815586218 heartbeat IPC: 0.107799 cumulative IPC: 0.127446 (Simulation time: 3 hr 18 min 49 sec) 
Heartbeat CPU 0 instructions: 861000003 cycles: 7823618121 heartbeat IPC: 0.124504 cumulative IPC: 0.127439 (Simulation time: 3 hr 19 min 2 sec) 
Heartbeat CPU 0 instructions: 862000000 cycles: 7829865789 heartbeat IPC: 0.160059 cumulative IPC: 0.127502 (Simulation time: 3 hr 19 min 14 sec) 
Heartbeat CPU 0 instructions: 863000000 cycles: 7837470876 heartbeat IPC: 0.131491 cumulative IPC: 0.127511 (Simulation time: 3 hr 19 min 27 sec) 
Heartbeat CPU 0 instructions: 864000000 cycles: 7847370599 heartbeat IPC: 0.101013 cumulative IPC: 0.12743 (Simulation time: 3 hr 19 min 44 sec) 
Heartbeat CPU 0 instructions: 865000000 cycles: 7853979061 heartbeat IPC: 0.151321 cumulative IPC: 0.127479 (Simulation time: 3 hr 19 min 56 sec) 
Heartbeat CPU 0 instructions: 866000000 cycles: 7860490960 heartbeat IPC: 0.153565 cumulative IPC: 0.127531 (Simulation time: 3 hr 20 min 7 sec) 
Heartbeat CPU 0 instructions: 867000000 cycles: 7870253833 heartbeat IPC: 0.102429 cumulative IPC: 0.127456 (Simulation time: 3 hr 20 min 22 sec) 
Heartbeat CPU 0 instructions: 868000002 cycles: 7877871577 heartbeat IPC: 0.131273 cumulative IPC: 0.127465 (Simulation time: 3 hr 20 min 35 sec) 
Heartbeat CPU 0 instructions: 869000000 cycles: 7883953977 heartbeat IPC: 0.164408 cumulative IPC: 0.127533 (Simulation time: 3 hr 20 min 46 sec) 
Heartbeat CPU 0 instructions: 870000003 cycles: 7890279905 heartbeat IPC: 0.15808 cumulative IPC: 0.127592 (Simulation time: 3 hr 20 min 56 sec) 
Heartbeat CPU 0 instructions: 871000001 cycles: 7900674903 heartbeat IPC: 0.0961999 cumulative IPC: 0.127493 (Simulation time: 3 hr 21 min 12 sec) 
Heartbeat CPU 0 instructions: 872000000 cycles: 7906917398 heartbeat IPC: 0.160192 cumulative IPC: 0.127555 (Simulation time: 3 hr 21 min 24 sec) 
Heartbeat CPU 0 instructions: 873000000 cycles: 7912944079 heartbeat IPC: 0.165929 cumulative IPC: 0.127625 (Simulation time: 3 hr 21 min 37 sec) 
Heartbeat CPU 0 instructions: 874000000 cycles: 7919979182 heartbeat IPC: 0.142144 cumulative IPC: 0.127656 (Simulation time: 3 hr 21 min 49 sec) 
Heartbeat CPU 0 instructions: 875000001 cycles: 7929739765 heartbeat IPC: 0.102453 cumulative IPC: 0.127582 (Simulation time: 3 hr 22 min 5 sec) 
Heartbeat CPU 0 instructions: 876000000 cycles: 7935689568 heartbeat IPC: 0.168073 cumulative IPC: 0.127654 (Simulation time: 3 hr 22 min 16 sec) 
Heartbeat CPU 0 instructions: 877000000 cycles: 7942948407 heartbeat IPC: 0.137763 cumulative IPC: 0.127676 (Simulation time: 3 hr 22 min 29 sec) 
Heartbeat CPU 0 instructions: 878000000 cycles: 7950457979 heartbeat IPC: 0.133163 cumulative IPC: 0.127688 (Simulation time: 3 hr 22 min 42 sec) 
Heartbeat CPU 0 instructions: 879000002 cycles: 7959764677 heartbeat IPC: 0.10745 cumulative IPC: 0.127632 (Simulation time: 3 hr 22 min 58 sec) 
Heartbeat CPU 0 instructions: 880000000 cycles: 7966598713 heartbeat IPC: 0.146326 cumulative IPC: 0.12767 (Simulation time: 3 hr 23 min 11 sec) 
Heartbeat CPU 0 instructions: 881000000 cycles: 7972895225 heartbeat IPC: 0.158818 cumulative IPC: 0.127728 (Simulation time: 3 hr 23 min 22 sec) 
Heartbeat CPU 0 instructions: 882000000 cycles: 7982596524 heartbeat IPC: 0.103079 cumulative IPC: 0.127657 (Simulation time: 3 hr 23 min 37 sec) 
Heartbeat CPU 0 instructions: 883000000 cycles: 7990168404 heartbeat IPC: 0.132068 cumulative IPC: 0.127667 (Simulation time: 3 hr 23 min 51 sec) 
Heartbeat CPU 0 instructions: 884000000 cycles: 7996539426 heartbeat IPC: 0.156961 cumulative IPC: 0.127722 (Simulation time: 3 hr 24 min 2 sec) 
Heartbeat CPU 0 instructions: 885000000 cycles: 8004747132 heartbeat IPC: 0.121837 cumulative IPC: 0.127708 (Simulation time: 3 hr 24 min 15 sec) 
Heartbeat CPU 0 instructions: 886000003 cycles: 8014015064 heartbeat IPC: 0.107899 cumulative IPC: 0.127654 (Simulation time: 3 hr 24 min 30 sec) 
Heartbeat CPU 0 instructions: 887000002 cycles: 8020606453 heartbeat IPC: 0.151713 cumulative IPC: 0.127701 (Simulation time: 3 hr 24 min 42 sec) 
Heartbeat CPU 0 instructions: 888000003 cycles: 8027838736 heartbeat IPC: 0.138269 cumulative IPC: 0.127723 (Simulation time: 3 hr 24 min 54 sec) 
Heartbeat CPU 0 instructions: 889000000 cycles: 8038085381 heartbeat IPC: 0.0975926 cumulative IPC: 0.127633 (Simulation time: 3 hr 25 min 10 sec) 
Heartbeat CPU 0 instructions: 890000000 cycles: 8044693731 heartbeat IPC: 0.151324 cumulative IPC: 0.127679 (Simulation time: 3 hr 25 min 22 sec) 
Heartbeat CPU 0 instructions: 891000000 cycles: 8051109777 heartbeat IPC: 0.155859 cumulative IPC: 0.127731 (Simulation time: 3 hr 25 min 34 sec) 
Heartbeat CPU 0 instructions: 892000000 cycles: 8061576306 heartbeat IPC: 0.0955427 cumulative IPC: 0.127634 (Simulation time: 3 hr 25 min 49 sec) 
Heartbeat CPU 0 instructions: 893000000 cycles: 8069577619 heartbeat IPC: 0.124979 cumulative IPC: 0.127628 (Simulation time: 3 hr 26 min 3 sec) 
Heartbeat CPU 0 instructions: 894000000 cycles: 8078179983 heartbeat IPC: 0.116247 cumulative IPC: 0.127599 (Simulation time: 3 hr 26 min 17 sec) 
Heartbeat CPU 0 instructions: 895000000 cycles: 8085792685 heartbeat IPC: 0.131359 cumulative IPC: 0.127608 (Simulation time: 3 hr 26 min 30 sec) 
Heartbeat CPU 0 instructions: 896000003 cycles: 8095670062 heartbeat IPC: 0.101242 cumulative IPC: 0.127533 (Simulation time: 3 hr 26 min 45 sec) 
Heartbeat CPU 0 instructions: 897000001 cycles: 8102265728 heartbeat IPC: 0.151614 cumulative IPC: 0.127578 (Simulation time: 3 hr 26 min 57 sec) 
Heartbeat CPU 0 instructions: 898000001 cycles: 8108605307 heartbeat IPC: 0.157739 cumulative IPC: 0.127633 (Simulation time: 3 hr 27 min 8 sec) 
Heartbeat CPU 0 instructions: 899000002 cycles: 8119224777 heartbeat IPC: 0.0941668 cumulative IPC: 0.127532 (Simulation time: 3 hr 27 min 24 sec) 
Heartbeat CPU 0 instructions: 900000001 cycles: 8125977921 heartbeat IPC: 0.148079 cumulative IPC: 0.127571 (Simulation time: 3 hr 27 min 36 sec) 
Heartbeat CPU 0 instructions: 901000002 cycles: 8132184321 heartbeat IPC: 0.161124 cumulative IPC: 0.12763 (Simulation time: 3 hr 27 min 48 sec) 
Heartbeat CPU 0 instructions: 902000000 cycles: 8141034856 heartbeat IPC: 0.112987 cumulative IPC: 0.127594 (Simulation time: 3 hr 28 min 1 sec) 
Heartbeat CPU 0 instructions: 903000002 cycles: 8149395469 heartbeat IPC: 0.119609 cumulative IPC: 0.127575 (Simulation time: 3 hr 28 min 15 sec) 
Heartbeat CPU 0 instructions: 904000003 cycles: 8155527704 heartbeat IPC: 0.163073 cumulative IPC: 0.127636 (Simulation time: 3 hr 28 min 27 sec) 
Heartbeat CPU 0 instructions: 905000003 cycles: 8162757455 heartbeat IPC: 0.138317 cumulative IPC: 0.127658 (Simulation time: 3 hr 28 min 39 sec) 
Heartbeat CPU 0 instructions: 906000002 cycles: 8173044506 heartbeat IPC: 0.0972095 cumulative IPC: 0.12757 (Simulation time: 3 hr 28 min 55 sec) 
Heartbeat CPU 0 instructions: 907000000 cycles: 8180421286 heartbeat IPC: 0.13556 cumulative IPC: 0.127587 (Simulation time: 3 hr 29 min 7 sec) 
Heartbeat CPU 0 instructions: 908000000 cycles: 8188200598 heartbeat IPC: 0.128546 cumulative IPC: 0.127589 (Simulation time: 3 hr 29 min 19 sec) 
Heartbeat CPU 0 instructions: 909000001 cycles: 8194582962 heartbeat IPC: 0.156682 cumulative IPC: 0.12764 (Simulation time: 3 hr 29 min 29 sec) 
Heartbeat CPU 0 instructions: 910000000 cycles: 8204862618 heartbeat IPC: 0.0972794 cumulative IPC: 0.127554 (Simulation time: 3 hr 29 min 44 sec) 
Heartbeat CPU 0 instructions: 911000000 cycles: 8212358304 heartbeat IPC: 0.13341 cumulative IPC: 0.127566 (Simulation time: 3 hr 29 min 55 sec) 
Heartbeat CPU 0 instructions: 912000002 cycles: 8219605951 heartbeat IPC: 0.137976 cumulative IPC: 0.127587 (Simulation time: 3 hr 30 min 7 sec) 
Heartbeat CPU 0 instructions: 913000000 cycles: 8226310946 heartbeat IPC: 0.149142 cumulative IPC: 0.127627 (Simulation time: 3 hr 30 min 19 sec) 
Heartbeat CPU 0 instructions: 914000002 cycles: 8236856580 heartbeat IPC: 0.0948262 cumulative IPC: 0.127532 (Simulation time: 3 hr 30 min 35 sec) 
Heartbeat CPU 0 instructions: 915000000 cycles: 8243298115 heartbeat IPC: 0.155242 cumulative IPC: 0.12758 (Simulation time: 3 hr 30 min 47 sec) 
Heartbeat CPU 0 instructions: 916000001 cycles: 8249573400 heartbeat IPC: 0.159355 cumulative IPC: 0.127635 (Simulation time: 3 hr 30 min 58 sec) 
Heartbeat CPU 0 instructions: 917000000 cycles: 8258851450 heartbeat IPC: 0.107781 cumulative IPC: 0.127585 (Simulation time: 3 hr 31 min 12 sec) 
Heartbeat CPU 0 instructions: 918000003 cycles: 8267188520 heartbeat IPC: 0.119947 cumulative IPC: 0.127567 (Simulation time: 3 hr 31 min 26 sec) 
Heartbeat CPU 0 instructions: 919000003 cycles: 8274337510 heartbeat IPC: 0.13988 cumulative IPC: 0.127591 (Simulation time: 3 hr 31 min 37 sec) 
Heartbeat CPU 0 instructions: 920000002 cycles: 8281844832 heartbeat IPC: 0.133203 cumulative IPC: 0.127603 (Simulation time: 3 hr 31 min 49 sec) 
Heartbeat CPU 0 instructions: 921000000 cycles: 8291991886 heartbeat IPC: 0.0985506 cumulative IPC: 0.127523 (Simulation time: 3 hr 32 min 4 sec) 
Heartbeat CPU 0 instructions: 922000000 cycles: 8298536432 heartbeat IPC: 0.152799 cumulative IPC: 0.127568 (Simulation time: 3 hr 32 min 16 sec) 
Heartbeat CPU 0 instructions: 923000000 cycles: 8304849516 heartbeat IPC: 0.158401 cumulative IPC: 0.12762 (Simulation time: 3 hr 32 min 26 sec) 
Heartbeat CPU 0 instructions: 924000000 cycles: 8315187693 heartbeat IPC: 0.0967289 cumulative IPC: 0.127534 (Simulation time: 3 hr 32 min 41 sec) 
Heartbeat CPU 0 instructions: 925000002 cycles: 8322475906 heartbeat IPC: 0.137208 cumulative IPC: 0.127553 (Simulation time: 3 hr 32 min 54 sec) 
Heartbeat CPU 0 instructions: 926000000 cycles: 8328908987 heartbeat IPC: 0.155446 cumulative IPC: 0.127601 (Simulation time: 3 hr 33 min 6 sec) 
Heartbeat CPU 0 instructions: 927000003 cycles: 8338143671 heartbeat IPC: 0.108288 cumulative IPC: 0.127554 (Simulation time: 3 hr 33 min 20 sec) 
Heartbeat CPU 0 instructions: 928000000 cycles: 8346609402 heartbeat IPC: 0.118123 cumulative IPC: 0.127532 (Simulation time: 3 hr 33 min 34 sec) 
Heartbeat CPU 0 instructions: 929000001 cycles: 8354318718 heartbeat IPC: 0.129713 cumulative IPC: 0.127537 (Simulation time: 3 hr 33 min 46 sec) 
Heartbeat CPU 0 instructions: 930000002 cycles: 8361272161 heartbeat IPC: 0.143814 cumulative IPC: 0.127567 (Simulation time: 3 hr 33 min 59 sec) 
Heartbeat CPU 0 instructions: 931000003 cycles: 8371683062 heartbeat IPC: 0.0960533 cumulative IPC: 0.12748 (Simulation time: 3 hr 34 min 14 sec) 
Heartbeat CPU 0 instructions: 932000000 cycles: 8378081790 heartbeat IPC: 0.156281 cumulative IPC: 0.127529 (Simulation time: 3 hr 34 min 26 sec) 
Heartbeat CPU 0 instructions: 933000000 cycles: 8384232944 heartbeat IPC: 0.162571 cumulative IPC: 0.127586 (Simulation time: 3 hr 34 min 37 sec) 
Heartbeat CPU 0 instructions: 934000001 cycles: 8393982152 heartbeat IPC: 0.102573 cumulative IPC: 0.127521 (Simulation time: 3 hr 34 min 52 sec) 
Heartbeat CPU 0 instructions: 935000000 cycles: 8401616529 heartbeat IPC: 0.130986 cumulative IPC: 0.127528 (Simulation time: 3 hr 35 min 5 sec) 
Heartbeat CPU 0 instructions: 936000000 cycles: 8407773581 heartbeat IPC: 0.162415 cumulative IPC: 0.127585 (Simulation time: 3 hr 35 min 17 sec) 
Heartbeat CPU 0 instructions: 937000000 cycles: 8415657235 heartbeat IPC: 0.126845 cumulative IPC: 0.127583 (Simulation time: 3 hr 35 min 30 sec) 
Heartbeat CPU 0 instructions: 938000000 cycles: 8425203574 heartbeat IPC: 0.104752 cumulative IPC: 0.127526 (Simulation time: 3 hr 35 min 45 sec) 
Heartbeat CPU 0 instructions: 939000003 cycles: 8431381467 heartbeat IPC: 0.161868 cumulative IPC: 0.127582 (Simulation time: 3 hr 35 min 57 sec) 
Heartbeat CPU 0 instructions: 940000001 cycles: 8438703169 heartbeat IPC: 0.13658 cumulative IPC: 0.127599 (Simulation time: 3 hr 36 min 9 sec) 
Heartbeat CPU 0 instructions: 941000000 cycles: 8448416218 heartbeat IPC: 0.102954 cumulative IPC: 0.127537 (Simulation time: 3 hr 36 min 24 sec) 
Heartbeat CPU 0 instructions: 942000002 cycles: 8456130161 heartbeat IPC: 0.129636 cumulative IPC: 0.127541 (Simulation time: 3 hr 36 min 38 sec) 
Heartbeat CPU 0 instructions: 943000001 cycles: 8462199733 heartbeat IPC: 0.164756 cumulative IPC: 0.127599 (Simulation time: 3 hr 36 min 50 sec) 
Heartbeat CPU 0 instructions: 944000000 cycles: 8470082580 heartbeat IPC: 0.126858 cumulative IPC: 0.127598 (Simulation time: 3 hr 37 min 3 sec) 
Heartbeat CPU 0 instructions: 945000001 cycles: 8479648715 heartbeat IPC: 0.104536 cumulative IPC: 0.127541 (Simulation time: 3 hr 37 min 18 sec) 
Heartbeat CPU 0 instructions: 946000000 cycles: 8485899794 heartbeat IPC: 0.159972 cumulative IPC: 0.127593 (Simulation time: 3 hr 37 min 29 sec) 
Heartbeat CPU 0 instructions: 947000001 cycles: 8492317117 heartbeat IPC: 0.155828 cumulative IPC: 0.12764 (Simulation time: 3 hr 37 min 41 sec) 
Heartbeat CPU 0 instructions: 948000002 cycles: 8503100575 heartbeat IPC: 0.0927347 cumulative IPC: 0.127543 (Simulation time: 3 hr 37 min 57 sec) 
Heartbeat CPU 0 instructions: 949000001 cycles: 8509927101 heartbeat IPC: 0.146487 cumulative IPC: 0.127576 (Simulation time: 3 hr 38 min 9 sec) 
Heartbeat CPU 0 instructions: 950000002 cycles: 8516193591 heartbeat IPC: 0.159579 cumulative IPC: 0.127627 (Simulation time: 3 hr 38 min 21 sec) 
Finished CPU 0 instructions: 500000000 cycles: 3917653118 cumulative IPC: 0.127627 (Simulation time: 3 hr 38 min 21 sec) 

ChampSim completed all CPUs

Region of Interest Statistics

CPU 0 cumulative IPC: 0.127627 instructions: 500000000 cycles: 3917653118
L1D TOTAL     ACCESS:  128956756  HIT:   72106989  MISS:   56849767
L1D LOAD      ACCESS:  103601558  HIT:   48314295  MISS:   55287263
L1D RFO       ACCESS:   25355198  HIT:   23792694  MISS:    1562504
L1D PREFETCH  ACCESS:          0  HIT:          0  MISS:          0
L1D WRITEBACK ACCESS:          0  HIT:          0  MISS:          0
L1D PREFETCH  REQUESTED:          0  ISSUED:          0  USEFUL:          0  USELESS:          0
L1D AVERAGE MISS LATENCY: 172.183 cycles
L1I TOTAL     ACCESS:   93722754  HIT:   93722754  MISS:          0
L1I LOAD      ACCESS:   93722754  HIT:   93722754  MISS:          0
L1I RFO       ACCESS:          0  HIT:          0  MISS:          0
L1I PREFETCH  ACCESS:          0  HIT:          0  MISS:          0
L1I WRITEBACK ACCESS:          0  HIT:          0  MISS:          0
L1I PREFETCH  REQUESTED:          0  ISSUED:          0  USEFUL:          0  USELESS:          0
L1I AVERAGE MISS LATENCY: -nan cycles
L2C TOTAL     ACCESS:   69597583  HIT:   28972180  MISS:   40625403
L2C LOAD      ACCESS:   55285680  HIT:   15515966  MISS:   39769714
L2C RFO       ACCESS:    1562435  HIT:     710082  MISS:     852353
L2C PREFETCH  ACCESS:          0  HIT:          0  MISS:          0
L2C WRITEBACK ACCESS:   12749468  HIT:   12746132  MISS:       3336
L2C PREFETCH  REQUESTED:          0  ISSUED:          0  USEFUL:          0  USELESS:          0
L2C AVERAGE MISS LATENCY: 214.359 cycles
LLC TOTAL     ACCESS:  107083528  HIT:   66327712  MISS:   40755816
LLC LOAD      ACCESS:   39769707  HIT:   22749839  MISS:   17019868
LLC RFO       ACCESS:     852352  HIT:     328494  MISS:     523858
LLC PREFETCH  ACCESS:   56986772  HIT:   33839381  MISS:   23147391
LLC WRITEBACK ACCESS:    9474697  HIT:    9409998  MISS:      64699
LLC PREFETCH  REQUESTED:   62280537  ISSUED:   62280537  USEFUL:   16576052  USELESS:    6567311
LLC AVERAGE MISS LATENCY: 312.476 cycles
Major fault: 0 Minor fault: 273840
performance stats:
mapping cache size: 16690298
divergence: 28882017

DRAM Statistics
 CHANNEL 0
 RQ ROW_BUFFER_HIT:     460411  ROW_BUFFER_MISS:   40218756
 DBUS_CONGESTED:   21982756
 WQ ROW_BUFFER_HIT:    2634173  ROW_BUFFER_MISS:    6488170  FULL:          0

 AVG_CONGESTED_CYCLE: 6

CPU 0 Branch Prediction Accuracy: 95.6661% MPKI: 11.6556 Average ROB Occupancy at Mispredict: 49.2588

Branch types
NOT_BRANCH: 365531192 73.1062%
BRANCH_DIRECT_JUMP: 10367818 2.07356%
BRANCH_INDIRECT: 0 0%
BRANCH_CONDITIONAL: 123869810 24.774%
BRANCH_DIRECT_CALL: 115589 0.0231178%
BRANCH_INDIRECT_CALL: 0 0%
BRANCH_RETURN: 115588 0.0231176%
BRANCH_OTHER: 0 0%


gzip: stdout: Broken pipe
