
*** ChampSim Multicore Out-of-Order Simulator ***

Warmup Instructions: 1000000
Prefetch Warmup Instructions: 450000000
Simulation Instructions: 500000000
Stat Printing Period: 1000000
Number of CPUs: 1
LLC sets: 2048
LLC ways: 16
Off-chip DRAM Size: 4096 MB Channels: 1 Width: 64-bit Data Rate: 3200 MT/s

CPU 0 runs /scratch/cluster/cmolder/ML-DPC/ChampSimTraces/spec06/471.omnetpp-s2.trace.gz
Read seed: 984
Heartbeat CPU 0 instructions: 1000002 cycles: 367658 heartbeat IPC: 2.71992 cumulative IPC: 2.71992 (Simulation time: 0 hr 0 min 4 sec) 

Warmup complete CPU 0 instructions: 1000002 cycles: 367658 (Simulation time: 0 hr 0 min 4 sec) 

Heartbeat CPU 0 instructions: 2000000 cycles: 2716890 heartbeat IPC: 0.42567 cumulative IPC: 0.42567 (Simulation time: 0 hr 0 min 7 sec) 
Heartbeat CPU 0 instructions: 3000000 cycles: 5146825 heartbeat IPC: 0.411534 cumulative IPC: 0.418483 (Simulation time: 0 hr 0 min 10 sec) 
Heartbeat CPU 0 instructions: 4000000 cycles: 7468033 heartbeat IPC: 0.43081 cumulative IPC: 0.422513 (Simulation time: 0 hr 0 min 12 sec) 
Heartbeat CPU 0 instructions: 5000002 cycles: 9740386 heartbeat IPC: 0.440073 cumulative IPC: 0.42677 (Simulation time: 0 hr 0 min 15 sec) 
Heartbeat CPU 0 instructions: 6000000 cycles: 12014018 heartbeat IPC: 0.439824 cumulative IPC: 0.429319 (Simulation time: 0 hr 0 min 17 sec) 
Heartbeat CPU 0 instructions: 7000001 cycles: 14428654 heartbeat IPC: 0.414142 cumulative IPC: 0.426712 (Simulation time: 0 hr 0 min 19 sec) 
Heartbeat CPU 0 instructions: 8000000 cycles: 17284016 heartbeat IPC: 0.350218 cumulative IPC: 0.413801 (Simulation time: 0 hr 0 min 21 sec) 
Heartbeat CPU 0 instructions: 9000002 cycles: 19852121 heartbeat IPC: 0.389393 cumulative IPC: 0.410584 (Simulation time: 0 hr 0 min 24 sec) 
Heartbeat CPU 0 instructions: 10000001 cycles: 22728751 heartbeat IPC: 0.347629 cumulative IPC: 0.402485 (Simulation time: 0 hr 0 min 26 sec) 
Heartbeat CPU 0 instructions: 11000000 cycles: 25386114 heartbeat IPC: 0.376313 cumulative IPC: 0.399705 (Simulation time: 0 hr 0 min 29 sec) 
Heartbeat CPU 0 instructions: 12000000 cycles: 25964092 heartbeat IPC: 1.73017 cumulative IPC: 0.429747 (Simulation time: 0 hr 0 min 31 sec) 
Heartbeat CPU 0 instructions: 13000000 cycles: 26519247 heartbeat IPC: 1.8013 cumulative IPC: 0.458863 (Simulation time: 0 hr 0 min 32 sec) 
Heartbeat CPU 0 instructions: 14000001 cycles: 27061738 heartbeat IPC: 1.84335 cumulative IPC: 0.486999 (Simulation time: 0 hr 0 min 34 sec) 
Heartbeat CPU 0 instructions: 15000002 cycles: 27616049 heartbeat IPC: 1.80404 cumulative IPC: 0.513792 (Simulation time: 0 hr 0 min 35 sec) 
Heartbeat CPU 0 instructions: 16000003 cycles: 29951083 heartbeat IPC: 0.42826 cumulative IPC: 0.507041 (Simulation time: 0 hr 0 min 38 sec) 
Heartbeat CPU 0 instructions: 17000002 cycles: 32372069 heartbeat IPC: 0.413054 cumulative IPC: 0.499931 (Simulation time: 0 hr 0 min 40 sec) 
Heartbeat CPU 0 instructions: 18000003 cycles: 34655417 heartbeat IPC: 0.437954 cumulative IPC: 0.495804 (Simulation time: 0 hr 0 min 42 sec) 
Heartbeat CPU 0 instructions: 19000000 cycles: 36990473 heartbeat IPC: 0.428254 cumulative IPC: 0.491497 (Simulation time: 0 hr 0 min 44 sec) 
Heartbeat CPU 0 instructions: 20000000 cycles: 39901750 heartbeat IPC: 0.343492 cumulative IPC: 0.480598 (Simulation time: 0 hr 0 min 47 sec) 
Heartbeat CPU 0 instructions: 21000001 cycles: 42816525 heartbeat IPC: 0.34308 cumulative IPC: 0.471155 (Simulation time: 0 hr 0 min 49 sec) 
Heartbeat CPU 0 instructions: 22000000 cycles: 45587154 heartbeat IPC: 0.360929 cumulative IPC: 0.464401 (Simulation time: 0 hr 0 min 52 sec) 
Heartbeat CPU 0 instructions: 23000001 cycles: 47964716 heartbeat IPC: 0.420599 cumulative IPC: 0.462213 (Simulation time: 0 hr 0 min 54 sec) 
Heartbeat CPU 0 instructions: 24000001 cycles: 50273146 heartbeat IPC: 0.433195 cumulative IPC: 0.460871 (Simulation time: 0 hr 0 min 58 sec) 
Heartbeat CPU 0 instructions: 25000001 cycles: 52584390 heartbeat IPC: 0.432667 cumulative IPC: 0.459623 (Simulation time: 0 hr 1 min 0 sec) 
Heartbeat CPU 0 instructions: 26000003 cycles: 54866561 heartbeat IPC: 0.43818 cumulative IPC: 0.458725 (Simulation time: 0 hr 1 min 3 sec) 
Heartbeat CPU 0 instructions: 27000000 cycles: 57208553 heartbeat IPC: 0.426986 cumulative IPC: 0.457417 (Simulation time: 0 hr 1 min 5 sec) 
Heartbeat CPU 0 instructions: 28000000 cycles: 59505074 heartbeat IPC: 0.435441 cumulative IPC: 0.456564 (Simulation time: 0 hr 1 min 7 sec) 
Heartbeat CPU 0 instructions: 29000003 cycles: 61938328 heartbeat IPC: 0.410974 cumulative IPC: 0.454762 (Simulation time: 0 hr 1 min 9 sec) 
Heartbeat CPU 0 instructions: 30000001 cycles: 64229202 heartbeat IPC: 0.436514 cumulative IPC: 0.454107 (Simulation time: 0 hr 1 min 11 sec) 
Heartbeat CPU 0 instructions: 31000003 cycles: 66495177 heartbeat IPC: 0.441312 cumulative IPC: 0.453669 (Simulation time: 0 hr 1 min 14 sec) 
Heartbeat CPU 0 instructions: 32000000 cycles: 68833768 heartbeat IPC: 0.427607 cumulative IPC: 0.452779 (Simulation time: 0 hr 1 min 16 sec) 
Heartbeat CPU 0 instructions: 33000000 cycles: 71567464 heartbeat IPC: 0.365805 cumulative IPC: 0.449439 (Simulation time: 0 hr 1 min 19 sec) 
Heartbeat CPU 0 instructions: 34000002 cycles: 74452336 heartbeat IPC: 0.346637 cumulative IPC: 0.445436 (Simulation time: 0 hr 1 min 21 sec) 
Heartbeat CPU 0 instructions: 35000002 cycles: 77065815 heartbeat IPC: 0.382632 cumulative IPC: 0.443296 (Simulation time: 0 hr 1 min 23 sec) 
Heartbeat CPU 0 instructions: 36000001 cycles: 79910883 heartbeat IPC: 0.351485 cumulative IPC: 0.440012 (Simulation time: 0 hr 1 min 26 sec) 
Heartbeat CPU 0 instructions: 37000000 cycles: 82226640 heartbeat IPC: 0.431824 cumulative IPC: 0.439781 (Simulation time: 0 hr 1 min 30 sec) 
Heartbeat CPU 0 instructions: 38000000 cycles: 84884654 heartbeat IPC: 0.376221 cumulative IPC: 0.437782 (Simulation time: 0 hr 1 min 33 sec) 
Heartbeat CPU 0 instructions: 39000002 cycles: 86949867 heartbeat IPC: 0.484213 cumulative IPC: 0.438889 (Simulation time: 0 hr 1 min 35 sec) 
Heartbeat CPU 0 instructions: 40000001 cycles: 87499612 heartbeat IPC: 1.81902 cumulative IPC: 0.447597 (Simulation time: 0 hr 1 min 36 sec) 
Heartbeat CPU 0 instructions: 41000002 cycles: 88042899 heartbeat IPC: 1.84065 cumulative IPC: 0.456229 (Simulation time: 0 hr 1 min 38 sec) 
Heartbeat CPU 0 instructions: 42000002 cycles: 88591493 heartbeat IPC: 1.82284 cumulative IPC: 0.464727 (Simulation time: 0 hr 1 min 40 sec) 
Heartbeat CPU 0 instructions: 43000000 cycles: 89293460 heartbeat IPC: 1.42457 cumulative IPC: 0.472304 (Simulation time: 0 hr 1 min 41 sec) 
Heartbeat CPU 0 instructions: 44000000 cycles: 91662551 heartbeat IPC: 0.422103 cumulative IPC: 0.471001 (Simulation time: 0 hr 1 min 44 sec) 
Heartbeat CPU 0 instructions: 45000001 cycles: 94067539 heartbeat IPC: 0.415803 cumulative IPC: 0.469584 (Simulation time: 0 hr 1 min 46 sec) 
Heartbeat CPU 0 instructions: 46000001 cycles: 96970637 heartbeat IPC: 0.34446 cumulative IPC: 0.465824 (Simulation time: 0 hr 1 min 48 sec) 
Heartbeat CPU 0 instructions: 47000001 cycles: 99870947 heartbeat IPC: 0.344791 cumulative IPC: 0.462296 (Simulation time: 0 hr 1 min 51 sec) 
Heartbeat CPU 0 instructions: 48000000 cycles: 102547687 heartbeat IPC: 0.373588 cumulative IPC: 0.459972 (Simulation time: 0 hr 1 min 53 sec) 
Heartbeat CPU 0 instructions: 49000003 cycles: 104993359 heartbeat IPC: 0.408887 cumulative IPC: 0.458778 (Simulation time: 0 hr 1 min 55 sec) 
Heartbeat CPU 0 instructions: 50000001 cycles: 107325618 heartbeat IPC: 0.428768 cumulative IPC: 0.458124 (Simulation time: 0 hr 1 min 58 sec) 
Heartbeat CPU 0 instructions: 51000003 cycles: 109662854 heartbeat IPC: 0.427857 cumulative IPC: 0.457477 (Simulation time: 0 hr 2 min 0 sec) 
Heartbeat CPU 0 instructions: 52000000 cycles: 111989804 heartbeat IPC: 0.429746 cumulative IPC: 0.456899 (Simulation time: 0 hr 2 min 3 sec) 
Heartbeat CPU 0 instructions: 53000000 cycles: 114327735 heartbeat IPC: 0.427729 cumulative IPC: 0.4563 (Simulation time: 0 hr 2 min 7 sec) 
Heartbeat CPU 0 instructions: 54000001 cycles: 116632170 heartbeat IPC: 0.433946 cumulative IPC: 0.455857 (Simulation time: 0 hr 2 min 10 sec) 
Heartbeat CPU 0 instructions: 55000000 cycles: 119171087 heartbeat IPC: 0.393868 cumulative IPC: 0.454532 (Simulation time: 0 hr 2 min 15 sec) 
Heartbeat CPU 0 instructions: 56000000 cycles: 121480547 heartbeat IPC: 0.433002 cumulative IPC: 0.454122 (Simulation time: 0 hr 2 min 18 sec) 
Heartbeat CPU 0 instructions: 57000000 cycles: 123797600 heartbeat IPC: 0.431583 cumulative IPC: 0.453699 (Simulation time: 0 hr 2 min 20 sec) 
Heartbeat CPU 0 instructions: 58000002 cycles: 126332808 heartbeat IPC: 0.394446 cumulative IPC: 0.452506 (Simulation time: 0 hr 2 min 23 sec) 
Heartbeat CPU 0 instructions: 59000002 cycles: 129210119 heartbeat IPC: 0.347547 cumulative IPC: 0.450162 (Simulation time: 0 hr 2 min 25 sec) 
Heartbeat CPU 0 instructions: 60000000 cycles: 131736819 heartbeat IPC: 0.395772 cumulative IPC: 0.449116 (Simulation time: 0 hr 2 min 28 sec) 
Heartbeat CPU 0 instructions: 61000002 cycles: 134387552 heartbeat IPC: 0.377255 cumulative IPC: 0.447695 (Simulation time: 0 hr 2 min 31 sec) 
Heartbeat CPU 0 instructions: 62000001 cycles: 137270565 heartbeat IPC: 0.346859 cumulative IPC: 0.445571 (Simulation time: 0 hr 2 min 33 sec) 
Heartbeat CPU 0 instructions: 63000000 cycles: 139611209 heartbeat IPC: 0.427232 cumulative IPC: 0.445263 (Simulation time: 0 hr 2 min 35 sec) 
Heartbeat CPU 0 instructions: 64000000 cycles: 141964909 heartbeat IPC: 0.424863 cumulative IPC: 0.444924 (Simulation time: 0 hr 2 min 38 sec) 
Heartbeat CPU 0 instructions: 65000002 cycles: 144297665 heartbeat IPC: 0.428678 cumulative IPC: 0.444661 (Simulation time: 0 hr 2 min 40 sec) 
Heartbeat CPU 0 instructions: 66000000 cycles: 147991880 heartbeat IPC: 0.270693 cumulative IPC: 0.440307 (Simulation time: 0 hr 2 min 43 sec) 
Heartbeat CPU 0 instructions: 67000002 cycles: 149167860 heartbeat IPC: 0.850356 cumulative IPC: 0.443548 (Simulation time: 0 hr 2 min 46 sec) 
Heartbeat CPU 0 instructions: 68000002 cycles: 149714468 heartbeat IPC: 1.82946 cumulative IPC: 0.44862 (Simulation time: 0 hr 2 min 48 sec) 
Heartbeat CPU 0 instructions: 69000000 cycles: 150261921 heartbeat IPC: 1.82664 cumulative IPC: 0.453653 (Simulation time: 0 hr 2 min 50 sec) 
Heartbeat CPU 0 instructions: 70000000 cycles: 150804963 heartbeat IPC: 1.84148 cumulative IPC: 0.458663 (Simulation time: 0 hr 2 min 53 sec) 
Heartbeat CPU 0 instructions: 71000000 cycles: 151374030 heartbeat IPC: 1.75726 cumulative IPC: 0.463557 (Simulation time: 0 hr 2 min 55 sec) 
Heartbeat CPU 0 instructions: 72000001 cycles: 154240607 heartbeat IPC: 0.348848 cumulative IPC: 0.46142 (Simulation time: 0 hr 2 min 59 sec) 
Heartbeat CPU 0 instructions: 73000001 cycles: 157224772 heartbeat IPC: 0.335102 cumulative IPC: 0.459016 (Simulation time: 0 hr 3 min 3 sec) 
Heartbeat CPU 0 instructions: 74000003 cycles: 160131186 heartbeat IPC: 0.344067 cumulative IPC: 0.456925 (Simulation time: 0 hr 3 min 7 sec) 
Heartbeat CPU 0 instructions: 75000000 cycles: 162549511 heartbeat IPC: 0.413508 cumulative IPC: 0.456278 (Simulation time: 0 hr 3 min 10 sec) 
Heartbeat CPU 0 instructions: 76000001 cycles: 164890498 heartbeat IPC: 0.427171 cumulative IPC: 0.455864 (Simulation time: 0 hr 3 min 13 sec) 
Heartbeat CPU 0 instructions: 77000000 cycles: 167207193 heartbeat IPC: 0.431649 cumulative IPC: 0.455528 (Simulation time: 0 hr 3 min 15 sec) 
Heartbeat CPU 0 instructions: 78000000 cycles: 169527970 heartbeat IPC: 0.43089 cumulative IPC: 0.455189 (Simulation time: 0 hr 3 min 19 sec) 
Heartbeat CPU 0 instructions: 79000000 cycles: 171845247 heartbeat IPC: 0.431541 cumulative IPC: 0.45487 (Simulation time: 0 hr 3 min 22 sec) 
Heartbeat CPU 0 instructions: 80000000 cycles: 174144782 heartbeat IPC: 0.434871 cumulative IPC: 0.454605 (Simulation time: 0 hr 3 min 26 sec) 
Heartbeat CPU 0 instructions: 81000003 cycles: 176610301 heartbeat IPC: 0.405595 cumulative IPC: 0.45392 (Simulation time: 0 hr 3 min 29 sec) 
Heartbeat CPU 0 instructions: 82000002 cycles: 178903534 heartbeat IPC: 0.436065 cumulative IPC: 0.45369 (Simulation time: 0 hr 3 min 33 sec) 
Heartbeat CPU 0 instructions: 83000000 cycles: 181242206 heartbeat IPC: 0.427592 cumulative IPC: 0.453353 (Simulation time: 0 hr 3 min 36 sec) 
Heartbeat CPU 0 instructions: 84000000 cycles: 183626742 heartbeat IPC: 0.419369 cumulative IPC: 0.452911 (Simulation time: 0 hr 3 min 40 sec) 
Heartbeat CPU 0 instructions: 85000000 cycles: 186540041 heartbeat IPC: 0.343253 cumulative IPC: 0.451195 (Simulation time: 0 hr 3 min 44 sec) 
Heartbeat CPU 0 instructions: 86000000 cycles: 189428006 heartbeat IPC: 0.346265 cumulative IPC: 0.449592 (Simulation time: 0 hr 3 min 48 sec) 
Heartbeat CPU 0 instructions: 87000000 cycles: 192037763 heartbeat IPC: 0.383177 cumulative IPC: 0.448688 (Simulation time: 0 hr 3 min 52 sec) 
Heartbeat CPU 0 instructions: 88000000 cycles: 194544209 heartbeat IPC: 0.398971 cumulative IPC: 0.448046 (Simulation time: 0 hr 3 min 55 sec) 
Heartbeat CPU 0 instructions: 89000001 cycles: 197141409 heartbeat IPC: 0.38503 cumulative IPC: 0.447214 (Simulation time: 0 hr 3 min 58 sec) 
Heartbeat CPU 0 instructions: 90000000 cycles: 199474453 heartbeat IPC: 0.428624 cumulative IPC: 0.446996 (Simulation time: 0 hr 4 min 1 sec) 
Heartbeat CPU 0 instructions: 91000000 cycles: 201825279 heartbeat IPC: 0.425382 cumulative IPC: 0.446744 (Simulation time: 0 hr 4 min 5 sec) 
Heartbeat CPU 0 instructions: 92000002 cycles: 204331967 heartbeat IPC: 0.398934 cumulative IPC: 0.446157 (Simulation time: 0 hr 4 min 8 sec) 
Heartbeat CPU 0 instructions: 93000001 cycles: 206650394 heartbeat IPC: 0.431327 cumulative IPC: 0.44599 (Simulation time: 0 hr 4 min 12 sec) 
Heartbeat CPU 0 instructions: 94000001 cycles: 210785304 heartbeat IPC: 0.241843 cumulative IPC: 0.441978 (Simulation time: 0 hr 4 min 17 sec) 
Heartbeat CPU 0 instructions: 95000003 cycles: 211406701 heartbeat IPC: 1.60928 cumulative IPC: 0.445415 (Simulation time: 0 hr 4 min 19 sec) 
Heartbeat CPU 0 instructions: 96000000 cycles: 211958808 heartbeat IPC: 1.81124 cumulative IPC: 0.448979 (Simulation time: 0 hr 4 min 22 sec) 
Heartbeat CPU 0 instructions: 97000002 cycles: 212498270 heartbeat IPC: 1.8537 cumulative IPC: 0.452551 (Simulation time: 0 hr 4 min 23 sec) 
Heartbeat CPU 0 instructions: 98000002 cycles: 213049005 heartbeat IPC: 1.81576 cumulative IPC: 0.456081 (Simulation time: 0 hr 4 min 25 sec) 
Heartbeat CPU 0 instructions: 99000000 cycles: 214380696 heartbeat IPC: 0.750923 cumulative IPC: 0.457916 (Simulation time: 0 hr 4 min 27 sec) 
Heartbeat CPU 0 instructions: 100000001 cycles: 217368314 heartbeat IPC: 0.334715 cumulative IPC: 0.45622 (Simulation time: 0 hr 4 min 30 sec) 
Heartbeat CPU 0 instructions: 101000000 cycles: 219988471 heartbeat IPC: 0.381656 cumulative IPC: 0.45533 (Simulation time: 0 hr 4 min 32 sec) 
Heartbeat CPU 0 instructions: 102000000 cycles: 222518540 heartbeat IPC: 0.395246 cumulative IPC: 0.454646 (Simulation time: 0 hr 4 min 36 sec) 
Heartbeat CPU 0 instructions: 103000003 cycles: 224849896 heartbeat IPC: 0.428936 cumulative IPC: 0.454379 (Simulation time: 0 hr 4 min 39 sec) 
Heartbeat CPU 0 instructions: 104000000 cycles: 227217347 heartbeat IPC: 0.422394 cumulative IPC: 0.454045 (Simulation time: 0 hr 4 min 43 sec) 
Heartbeat CPU 0 instructions: 105000002 cycles: 229530680 heartbeat IPC: 0.432278 cumulative IPC: 0.453825 (Simulation time: 0 hr 4 min 47 sec) 
Heartbeat CPU 0 instructions: 106000000 cycles: 232017487 heartbeat IPC: 0.402121 cumulative IPC: 0.45327 (Simulation time: 0 hr 4 min 51 sec) 
Heartbeat CPU 0 instructions: 107000001 cycles: 234329009 heartbeat IPC: 0.432616 cumulative IPC: 0.453066 (Simulation time: 0 hr 4 min 54 sec) 
Heartbeat CPU 0 instructions: 108000003 cycles: 236670744 heartbeat IPC: 0.427035 cumulative IPC: 0.452808 (Simulation time: 0 hr 4 min 57 sec) 
Heartbeat CPU 0 instructions: 109000000 cycles: 238987457 heartbeat IPC: 0.431645 cumulative IPC: 0.452603 (Simulation time: 0 hr 5 min 1 sec) 
Heartbeat CPU 0 instructions: 110000000 cycles: 241341763 heartbeat IPC: 0.424754 cumulative IPC: 0.452331 (Simulation time: 0 hr 5 min 4 sec) 
Heartbeat CPU 0 instructions: 111000002 cycles: 243882343 heartbeat IPC: 0.393612 cumulative IPC: 0.451718 (Simulation time: 0 hr 5 min 8 sec) 
Heartbeat CPU 0 instructions: 112000000 cycles: 246789403 heartbeat IPC: 0.343989 cumulative IPC: 0.450447 (Simulation time: 0 hr 5 min 11 sec) 
Heartbeat CPU 0 instructions: 113000000 cycles: 249428830 heartbeat IPC: 0.37887 cumulative IPC: 0.449689 (Simulation time: 0 hr 5 min 13 sec) 
Heartbeat CPU 0 instructions: 114000002 cycles: 252315126 heartbeat IPC: 0.346465 cumulative IPC: 0.448506 (Simulation time: 0 hr 5 min 16 sec) 
Heartbeat CPU 0 instructions: 115000002 cycles: 254956666 heartbeat IPC: 0.378567 cumulative IPC: 0.447781 (Simulation time: 0 hr 5 min 18 sec) 
Heartbeat CPU 0 instructions: 116000001 cycles: 257299179 heartbeat IPC: 0.426892 cumulative IPC: 0.44759 (Simulation time: 0 hr 5 min 21 sec) 
Heartbeat CPU 0 instructions: 117000002 cycles: 259650777 heartbeat IPC: 0.425243 cumulative IPC: 0.447387 (Simulation time: 0 hr 5 min 23 sec) 
Heartbeat CPU 0 instructions: 118000001 cycles: 262136500 heartbeat IPC: 0.402297 cumulative IPC: 0.446959 (Simulation time: 0 hr 5 min 25 sec) 
Heartbeat CPU 0 instructions: 119000002 cycles: 264469200 heartbeat IPC: 0.428688 cumulative IPC: 0.446798 (Simulation time: 0 hr 5 min 27 sec) 
Heartbeat CPU 0 instructions: 120000003 cycles: 266840718 heartbeat IPC: 0.421671 cumulative IPC: 0.446574 (Simulation time: 0 hr 5 min 30 sec) 
Heartbeat CPU 0 instructions: 121000000 cycles: 269164972 heartbeat IPC: 0.430244 cumulative IPC: 0.446433 (Simulation time: 0 hr 5 min 33 sec) 
Heartbeat CPU 0 instructions: 122000001 cycles: 273351190 heartbeat IPC: 0.238879 cumulative IPC: 0.44325 (Simulation time: 0 hr 5 min 37 sec) 
Heartbeat CPU 0 instructions: 123000002 cycles: 273947295 heartbeat IPC: 1.67756 cumulative IPC: 0.44594 (Simulation time: 0 hr 5 min 40 sec) 
Heartbeat CPU 0 instructions: 124000000 cycles: 274491066 heartbeat IPC: 1.83901 cumulative IPC: 0.448703 (Simulation time: 0 hr 5 min 42 sec) 
Heartbeat CPU 0 instructions: 125000000 cycles: 275038852 heartbeat IPC: 1.82553 cumulative IPC: 0.451449 (Simulation time: 0 hr 5 min 45 sec) 
Heartbeat CPU 0 instructions: 126000000 cycles: 275695956 heartbeat IPC: 1.52183 cumulative IPC: 0.454003 (Simulation time: 0 hr 5 min 48 sec) 
Heartbeat CPU 0 instructions: 127000001 cycles: 277138477 heartbeat IPC: 0.693232 cumulative IPC: 0.45525 (Simulation time: 0 hr 5 min 50 sec) 
Heartbeat CPU 0 instructions: 128000000 cycles: 280081635 heartbeat IPC: 0.339771 cumulative IPC: 0.454035 (Simulation time: 0 hr 5 min 53 sec) 
Heartbeat CPU 0 instructions: 129000002 cycles: 282672272 heartbeat IPC: 0.386006 cumulative IPC: 0.453411 (Simulation time: 0 hr 5 min 55 sec) 
Heartbeat CPU 0 instructions: 130000001 cycles: 285026378 heartbeat IPC: 0.424789 cumulative IPC: 0.453174 (Simulation time: 0 hr 5 min 57 sec) 
Heartbeat CPU 0 instructions: 131000000 cycles: 287373211 heartbeat IPC: 0.426106 cumulative IPC: 0.452953 (Simulation time: 0 hr 5 min 59 sec) 
Heartbeat CPU 0 instructions: 132000000 cycles: 289785026 heartbeat IPC: 0.414625 cumulative IPC: 0.452634 (Simulation time: 0 hr 6 min 1 sec) 
Heartbeat CPU 0 instructions: 133000001 cycles: 292186562 heartbeat IPC: 0.416401 cumulative IPC: 0.452335 (Simulation time: 0 hr 6 min 4 sec) 
Heartbeat CPU 0 instructions: 134000002 cycles: 294518377 heartbeat IPC: 0.428851 cumulative IPC: 0.452149 (Simulation time: 0 hr 6 min 7 sec) 
Heartbeat CPU 0 instructions: 135000001 cycles: 296879401 heartbeat IPC: 0.423545 cumulative IPC: 0.451921 (Simulation time: 0 hr 6 min 10 sec) 
Heartbeat CPU 0 instructions: 136000000 cycles: 299203705 heartbeat IPC: 0.430236 cumulative IPC: 0.451753 (Simulation time: 0 hr 6 min 13 sec) 
Heartbeat CPU 0 instructions: 137000000 cycles: 301567913 heartbeat IPC: 0.422975 cumulative IPC: 0.451527 (Simulation time: 0 hr 6 min 16 sec) 
Heartbeat CPU 0 instructions: 138000002 cycles: 304380754 heartbeat IPC: 0.355513 cumulative IPC: 0.450638 (Simulation time: 0 hr 6 min 19 sec) 
Heartbeat CPU 0 instructions: 139000001 cycles: 306660628 heartbeat IPC: 0.43862 cumulative IPC: 0.450549 (Simulation time: 0 hr 6 min 22 sec) 
Heartbeat CPU 0 instructions: 140000000 cycles: 309568908 heartbeat IPC: 0.343846 cumulative IPC: 0.449545 (Simulation time: 0 hr 6 min 25 sec) 
Heartbeat CPU 0 instructions: 141000000 cycles: 312487308 heartbeat IPC: 0.342654 cumulative IPC: 0.448546 (Simulation time: 0 hr 6 min 28 sec) 
Heartbeat CPU 0 instructions: 142000002 cycles: 315310707 heartbeat IPC: 0.354184 cumulative IPC: 0.4477 (Simulation time: 0 hr 6 min 31 sec) 
Heartbeat CPU 0 instructions: 143000000 cycles: 317686160 heartbeat IPC: 0.420971 cumulative IPC: 0.4475 (Simulation time: 0 hr 6 min 34 sec) 
Heartbeat CPU 0 instructions: 144000003 cycles: 320117466 heartbeat IPC: 0.411303 cumulative IPC: 0.447225 (Simulation time: 0 hr 6 min 37 sec) 
Heartbeat CPU 0 instructions: 145000000 cycles: 322456747 heartbeat IPC: 0.42748 cumulative IPC: 0.447081 (Simulation time: 0 hr 6 min 39 sec) 
Heartbeat CPU 0 instructions: 146000003 cycles: 324807457 heartbeat IPC: 0.425405 cumulative IPC: 0.446924 (Simulation time: 0 hr 6 min 41 sec) 
Heartbeat CPU 0 instructions: 147000001 cycles: 327177762 heartbeat IPC: 0.421886 cumulative IPC: 0.446743 (Simulation time: 0 hr 6 min 44 sec) 
Heartbeat CPU 0 instructions: 148000000 cycles: 329541428 heartbeat IPC: 0.423071 cumulative IPC: 0.446573 (Simulation time: 0 hr 6 min 48 sec) 
Heartbeat CPU 0 instructions: 149000000 cycles: 331891394 heartbeat IPC: 0.425538 cumulative IPC: 0.446424 (Simulation time: 0 hr 6 min 51 sec) 
Heartbeat CPU 0 instructions: 150000001 cycles: 336106538 heartbeat IPC: 0.23724 cumulative IPC: 0.443797 (Simulation time: 0 hr 6 min 56 sec) 
Heartbeat CPU 0 instructions: 151000002 cycles: 336871187 heartbeat IPC: 1.30779 cumulative IPC: 0.445761 (Simulation time: 0 hr 6 min 58 sec) 
Heartbeat CPU 0 instructions: 152000001 cycles: 337415425 heartbeat IPC: 1.83743 cumulative IPC: 0.448008 (Simulation time: 0 hr 7 min 1 sec) 
Heartbeat CPU 0 instructions: 153000000 cycles: 337953653 heartbeat IPC: 1.85795 cumulative IPC: 0.450256 (Simulation time: 0 hr 7 min 3 sec) 
Heartbeat CPU 0 instructions: 154000000 cycles: 338502764 heartbeat IPC: 1.82113 cumulative IPC: 0.452482 (Simulation time: 0 hr 7 min 5 sec) 
Heartbeat CPU 0 instructions: 155000000 cycles: 340110866 heartbeat IPC: 0.621851 cumulative IPC: 0.453284 (Simulation time: 0 hr 7 min 7 sec) 
Heartbeat CPU 0 instructions: 156000001 cycles: 343113131 heartbeat IPC: 0.333082 cumulative IPC: 0.452231 (Simulation time: 0 hr 7 min 9 sec) 
Heartbeat CPU 0 instructions: 157000002 cycles: 345583656 heartbeat IPC: 0.404773 cumulative IPC: 0.451891 (Simulation time: 0 hr 7 min 12 sec) 
Heartbeat CPU 0 instructions: 158000001 cycles: 347961930 heartbeat IPC: 0.420473 cumulative IPC: 0.451676 (Simulation time: 0 hr 7 min 15 sec) 
Heartbeat CPU 0 instructions: 159000000 cycles: 350468581 heartbeat IPC: 0.398938 cumulative IPC: 0.451298 (Simulation time: 0 hr 7 min 18 sec) 
Heartbeat CPU 0 instructions: 160000000 cycles: 352817768 heartbeat IPC: 0.425679 cumulative IPC: 0.451128 (Simulation time: 0 hr 7 min 20 sec) 
Heartbeat CPU 0 instructions: 161000001 cycles: 355177988 heartbeat IPC: 0.42369 cumulative IPC: 0.450945 (Simulation time: 0 hr 7 min 22 sec) 
Heartbeat CPU 0 instructions: 162000002 cycles: 357553402 heartbeat IPC: 0.42098 cumulative IPC: 0.450746 (Simulation time: 0 hr 7 min 24 sec) 
Heartbeat CPU 0 instructions: 163000000 cycles: 359931551 heartbeat IPC: 0.420494 cumulative IPC: 0.450546 (Simulation time: 0 hr 7 min 27 sec) 
Heartbeat CPU 0 instructions: 164000001 cycles: 362477871 heartbeat IPC: 0.392724 cumulative IPC: 0.450139 (Simulation time: 0 hr 7 min 29 sec) 
Heartbeat CPU 0 instructions: 165000000 cycles: 364841290 heartbeat IPC: 0.423115 cumulative IPC: 0.449964 (Simulation time: 0 hr 7 min 31 sec) 
Heartbeat CPU 0 instructions: 166000000 cycles: 367365275 heartbeat IPC: 0.396199 cumulative IPC: 0.449594 (Simulation time: 0 hr 7 min 34 sec) 
Heartbeat CPU 0 instructions: 167000001 cycles: 369904260 heartbeat IPC: 0.393859 cumulative IPC: 0.449211 (Simulation time: 0 hr 7 min 38 sec) 
Heartbeat CPU 0 instructions: 168000002 cycles: 372805838 heartbeat IPC: 0.34464 cumulative IPC: 0.448397 (Simulation time: 0 hr 7 min 41 sec) 
Heartbeat CPU 0 instructions: 169000000 cycles: 375675519 heartbeat IPC: 0.34847 cumulative IPC: 0.447632 (Simulation time: 0 hr 7 min 45 sec) 
Heartbeat CPU 0 instructions: 170000003 cycles: 378459601 heartbeat IPC: 0.359186 cumulative IPC: 0.446981 (Simulation time: 0 hr 7 min 48 sec) 
Heartbeat CPU 0 instructions: 171000002 cycles: 380881010 heartbeat IPC: 0.412982 cumulative IPC: 0.446765 (Simulation time: 0 hr 7 min 51 sec) 
Heartbeat CPU 0 instructions: 172000000 cycles: 383289275 heartbeat IPC: 0.415236 cumulative IPC: 0.446567 (Simulation time: 0 hr 7 min 53 sec) 
Heartbeat CPU 0 instructions: 173000001 cycles: 385643814 heartbeat IPC: 0.424712 cumulative IPC: 0.446433 (Simulation time: 0 hr 7 min 55 sec) 
Heartbeat CPU 0 instructions: 174000001 cycles: 388020009 heartbeat IPC: 0.420841 cumulative IPC: 0.446276 (Simulation time: 0 hr 7 min 57 sec) 
Heartbeat CPU 0 instructions: 175000000 cycles: 390425204 heartbeat IPC: 0.415766 cumulative IPC: 0.446088 (Simulation time: 0 hr 8 min 0 sec) 
Heartbeat CPU 0 instructions: 176000000 cycles: 392894290 heartbeat IPC: 0.405008 cumulative IPC: 0.44583 (Simulation time: 0 hr 8 min 2 sec) 
Heartbeat CPU 0 instructions: 177000000 cycles: 395269754 heartbeat IPC: 0.42097 cumulative IPC: 0.44568 (Simulation time: 0 hr 8 min 5 sec) 
Heartbeat CPU 0 instructions: 178000001 cycles: 399469675 heartbeat IPC: 0.2381 cumulative IPC: 0.443496 (Simulation time: 0 hr 8 min 9 sec) 
Heartbeat CPU 0 instructions: 179000001 cycles: 400065751 heartbeat IPC: 1.67764 cumulative IPC: 0.445336 (Simulation time: 0 hr 8 min 11 sec) 
Heartbeat CPU 0 instructions: 180000000 cycles: 400608765 heartbeat IPC: 1.84157 cumulative IPC: 0.44723 (Simulation time: 0 hr 8 min 13 sec) 
Heartbeat CPU 0 instructions: 181000001 cycles: 401147770 heartbeat IPC: 1.85527 cumulative IPC: 0.449124 (Simulation time: 0 hr 8 min 15 sec) 
Heartbeat CPU 0 instructions: 182000001 cycles: 401696237 heartbeat IPC: 1.82326 cumulative IPC: 0.451002 (Simulation time: 0 hr 8 min 17 sec) 
Heartbeat CPU 0 instructions: 183000001 cycles: 403363889 heartbeat IPC: 0.599645 cumulative IPC: 0.451617 (Simulation time: 0 hr 8 min 20 sec) 
Heartbeat CPU 0 instructions: 184000000 cycles: 406370447 heartbeat IPC: 0.332606 cumulative IPC: 0.450736 (Simulation time: 0 hr 8 min 23 sec) 
Heartbeat CPU 0 instructions: 185000000 cycles: 409012702 heartbeat IPC: 0.378465 cumulative IPC: 0.450269 (Simulation time: 0 hr 8 min 26 sec) 
Heartbeat CPU 0 instructions: 186000000 cycles: 411403637 heartbeat IPC: 0.418246 cumulative IPC: 0.450082 (Simulation time: 0 hr 8 min 28 sec) 
Heartbeat CPU 0 instructions: 187000000 cycles: 413801930 heartbeat IPC: 0.416963 cumulative IPC: 0.44989 (Simulation time: 0 hr 8 min 31 sec) 
Heartbeat CPU 0 instructions: 188000000 cycles: 416192905 heartbeat IPC: 0.418239 cumulative IPC: 0.449708 (Simulation time: 0 hr 8 min 34 sec) 
Heartbeat CPU 0 instructions: 189000000 cycles: 418557881 heartbeat IPC: 0.422837 cumulative IPC: 0.449556 (Simulation time: 0 hr 8 min 38 sec) 
Heartbeat CPU 0 instructions: 190000000 cycles: 421119171 heartbeat IPC: 0.390428 cumulative IPC: 0.449196 (Simulation time: 0 hr 8 min 42 sec) 
Heartbeat CPU 0 instructions: 191000002 cycles: 423476711 heartbeat IPC: 0.424172 cumulative IPC: 0.449057 (Simulation time: 0 hr 8 min 46 sec) 
Heartbeat CPU 0 instructions: 192000002 cycles: 425842209 heartbeat IPC: 0.422744 cumulative IPC: 0.448911 (Simulation time: 0 hr 8 min 49 sec) 
Heartbeat CPU 0 instructions: 193000000 cycles: 428220082 heartbeat IPC: 0.420543 cumulative IPC: 0.448753 (Simulation time: 0 hr 8 min 52 sec) 
Heartbeat CPU 0 instructions: 194000000 cycles: 430618781 heartbeat IPC: 0.416893 cumulative IPC: 0.448575 (Simulation time: 0 hr 8 min 54 sec) 
Heartbeat CPU 0 instructions: 195000000 cycles: 433165963 heartbeat IPC: 0.392591 cumulative IPC: 0.448246 (Simulation time: 0 hr 8 min 57 sec) 
Heartbeat CPU 0 instructions: 196000001 cycles: 435744851 heartbeat IPC: 0.387764 cumulative IPC: 0.447887 (Simulation time: 0 hr 9 min 0 sec) 
Heartbeat CPU 0 instructions: 197000002 cycles: 438636256 heartbeat IPC: 0.345853 cumulative IPC: 0.447214 (Simulation time: 0 hr 9 min 3 sec) 
Heartbeat CPU 0 instructions: 198000000 cycles: 441523513 heartbeat IPC: 0.346349 cumulative IPC: 0.446554 (Simulation time: 0 hr 9 min 6 sec) 
Heartbeat CPU 0 instructions: 199000002 cycles: 444391565 heartbeat IPC: 0.348669 cumulative IPC: 0.445922 (Simulation time: 0 hr 9 min 10 sec) 
Heartbeat CPU 0 instructions: 200000000 cycles: 446795779 heartbeat IPC: 0.415936 cumulative IPC: 0.44576 (Simulation time: 0 hr 9 min 14 sec) 
Heartbeat CPU 0 instructions: 201000001 cycles: 449180270 heartbeat IPC: 0.419377 cumulative IPC: 0.44562 (Simulation time: 0 hr 9 min 17 sec) 
Heartbeat CPU 0 instructions: 202000001 cycles: 451669435 heartbeat IPC: 0.401741 cumulative IPC: 0.445378 (Simulation time: 0 hr 9 min 21 sec) 
Heartbeat CPU 0 instructions: 203000001 cycles: 454046265 heartbeat IPC: 0.420728 cumulative IPC: 0.445249 (Simulation time: 0 hr 9 min 24 sec) 
Heartbeat CPU 0 instructions: 204000000 cycles: 456441783 heartbeat IPC: 0.417446 cumulative IPC: 0.445103 (Simulation time: 0 hr 9 min 28 sec) 
Heartbeat CPU 0 instructions: 205000003 cycles: 458816251 heartbeat IPC: 0.421148 cumulative IPC: 0.444979 (Simulation time: 0 hr 9 min 31 sec) 
Heartbeat CPU 0 instructions: 206000001 cycles: 462999632 heartbeat IPC: 0.239041 cumulative IPC: 0.443117 (Simulation time: 0 hr 9 min 35 sec) 
Heartbeat CPU 0 instructions: 207000000 cycles: 463603459 heartbeat IPC: 1.6561 cumulative IPC: 0.444698 (Simulation time: 0 hr 9 min 37 sec) 
Heartbeat CPU 0 instructions: 208000002 cycles: 464156080 heartbeat IPC: 1.80956 cumulative IPC: 0.446324 (Simulation time: 0 hr 9 min 38 sec) 
Heartbeat CPU 0 instructions: 209000000 cycles: 464695477 heartbeat IPC: 1.85392 cumulative IPC: 0.447959 (Simulation time: 0 hr 9 min 40 sec) 
Heartbeat CPU 0 instructions: 210000000 cycles: 465403563 heartbeat IPC: 1.41226 cumulative IPC: 0.449428 (Simulation time: 0 hr 9 min 42 sec) 
Heartbeat CPU 0 instructions: 211000001 cycles: 466343135 heartbeat IPC: 1.06432 cumulative IPC: 0.450668 (Simulation time: 0 hr 9 min 45 sec) 
Heartbeat CPU 0 instructions: 212000000 cycles: 469325017 heartbeat IPC: 0.335358 cumulative IPC: 0.449934 (Simulation time: 0 hr 9 min 47 sec) 
Heartbeat CPU 0 instructions: 213000000 cycles: 472297574 heartbeat IPC: 0.336411 cumulative IPC: 0.449219 (Simulation time: 0 hr 9 min 49 sec) 
Heartbeat CPU 0 instructions: 214000002 cycles: 474930259 heartbeat IPC: 0.379841 cumulative IPC: 0.448834 (Simulation time: 0 hr 9 min 52 sec) 
Heartbeat CPU 0 instructions: 215000000 cycles: 477313984 heartbeat IPC: 0.419511 cumulative IPC: 0.448688 (Simulation time: 0 hr 9 min 54 sec) 
Heartbeat CPU 0 instructions: 216000000 cycles: 479715881 heartbeat IPC: 0.416338 cumulative IPC: 0.448526 (Simulation time: 0 hr 9 min 57 sec) 
Heartbeat CPU 0 instructions: 217000000 cycles: 482270222 heartbeat IPC: 0.39149 cumulative IPC: 0.448223 (Simulation time: 0 hr 10 min 1 sec) 
Heartbeat CPU 0 instructions: 218000002 cycles: 484652741 heartbeat IPC: 0.419725 cumulative IPC: 0.448083 (Simulation time: 0 hr 10 min 4 sec) 
Heartbeat CPU 0 instructions: 219000002 cycles: 487059046 heartbeat IPC: 0.415575 cumulative IPC: 0.447922 (Simulation time: 0 hr 10 min 7 sec) 
Heartbeat CPU 0 instructions: 220000000 cycles: 489459909 heartbeat IPC: 0.416516 cumulative IPC: 0.447768 (Simulation time: 0 hr 10 min 10 sec) 
Heartbeat CPU 0 instructions: 221000001 cycles: 491835230 heartbeat IPC: 0.420996 cumulative IPC: 0.447639 (Simulation time: 0 hr 10 min 13 sec) 
Heartbeat CPU 0 instructions: 222000000 cycles: 494317939 heartbeat IPC: 0.402785 cumulative IPC: 0.447413 (Simulation time: 0 hr 10 min 16 sec) 
Heartbeat CPU 0 instructions: 223000001 cycles: 496736945 heartbeat IPC: 0.413393 cumulative IPC: 0.447248 (Simulation time: 0 hr 10 min 19 sec) 
Heartbeat CPU 0 instructions: 224000000 cycles: 499159605 heartbeat IPC: 0.412769 cumulative IPC: 0.44708 (Simulation time: 0 hr 10 min 23 sec) 
Heartbeat CPU 0 instructions: 225000002 cycles: 501918056 heartbeat IPC: 0.362523 cumulative IPC: 0.446615 (Simulation time: 0 hr 10 min 25 sec) 
Heartbeat CPU 0 instructions: 226000001 cycles: 504783613 heartbeat IPC: 0.348972 cumulative IPC: 0.44606 (Simulation time: 0 hr 10 min 27 sec) 
Heartbeat CPU 0 instructions: 227000001 cycles: 507630882 heartbeat IPC: 0.351214 cumulative IPC: 0.445528 (Simulation time: 0 hr 10 min 29 sec) 
Heartbeat CPU 0 instructions: 228000001 cycles: 509843063 heartbeat IPC: 0.452043 cumulative IPC: 0.445556 (Simulation time: 0 hr 10 min 32 sec) 
Heartbeat CPU 0 instructions: 229000000 cycles: 512787015 heartbeat IPC: 0.339679 cumulative IPC: 0.444948 (Simulation time: 0 hr 10 min 34 sec) 
Heartbeat CPU 0 instructions: 230000000 cycles: 515455491 heartbeat IPC: 0.374746 cumulative IPC: 0.444584 (Simulation time: 0 hr 10 min 38 sec) 
Heartbeat CPU 0 instructions: 231000000 cycles: 517824100 heartbeat IPC: 0.422189 cumulative IPC: 0.444482 (Simulation time: 0 hr 10 min 42 sec) 
Heartbeat CPU 0 instructions: 232000002 cycles: 520222920 heartbeat IPC: 0.416872 cumulative IPC: 0.444354 (Simulation time: 0 hr 10 min 46 sec) 
Heartbeat CPU 0 instructions: 233000000 cycles: 522641482 heartbeat IPC: 0.413468 cumulative IPC: 0.444211 (Simulation time: 0 hr 10 min 50 sec) 
Heartbeat CPU 0 instructions: 234000001 cycles: 526447475 heartbeat IPC: 0.262744 cumulative IPC: 0.442899 (Simulation time: 0 hr 10 min 55 sec) 
Heartbeat CPU 0 instructions: 235000000 cycles: 527687153 heartbeat IPC: 0.80666 cumulative IPC: 0.443754 (Simulation time: 0 hr 10 min 58 sec) 
Heartbeat CPU 0 instructions: 236000002 cycles: 528231317 heartbeat IPC: 1.83768 cumulative IPC: 0.445191 (Simulation time: 0 hr 11 min 0 sec) 
Heartbeat CPU 0 instructions: 237000000 cycles: 528780312 heartbeat IPC: 1.82151 cumulative IPC: 0.446621 (Simulation time: 0 hr 11 min 2 sec) 
Heartbeat CPU 0 instructions: 238000003 cycles: 529321226 heartbeat IPC: 1.84873 cumulative IPC: 0.448054 (Simulation time: 0 hr 11 min 3 sec) 
Heartbeat CPU 0 instructions: 239000000 cycles: 529884667 heartbeat IPC: 1.7748 cumulative IPC: 0.449466 (Simulation time: 0 hr 11 min 5 sec) 
Heartbeat CPU 0 instructions: 240000000 cycles: 532708739 heartbeat IPC: 0.354099 cumulative IPC: 0.44896 (Simulation time: 0 hr 11 min 8 sec) 
Heartbeat CPU 0 instructions: 241000000 cycles: 535690442 heartbeat IPC: 0.335379 cumulative IPC: 0.448328 (Simulation time: 0 hr 11 min 11 sec) 
Heartbeat CPU 0 instructions: 242000000 cycles: 538661871 heartbeat IPC: 0.336538 cumulative IPC: 0.447711 (Simulation time: 0 hr 11 min 14 sec) 
Heartbeat CPU 0 instructions: 243000002 cycles: 541311005 heartbeat IPC: 0.377483 cumulative IPC: 0.447367 (Simulation time: 0 hr 11 min 17 sec) 
Heartbeat CPU 0 instructions: 244000003 cycles: 543906010 heartbeat IPC: 0.385356 cumulative IPC: 0.447071 (Simulation time: 0 hr 11 min 21 sec) 
Heartbeat CPU 0 instructions: 245000001 cycles: 546298068 heartbeat IPC: 0.418049 cumulative IPC: 0.446943 (Simulation time: 0 hr 11 min 24 sec) 
Heartbeat CPU 0 instructions: 246000000 cycles: 548719044 heartbeat IPC: 0.413056 cumulative IPC: 0.446794 (Simulation time: 0 hr 11 min 28 sec) 
Heartbeat CPU 0 instructions: 247000000 cycles: 551129984 heartbeat IPC: 0.414776 cumulative IPC: 0.446654 (Simulation time: 0 hr 11 min 31 sec) 
Heartbeat CPU 0 instructions: 248000003 cycles: 553707467 heartbeat IPC: 0.387977 cumulative IPC: 0.44638 (Simulation time: 0 hr 11 min 34 sec) 
Heartbeat CPU 0 instructions: 249000001 cycles: 556100859 heartbeat IPC: 0.417816 cumulative IPC: 0.446257 (Simulation time: 0 hr 11 min 36 sec) 
Heartbeat CPU 0 instructions: 250000000 cycles: 558494394 heartbeat IPC: 0.417792 cumulative IPC: 0.446135 (Simulation time: 0 hr 11 min 38 sec) 
Heartbeat CPU 0 instructions: 251000000 cycles: 560951492 heartbeat IPC: 0.406984 cumulative IPC: 0.445964 (Simulation time: 0 hr 11 min 40 sec) 
Heartbeat CPU 0 instructions: 252000003 cycles: 563354277 heartbeat IPC: 0.416185 cumulative IPC: 0.445837 (Simulation time: 0 hr 11 min 43 sec) 
Heartbeat CPU 0 instructions: 253000000 cycles: 565764401 heartbeat IPC: 0.414915 cumulative IPC: 0.445705 (Simulation time: 0 hr 11 min 45 sec) 
Heartbeat CPU 0 instructions: 254000001 cycles: 568345229 heartbeat IPC: 0.387473 cumulative IPC: 0.44544 (Simulation time: 0 hr 11 min 48 sec) 
Heartbeat CPU 0 instructions: 255000003 cycles: 570749439 heartbeat IPC: 0.415938 cumulative IPC: 0.445316 (Simulation time: 0 hr 11 min 50 sec) 
Heartbeat CPU 0 instructions: 256000002 cycles: 573258932 heartbeat IPC: 0.398486 cumulative IPC: 0.445111 (Simulation time: 0 hr 11 min 53 sec) 
Heartbeat CPU 0 instructions: 257000000 cycles: 576189298 heartbeat IPC: 0.341254 cumulative IPC: 0.444582 (Simulation time: 0 hr 11 min 56 sec) 
Heartbeat CPU 0 instructions: 258000001 cycles: 579100403 heartbeat IPC: 0.343513 cumulative IPC: 0.444074 (Simulation time: 0 hr 11 min 58 sec) 
Heartbeat CPU 0 instructions: 259000001 cycles: 581986812 heartbeat IPC: 0.346451 cumulative IPC: 0.443589 (Simulation time: 0 hr 12 min 2 sec) 
Heartbeat CPU 0 instructions: 260000001 cycles: 584691555 heartbeat IPC: 0.369721 cumulative IPC: 0.443247 (Simulation time: 0 hr 12 min 5 sec) 
Heartbeat CPU 0 instructions: 261000001 cycles: 587141671 heartbeat IPC: 0.408144 cumulative IPC: 0.443101 (Simulation time: 0 hr 12 min 7 sec) 
Heartbeat CPU 0 instructions: 262000001 cycles: 589643270 heartbeat IPC: 0.399744 cumulative IPC: 0.442917 (Simulation time: 0 hr 12 min 10 sec) 
Heartbeat CPU 0 instructions: 263000000 cycles: 592093672 heartbeat IPC: 0.408096 cumulative IPC: 0.442772 (Simulation time: 0 hr 12 min 12 sec) 
Heartbeat CPU 0 instructions: 264000000 cycles: 592656645 heartbeat IPC: 1.77628 cumulative IPC: 0.44404 (Simulation time: 0 hr 12 min 14 sec) 
Heartbeat CPU 0 instructions: 265000000 cycles: 593199608 heartbeat IPC: 1.84175 cumulative IPC: 0.44532 (Simulation time: 0 hr 12 min 16 sec) 
Heartbeat CPU 0 instructions: 266000002 cycles: 593750234 heartbeat IPC: 1.81612 cumulative IPC: 0.446592 (Simulation time: 0 hr 12 min 18 sec) 
Heartbeat CPU 0 instructions: 267000001 cycles: 594288160 heartbeat IPC: 1.85899 cumulative IPC: 0.447871 (Simulation time: 0 hr 12 min 20 sec) 
Heartbeat CPU 0 instructions: 268000002 cycles: 596734239 heartbeat IPC: 0.408818 cumulative IPC: 0.447711 (Simulation time: 0 hr 12 min 22 sec) 
Heartbeat CPU 0 instructions: 269000002 cycles: 599333112 heartbeat IPC: 0.384782 cumulative IPC: 0.447438 (Simulation time: 0 hr 12 min 25 sec) 
Heartbeat CPU 0 instructions: 270000000 cycles: 601858013 heartbeat IPC: 0.396054 cumulative IPC: 0.447222 (Simulation time: 0 hr 12 min 29 sec) 
Heartbeat CPU 0 instructions: 271000000 cycles: 604826183 heartbeat IPC: 0.336908 cumulative IPC: 0.446681 (Simulation time: 0 hr 12 min 32 sec) 
Heartbeat CPU 0 instructions: 272000000 cycles: 607758275 heartbeat IPC: 0.341053 cumulative IPC: 0.446171 (Simulation time: 0 hr 12 min 34 sec) 
Heartbeat CPU 0 instructions: 273000002 cycles: 610711829 heartbeat IPC: 0.338576 cumulative IPC: 0.44565 (Simulation time: 0 hr 12 min 36 sec) 
Heartbeat CPU 0 instructions: 274000001 cycles: 613240937 heartbeat IPC: 0.395396 cumulative IPC: 0.445443 (Simulation time: 0 hr 12 min 39 sec) 
Heartbeat CPU 0 instructions: 275000000 cycles: 615719718 heartbeat IPC: 0.403424 cumulative IPC: 0.445274 (Simulation time: 0 hr 12 min 43 sec) 
Heartbeat CPU 0 instructions: 276000001 cycles: 618142478 heartbeat IPC: 0.412753 cumulative IPC: 0.445146 (Simulation time: 0 hr 12 min 45 sec) 
Heartbeat CPU 0 instructions: 277000003 cycles: 620565443 heartbeat IPC: 0.412718 cumulative IPC: 0.445019 (Simulation time: 0 hr 12 min 47 sec) 
Heartbeat CPU 0 instructions: 278000000 cycles: 622976754 heartbeat IPC: 0.414711 cumulative IPC: 0.444902 (Simulation time: 0 hr 12 min 49 sec) 
Heartbeat CPU 0 instructions: 279000001 cycles: 625438514 heartbeat IPC: 0.406214 cumulative IPC: 0.44475 (Simulation time: 0 hr 12 min 52 sec) 
Heartbeat CPU 0 instructions: 280000002 cycles: 627999276 heartbeat IPC: 0.390509 cumulative IPC: 0.444528 (Simulation time: 0 hr 12 min 54 sec) 
Heartbeat CPU 0 instructions: 281000002 cycles: 630405415 heartbeat IPC: 0.415604 cumulative IPC: 0.444418 (Simulation time: 0 hr 12 min 57 sec) 
Heartbeat CPU 0 instructions: 282000000 cycles: 632836906 heartbeat IPC: 0.411269 cumulative IPC: 0.44429 (Simulation time: 0 hr 13 min 1 sec) 
Heartbeat CPU 0 instructions: 283000001 cycles: 635283027 heartbeat IPC: 0.408811 cumulative IPC: 0.444154 (Simulation time: 0 hr 13 min 4 sec) 
Heartbeat CPU 0 instructions: 284000002 cycles: 637702839 heartbeat IPC: 0.413256 cumulative IPC: 0.444036 (Simulation time: 0 hr 13 min 8 sec) 
Heartbeat CPU 0 instructions: 285000000 cycles: 640126888 heartbeat IPC: 0.412532 cumulative IPC: 0.443917 (Simulation time: 0 hr 13 min 11 sec) 
Heartbeat CPU 0 instructions: 286000000 cycles: 642735663 heartbeat IPC: 0.383322 cumulative IPC: 0.443671 (Simulation time: 0 hr 13 min 14 sec) 
Heartbeat CPU 0 instructions: 287000001 cycles: 645325851 heartbeat IPC: 0.386073 cumulative IPC: 0.44344 (Simulation time: 0 hr 13 min 16 sec) 
Heartbeat CPU 0 instructions: 288000000 cycles: 648242262 heartbeat IPC: 0.342887 cumulative IPC: 0.442987 (Simulation time: 0 hr 13 min 19 sec) 
Heartbeat CPU 0 instructions: 289000000 cycles: 651141588 heartbeat IPC: 0.344908 cumulative IPC: 0.44255 (Simulation time: 0 hr 13 min 22 sec) 
Heartbeat CPU 0 instructions: 290000001 cycles: 654019120 heartbeat IPC: 0.34752 cumulative IPC: 0.442132 (Simulation time: 0 hr 13 min 25 sec) 
Heartbeat CPU 0 instructions: 291000001 cycles: 656743953 heartbeat IPC: 0.366995 cumulative IPC: 0.44182 (Simulation time: 0 hr 13 min 28 sec) 
Heartbeat CPU 0 instructions: 292000002 cycles: 657307298 heartbeat IPC: 1.77511 cumulative IPC: 0.442963 (Simulation time: 0 hr 13 min 30 sec) 
Heartbeat CPU 0 instructions: 293000001 cycles: 657858314 heartbeat IPC: 1.81483 cumulative IPC: 0.444113 (Simulation time: 0 hr 13 min 31 sec) 
Heartbeat CPU 0 instructions: 294000003 cycles: 658572551 heartbeat IPC: 1.4001 cumulative IPC: 0.44515 (Simulation time: 0 hr 13 min 34 sec) 
Heartbeat CPU 0 instructions: 295000000 cycles: 659113830 heartbeat IPC: 1.84747 cumulative IPC: 0.446302 (Simulation time: 0 hr 13 min 36 sec) 
Heartbeat CPU 0 instructions: 296000001 cycles: 661596797 heartbeat IPC: 0.402744 cumulative IPC: 0.446139 (Simulation time: 0 hr 13 min 39 sec) 
Heartbeat CPU 0 instructions: 297000000 cycles: 664026670 heartbeat IPC: 0.411544 cumulative IPC: 0.446012 (Simulation time: 0 hr 13 min 42 sec) 
Heartbeat CPU 0 instructions: 298000000 cycles: 666449215 heartbeat IPC: 0.412789 cumulative IPC: 0.445891 (Simulation time: 0 hr 13 min 46 sec) 
Heartbeat CPU 0 instructions: 299000000 cycles: 668860580 heartbeat IPC: 0.414703 cumulative IPC: 0.445779 (Simulation time: 0 hr 13 min 50 sec) 
Heartbeat CPU 0 instructions: 300000002 cycles: 671332842 heartbeat IPC: 0.404489 cumulative IPC: 0.445627 (Simulation time: 0 hr 13 min 53 sec) 
Heartbeat CPU 0 instructions: 301000001 cycles: 673959810 heartbeat IPC: 0.380667 cumulative IPC: 0.445373 (Simulation time: 0 hr 13 min 57 sec) 
Heartbeat CPU 0 instructions: 302000002 cycles: 676869027 heartbeat IPC: 0.343735 cumulative IPC: 0.444936 (Simulation time: 0 hr 14 min 0 sec) 
Heartbeat CPU 0 instructions: 303000001 cycles: 679804408 heartbeat IPC: 0.340671 cumulative IPC: 0.444486 (Simulation time: 0 hr 14 min 2 sec) 
Heartbeat CPU 0 instructions: 304000002 cycles: 682726437 heartbeat IPC: 0.342228 cumulative IPC: 0.444048 (Simulation time: 0 hr 14 min 6 sec) 
Heartbeat CPU 0 instructions: 305000002 cycles: 685338991 heartbeat IPC: 0.382767 cumulative IPC: 0.443814 (Simulation time: 0 hr 14 min 10 sec) 
Heartbeat CPU 0 instructions: 306000001 cycles: 687768722 heartbeat IPC: 0.411568 cumulative IPC: 0.4437 (Simulation time: 0 hr 14 min 13 sec) 
Heartbeat CPU 0 instructions: 307000003 cycles: 690312996 heartbeat IPC: 0.39304 cumulative IPC: 0.443513 (Simulation time: 0 hr 14 min 16 sec) 
Heartbeat CPU 0 instructions: 308000000 cycles: 692726935 heartbeat IPC: 0.414259 cumulative IPC: 0.443411 (Simulation time: 0 hr 14 min 20 sec) 
Heartbeat CPU 0 instructions: 309000003 cycles: 695179469 heartbeat IPC: 0.407743 cumulative IPC: 0.443285 (Simulation time: 0 hr 14 min 23 sec) 
Heartbeat CPU 0 instructions: 310000002 cycles: 697603996 heartbeat IPC: 0.412451 cumulative IPC: 0.443178 (Simulation time: 0 hr 14 min 25 sec) 
Heartbeat CPU 0 instructions: 311000002 cycles: 700021825 heartbeat IPC: 0.413594 cumulative IPC: 0.443076 (Simulation time: 0 hr 14 min 28 sec) 
Heartbeat CPU 0 instructions: 312000000 cycles: 702641785 heartbeat IPC: 0.381684 cumulative IPC: 0.442847 (Simulation time: 0 hr 14 min 31 sec) 
Heartbeat CPU 0 instructions: 313000001 cycles: 705074332 heartbeat IPC: 0.411092 cumulative IPC: 0.442737 (Simulation time: 0 hr 14 min 33 sec) 
Heartbeat CPU 0 instructions: 314000002 cycles: 707525382 heartbeat IPC: 0.407989 cumulative IPC: 0.442617 (Simulation time: 0 hr 14 min 35 sec) 
Heartbeat CPU 0 instructions: 315000003 cycles: 709965980 heartbeat IPC: 0.409736 cumulative IPC: 0.442504 (Simulation time: 0 hr 14 min 38 sec) 
Heartbeat CPU 0 instructions: 316000001 cycles: 712386672 heartbeat IPC: 0.413104 cumulative IPC: 0.442404 (Simulation time: 0 hr 14 min 41 sec) 
Heartbeat CPU 0 instructions: 317000000 cycles: 714820705 heartbeat IPC: 0.41084 cumulative IPC: 0.442296 (Simulation time: 0 hr 14 min 44 sec) 
Heartbeat CPU 0 instructions: 318000001 cycles: 717508871 heartbeat IPC: 0.372001 cumulative IPC: 0.442033 (Simulation time: 0 hr 14 min 48 sec) 
Heartbeat CPU 0 instructions: 319000000 cycles: 721826085 heartbeat IPC: 0.231631 cumulative IPC: 0.440774 (Simulation time: 0 hr 14 min 53 sec) 
Heartbeat CPU 0 instructions: 320000000 cycles: 722410602 heartbeat IPC: 1.71081 cumulative IPC: 0.441802 (Simulation time: 0 hr 14 min 55 sec) 
Heartbeat CPU 0 instructions: 321000001 cycles: 722960200 heartbeat IPC: 1.81951 cumulative IPC: 0.44285 (Simulation time: 0 hr 14 min 57 sec) 
Heartbeat CPU 0 instructions: 322000001 cycles: 723511125 heartbeat IPC: 1.81513 cumulative IPC: 0.443895 (Simulation time: 0 hr 14 min 59 sec) 
Heartbeat CPU 0 instructions: 323000001 cycles: 724064544 heartbeat IPC: 1.80695 cumulative IPC: 0.444938 (Simulation time: 0 hr 15 min 2 sec) 
Heartbeat CPU 0 instructions: 324000002 cycles: 725826063 heartbeat IPC: 0.567692 cumulative IPC: 0.445236 (Simulation time: 0 hr 15 min 5 sec) 
Heartbeat CPU 0 instructions: 325000000 cycles: 729002468 heartbeat IPC: 0.314821 cumulative IPC: 0.444667 (Simulation time: 0 hr 15 min 9 sec) 
Heartbeat CPU 0 instructions: 326000000 cycles: 731579026 heartbeat IPC: 0.388115 cumulative IPC: 0.444468 (Simulation time: 0 hr 15 min 11 sec) 
Heartbeat CPU 0 instructions: 327000000 cycles: 734008871 heartbeat IPC: 0.411549 cumulative IPC: 0.444359 (Simulation time: 0 hr 15 min 14 sec) 
Heartbeat CPU 0 instructions: 328000001 cycles: 736439918 heartbeat IPC: 0.411346 cumulative IPC: 0.44425 (Simulation time: 0 hr 15 min 16 sec) 
Heartbeat CPU 0 instructions: 329000000 cycles: 738910476 heartbeat IPC: 0.404766 cumulative IPC: 0.444118 (Simulation time: 0 hr 15 min 20 sec) 
Heartbeat CPU 0 instructions: 330000000 cycles: 743215226 heartbeat IPC: 0.232302 cumulative IPC: 0.44289 (Simulation time: 0 hr 15 min 24 sec) 
Heartbeat CPU 0 instructions: 331000001 cycles: 745705755 heartbeat IPC: 0.401522 cumulative IPC: 0.442752 (Simulation time: 0 hr 15 min 27 sec) 
Heartbeat CPU 0 instructions: 332000003 cycles: 748310728 heartbeat IPC: 0.383882 cumulative IPC: 0.442547 (Simulation time: 0 hr 15 min 30 sec) 
Heartbeat CPU 0 instructions: 333000001 cycles: 750736847 heartbeat IPC: 0.41218 cumulative IPC: 0.442449 (Simulation time: 0 hr 15 min 34 sec) 
Heartbeat CPU 0 instructions: 334000001 cycles: 753182753 heartbeat IPC: 0.408846 cumulative IPC: 0.44234 (Simulation time: 0 hr 15 min 38 sec) 
Heartbeat CPU 0 instructions: 335000002 cycles: 757473213 heartbeat IPC: 0.233075 cumulative IPC: 0.441154 (Simulation time: 0 hr 15 min 43 sec) 
Heartbeat CPU 0 instructions: 336000000 cycles: 759950363 heartbeat IPC: 0.403689 cumulative IPC: 0.441032 (Simulation time: 0 hr 15 min 47 sec) 
Heartbeat CPU 0 instructions: 337000000 cycles: 762403429 heartbeat IPC: 0.407653 cumulative IPC: 0.440924 (Simulation time: 0 hr 15 min 51 sec) 
Heartbeat CPU 0 instructions: 338000002 cycles: 765029533 heartbeat IPC: 0.380793 cumulative IPC: 0.440718 (Simulation time: 0 hr 15 min 55 sec) 
Heartbeat CPU 0 instructions: 339000003 cycles: 767467448 heartbeat IPC: 0.410187 cumulative IPC: 0.440621 (Simulation time: 0 hr 15 min 58 sec) 
Heartbeat CPU 0 instructions: 340000000 cycles: 771770968 heartbeat IPC: 0.232367 cumulative IPC: 0.439459 (Simulation time: 0 hr 16 min 3 sec) 
Heartbeat CPU 0 instructions: 341000000 cycles: 774243197 heartbeat IPC: 0.404493 cumulative IPC: 0.439347 (Simulation time: 0 hr 16 min 7 sec) 
Heartbeat CPU 0 instructions: 342000000 cycles: 776716647 heartbeat IPC: 0.404294 cumulative IPC: 0.439235 (Simulation time: 0 hr 16 min 10 sec) 
Heartbeat CPU 0 instructions: 343000001 cycles: 779148128 heartbeat IPC: 0.411272 cumulative IPC: 0.439148 (Simulation time: 0 hr 16 min 14 sec) 
Heartbeat CPU 0 instructions: 344000003 cycles: 781712048 heartbeat IPC: 0.390029 cumulative IPC: 0.438987 (Simulation time: 0 hr 16 min 18 sec) 
Heartbeat CPU 0 instructions: 345000000 cycles: 786026284 heartbeat IPC: 0.23179 cumulative IPC: 0.437849 (Simulation time: 0 hr 16 min 23 sec) 
Heartbeat CPU 0 instructions: 346000001 cycles: 786597342 heartbeat IPC: 1.75114 cumulative IPC: 0.438803 (Simulation time: 0 hr 16 min 26 sec) 
Heartbeat CPU 0 instructions: 347000003 cycles: 787145539 heartbeat IPC: 1.82417 cumulative IPC: 0.439768 (Simulation time: 0 hr 16 min 29 sec) 
Heartbeat CPU 0 instructions: 348000002 cycles: 787694921 heartbeat IPC: 1.82023 cumulative IPC: 0.440732 (Simulation time: 0 hr 16 min 31 sec) 
Heartbeat CPU 0 instructions: 349000003 cycles: 788239159 heartbeat IPC: 1.83743 cumulative IPC: 0.441696 (Simulation time: 0 hr 16 min 34 sec) 
Heartbeat CPU 0 instructions: 350000000 cycles: 790788785 heartbeat IPC: 0.392213 cumulative IPC: 0.441537 (Simulation time: 0 hr 16 min 36 sec) 
Heartbeat CPU 0 instructions: 351000002 cycles: 793258264 heartbeat IPC: 0.404945 cumulative IPC: 0.441423 (Simulation time: 0 hr 16 min 39 sec) 
Heartbeat CPU 0 instructions: 352000000 cycles: 795895813 heartbeat IPC: 0.379139 cumulative IPC: 0.441216 (Simulation time: 0 hr 16 min 43 sec) 
Heartbeat CPU 0 instructions: 353000001 cycles: 798325196 heartbeat IPC: 0.411628 cumulative IPC: 0.441126 (Simulation time: 0 hr 16 min 47 sec) 
Heartbeat CPU 0 instructions: 354000000 cycles: 801006535 heartbeat IPC: 0.372948 cumulative IPC: 0.440898 (Simulation time: 0 hr 16 min 50 sec) 
Heartbeat CPU 0 instructions: 355000002 cycles: 804123763 heartbeat IPC: 0.320798 cumulative IPC: 0.440432 (Simulation time: 0 hr 16 min 55 sec) 
Heartbeat CPU 0 instructions: 356000001 cycles: 807214207 heartbeat IPC: 0.323578 cumulative IPC: 0.439985 (Simulation time: 0 hr 16 min 59 sec) 
Heartbeat CPU 0 instructions: 357000002 cycles: 810032919 heartbeat IPC: 0.354772 cumulative IPC: 0.439688 (Simulation time: 0 hr 17 min 3 sec) 
Heartbeat CPU 0 instructions: 358000002 cycles: 812651556 heartbeat IPC: 0.381878 cumulative IPC: 0.439502 (Simulation time: 0 hr 17 min 7 sec) 
Heartbeat CPU 0 instructions: 359000001 cycles: 815131029 heartbeat IPC: 0.403311 cumulative IPC: 0.439391 (Simulation time: 0 hr 17 min 11 sec) 
Heartbeat CPU 0 instructions: 360000000 cycles: 817594749 heartbeat IPC: 0.40589 cumulative IPC: 0.43929 (Simulation time: 0 hr 17 min 15 sec) 
Heartbeat CPU 0 instructions: 361000000 cycles: 820098488 heartbeat IPC: 0.399403 cumulative IPC: 0.439169 (Simulation time: 0 hr 17 min 19 sec) 
Heartbeat CPU 0 instructions: 362000001 cycles: 822554500 heartbeat IPC: 0.407165 cumulative IPC: 0.439073 (Simulation time: 0 hr 17 min 22 sec) 
Heartbeat CPU 0 instructions: 363000000 cycles: 825196086 heartbeat IPC: 0.37856 cumulative IPC: 0.438879 (Simulation time: 0 hr 17 min 25 sec) 
Heartbeat CPU 0 instructions: 364000002 cycles: 827642080 heartbeat IPC: 0.408833 cumulative IPC: 0.43879 (Simulation time: 0 hr 17 min 28 sec) 
Heartbeat CPU 0 instructions: 365000002 cycles: 830137098 heartbeat IPC: 0.400799 cumulative IPC: 0.438676 (Simulation time: 0 hr 17 min 30 sec) 
Heartbeat CPU 0 instructions: 366000003 cycles: 834501038 heartbeat IPC: 0.229151 cumulative IPC: 0.43758 (Simulation time: 0 hr 17 min 33 sec) 
Heartbeat CPU 0 instructions: 367000000 cycles: 835065771 heartbeat IPC: 1.77074 cumulative IPC: 0.438482 (Simulation time: 0 hr 17 min 35 sec) 
Heartbeat CPU 0 instructions: 368000001 cycles: 835614417 heartbeat IPC: 1.82267 cumulative IPC: 0.439391 (Simulation time: 0 hr 17 min 37 sec) 
Heartbeat CPU 0 instructions: 369000001 cycles: 836156569 heartbeat IPC: 1.8445 cumulative IPC: 0.440303 (Simulation time: 0 hr 17 min 40 sec) 
Heartbeat CPU 0 instructions: 370000003 cycles: 836704486 heartbeat IPC: 1.8251 cumulative IPC: 0.44121 (Simulation time: 0 hr 17 min 42 sec) 
Heartbeat CPU 0 instructions: 371000001 cycles: 839214646 heartbeat IPC: 0.39838 cumulative IPC: 0.441082 (Simulation time: 0 hr 17 min 46 sec) 
Heartbeat CPU 0 instructions: 372000000 cycles: 841792896 heartbeat IPC: 0.38786 cumulative IPC: 0.440919 (Simulation time: 0 hr 17 min 49 sec) 
Heartbeat CPU 0 instructions: 373000001 cycles: 844271334 heartbeat IPC: 0.40348 cumulative IPC: 0.440809 (Simulation time: 0 hr 17 min 52 sec) 
Heartbeat CPU 0 instructions: 374000000 cycles: 846759169 heartbeat IPC: 0.401956 cumulative IPC: 0.440694 (Simulation time: 0 hr 17 min 56 sec) 
Heartbeat CPU 0 instructions: 375000001 cycles: 849231029 heartbeat IPC: 0.404554 cumulative IPC: 0.440589 (Simulation time: 0 hr 18 min 0 sec) 
Heartbeat CPU 0 instructions: 376000002 cycles: 851718035 heartbeat IPC: 0.40209 cumulative IPC: 0.440477 (Simulation time: 0 hr 18 min 4 sec) 
Heartbeat CPU 0 instructions: 377000002 cycles: 854616742 heartbeat IPC: 0.344981 cumulative IPC: 0.440153 (Simulation time: 0 hr 18 min 8 sec) 
Heartbeat CPU 0 instructions: 378000001 cycles: 857379702 heartbeat IPC: 0.36193 cumulative IPC: 0.4399 (Simulation time: 0 hr 18 min 12 sec) 
Heartbeat CPU 0 instructions: 379000001 cycles: 860487915 heartbeat IPC: 0.321728 cumulative IPC: 0.439473 (Simulation time: 0 hr 18 min 15 sec) 
Heartbeat CPU 0 instructions: 380000001 cycles: 863583677 heartbeat IPC: 0.323022 cumulative IPC: 0.439056 (Simulation time: 0 hr 18 min 18 sec) 
Heartbeat CPU 0 instructions: 381000000 cycles: 866106248 heartbeat IPC: 0.396421 cumulative IPC: 0.438932 (Simulation time: 0 hr 18 min 21 sec) 
Heartbeat CPU 0 instructions: 382000000 cycles: 868602741 heartbeat IPC: 0.400562 cumulative IPC: 0.438821 (Simulation time: 0 hr 18 min 25 sec) 
Heartbeat CPU 0 instructions: 383000003 cycles: 871068772 heartbeat IPC: 0.405511 cumulative IPC: 0.438727 (Simulation time: 0 hr 18 min 27 sec) 
Heartbeat CPU 0 instructions: 384000000 cycles: 873687263 heartbeat IPC: 0.381898 cumulative IPC: 0.438557 (Simulation time: 0 hr 18 min 31 sec) 
Heartbeat CPU 0 instructions: 385000000 cycles: 876176549 heartbeat IPC: 0.401722 cumulative IPC: 0.438452 (Simulation time: 0 hr 18 min 35 sec) 
Heartbeat CPU 0 instructions: 386000003 cycles: 878657124 heartbeat IPC: 0.403134 cumulative IPC: 0.438352 (Simulation time: 0 hr 18 min 39 sec) 
Heartbeat CPU 0 instructions: 387000003 cycles: 883067749 heartbeat IPC: 0.226725 cumulative IPC: 0.437295 (Simulation time: 0 hr 18 min 44 sec) 
Heartbeat CPU 0 instructions: 388000000 cycles: 883663484 heartbeat IPC: 1.67859 cumulative IPC: 0.438132 (Simulation time: 0 hr 18 min 47 sec) 
Heartbeat CPU 0 instructions: 389000003 cycles: 884206236 heartbeat IPC: 1.84247 cumulative IPC: 0.438994 (Simulation time: 0 hr 18 min 49 sec) 
Heartbeat CPU 0 instructions: 390000001 cycles: 884755781 heartbeat IPC: 1.81968 cumulative IPC: 0.439852 (Simulation time: 0 hr 18 min 51 sec) 
Heartbeat CPU 0 instructions: 391000003 cycles: 885466460 heartbeat IPC: 1.40711 cumulative IPC: 0.440629 (Simulation time: 0 hr 18 min 53 sec) 
Heartbeat CPU 0 instructions: 392000000 cycles: 887852637 heartbeat IPC: 0.419079 cumulative IPC: 0.440571 (Simulation time: 0 hr 18 min 56 sec) 
Heartbeat CPU 0 instructions: 393000001 cycles: 890436115 heartbeat IPC: 0.387075 cumulative IPC: 0.440416 (Simulation time: 0 hr 18 min 58 sec) 
Heartbeat CPU 0 instructions: 394000000 cycles: 892924069 heartbeat IPC: 0.401936 cumulative IPC: 0.440308 (Simulation time: 0 hr 19 min 1 sec) 
Heartbeat CPU 0 instructions: 395000000 cycles: 895413607 heartbeat IPC: 0.401681 cumulative IPC: 0.440201 (Simulation time: 0 hr 19 min 3 sec) 
Heartbeat CPU 0 instructions: 396000000 cycles: 897914212 heartbeat IPC: 0.399903 cumulative IPC: 0.440089 (Simulation time: 0 hr 19 min 7 sec) 
Heartbeat CPU 0 instructions: 397000001 cycles: 900514684 heartbeat IPC: 0.384546 cumulative IPC: 0.439928 (Simulation time: 0 hr 19 min 11 sec) 
Heartbeat CPU 0 instructions: 398000000 cycles: 902942798 heartbeat IPC: 0.411842 cumulative IPC: 0.439853 (Simulation time: 0 hr 19 min 15 sec) 
Heartbeat CPU 0 instructions: 399000002 cycles: 905439809 heartbeat IPC: 0.40048 cumulative IPC: 0.439744 (Simulation time: 0 hr 19 min 18 sec) 
Heartbeat CPU 0 instructions: 400000001 cycles: 907982946 heartbeat IPC: 0.393215 cumulative IPC: 0.439614 (Simulation time: 0 hr 19 min 21 sec) 
Heartbeat CPU 0 instructions: 401000000 cycles: 911030583 heartbeat IPC: 0.328123 cumulative IPC: 0.43924 (Simulation time: 0 hr 19 min 23 sec) 
Heartbeat CPU 0 instructions: 402000001 cycles: 914026274 heartbeat IPC: 0.333813 cumulative IPC: 0.438895 (Simulation time: 0 hr 19 min 26 sec) 
Heartbeat CPU 0 instructions: 403000002 cycles: 917023168 heartbeat IPC: 0.333679 cumulative IPC: 0.438551 (Simulation time: 0 hr 19 min 29 sec) 
Heartbeat CPU 0 instructions: 404000002 cycles: 919397005 heartbeat IPC: 0.421259 cumulative IPC: 0.438506 (Simulation time: 0 hr 19 min 32 sec) 
Heartbeat CPU 0 instructions: 405000001 cycles: 922218563 heartbeat IPC: 0.354414 cumulative IPC: 0.438249 (Simulation time: 0 hr 19 min 35 sec) 
Heartbeat CPU 0 instructions: 406000002 cycles: 924702986 heartbeat IPC: 0.402508 cumulative IPC: 0.438153 (Simulation time: 0 hr 19 min 37 sec) 
Heartbeat CPU 0 instructions: 407000000 cycles: 927212524 heartbeat IPC: 0.398479 cumulative IPC: 0.438045 (Simulation time: 0 hr 19 min 40 sec) 
Heartbeat CPU 0 instructions: 408000002 cycles: 930941984 heartbeat IPC: 0.268136 cumulative IPC: 0.437364 (Simulation time: 0 hr 19 min 43 sec) 
Heartbeat CPU 0 instructions: 409000001 cycles: 932244584 heartbeat IPC: 0.767695 cumulative IPC: 0.437826 (Simulation time: 0 hr 19 min 46 sec) 
Heartbeat CPU 0 instructions: 410000003 cycles: 932926272 heartbeat IPC: 1.46695 cumulative IPC: 0.438578 (Simulation time: 0 hr 19 min 48 sec) 
Heartbeat CPU 0 instructions: 411000001 cycles: 933519325 heartbeat IPC: 1.68619 cumulative IPC: 0.439371 (Simulation time: 0 hr 19 min 50 sec) 
Heartbeat CPU 0 instructions: 412000002 cycles: 934059644 heartbeat IPC: 1.85076 cumulative IPC: 0.440188 (Simulation time: 0 hr 19 min 52 sec) 
Heartbeat CPU 0 instructions: 413000000 cycles: 935145606 heartbeat IPC: 0.920841 cumulative IPC: 0.440746 (Simulation time: 0 hr 19 min 55 sec) 
Heartbeat CPU 0 instructions: 414000001 cycles: 938286402 heartbeat IPC: 0.318391 cumulative IPC: 0.440337 (Simulation time: 0 hr 19 min 58 sec) 
Heartbeat CPU 0 instructions: 415000000 cycles: 941421730 heartbeat IPC: 0.318946 cumulative IPC: 0.439932 (Simulation time: 0 hr 20 min 1 sec) 
Heartbeat CPU 0 instructions: 416000000 cycles: 944003848 heartbeat IPC: 0.387279 cumulative IPC: 0.439788 (Simulation time: 0 hr 20 min 4 sec) 
Heartbeat CPU 0 instructions: 417000002 cycles: 946513249 heartbeat IPC: 0.398502 cumulative IPC: 0.439679 (Simulation time: 0 hr 20 min 8 sec) 
Heartbeat CPU 0 instructions: 418000000 cycles: 949144629 heartbeat IPC: 0.380028 cumulative IPC: 0.439513 (Simulation time: 0 hr 20 min 12 sec) 
Heartbeat CPU 0 instructions: 419000000 cycles: 951653833 heartbeat IPC: 0.398533 cumulative IPC: 0.439405 (Simulation time: 0 hr 20 min 16 sec) 
Heartbeat CPU 0 instructions: 420000000 cycles: 954158792 heartbeat IPC: 0.399208 cumulative IPC: 0.4393 (Simulation time: 0 hr 20 min 19 sec) 
Heartbeat CPU 0 instructions: 421000000 cycles: 956662257 heartbeat IPC: 0.399446 cumulative IPC: 0.439195 (Simulation time: 0 hr 20 min 22 sec) 
Heartbeat CPU 0 instructions: 422000000 cycles: 959150863 heartbeat IPC: 0.401831 cumulative IPC: 0.439098 (Simulation time: 0 hr 20 min 24 sec) 
Heartbeat CPU 0 instructions: 423000001 cycles: 961787675 heartbeat IPC: 0.379246 cumulative IPC: 0.438934 (Simulation time: 0 hr 20 min 28 sec) 
Heartbeat CPU 0 instructions: 424000002 cycles: 964253888 heartbeat IPC: 0.40548 cumulative IPC: 0.438848 (Simulation time: 0 hr 20 min 32 sec) 
Heartbeat CPU 0 instructions: 425000000 cycles: 966939543 heartbeat IPC: 0.372348 cumulative IPC: 0.438664 (Simulation time: 0 hr 20 min 35 sec) 
Heartbeat CPU 0 instructions: 426000002 cycles: 970022388 heartbeat IPC: 0.324376 cumulative IPC: 0.4383 (Simulation time: 0 hr 20 min 38 sec) 
Heartbeat CPU 0 instructions: 427000001 cycles: 973076120 heartbeat IPC: 0.327468 cumulative IPC: 0.437952 (Simulation time: 0 hr 20 min 41 sec) 
Heartbeat CPU 0 instructions: 428000000 cycles: 976135831 heartbeat IPC: 0.326828 cumulative IPC: 0.437604 (Simulation time: 0 hr 20 min 44 sec) 
Heartbeat CPU 0 instructions: 429000000 cycles: 978704006 heartbeat IPC: 0.389382 cumulative IPC: 0.437477 (Simulation time: 0 hr 20 min 46 sec) 
Heartbeat CPU 0 instructions: 430000001 cycles: 981360051 heartbeat IPC: 0.3765 cumulative IPC: 0.437312 (Simulation time: 0 hr 20 min 49 sec) 
Heartbeat CPU 0 instructions: 431000003 cycles: 981928504 heartbeat IPC: 1.75916 cumulative IPC: 0.438078 (Simulation time: 0 hr 20 min 52 sec) 
Heartbeat CPU 0 instructions: 432000002 cycles: 982469564 heartbeat IPC: 1.84822 cumulative IPC: 0.438855 (Simulation time: 0 hr 20 min 55 sec) 
Heartbeat CPU 0 instructions: 433000003 cycles: 983017638 heartbeat IPC: 1.82457 cumulative IPC: 0.439628 (Simulation time: 0 hr 20 min 57 sec) 
Heartbeat CPU 0 instructions: 434000002 cycles: 983557206 heartbeat IPC: 1.85333 cumulative IPC: 0.440403 (Simulation time: 0 hr 20 min 59 sec) 
Heartbeat CPU 0 instructions: 435000001 cycles: 986040044 heartbeat IPC: 0.402764 cumulative IPC: 0.440309 (Simulation time: 0 hr 21 min 2 sec) 
Heartbeat CPU 0 instructions: 436000002 cycles: 988860153 heartbeat IPC: 0.354597 cumulative IPC: 0.440064 (Simulation time: 0 hr 21 min 4 sec) 
Heartbeat CPU 0 instructions: 437000001 cycles: 992000992 heartbeat IPC: 0.318386 cumulative IPC: 0.439679 (Simulation time: 0 hr 21 min 7 sec) 
Heartbeat CPU 0 instructions: 438000002 cycles: 994816273 heartbeat IPC: 0.355205 cumulative IPC: 0.43944 (Simulation time: 0 hr 21 min 10 sec) 
Heartbeat CPU 0 instructions: 439000002 cycles: 997892223 heartbeat IPC: 0.325103 cumulative IPC: 0.439087 (Simulation time: 0 hr 21 min 12 sec) 
Heartbeat CPU 0 instructions: 440000000 cycles: 1000542686 heartbeat IPC: 0.377292 cumulative IPC: 0.438923 (Simulation time: 0 hr 21 min 15 sec) 
Heartbeat CPU 0 instructions: 441000000 cycles: 1003067170 heartbeat IPC: 0.396121 cumulative IPC: 0.438815 (Simulation time: 0 hr 21 min 17 sec) 
Heartbeat CPU 0 instructions: 442000000 cycles: 1005554951 heartbeat IPC: 0.401965 cumulative IPC: 0.438724 (Simulation time: 0 hr 21 min 21 sec) 
Heartbeat CPU 0 instructions: 443000002 cycles: 1008266585 heartbeat IPC: 0.368782 cumulative IPC: 0.438536 (Simulation time: 0 hr 21 min 24 sec) 
Heartbeat CPU 0 instructions: 444000003 cycles: 1010748883 heartbeat IPC: 0.402853 cumulative IPC: 0.438448 (Simulation time: 0 hr 21 min 27 sec) 
Heartbeat CPU 0 instructions: 445000002 cycles: 1013256894 heartbeat IPC: 0.398722 cumulative IPC: 0.43835 (Simulation time: 0 hr 21 min 30 sec) 
Heartbeat CPU 0 instructions: 446000002 cycles: 1015799997 heartbeat IPC: 0.39322 cumulative IPC: 0.438237 (Simulation time: 0 hr 21 min 34 sec) 
Heartbeat CPU 0 instructions: 447000000 cycles: 1018283330 heartbeat IPC: 0.402684 cumulative IPC: 0.43815 (Simulation time: 0 hr 21 min 37 sec) 
Heartbeat CPU 0 instructions: 448000001 cycles: 1020795573 heartbeat IPC: 0.398051 cumulative IPC: 0.438052 (Simulation time: 0 hr 21 min 41 sec) 
Heartbeat CPU 0 instructions: 449000000 cycles: 1023476231 heartbeat IPC: 0.373042 cumulative IPC: 0.437881 (Simulation time: 0 hr 21 min 45 sec) 
Heartbeat CPU 0 instructions: 450000002 cycles: 1026306070 heartbeat IPC: 0.353378 cumulative IPC: 0.437648 (Simulation time: 0 hr 21 min 49 sec) 

Warmup complete CPU 0 instructions: 450000002 cycles: 1026306070 (Simulation time: 0 hr 21 min 49 sec) 

Heartbeat CPU 0 instructions: 451000000 cycles: 1030458919 heartbeat IPC: 0.240798 cumulative IPC: 0.240798 (Simulation time: 0 hr 21 min 54 sec) 
Heartbeat CPU 0 instructions: 452000000 cycles: 1031025047 heartbeat IPC: 1.76638 cumulative IPC: 0.42382 (Simulation time: 0 hr 21 min 56 sec) 
Heartbeat CPU 0 instructions: 453000002 cycles: 1031566774 heartbeat IPC: 1.84595 cumulative IPC: 0.570266 (Simulation time: 0 hr 21 min 58 sec) 
Heartbeat CPU 0 instructions: 454000001 cycles: 1032115428 heartbeat IPC: 1.82264 cumulative IPC: 0.688544 (Simulation time: 0 hr 22 min 0 sec) 
Heartbeat CPU 0 instructions: 455000002 cycles: 1032657300 heartbeat IPC: 1.84546 cumulative IPC: 0.787249 (Simulation time: 0 hr 22 min 2 sec) 
Heartbeat CPU 0 instructions: 456000000 cycles: 1035199369 heartbeat IPC: 0.39338 cumulative IPC: 0.674665 (Simulation time: 0 hr 22 min 6 sec) 
Heartbeat CPU 0 instructions: 457000001 cycles: 1037886763 heartbeat IPC: 0.372108 cumulative IPC: 0.604454 (Simulation time: 0 hr 22 min 9 sec) 
Heartbeat CPU 0 instructions: 458000000 cycles: 1040375577 heartbeat IPC: 0.401797 cumulative IPC: 0.568605 (Simulation time: 0 hr 22 min 11 sec) 
Heartbeat CPU 0 instructions: 459000002 cycles: 1042901930 heartbeat IPC: 0.395828 cumulative IPC: 0.542304 (Simulation time: 0 hr 22 min 14 sec) 
Heartbeat CPU 0 instructions: 460000002 cycles: 1045398814 heartbeat IPC: 0.400499 cumulative IPC: 0.523759 (Simulation time: 0 hr 22 min 16 sec) 
Heartbeat CPU 0 instructions: 461000000 cycles: 1048443388 heartbeat IPC: 0.328453 cumulative IPC: 0.496898 (Simulation time: 0 hr 22 min 19 sec) 
Heartbeat CPU 0 instructions: 462000000 cycles: 1051533774 heartbeat IPC: 0.323584 cumulative IPC: 0.475667 (Simulation time: 0 hr 22 min 21 sec) 
Heartbeat CPU 0 instructions: 463000001 cycles: 1054608529 heartbeat IPC: 0.325229 cumulative IPC: 0.459324 (Simulation time: 0 hr 22 min 24 sec) 
Heartbeat CPU 0 instructions: 464000000 cycles: 1057377917 heartbeat IPC: 0.36109 cumulative IPC: 0.450569 (Simulation time: 0 hr 22 min 26 sec) 
Heartbeat CPU 0 instructions: 465000001 cycles: 1060060300 heartbeat IPC: 0.372803 cumulative IPC: 0.444389 (Simulation time: 0 hr 22 min 29 sec) 
Heartbeat CPU 0 instructions: 466000000 cycles: 1062569740 heartbeat IPC: 0.398495 cumulative IPC: 0.441213 (Simulation time: 0 hr 22 min 32 sec) 
Heartbeat CPU 0 instructions: 467000000 cycles: 1065124845 heartbeat IPC: 0.391373 cumulative IPC: 0.437932 (Simulation time: 0 hr 22 min 35 sec) 
Heartbeat CPU 0 instructions: 468000000 cycles: 1067628181 heartbeat IPC: 0.399467 cumulative IPC: 0.435602 (Simulation time: 0 hr 22 min 37 sec) 
Heartbeat CPU 0 instructions: 469000002 cycles: 1070332537 heartbeat IPC: 0.369775 cumulative IPC: 0.431559 (Simulation time: 0 hr 22 min 41 sec) 
Heartbeat CPU 0 instructions: 470000000 cycles: 1072809807 heartbeat IPC: 0.403669 cumulative IPC: 0.430073 (Simulation time: 0 hr 22 min 44 sec) 
Heartbeat CPU 0 instructions: 471000003 cycles: 1075330089 heartbeat IPC: 0.396782 cumulative IPC: 0.428361 (Simulation time: 0 hr 22 min 46 sec) 
Heartbeat CPU 0 instructions: 472000000 cycles: 1079804018 heartbeat IPC: 0.223517 cumulative IPC: 0.411231 (Simulation time: 0 hr 22 min 49 sec) 
Heartbeat CPU 0 instructions: 473000000 cycles: 1080384670 heartbeat IPC: 1.7222 cumulative IPC: 0.425307 (Simulation time: 0 hr 22 min 51 sec) 
Heartbeat CPU 0 instructions: 474000002 cycles: 1080927304 heartbeat IPC: 1.84287 cumulative IPC: 0.43939 (Simulation time: 0 hr 22 min 52 sec) 
Heartbeat CPU 0 instructions: 475000000 cycles: 1081478694 heartbeat IPC: 1.81359 cumulative IPC: 0.453123 (Simulation time: 0 hr 22 min 54 sec) 
Heartbeat CPU 0 instructions: 476000001 cycles: 1082017641 heartbeat IPC: 1.85547 cumulative IPC: 0.466689 (Simulation time: 0 hr 22 min 55 sec) 
Heartbeat CPU 0 instructions: 477000001 cycles: 1084717316 heartbeat IPC: 0.370415 cumulative IPC: 0.46224 (Simulation time: 0 hr 22 min 58 sec) 
Heartbeat CPU 0 instructions: 478000000 cycles: 1087241421 heartbeat IPC: 0.39618 cumulative IPC: 0.459503 (Simulation time: 0 hr 23 min 0 sec) 
Heartbeat CPU 0 instructions: 479000001 cycles: 1089815141 heartbeat IPC: 0.388543 cumulative IPC: 0.456628 (Simulation time: 0 hr 23 min 2 sec) 
Heartbeat CPU 0 instructions: 480000003 cycles: 1092352233 heartbeat IPC: 0.394153 cumulative IPC: 0.454228 (Simulation time: 0 hr 23 min 4 sec) 
Heartbeat CPU 0 instructions: 481000001 cycles: 1094851101 heartbeat IPC: 0.40018 cumulative IPC: 0.452257 (Simulation time: 0 hr 23 min 7 sec) 
Heartbeat CPU 0 instructions: 482000003 cycles: 1097377093 heartbeat IPC: 0.395885 cumulative IPC: 0.450254 (Simulation time: 0 hr 23 min 9 sec) 
Heartbeat CPU 0 instructions: 483000000 cycles: 1100023374 heartbeat IPC: 0.377888 cumulative IPC: 0.447656 (Simulation time: 0 hr 23 min 12 sec) 
Heartbeat CPU 0 instructions: 484000000 cycles: 1102502063 heartbeat IPC: 0.403439 cumulative IPC: 0.446218 (Simulation time: 0 hr 23 min 14 sec) 
Heartbeat CPU 0 instructions: 485000000 cycles: 1105031570 heartbeat IPC: 0.395334 cumulative IPC: 0.444583 (Simulation time: 0 hr 23 min 16 sec) 
Heartbeat CPU 0 instructions: 486000000 cycles: 1108125861 heartbeat IPC: 0.323176 cumulative IPC: 0.439991 (Simulation time: 0 hr 23 min 20 sec) 
Heartbeat CPU 0 instructions: 487000002 cycles: 1111179405 heartbeat IPC: 0.327489 cumulative IPC: 0.435944 (Simulation time: 0 hr 23 min 22 sec) 
Heartbeat CPU 0 instructions: 488000001 cycles: 1114207374 heartbeat IPC: 0.330254 cumulative IPC: 0.432303 (Simulation time: 0 hr 23 min 25 sec) 
Heartbeat CPU 0 instructions: 489000002 cycles: 1116578466 heartbeat IPC: 0.421747 cumulative IPC: 0.432026 (Simulation time: 0 hr 23 min 27 sec) 
Heartbeat CPU 0 instructions: 490000001 cycles: 1119654518 heartbeat IPC: 0.325092 cumulative IPC: 0.428502 (Simulation time: 0 hr 23 min 29 sec) 
Heartbeat CPU 0 instructions: 491000000 cycles: 1122254424 heartbeat IPC: 0.384629 cumulative IPC: 0.427313 (Simulation time: 0 hr 23 min 32 sec) 
Heartbeat CPU 0 instructions: 492000000 cycles: 1124825650 heartbeat IPC: 0.38892 cumulative IPC: 0.426311 (Simulation time: 0 hr 23 min 34 sec) 
Heartbeat CPU 0 instructions: 493000001 cycles: 1128233772 heartbeat IPC: 0.293417 cumulative IPC: 0.421868 (Simulation time: 0 hr 23 min 37 sec) 
Heartbeat CPU 0 instructions: 494000002 cycles: 1129934140 heartbeat IPC: 0.588109 cumulative IPC: 0.424595 (Simulation time: 0 hr 23 min 39 sec) 
Heartbeat CPU 0 instructions: 495000000 cycles: 1130475165 heartbeat IPC: 1.84834 cumulative IPC: 0.43199 (Simulation time: 0 hr 23 min 40 sec) 
Heartbeat CPU 0 instructions: 496000003 cycles: 1131024915 heartbeat IPC: 1.81901 cumulative IPC: 0.439271 (Simulation time: 0 hr 23 min 42 sec) 
Heartbeat CPU 0 instructions: 497000000 cycles: 1131736529 heartbeat IPC: 1.40525 cumulative IPC: 0.445791 (Simulation time: 0 hr 23 min 43 sec) 
Heartbeat CPU 0 instructions: 498000001 cycles: 1132422723 heartbeat IPC: 1.45732 cumulative IPC: 0.452332 (Simulation time: 0 hr 23 min 45 sec) 
Heartbeat CPU 0 instructions: 499000000 cycles: 1135579667 heartbeat IPC: 0.316762 cumulative IPC: 0.448416 (Simulation time: 0 hr 23 min 48 sec) 
Heartbeat CPU 0 instructions: 500000000 cycles: 1138736480 heartbeat IPC: 0.316775 cumulative IPC: 0.44472 (Simulation time: 0 hr 23 min 50 sec) 
Heartbeat CPU 0 instructions: 501000000 cycles: 1141872238 heartbeat IPC: 0.318902 cumulative IPC: 0.441306 (Simulation time: 0 hr 23 min 53 sec) 
Heartbeat CPU 0 instructions: 502000003 cycles: 1144402767 heartbeat IPC: 0.395175 cumulative IPC: 0.440317 (Simulation time: 0 hr 23 min 55 sec) 
Heartbeat CPU 0 instructions: 503000002 cycles: 1147123783 heartbeat IPC: 0.367509 cumulative IPC: 0.438677 (Simulation time: 0 hr 23 min 58 sec) 
Heartbeat CPU 0 instructions: 504000002 cycles: 1149652766 heartbeat IPC: 0.395416 cumulative IPC: 0.43779 (Simulation time: 0 hr 24 min 2 sec) 
Heartbeat CPU 0 instructions: 505000001 cycles: 1152219234 heartbeat IPC: 0.38964 cumulative IPC: 0.436809 (Simulation time: 0 hr 24 min 6 sec) 
Heartbeat CPU 0 instructions: 506000000 cycles: 1154762881 heartbeat IPC: 0.393136 cumulative IPC: 0.435944 (Simulation time: 0 hr 24 min 9 sec) 
Heartbeat CPU 0 instructions: 507000003 cycles: 1157294795 heartbeat IPC: 0.394959 cumulative IPC: 0.435152 (Simulation time: 0 hr 24 min 12 sec) 
Heartbeat CPU 0 instructions: 508000001 cycles: 1159819440 heartbeat IPC: 0.396095 cumulative IPC: 0.434413 (Simulation time: 0 hr 24 min 14 sec) 
Heartbeat CPU 0 instructions: 509000001 cycles: 1162470225 heartbeat IPC: 0.377247 cumulative IPC: 0.433301 (Simulation time: 0 hr 24 min 18 sec) 
Heartbeat CPU 0 instructions: 510000000 cycles: 1165001251 heartbeat IPC: 0.395096 cumulative IPC: 0.432603 (Simulation time: 0 hr 24 min 22 sec) 
Heartbeat CPU 0 instructions: 511000002 cycles: 1167576877 heartbeat IPC: 0.388256 cumulative IPC: 0.431795 (Simulation time: 0 hr 24 min 26 sec) 
Heartbeat CPU 0 instructions: 512000000 cycles: 1170500631 heartbeat IPC: 0.342025 cumulative IPC: 0.429975 (Simulation time: 0 hr 24 min 30 sec) 
Heartbeat CPU 0 instructions: 513000000 cycles: 1173532795 heartbeat IPC: 0.329797 cumulative IPC: 0.427911 (Simulation time: 0 hr 24 min 34 sec) 
Heartbeat CPU 0 instructions: 514000000 cycles: 1176569308 heartbeat IPC: 0.329325 cumulative IPC: 0.425919 (Simulation time: 0 hr 24 min 38 sec) 
Heartbeat CPU 0 instructions: 515000000 cycles: 1179642953 heartbeat IPC: 0.325347 cumulative IPC: 0.423903 (Simulation time: 0 hr 24 min 42 sec) 
Heartbeat CPU 0 instructions: 516000001 cycles: 1180345163 heartbeat IPC: 1.42408 cumulative IPC: 0.428463 (Simulation time: 0 hr 24 min 45 sec) 
Heartbeat CPU 0 instructions: 517000000 cycles: 1180894491 heartbeat IPC: 1.8204 cumulative IPC: 0.433409 (Simulation time: 0 hr 24 min 48 sec) 
Heartbeat CPU 0 instructions: 518000003 cycles: 1181434318 heartbeat IPC: 1.85245 cumulative IPC: 0.438347 (Simulation time: 0 hr 24 min 49 sec) 
Heartbeat CPU 0 instructions: 519000001 cycles: 1181986424 heartbeat IPC: 1.81124 cumulative IPC: 0.443216 (Simulation time: 0 hr 24 min 51 sec) 
Heartbeat CPU 0 instructions: 520000001 cycles: 1184515114 heartbeat IPC: 0.395462 cumulative IPC: 0.442453 (Simulation time: 0 hr 24 min 53 sec) 
Heartbeat CPU 0 instructions: 521000000 cycles: 1187052904 heartbeat IPC: 0.394043 cumulative IPC: 0.441688 (Simulation time: 0 hr 24 min 56 sec) 
Heartbeat CPU 0 instructions: 522000001 cycles: 1189582504 heartbeat IPC: 0.39532 cumulative IPC: 0.44097 (Simulation time: 0 hr 24 min 58 sec) 
Heartbeat CPU 0 instructions: 523000001 cycles: 1192305043 heartbeat IPC: 0.367304 cumulative IPC: 0.439762 (Simulation time: 0 hr 25 min 1 sec) 
Heartbeat CPU 0 instructions: 524000002 cycles: 1194920125 heartbeat IPC: 0.382398 cumulative IPC: 0.438872 (Simulation time: 0 hr 25 min 3 sec) 
Heartbeat CPU 0 instructions: 525000001 cycles: 1197990262 heartbeat IPC: 0.325718 cumulative IPC: 0.436849 (Simulation time: 0 hr 25 min 6 sec) 
Heartbeat CPU 0 instructions: 526000001 cycles: 1201074447 heartbeat IPC: 0.324235 cumulative IPC: 0.434861 (Simulation time: 0 hr 25 min 11 sec) 
Heartbeat CPU 0 instructions: 527000000 cycles: 1204161208 heartbeat IPC: 0.323964 cumulative IPC: 0.432937 (Simulation time: 0 hr 25 min 15 sec) 
Heartbeat CPU 0 instructions: 528000000 cycles: 1206955617 heartbeat IPC: 0.357857 cumulative IPC: 0.431775 (Simulation time: 0 hr 25 min 19 sec) 
Heartbeat CPU 0 instructions: 529000001 cycles: 1209659718 heartbeat IPC: 0.369809 cumulative IPC: 0.430861 (Simulation time: 0 hr 25 min 23 sec) 
Heartbeat CPU 0 instructions: 530000000 cycles: 1212184344 heartbeat IPC: 0.396098 cumulative IPC: 0.430389 (Simulation time: 0 hr 25 min 27 sec) 
Heartbeat CPU 0 instructions: 531000000 cycles: 1214742107 heartbeat IPC: 0.390967 cumulative IPC: 0.429854 (Simulation time: 0 hr 25 min 29 sec) 
Heartbeat CPU 0 instructions: 532000002 cycles: 1217324371 heartbeat IPC: 0.387258 cumulative IPC: 0.429278 (Simulation time: 0 hr 25 min 31 sec) 
Heartbeat CPU 0 instructions: 533000000 cycles: 1219860462 heartbeat IPC: 0.394307 cumulative IPC: 0.42882 (Simulation time: 0 hr 25 min 34 sec) 
Heartbeat CPU 0 instructions: 534000003 cycles: 1222417280 heartbeat IPC: 0.391112 cumulative IPC: 0.428328 (Simulation time: 0 hr 25 min 36 sec) 
Heartbeat CPU 0 instructions: 535000001 cycles: 1225091526 heartbeat IPC: 0.373936 cumulative IPC: 0.427597 (Simulation time: 0 hr 25 min 39 sec) 
Heartbeat CPU 0 instructions: 536000000 cycles: 1227633556 heartbeat IPC: 0.393386 cumulative IPC: 0.427165 (Simulation time: 0 hr 25 min 43 sec) 
Heartbeat CPU 0 instructions: 537000002 cycles: 1230217923 heartbeat IPC: 0.386943 cumulative IPC: 0.426655 (Simulation time: 0 hr 25 min 46 sec) 
Heartbeat CPU 0 instructions: 538000000 cycles: 1232770954 heartbeat IPC: 0.39169 cumulative IPC: 0.426223 (Simulation time: 0 hr 25 min 50 sec) 
Heartbeat CPU 0 instructions: 539000000 cycles: 1235316911 heartbeat IPC: 0.39278 cumulative IPC: 0.425815 (Simulation time: 0 hr 25 min 54 sec) 
Heartbeat CPU 0 instructions: 540000000 cycles: 1237877181 heartbeat IPC: 0.390584 cumulative IPC: 0.425389 (Simulation time: 0 hr 25 min 58 sec) 
Heartbeat CPU 0 instructions: 541000001 cycles: 1240566999 heartbeat IPC: 0.371773 cumulative IPC: 0.424716 (Simulation time: 0 hr 26 min 2 sec) 
Heartbeat CPU 0 instructions: 542000001 cycles: 1243574836 heartbeat IPC: 0.332465 cumulative IPC: 0.423439 (Simulation time: 0 hr 26 min 6 sec) 
Heartbeat CPU 0 instructions: 543000001 cycles: 1247688329 heartbeat IPC: 0.243102 cumulative IPC: 0.420088 (Simulation time: 0 hr 26 min 11 sec) 
Heartbeat CPU 0 instructions: 544000002 cycles: 1248253416 heartbeat IPC: 1.76964 cumulative IPC: 0.423524 (Simulation time: 0 hr 26 min 13 sec) 
Heartbeat CPU 0 instructions: 545000001 cycles: 1248794155 heartbeat IPC: 1.84932 cumulative IPC: 0.426989 (Simulation time: 0 hr 26 min 16 sec) 
Heartbeat CPU 0 instructions: 546000000 cycles: 1249344991 heartbeat IPC: 1.81542 cumulative IPC: 0.430418 (Simulation time: 0 hr 26 min 18 sec) 
Heartbeat CPU 0 instructions: 547000001 cycles: 1249887763 heartbeat IPC: 1.8424 cumulative IPC: 0.433846 (Simulation time: 0 hr 26 min 21 sec) 
[...]
Heartbeat CPU 0 instructions: 834000003 cycles: 1952109418 heartbeat IPC: 0.351295 cumulative IPC: 0.414775 (Simulation time: 0 hr 38 min 14 sec) 
Heartbeat CPU 0 instructions: 835000002 cycles: 1954788754 heartbeat IPC: 0.373226 cumulative IPC: 0.414655 (Simulation time: 0 hr 38 min 16 sec) 
Heartbeat CPU 0 instructions: 836000000 cycles: 1957465229 heartbeat IPC: 0.373625 cumulative IPC: 0.414537 (Simulation time: 0 hr 38 min 18 sec) 
Heartbeat CPU 0 instructions: 837000000 cycles: 1960179838 heartbeat IPC: 0.368377 cumulative IPC: 0.414403 (Simulation time: 0 hr 38 min 20 sec) 
Heartbeat CPU 0 instructions: 838000002 cycles: 1962915602 heartbeat IPC: 0.365529 cumulative IPC: 0.41426 (Simulation time: 0 hr 38 min 23 sec) 
Heartbeat CPU 0 instructions: 839000002 cycles: 1965579557 heartbeat IPC: 0.375382 cumulative IPC: 0.41415 (Simulation time: 0 hr 38 min 26 sec) 
Heartbeat CPU 0 instructions: 840000002 cycles: 1968424320 heartbeat IPC: 0.351523 cumulative IPC: 0.413961 (Simulation time: 0 hr 38 min 28 sec) 
Heartbeat CPU 0 instructions: 841000002 cycles: 1971041864 heartbeat IPC: 0.382038 cumulative IPC: 0.413872 (Simulation time: 0 hr 38 min 31 sec) 
Heartbeat CPU 0 instructions: 842000001 cycles: 1974033070 heartbeat IPC: 0.334313 cumulative IPC: 0.413621 (Simulation time: 0 hr 38 min 33 sec) 
Heartbeat CPU 0 instructions: 843000001 cycles: 1977131754 heartbeat IPC: 0.322718 cumulative IPC: 0.413325 (Simulation time: 0 hr 38 min 35 sec) 
Heartbeat CPU 0 instructions: 844000001 cycles: 1979891367 heartbeat IPC: 0.36237 cumulative IPC: 0.413178 (Simulation time: 0 hr 38 min 38 sec) 
Heartbeat CPU 0 instructions: 845000001 cycles: 1983021528 heartbeat IPC: 0.319472 cumulative IPC: 0.412871 (Simulation time: 0 hr 38 min 40 sec) 
Heartbeat CPU 0 instructions: 846000000 cycles: 1985707659 heartbeat IPC: 0.372282 cumulative IPC: 0.412757 (Simulation time: 0 hr 38 min 43 sec) 
Heartbeat CPU 0 instructions: 847000000 cycles: 1988756114 heartbeat IPC: 0.328035 cumulative IPC: 0.412489 (Simulation time: 0 hr 38 min 45 sec) 
Heartbeat CPU 0 instructions: 848000002 cycles: 1991797823 heartbeat IPC: 0.328763 cumulative IPC: 0.412225 (Simulation time: 0 hr 38 min 47 sec) 
Heartbeat CPU 0 instructions: 849000000 cycles: 1994511898 heartbeat IPC: 0.368449 cumulative IPC: 0.412102 (Simulation time: 0 hr 38 min 50 sec) 
Heartbeat CPU 0 instructions: 850000002 cycles: 1997655247 heartbeat IPC: 0.318133 cumulative IPC: 0.411798 (Simulation time: 0 hr 38 min 52 sec) 
Heartbeat CPU 0 instructions: 851000000 cycles: 2000464885 heartbeat IPC: 0.355917 cumulative IPC: 0.411637 (Simulation time: 0 hr 38 min 54 sec) 
Heartbeat CPU 0 instructions: 852000001 cycles: 2003221847 heartbeat IPC: 0.362718 cumulative IPC: 0.411499 (Simulation time: 0 hr 38 min 57 sec) 
Heartbeat CPU 0 instructions: 853000001 cycles: 2005976287 heartbeat IPC: 0.36305 cumulative IPC: 0.411363 (Simulation time: 0 hr 38 min 59 sec) 
Heartbeat CPU 0 instructions: 854000000 cycles: 2008637743 heartbeat IPC: 0.375734 cumulative IPC: 0.411266 (Simulation time: 0 hr 39 min 1 sec) 
Heartbeat CPU 0 instructions: 855000000 cycles: 2011826079 heartbeat IPC: 0.313643 cumulative IPC: 0.410951 (Simulation time: 0 hr 39 min 4 sec) 
Heartbeat CPU 0 instructions: 856000003 cycles: 2014185735 heartbeat IPC: 0.423792 cumulative IPC: 0.410981 (Simulation time: 0 hr 39 min 6 sec) 
Heartbeat CPU 0 instructions: 857000002 cycles: 2014731907 heartbeat IPC: 1.83092 cumulative IPC: 0.411766 (Simulation time: 0 hr 39 min 7 sec) 
Heartbeat CPU 0 instructions: 858000000 cycles: 2015281682 heartbeat IPC: 1.81892 cumulative IPC: 0.412548 (Simulation time: 0 hr 39 min 9 sec) 
Heartbeat CPU 0 instructions: 859000001 cycles: 2015822194 heartbeat IPC: 1.8501 cumulative IPC: 0.413333 (Simulation time: 0 hr 39 min 10 sec) 
Heartbeat CPU 0 instructions: 860000001 cycles: 2016565787 heartbeat IPC: 1.34482 cumulative IPC: 0.414033 (Simulation time: 0 hr 39 min 12 sec) 
Heartbeat CPU 0 instructions: 861000001 cycles: 2019272448 heartbeat IPC: 0.369459 cumulative IPC: 0.413911 (Simulation time: 0 hr 39 min 15 sec) 
Heartbeat CPU 0 instructions: 862000001 cycles: 2022156209 heartbeat IPC: 0.346769 cumulative IPC: 0.413717 (Simulation time: 0 hr 39 min 17 sec) 
Heartbeat CPU 0 instructions: 863000000 cycles: 2025299857 heartbeat IPC: 0.318101 cumulative IPC: 0.413416 (Simulation time: 0 hr 39 min 19 sec) 
Heartbeat CPU 0 instructions: 864000000 cycles: 2028465061 heartbeat IPC: 0.315935 cumulative IPC: 0.413108 (Simulation time: 0 hr 39 min 22 sec) 
Heartbeat CPU 0 instructions: 865000000 cycles: 2031616910 heartbeat IPC: 0.317274 cumulative IPC: 0.412808 (Simulation time: 0 hr 39 min 24 sec) 
Heartbeat CPU 0 instructions: 866000002 cycles: 2034751272 heartbeat IPC: 0.319045 cumulative IPC: 0.412516 (Simulation time: 0 hr 39 min 27 sec) 
Heartbeat CPU 0 instructions: 867000001 cycles: 2037503972 heartbeat IPC: 0.363279 cumulative IPC: 0.412382 (Simulation time: 0 hr 39 min 29 sec) 
Heartbeat CPU 0 instructions: 868000001 cycles: 2040537599 heartbeat IPC: 0.329638 cumulative IPC: 0.412135 (Simulation time: 0 hr 39 min 31 sec) 
Heartbeat CPU 0 instructions: 869000000 cycles: 2043221024 heartbeat IPC: 0.372658 cumulative IPC: 0.412031 (Simulation time: 0 hr 39 min 34 sec) 
Heartbeat CPU 0 instructions: 870000000 cycles: 2045966695 heartbeat IPC: 0.36421 cumulative IPC: 0.411902 (Simulation time: 0 hr 39 min 36 sec) 
Heartbeat CPU 0 instructions: 871000003 cycles: 2048721294 heartbeat IPC: 0.36303 cumulative IPC: 0.41177 (Simulation time: 0 hr 39 min 38 sec) 
Heartbeat CPU 0 instructions: 872000002 cycles: 2051621646 heartbeat IPC: 0.344785 cumulative IPC: 0.411581 (Simulation time: 0 hr 39 min 41 sec) 
Heartbeat CPU 0 instructions: 873000000 cycles: 2054290647 heartbeat IPC: 0.374671 cumulative IPC: 0.411485 (Simulation time: 0 hr 39 min 43 sec) 
Heartbeat CPU 0 instructions: 874000000 cycles: 2056993196 heartbeat IPC: 0.370021 cumulative IPC: 0.411376 (Simulation time: 0 hr 39 min 46 sec) 
Heartbeat CPU 0 instructions: 875000001 cycles: 2059748792 heartbeat IPC: 0.362898 cumulative IPC: 0.411247 (Simulation time: 0 hr 39 min 48 sec) 
Heartbeat CPU 0 instructions: 876000002 cycles: 2062434902 heartbeat IPC: 0.372286 cumulative IPC: 0.411146 (Simulation time: 0 hr 39 min 50 sec) 
Heartbeat CPU 0 instructions: 877000002 cycles: 2065197965 heartbeat IPC: 0.361917 cumulative IPC: 0.411015 (Simulation time: 0 hr 39 min 52 sec) 
Heartbeat CPU 0 instructions: 878000002 cycles: 2068095562 heartbeat IPC: 0.345114 cumulative IPC: 0.410832 (Simulation time: 0 hr 39 min 55 sec) 
Heartbeat CPU 0 instructions: 879000001 cycles: 2070760417 heartbeat IPC: 0.375255 cumulative IPC: 0.410741 (Simulation time: 0 hr 39 min 57 sec) 
Heartbeat CPU 0 instructions: 880000000 cycles: 2073497017 heartbeat IPC: 0.365417 cumulative IPC: 0.410622 (Simulation time: 0 hr 40 min 0 sec) 
Heartbeat CPU 0 instructions: 881000001 cycles: 2076243998 heartbeat IPC: 0.364036 cumulative IPC: 0.4105 (Simulation time: 0 hr 40 min 2 sec) 
Heartbeat CPU 0 instructions: 882000001 cycles: 2078997356 heartbeat IPC: 0.363193 cumulative IPC: 0.410377 (Simulation time: 0 hr 40 min 4 sec) 
Heartbeat CPU 0 instructions: 883000001 cycles: 2081756814 heartbeat IPC: 0.36239 cumulative IPC: 0.410251 (Simulation time: 0 hr 40 min 6 sec) 
Heartbeat CPU 0 instructions: 884000000 cycles: 2086668164 heartbeat IPC: 0.20361 cumulative IPC: 0.409294 (Simulation time: 0 hr 40 min 10 sec) 
Heartbeat CPU 0 instructions: 885000001 cycles: 2087250242 heartbeat IPC: 1.71798 cumulative IPC: 0.410012 (Simulation time: 0 hr 40 min 11 sec) 
Heartbeat CPU 0 instructions: 886000002 cycles: 2087998484 heartbeat IPC: 1.33647 cumulative IPC: 0.410665 (Simulation time: 0 hr 40 min 13 sec) 
Heartbeat CPU 0 instructions: 887000000 cycles: 2088542631 heartbeat IPC: 1.83774 cumulative IPC: 0.411396 (Simulation time: 0 hr 40 min 14 sec) 
Heartbeat CPU 0 instructions: 888000002 cycles: 2089090162 heartbeat IPC: 1.82638 cumulative IPC: 0.412125 (Simulation time: 0 hr 40 min 16 sec) 
Heartbeat CPU 0 instructions: 889000001 cycles: 2089626742 heartbeat IPC: 1.86365 cumulative IPC: 0.412858 (Simulation time: 0 hr 40 min 17 sec) 
Heartbeat CPU 0 instructions: 890000002 cycles: 2092334162 heartbeat IPC: 0.369356 cumulative IPC: 0.412747 (Simulation time: 0 hr 40 min 21 sec) 
Heartbeat CPU 0 instructions: 891000000 cycles: 2095139517 heartbeat IPC: 0.35646 cumulative IPC: 0.412599 (Simulation time: 0 hr 40 min 23 sec) 
Heartbeat CPU 0 instructions: 892000000 cycles: 2098032043 heartbeat IPC: 0.345719 cumulative IPC: 0.412419 (Simulation time: 0 hr 40 min 26 sec) 
Heartbeat CPU 0 instructions: 893000000 cycles: 2100714355 heartbeat IPC: 0.372813 cumulative IPC: 0.41232 (Simulation time: 0 hr 40 min 28 sec) 
Heartbeat CPU 0 instructions: 894000003 cycles: 2103480919 heartbeat IPC: 0.36146 cumulative IPC: 0.412189 (Simulation time: 0 hr 40 min 30 sec) 
Heartbeat CPU 0 instructions: 895000000 cycles: 2106315974 heartbeat IPC: 0.352726 cumulative IPC: 0.412033 (Simulation time: 0 hr 40 min 32 sec) 
Heartbeat CPU 0 instructions: 896000000 cycles: 2111138913 heartbeat IPC: 0.207342 cumulative IPC: 0.411123 (Simulation time: 0 hr 40 min 36 sec) 
Heartbeat CPU 0 instructions: 897000003 cycles: 2113874865 heartbeat IPC: 0.365505 cumulative IPC: 0.411008 (Simulation time: 0 hr 40 min 38 sec) 
Heartbeat CPU 0 instructions: 898000001 cycles: 2116812820 heartbeat IPC: 0.340372 cumulative IPC: 0.410818 (Simulation time: 0 hr 40 min 40 sec) 
Heartbeat CPU 0 instructions: 899000003 cycles: 2119462769 heartbeat IPC: 0.377367 cumulative IPC: 0.410737 (Simulation time: 0 hr 40 min 43 sec) 
Heartbeat CPU 0 instructions: 900000001 cycles: 2122222833 heartbeat IPC: 0.36231 cumulative IPC: 0.410615 (Simulation time: 0 hr 40 min 45 sec) 
Heartbeat CPU 0 instructions: 901000000 cycles: 2127088101 heartbeat IPC: 0.205538 cumulative IPC: 0.409709 (Simulation time: 0 hr 40 min 48 sec) 
Heartbeat CPU 0 instructions: 902000000 cycles: 2129864160 heartbeat IPC: 0.360223 cumulative IPC: 0.409584 (Simulation time: 0 hr 40 min 50 sec) 
Heartbeat CPU 0 instructions: 903000001 cycles: 2132639986 heartbeat IPC: 0.360253 cumulative IPC: 0.40946 (Simulation time: 0 hr 40 min 52 sec) 
Heartbeat CPU 0 instructions: 904000000 cycles: 2135503174 heartbeat IPC: 0.349261 cumulative IPC: 0.409305 (Simulation time: 0 hr 40 min 55 sec) 
Heartbeat CPU 0 instructions: 905000002 cycles: 2138186025 heartbeat IPC: 0.372739 cumulative IPC: 0.409217 (Simulation time: 0 hr 40 min 58 sec) 
Heartbeat CPU 0 instructions: 906000002 cycles: 2143095149 heartbeat IPC: 0.203702 cumulative IPC: 0.408313 (Simulation time: 0 hr 41 min 2 sec) 
Heartbeat CPU 0 instructions: 907000001 cycles: 2145871699 heartbeat IPC: 0.360159 cumulative IPC: 0.408194 (Simulation time: 0 hr 41 min 4 sec) 
Heartbeat CPU 0 instructions: 908000001 cycles: 2148622665 heartbeat IPC: 0.363509 cumulative IPC: 0.408084 (Simulation time: 0 hr 41 min 6 sec) 
Heartbeat CPU 0 instructions: 909000002 cycles: 2151387560 heartbeat IPC: 0.361678 cumulative IPC: 0.40797 (Simulation time: 0 hr 41 min 9 sec) 
Heartbeat CPU 0 instructions: 910000003 cycles: 2154210036 heartbeat IPC: 0.354299 cumulative IPC: 0.407836 (Simulation time: 0 hr 41 min 12 sec) 
Heartbeat CPU 0 instructions: 911000001 cycles: 2158957324 heartbeat IPC: 0.210646 cumulative IPC: 0.40701 (Simulation time: 0 hr 41 min 15 sec) 
Heartbeat CPU 0 instructions: 912000000 cycles: 2159562037 heartbeat IPC: 1.65368 cumulative IPC: 0.407675 (Simulation time: 0 hr 41 min 16 sec) 
Heartbeat CPU 0 instructions: 913000000 cycles: 2160102885 heartbeat IPC: 1.84895 cumulative IPC: 0.408362 (Simulation time: 0 hr 41 min 18 sec) 
Heartbeat CPU 0 instructions: 914000000 cycles: 2160652094 heartbeat IPC: 1.8208 cumulative IPC: 0.409046 (Simulation time: 0 hr 41 min 20 sec) 
Heartbeat CPU 0 instructions: 915000001 cycles: 2161192214 heartbeat IPC: 1.85144 cumulative IPC: 0.409733 (Simulation time: 0 hr 41 min 21 sec) 
Heartbeat CPU 0 instructions: 916000002 cycles: 2163739042 heartbeat IPC: 0.392646 cumulative IPC: 0.409694 (Simulation time: 0 hr 41 min 24 sec) 
Heartbeat CPU 0 instructions: 917000001 cycles: 2166664890 heartbeat IPC: 0.341781 cumulative IPC: 0.40952 (Simulation time: 0 hr 41 min 26 sec) 
Heartbeat CPU 0 instructions: 918000001 cycles: 2169417260 heartbeat IPC: 0.363323 cumulative IPC: 0.409409 (Simulation time: 0 hr 41 min 28 sec) 
Heartbeat CPU 0 instructions: 919000000 cycles: 2172273895 heartbeat IPC: 0.350062 cumulative IPC: 0.409261 (Simulation time: 0 hr 41 min 31 sec) 
Heartbeat CPU 0 instructions: 920000000 cycles: 2175048530 heartbeat IPC: 0.360408 cumulative IPC: 0.409143 (Simulation time: 0 hr 41 min 34 sec) 
Heartbeat CPU 0 instructions: 921000001 cycles: 2177831828 heartbeat IPC: 0.359286 cumulative IPC: 0.409023 (Simulation time: 0 hr 41 min 36 sec) 
Heartbeat CPU 0 instructions: 922000002 cycles: 2180612088 heartbeat IPC: 0.359679 cumulative IPC: 0.408904 (Simulation time: 0 hr 41 min 38 sec) 
Heartbeat CPU 0 instructions: 923000000 cycles: 2183379485 heartbeat IPC: 0.36135 cumulative IPC: 0.40879 (Simulation time: 0 hr 41 min 42 sec) 
Heartbeat CPU 0 instructions: 924000000 cycles: 2186163384 heartbeat IPC: 0.359208 cumulative IPC: 0.408671 (Simulation time: 0 hr 41 min 46 sec) 
Heartbeat CPU 0 instructions: 925000000 cycles: 2189140653 heartbeat IPC: 0.335878 cumulative IPC: 0.408485 (Simulation time: 0 hr 41 min 49 sec) 
Heartbeat CPU 0 instructions: 926000001 cycles: 2191832958 heartbeat IPC: 0.371429 cumulative IPC: 0.408399 (Simulation time: 0 hr 41 min 51 sec) 
Heartbeat CPU 0 instructions: 927000002 cycles: 2194580510 heartbeat IPC: 0.363961 cumulative IPC: 0.408294 (Simulation time: 0 hr 41 min 54 sec) 
Heartbeat CPU 0 instructions: 928000000 cycles: 2197353209 heartbeat IPC: 0.360659 cumulative IPC: 0.408182 (Simulation time: 0 hr 41 min 56 sec) 
Heartbeat CPU 0 instructions: 929000001 cycles: 2200109320 heartbeat IPC: 0.36283 cumulative IPC: 0.408075 (Simulation time: 0 hr 41 min 59 sec) 
Heartbeat CPU 0 instructions: 930000002 cycles: 2202860128 heartbeat IPC: 0.36353 cumulative IPC: 0.407971 (Simulation time: 0 hr 42 min 1 sec) 
Heartbeat CPU 0 instructions: 931000003 cycles: 2205790846 heartbeat IPC: 0.341214 cumulative IPC: 0.407805 (Simulation time: 0 hr 42 min 4 sec) 
Heartbeat CPU 0 instructions: 932000002 cycles: 2208536195 heartbeat IPC: 0.364252 cumulative IPC: 0.407704 (Simulation time: 0 hr 42 min 6 sec) 
Heartbeat CPU 0 instructions: 933000002 cycles: 2213418891 heartbeat IPC: 0.204805 cumulative IPC: 0.40687 (Simulation time: 0 hr 42 min 9 sec) 
Heartbeat CPU 0 instructions: 934000001 cycles: 2213990137 heartbeat IPC: 1.75056 cumulative IPC: 0.407516 (Simulation time: 0 hr 42 min 11 sec) 
Heartbeat CPU 0 instructions: 935000000 cycles: 2214532310 heartbeat IPC: 1.84443 cumulative IPC: 0.408171 (Simulation time: 0 hr 42 min 12 sec) 
Heartbeat CPU 0 instructions: 936000002 cycles: 2215081642 heartbeat IPC: 1.8204 cumulative IPC: 0.408824 (Simulation time: 0 hr 42 min 14 sec) 
Heartbeat CPU 0 instructions: 937000003 cycles: 2215622133 heartbeat IPC: 1.85017 cumulative IPC: 0.409479 (Simulation time: 0 hr 42 min 15 sec) 
Heartbeat CPU 0 instructions: 938000001 cycles: 2218452183 heartbeat IPC: 0.35335 cumulative IPC: 0.409346 (Simulation time: 0 hr 42 min 20 sec) 
Heartbeat CPU 0 instructions: 939000001 cycles: 2221399317 heartbeat IPC: 0.339313 cumulative IPC: 0.409173 (Simulation time: 0 hr 42 min 23 sec) 
Heartbeat CPU 0 instructions: 940000002 cycles: 2224072185 heartbeat IPC: 0.37413 cumulative IPC: 0.409095 (Simulation time: 0 hr 42 min 26 sec) 
Heartbeat CPU 0 instructions: 941000001 cycles: 2226822504 heartbeat IPC: 0.363594 cumulative IPC: 0.408991 (Simulation time: 0 hr 42 min 28 sec) 
Heartbeat CPU 0 instructions: 942000003 cycles: 2229537640 heartbeat IPC: 0.368306 cumulative IPC: 0.408899 (Simulation time: 0 hr 42 min 30 sec) 
Heartbeat CPU 0 instructions: 943000000 cycles: 2232267240 heartbeat IPC: 0.366353 cumulative IPC: 0.408803 (Simulation time: 0 hr 42 min 32 sec) 
Heartbeat CPU 0 instructions: 944000000 cycles: 2235016558 heartbeat IPC: 0.363727 cumulative IPC: 0.4087 (Simulation time: 0 hr 42 min 35 sec) 
Heartbeat CPU 0 instructions: 945000002 cycles: 2237928261 heartbeat IPC: 0.343442 cumulative IPC: 0.408543 (Simulation time: 0 hr 42 min 37 sec) 
Heartbeat CPU 0 instructions: 946000000 cycles: 2240595613 heartbeat IPC: 0.374903 cumulative IPC: 0.408469 (Simulation time: 0 hr 42 min 40 sec) 
Heartbeat CPU 0 instructions: 947000001 cycles: 2243335166 heartbeat IPC: 0.365023 cumulative IPC: 0.408372 (Simulation time: 0 hr 42 min 43 sec) 
Heartbeat CPU 0 instructions: 948000001 cycles: 2246465756 heartbeat IPC: 0.319429 cumulative IPC: 0.408143 (Simulation time: 0 hr 42 min 47 sec) 
Heartbeat CPU 0 instructions: 949000001 cycles: 2249593546 heartbeat IPC: 0.319715 cumulative IPC: 0.407917 (Simulation time: 0 hr 42 min 51 sec) 
Heartbeat CPU 0 instructions: 950000000 cycles: 2252410646 heartbeat IPC: 0.354975 cumulative IPC: 0.407796 (Simulation time: 0 hr 42 min 55 sec) 
Finished CPU 0 instructions: 500000001 cycles: 1226104577 cumulative IPC: 0.407796 (Simulation time: 0 hr 42 min 55 sec) 

ChampSim completed all CPUs

Region of Interest Statistics

CPU 0 cumulative IPC: 0.407796 instructions: 500000001 cycles: 1226104577
L1D TOTAL     ACCESS:   69174085  HIT:   55203460  MISS:   13970625
L1D LOAD      ACCESS:   46028621  HIT:   32243216  MISS:   13785405
L1D RFO       ACCESS:   23145464  HIT:   22960244  MISS:     185220
L1D PREFETCH  ACCESS:          0  HIT:          0  MISS:          0
L1D WRITEBACK ACCESS:          0  HIT:          0  MISS:          0
L1D PREFETCH  REQUESTED:          0  ISSUED:          0  USEFUL:          0  USELESS:          0
L1D AVERAGE MISS LATENCY: 250.542 cycles
L1I TOTAL     ACCESS:   96688925  HIT:   96331134  MISS:     357791
L1I LOAD      ACCESS:   96688925  HIT:   96331134  MISS:     357791
L1I RFO       ACCESS:          0  HIT:          0  MISS:          0
L1I PREFETCH  ACCESS:          0  HIT:          0  MISS:          0
L1I WRITEBACK ACCESS:          0  HIT:          0  MISS:          0
L1I PREFETCH  REQUESTED:          0  ISSUED:          0  USEFUL:          0  USELESS:          0
L1I AVERAGE MISS LATENCY: 77.2043 cycles
L2C TOTAL     ACCESS:   14760996  HIT:     635874  MISS:   14125122
L2C LOAD      ACCESS:   14143195  HIT:     195792  MISS:   13947403
L2C RFO       ACCESS:     185219  HIT:       7501  MISS:     177718
L2C PREFETCH  ACCESS:          0  HIT:          0  MISS:          0
L2C WRITEBACK ACCESS:     432582  HIT:     432581  MISS:          1
L2C PREFETCH  REQUESTED:          0  ISSUED:          0  USEFUL:          0  USELESS:          0
L2C AVERAGE MISS LATENCY: 148.365 cycles
LLC TOTAL     ACCESS:   14550092  HIT:    8601034  MISS:    5949058
LLC LOAD      ACCESS:   13947398  HIT:    8107333  MISS:    5840065
LLC RFO       ACCESS:     177718  HIT:      68725  MISS:     108993
LLC PREFETCH  ACCESS:          0  HIT:          0  MISS:          0
LLC WRITEBACK ACCESS:     424976  HIT:     424976  MISS:          0
LLC PREFETCH  REQUESTED:          0  ISSUED:          0  USEFUL:          0  USELESS:          0
LLC AVERAGE MISS LATENCY: 149.843 cycles
Major fault: 0 Minor fault: 19708

DRAM Statistics
 CHANNEL 0
 RQ ROW_BUFFER_HIT:    1992056  ROW_BUFFER_MISS:    3956914
 DBUS_CONGESTED:    2029803
 WQ ROW_BUFFER_HIT:      80959  ROW_BUFFER_MISS:     228909  FULL:          0

 AVG_CONGESTED_CYCLE: 6

CPU 0 Branch Prediction Accuracy: 99.768% MPKI: 0.74798 Average ROB Occupancy at Mispredict: 46.8685

Branch types
NOT_BRANCH: 338824906 67.765%
BRANCH_DIRECT_JUMP: 6254573 1.25091%
BRANCH_INDIRECT: 241692 0.0483384%
BRANCH_CONDITIONAL: 148705486 29.7411%
BRANCH_DIRECT_CALL: 2745583 0.549117%
BRANCH_INDIRECT_CALL: 241077 0.0482154%
BRANCH_RETURN: 2986660 0.597332%
BRANCH_OTHER: 0 0%


gzip: stdout: Broken pipe
