
*** ChampSim Multicore Out-of-Order Simulator ***

Warmup Instructions: 1000000
Prefetch Warmup Instructions: 450000000
Simulation Instructions: 500000000
Stat Printing Period: 1000000
Number of CPUs: 1
LLC sets: 2048
LLC ways: 16
Off-chip DRAM Size: 4096 MB Channels: 1 Width: 64-bit Data Rate: 3200 MT/s

CPU 0 runs /scratch/cluster/cmolder/ML-DPC/ChampSimTraces/spec06/473.astar-s0.trace.gz
Read seed: 854
Heartbeat CPU 0 instructions: 1000002 cycles: 434019 heartbeat IPC: 2.30405 cumulative IPC: 2.30405 (Simulation time: 0 hr 0 min 5 sec) 

Warmup complete CPU 0 instructions: 1000002 cycles: 434019 (Simulation time: 0 hr 0 min 5 sec) 

Heartbeat CPU 0 instructions: 2000000 cycles: 1721557 heartbeat IPC: 0.776675 cumulative IPC: 0.776675 (Simulation time: 0 hr 0 min 9 sec) 
Heartbeat CPU 0 instructions: 3000001 cycles: 2954611 heartbeat IPC: 0.810995 cumulative IPC: 0.793464 (Simulation time: 0 hr 0 min 13 sec) 
Heartbeat CPU 0 instructions: 4000003 cycles: 4176819 heartbeat IPC: 0.818193 cumulative IPC: 0.801539 (Simulation time: 0 hr 0 min 16 sec) 
Heartbeat CPU 0 instructions: 5000000 cycles: 5359754 heartbeat IPC: 0.845352 cumulative IPC: 0.812061 (Simulation time: 0 hr 0 min 19 sec) 
Heartbeat CPU 0 instructions: 6000000 cycles: 6496612 heartbeat IPC: 0.879617 cumulative IPC: 0.824729 (Simulation time: 0 hr 0 min 22 sec) 
Heartbeat CPU 0 instructions: 7000002 cycles: 7638517 heartbeat IPC: 0.875731 cumulative IPC: 0.832813 (Simulation time: 0 hr 0 min 25 sec) 
Heartbeat CPU 0 instructions: 8000002 cycles: 8760659 heartbeat IPC: 0.891153 cumulative IPC: 0.840675 (Simulation time: 0 hr 0 min 28 sec) 
Heartbeat CPU 0 instructions: 9000000 cycles: 9922047 heartbeat IPC: 0.861037 cumulative IPC: 0.843168 (Simulation time: 0 hr 0 min 31 sec) 
Heartbeat CPU 0 instructions: 10000003 cycles: 11143748 heartbeat IPC: 0.818533 cumulative IPC: 0.840357 (Simulation time: 0 hr 0 min 34 sec) 
Heartbeat CPU 0 instructions: 11000000 cycles: 12390725 heartbeat IPC: 0.801937 cumulative IPC: 0.836351 (Simulation time: 0 hr 0 min 37 sec) 
Heartbeat CPU 0 instructions: 12000000 cycles: 13650464 heartbeat IPC: 0.793815 cumulative IPC: 0.832296 (Simulation time: 0 hr 0 min 39 sec) 
Heartbeat CPU 0 instructions: 13000002 cycles: 14902067 heartbeat IPC: 0.798977 cumulative IPC: 0.829414 (Simulation time: 0 hr 0 min 42 sec) 
Heartbeat CPU 0 instructions: 14000000 cycles: 16166455 heartbeat IPC: 0.790895 cumulative IPC: 0.826318 (Simulation time: 0 hr 0 min 45 sec) 
Heartbeat CPU 0 instructions: 15000001 cycles: 17484101 heartbeat IPC: 0.75893 cumulative IPC: 0.82111 (Simulation time: 0 hr 0 min 48 sec) 
Heartbeat CPU 0 instructions: 16000000 cycles: 18854516 heartbeat IPC: 0.729705 cumulative IPC: 0.81431 (Simulation time: 0 hr 0 min 51 sec) 
Heartbeat CPU 0 instructions: 17000000 cycles: 20182655 heartbeat IPC: 0.752933 cumulative IPC: 0.810182 (Simulation time: 0 hr 0 min 54 sec) 
Heartbeat CPU 0 instructions: 18000002 cycles: 21492930 heartbeat IPC: 0.7632 cumulative IPC: 0.807259 (Simulation time: 0 hr 0 min 57 sec) 
Heartbeat CPU 0 instructions: 19000002 cycles: 22778832 heartbeat IPC: 0.777664 cumulative IPC: 0.805556 (Simulation time: 0 hr 0 min 59 sec) 
Heartbeat CPU 0 instructions: 20000000 cycles: 24093809 heartbeat IPC: 0.760468 cumulative IPC: 0.80305 (Simulation time: 0 hr 1 min 2 sec) 
Heartbeat CPU 0 instructions: 21000000 cycles: 25432614 heartbeat IPC: 0.746935 cumulative IPC: 0.800045 (Simulation time: 0 hr 1 min 5 sec) 
Heartbeat CPU 0 instructions: 22000000 cycles: 26897842 heartbeat IPC: 0.682488 cumulative IPC: 0.793536 (Simulation time: 0 hr 1 min 8 sec) 
Heartbeat CPU 0 instructions: 23000002 cycles: 28332643 heartbeat IPC: 0.696962 cumulative IPC: 0.788569 (Simulation time: 0 hr 1 min 11 sec) 
Heartbeat CPU 0 instructions: 24000002 cycles: 29759993 heartbeat IPC: 0.700599 cumulative IPC: 0.784288 (Simulation time: 0 hr 1 min 13 sec) 
Heartbeat CPU 0 instructions: 25000000 cycles: 31077066 heartbeat IPC: 0.759258 cumulative IPC: 0.783212 (Simulation time: 0 hr 1 min 16 sec) 
Heartbeat CPU 0 instructions: 26000003 cycles: 31883657 heartbeat IPC: 1.23979 cumulative IPC: 0.794922 (Simulation time: 0 hr 1 min 19 sec) 
Heartbeat CPU 0 instructions: 27000000 cycles: 32700574 heartbeat IPC: 1.22411 cumulative IPC: 0.805788 (Simulation time: 0 hr 1 min 22 sec) 
Heartbeat CPU 0 instructions: 28000000 cycles: 33562866 heartbeat IPC: 1.1597 cumulative IPC: 0.815 (Simulation time: 0 hr 1 min 26 sec) 
Heartbeat CPU 0 instructions: 29000003 cycles: 34406600 heartbeat IPC: 1.18521 cumulative IPC: 0.824194 (Simulation time: 0 hr 1 min 31 sec) 
Heartbeat CPU 0 instructions: 30000001 cycles: 35268928 heartbeat IPC: 1.15965 cumulative IPC: 0.832498 (Simulation time: 0 hr 1 min 36 sec) 
Heartbeat CPU 0 instructions: 31000002 cycles: 36123987 heartbeat IPC: 1.16951 cumulative IPC: 0.840572 (Simulation time: 0 hr 1 min 39 sec) 
Heartbeat CPU 0 instructions: 32000001 cycles: 36971763 heartbeat IPC: 1.17956 cumulative IPC: 0.848438 (Simulation time: 0 hr 1 min 42 sec) 
Heartbeat CPU 0 instructions: 33000000 cycles: 37828722 heartbeat IPC: 1.16692 cumulative IPC: 0.855736 (Simulation time: 0 hr 1 min 45 sec) 
Heartbeat CPU 0 instructions: 34000002 cycles: 38680627 heartbeat IPC: 1.17384 cumulative IPC: 0.862822 (Simulation time: 0 hr 1 min 48 sec) 
Heartbeat CPU 0 instructions: 35000001 cycles: 39524169 heartbeat IPC: 1.18548 cumulative IPC: 0.869784 (Simulation time: 0 hr 1 min 52 sec) 
Heartbeat CPU 0 instructions: 36000003 cycles: 40356637 heartbeat IPC: 1.20125 cumulative IPC: 0.876696 (Simulation time: 0 hr 1 min 55 sec) 
Heartbeat CPU 0 instructions: 37000000 cycles: 41221488 heartbeat IPC: 1.15627 cumulative IPC: 0.882624 (Simulation time: 0 hr 1 min 58 sec) 
Heartbeat CPU 0 instructions: 38000002 cycles: 42076355 heartbeat IPC: 1.16977 cumulative IPC: 0.888519 (Simulation time: 0 hr 2 min 1 sec) 
Heartbeat CPU 0 instructions: 39000000 cycles: 42923519 heartbeat IPC: 1.18041 cumulative IPC: 0.894339 (Simulation time: 0 hr 2 min 4 sec) 
Heartbeat CPU 0 instructions: 40000001 cycles: 43771261 heartbeat IPC: 1.17961 cumulative IPC: 0.899919 (Simulation time: 0 hr 2 min 7 sec) 
Heartbeat CPU 0 instructions: 41000003 cycles: 44610224 heartbeat IPC: 1.19195 cumulative IPC: 0.905465 (Simulation time: 0 hr 2 min 10 sec) 
Heartbeat CPU 0 instructions: 42000001 cycles: 45482287 heartbeat IPC: 1.1467 cumulative IPC: 0.910135 (Simulation time: 0 hr 2 min 13 sec) 
Heartbeat CPU 0 instructions: 43000000 cycles: 46388830 heartbeat IPC: 1.10309 cumulative IPC: 0.913941 (Simulation time: 0 hr 2 min 15 sec) 
Heartbeat CPU 0 instructions: 44000000 cycles: 47302394 heartbeat IPC: 1.09461 cumulative IPC: 0.917463 (Simulation time: 0 hr 2 min 18 sec) 
Heartbeat CPU 0 instructions: 45000000 cycles: 48235688 heartbeat IPC: 1.07147 cumulative IPC: 0.92047 (Simulation time: 0 hr 2 min 21 sec) 
Heartbeat CPU 0 instructions: 46000003 cycles: 49109877 heartbeat IPC: 1.14392 cumulative IPC: 0.924483 (Simulation time: 0 hr 2 min 24 sec) 
Heartbeat CPU 0 instructions: 47000002 cycles: 49990422 heartbeat IPC: 1.13566 cumulative IPC: 0.928235 (Simulation time: 0 hr 2 min 26 sec) 
Heartbeat CPU 0 instructions: 48000000 cycles: 50864391 heartbeat IPC: 1.1442 cumulative IPC: 0.931978 (Simulation time: 0 hr 2 min 29 sec) 
Heartbeat CPU 0 instructions: 49000000 cycles: 51727781 heartbeat IPC: 1.15823 cumulative IPC: 0.935786 (Simulation time: 0 hr 2 min 32 sec) 
Heartbeat CPU 0 instructions: 50000002 cycles: 52578299 heartbeat IPC: 1.17576 cumulative IPC: 0.9397 (Simulation time: 0 hr 2 min 35 sec) 
Heartbeat CPU 0 instructions: 51000002 cycles: 53447998 heartbeat IPC: 1.14982 cumulative IPC: 0.943147 (Simulation time: 0 hr 2 min 38 sec) 
Heartbeat CPU 0 instructions: 52000002 cycles: 54347745 heartbeat IPC: 1.11142 cumulative IPC: 0.945956 (Simulation time: 0 hr 2 min 41 sec) 
Heartbeat CPU 0 instructions: 53000003 cycles: 55232145 heartbeat IPC: 1.13071 cumulative IPC: 0.948938 (Simulation time: 0 hr 2 min 44 sec) 
Heartbeat CPU 0 instructions: 54000000 cycles: 56105612 heartbeat IPC: 1.14486 cumulative IPC: 0.952012 (Simulation time: 0 hr 2 min 47 sec) 
Heartbeat CPU 0 instructions: 55000000 cycles: 56946077 heartbeat IPC: 1.18982 cumulative IPC: 0.955548 (Simulation time: 0 hr 2 min 50 sec) 
Heartbeat CPU 0 instructions: 56000003 cycles: 57803933 heartbeat IPC: 1.1657 cumulative IPC: 0.958691 (Simulation time: 0 hr 2 min 54 sec) 
Heartbeat CPU 0 instructions: 57000001 cycles: 58638189 heartbeat IPC: 1.19867 cumulative IPC: 0.96213 (Simulation time: 0 hr 2 min 59 sec) 
Heartbeat CPU 0 instructions: 58000002 cycles: 59516049 heartbeat IPC: 1.13913 cumulative IPC: 0.96476 (Simulation time: 0 hr 3 min 4 sec) 
Heartbeat CPU 0 instructions: 59000003 cycles: 60372449 heartbeat IPC: 1.16768 cumulative IPC: 0.96766 (Simulation time: 0 hr 3 min 9 sec) 
Heartbeat CPU 0 instructions: 60000001 cycles: 61241441 heartbeat IPC: 1.15076 cumulative IPC: 0.970276 (Simulation time: 0 hr 3 min 14 sec) 
Heartbeat CPU 0 instructions: 61000003 cycles: 62113475 heartbeat IPC: 1.14675 cumulative IPC: 0.972771 (Simulation time: 0 hr 3 min 18 sec) 
Heartbeat CPU 0 instructions: 62000002 cycles: 62990664 heartbeat IPC: 1.14 cumulative IPC: 0.975116 (Simulation time: 0 hr 3 min 21 sec) 
Heartbeat CPU 0 instructions: 63000003 cycles: 63940081 heartbeat IPC: 1.05328 cumulative IPC: 0.976285 (Simulation time: 0 hr 3 min 23 sec) 
Heartbeat CPU 0 instructions: 64000000 cycles: 64812019 heartbeat IPC: 1.14687 cumulative IPC: 0.978595 (Simulation time: 0 hr 3 min 26 sec) 
Heartbeat CPU 0 instructions: 65000001 cycles: 65685942 heartbeat IPC: 1.14427 cumulative IPC: 0.980814 (Simulation time: 0 hr 3 min 29 sec) 
Heartbeat CPU 0 instructions: 66000000 cycles: 66579382 heartbeat IPC: 1.11927 cumulative IPC: 0.982684 (Simulation time: 0 hr 3 min 32 sec) 
Heartbeat CPU 0 instructions: 67000000 cycles: 67465083 heartbeat IPC: 1.12905 cumulative IPC: 0.984618 (Simulation time: 0 hr 3 min 35 sec) 
Heartbeat CPU 0 instructions: 68000002 cycles: 68339515 heartbeat IPC: 1.1436 cumulative IPC: 0.986665 (Simulation time: 0 hr 3 min 38 sec) 
Heartbeat CPU 0 instructions: 69000002 cycles: 69208334 heartbeat IPC: 1.15099 cumulative IPC: 0.988741 (Simulation time: 0 hr 3 min 41 sec) 
Heartbeat CPU 0 instructions: 70000002 cycles: 70101736 heartbeat IPC: 1.11932 cumulative IPC: 0.990416 (Simulation time: 0 hr 3 min 44 sec) 
Heartbeat CPU 0 instructions: 71000002 cycles: 70992851 heartbeat IPC: 1.12219 cumulative IPC: 0.99208 (Simulation time: 0 hr 3 min 47 sec) 
Heartbeat CPU 0 instructions: 72000002 cycles: 71885961 heartbeat IPC: 1.11968 cumulative IPC: 0.993675 (Simulation time: 0 hr 3 min 52 sec) 
Heartbeat CPU 0 instructions: 73000000 cycles: 72770179 heartbeat IPC: 1.13094 cumulative IPC: 0.995353 (Simulation time: 0 hr 3 min 57 sec) 
Heartbeat CPU 0 instructions: 74000001 cycles: 73652654 heartbeat IPC: 1.13318 cumulative IPC: 0.997014 (Simulation time: 0 hr 4 min 2 sec) 
Heartbeat CPU 0 instructions: 75000002 cycles: 74516758 heartbeat IPC: 1.15727 cumulative IPC: 0.998883 (Simulation time: 0 hr 4 min 6 sec) 
Heartbeat CPU 0 instructions: 76000002 cycles: 75402239 heartbeat IPC: 1.12933 cumulative IPC: 1.00042 (Simulation time: 0 hr 4 min 10 sec) 
Heartbeat CPU 0 instructions: 77000000 cycles: 76343638 heartbeat IPC: 1.06225 cumulative IPC: 1.00119 (Simulation time: 0 hr 4 min 14 sec) 
Heartbeat CPU 0 instructions: 78000001 cycles: 77224524 heartbeat IPC: 1.13522 cumulative IPC: 1.00273 (Simulation time: 0 hr 4 min 19 sec) 
Heartbeat CPU 0 instructions: 79000000 cycles: 78152955 heartbeat IPC: 1.07708 cumulative IPC: 1.00362 (Simulation time: 0 hr 4 min 23 sec) 
Heartbeat CPU 0 instructions: 80000002 cycles: 79150969 heartbeat IPC: 1.00199 cumulative IPC: 1.0036 (Simulation time: 0 hr 4 min 27 sec) 
Heartbeat CPU 0 instructions: 81000000 cycles: 80137734 heartbeat IPC: 1.01341 cumulative IPC: 1.00372 (Simulation time: 0 hr 4 min 31 sec) 
Heartbeat CPU 0 instructions: 82000000 cycles: 81080406 heartbeat IPC: 1.06081 cumulative IPC: 1.00438 (Simulation time: 0 hr 4 min 33 sec) 
Heartbeat CPU 0 instructions: 83000001 cycles: 81990740 heartbeat IPC: 1.0985 cumulative IPC: 1.00544 (Simulation time: 0 hr 4 min 36 sec) 
Heartbeat CPU 0 instructions: 84000000 cycles: 82878510 heartbeat IPC: 1.12642 cumulative IPC: 1.00674 (Simulation time: 0 hr 4 min 39 sec) 
Heartbeat CPU 0 instructions: 85000001 cycles: 83753567 heartbeat IPC: 1.14278 cumulative IPC: 1.00817 (Simulation time: 0 hr 4 min 42 sec) 
Heartbeat CPU 0 instructions: 86000000 cycles: 84641415 heartbeat IPC: 1.12632 cumulative IPC: 1.00941 (Simulation time: 0 hr 4 min 45 sec) 
Heartbeat CPU 0 instructions: 87000001 cycles: 85539061 heartbeat IPC: 1.11403 cumulative IPC: 1.01052 (Simulation time: 0 hr 4 min 48 sec) 
Heartbeat CPU 0 instructions: 88000000 cycles: 86457306 heartbeat IPC: 1.08903 cumulative IPC: 1.01135 (Simulation time: 0 hr 4 min 51 sec) 
Heartbeat CPU 0 instructions: 89000002 cycles: 87325940 heartbeat IPC: 1.15124 cumulative IPC: 1.01275 (Simulation time: 0 hr 4 min 54 sec) 
Heartbeat CPU 0 instructions: 90000001 cycles: 88189104 heartbeat IPC: 1.15853 cumulative IPC: 1.01419 (Simulation time: 0 hr 4 min 57 sec) 
Heartbeat CPU 0 instructions: 91000001 cycles: 89094847 heartbeat IPC: 1.10407 cumulative IPC: 1.0151 (Simulation time: 0 hr 5 min 0 sec) 
Heartbeat CPU 0 instructions: 92000002 cycles: 90010618 heartbeat IPC: 1.09198 cumulative IPC: 1.01589 (Simulation time: 0 hr 5 min 2 sec) 
Heartbeat CPU 0 instructions: 93000000 cycles: 90892341 heartbeat IPC: 1.13414 cumulative IPC: 1.01704 (Simulation time: 0 hr 5 min 5 sec) 
Heartbeat CPU 0 instructions: 94000000 cycles: 91788815 heartbeat IPC: 1.11548 cumulative IPC: 1.01801 (Simulation time: 0 hr 5 min 8 sec) 
Heartbeat CPU 0 instructions: 95000001 cycles: 92704753 heartbeat IPC: 1.09178 cumulative IPC: 1.01874 (Simulation time: 0 hr 5 min 11 sec) 
Heartbeat CPU 0 instructions: 96000000 cycles: 93655296 heartbeat IPC: 1.05203 cumulative IPC: 1.01908 (Simulation time: 0 hr 5 min 14 sec) 
Heartbeat CPU 0 instructions: 97000002 cycles: 94598161 heartbeat IPC: 1.0606 cumulative IPC: 1.0195 (Simulation time: 0 hr 5 min 17 sec) 
Heartbeat CPU 0 instructions: 98000001 cycles: 95539197 heartbeat IPC: 1.06266 cumulative IPC: 1.01992 (Simulation time: 0 hr 5 min 20 sec) 
Heartbeat CPU 0 instructions: 99000000 cycles: 96560556 heartbeat IPC: 0.979087 cumulative IPC: 1.01949 (Simulation time: 0 hr 5 min 23 sec) 
Heartbeat CPU 0 instructions: 100000002 cycles: 97510514 heartbeat IPC: 1.05268 cumulative IPC: 1.01981 (Simulation time: 0 hr 5 min 26 sec) 
Heartbeat CPU 0 instructions: 101000000 cycles: 98470405 heartbeat IPC: 1.04178 cumulative IPC: 1.02003 (Simulation time: 0 hr 5 min 29 sec) 
Heartbeat CPU 0 instructions: 102000000 cycles: 99414001 heartbeat IPC: 1.05978 cumulative IPC: 1.02041 (Simulation time: 0 hr 5 min 33 sec) 
Heartbeat CPU 0 instructions: 103000001 cycles: 100298014 heartbeat IPC: 1.13121 cumulative IPC: 1.02139 (Simulation time: 0 hr 5 min 36 sec) 
Heartbeat CPU 0 instructions: 104000002 cycles: 101184317 heartbeat IPC: 1.12828 cumulative IPC: 1.02233 (Simulation time: 0 hr 5 min 38 sec) 
Heartbeat CPU 0 instructions: 105000000 cycles: 102080441 heartbeat IPC: 1.11591 cumulative IPC: 1.02315 (Simulation time: 0 hr 5 min 42 sec) 
Heartbeat CPU 0 instructions: 106000000 cycles: 102981411 heartbeat IPC: 1.10991 cumulative IPC: 1.02392 (Simulation time: 0 hr 5 min 47 sec) 
Heartbeat CPU 0 instructions: 107000001 cycles: 103883702 heartbeat IPC: 1.10829 cumulative IPC: 1.02465 (Simulation time: 0 hr 5 min 52 sec) 
Heartbeat CPU 0 instructions: 108000002 cycles: 104893852 heartbeat IPC: 0.989953 cumulative IPC: 1.02432 (Simulation time: 0 hr 5 min 55 sec) 
Heartbeat CPU 0 instructions: 109000000 cycles: 105883202 heartbeat IPC: 1.01076 cumulative IPC: 1.02419 (Simulation time: 0 hr 5 min 59 sec) 
Heartbeat CPU 0 instructions: 110000000 cycles: 106825062 heartbeat IPC: 1.06173 cumulative IPC: 1.02452 (Simulation time: 0 hr 6 min 4 sec) 
Heartbeat CPU 0 instructions: 111000003 cycles: 107766916 heartbeat IPC: 1.06174 cumulative IPC: 1.02485 (Simulation time: 0 hr 6 min 8 sec) 
Heartbeat CPU 0 instructions: 112000001 cycles: 108718490 heartbeat IPC: 1.05089 cumulative IPC: 1.02508 (Simulation time: 0 hr 6 min 13 sec) 
Heartbeat CPU 0 instructions: 113000000 cycles: 109659563 heartbeat IPC: 1.06262 cumulative IPC: 1.0254 (Simulation time: 0 hr 6 min 17 sec) 
Heartbeat CPU 0 instructions: 114000003 cycles: 110609857 heartbeat IPC: 1.05231 cumulative IPC: 1.02563 (Simulation time: 0 hr 6 min 22 sec) 
Heartbeat CPU 0 instructions: 115000000 cycles: 111578541 heartbeat IPC: 1.03233 cumulative IPC: 1.02569 (Simulation time: 0 hr 6 min 27 sec) 
Heartbeat CPU 0 instructions: 116000003 cycles: 112577818 heartbeat IPC: 1.00073 cumulative IPC: 1.02547 (Simulation time: 0 hr 6 min 31 sec) 
Heartbeat CPU 0 instructions: 117000000 cycles: 113616432 heartbeat IPC: 0.962819 cumulative IPC: 1.02489 (Simulation time: 0 hr 6 min 36 sec) 
Heartbeat CPU 0 instructions: 118000003 cycles: 114680240 heartbeat IPC: 0.940022 cumulative IPC: 1.0241 (Simulation time: 0 hr 6 min 40 sec) 
Heartbeat CPU 0 instructions: 119000000 cycles: 115697431 heartbeat IPC: 0.983097 cumulative IPC: 1.02374 (Simulation time: 0 hr 6 min 44 sec) 
Heartbeat CPU 0 instructions: 120000000 cycles: 116663401 heartbeat IPC: 1.03523 cumulative IPC: 1.02384 (Simulation time: 0 hr 6 min 48 sec) 
Heartbeat CPU 0 instructions: 121000000 cycles: 117680553 heartbeat IPC: 0.983137 cumulative IPC: 1.02348 (Simulation time: 0 hr 6 min 53 sec) 
Heartbeat CPU 0 instructions: 122000000 cycles: 118743390 heartbeat IPC: 0.940878 cumulative IPC: 1.02274 (Simulation time: 0 hr 6 min 57 sec) 
Heartbeat CPU 0 instructions: 123000001 cycles: 119711386 heartbeat IPC: 1.03306 cumulative IPC: 1.02283 (Simulation time: 0 hr 7 min 0 sec) 
Heartbeat CPU 0 instructions: 124000000 cycles: 120630496 heartbeat IPC: 1.08801 cumulative IPC: 1.02332 (Simulation time: 0 hr 7 min 3 sec) 
Heartbeat CPU 0 instructions: 125000000 cycles: 121535901 heartbeat IPC: 1.10448 cumulative IPC: 1.02393 (Simulation time: 0 hr 7 min 5 sec) 
Heartbeat CPU 0 instructions: 126000001 cycles: 122464735 heartbeat IPC: 1.07662 cumulative IPC: 1.02433 (Simulation time: 0 hr 7 min 9 sec) 
Heartbeat CPU 0 instructions: 127000000 cycles: 123385406 heartbeat IPC: 1.08616 cumulative IPC: 1.0248 (Simulation time: 0 hr 7 min 14 sec) 
Heartbeat CPU 0 instructions: 128000002 cycles: 124315846 heartbeat IPC: 1.07476 cumulative IPC: 1.02517 (Simulation time: 0 hr 7 min 19 sec) 
Heartbeat CPU 0 instructions: 129000000 cycles: 125304696 heartbeat IPC: 1.01127 cumulative IPC: 1.02506 (Simulation time: 0 hr 7 min 23 sec) 
Heartbeat CPU 0 instructions: 130000002 cycles: 126286692 heartbeat IPC: 1.01834 cumulative IPC: 1.02501 (Simulation time: 0 hr 7 min 27 sec) 
Heartbeat CPU 0 instructions: 131000002 cycles: 127247997 heartbeat IPC: 1.04025 cumulative IPC: 1.02512 (Simulation time: 0 hr 7 min 31 sec) 
Heartbeat CPU 0 instructions: 132000000 cycles: 128214906 heartbeat IPC: 1.03422 cumulative IPC: 1.02519 (Simulation time: 0 hr 7 min 36 sec) 
Heartbeat CPU 0 instructions: 133000003 cycles: 129181212 heartbeat IPC: 1.03487 cumulative IPC: 1.02527 (Simulation time: 0 hr 7 min 41 sec) 
Heartbeat CPU 0 instructions: 134000000 cycles: 130130248 heartbeat IPC: 1.0537 cumulative IPC: 1.02547 (Simulation time: 0 hr 7 min 45 sec) 
Heartbeat CPU 0 instructions: 135000000 cycles: 131118830 heartbeat IPC: 1.01155 cumulative IPC: 1.02537 (Simulation time: 0 hr 7 min 50 sec) 
Heartbeat CPU 0 instructions: 136000000 cycles: 132069520 heartbeat IPC: 1.05187 cumulative IPC: 1.02556 (Simulation time: 0 hr 7 min 54 sec) 
Heartbeat CPU 0 instructions: 137000000 cycles: 133000498 heartbeat IPC: 1.07414 cumulative IPC: 1.0259 (Simulation time: 0 hr 7 min 57 sec) 
Heartbeat CPU 0 instructions: 138000000 cycles: 133944710 heartbeat IPC: 1.05908 cumulative IPC: 1.02614 (Simulation time: 0 hr 8 min 0 sec) 
Heartbeat CPU 0 instructions: 139000002 cycles: 134917314 heartbeat IPC: 1.02817 cumulative IPC: 1.02615 (Simulation time: 0 hr 8 min 3 sec) 
Heartbeat CPU 0 instructions: 140000001 cycles: 135945651 heartbeat IPC: 0.972443 cumulative IPC: 1.02574 (Simulation time: 0 hr 8 min 7 sec) 
Heartbeat CPU 0 instructions: 141000003 cycles: 136947771 heartbeat IPC: 0.997886 cumulative IPC: 1.02554 (Simulation time: 0 hr 8 min 12 sec) 
Heartbeat CPU 0 instructions: 142000000 cycles: 137924624 heartbeat IPC: 1.02369 cumulative IPC: 1.02552 (Simulation time: 0 hr 8 min 17 sec) 
Heartbeat CPU 0 instructions: 143000000 cycles: 138915864 heartbeat IPC: 1.00884 cumulative IPC: 1.02541 (Simulation time: 0 hr 8 min 22 sec) 
Heartbeat CPU 0 instructions: 144000000 cycles: 139908515 heartbeat IPC: 1.0074 cumulative IPC: 1.02528 (Simulation time: 0 hr 8 min 27 sec) 
Heartbeat CPU 0 instructions: 145000002 cycles: 141013722 heartbeat IPC: 0.90481 cumulative IPC: 1.02433 (Simulation time: 0 hr 8 min 32 sec) 
Heartbeat CPU 0 instructions: 146000001 cycles: 142211963 heartbeat IPC: 0.834556 cumulative IPC: 1.02273 (Simulation time: 0 hr 8 min 36 sec) 
Heartbeat CPU 0 instructions: 147000002 cycles: 143346751 heartbeat IPC: 0.881223 cumulative IPC: 1.0216 (Simulation time: 0 hr 8 min 39 sec) 
Heartbeat CPU 0 instructions: 148000003 cycles: 144530992 heartbeat IPC: 0.844424 cumulative IPC: 1.02015 (Simulation time: 0 hr 8 min 44 sec) 
Heartbeat CPU 0 instructions: 149000000 cycles: 145644434 heartbeat IPC: 0.898113 cumulative IPC: 1.01921 (Simulation time: 0 hr 8 min 48 sec) 
Heartbeat CPU 0 instructions: 150000000 cycles: 146816413 heartbeat IPC: 0.853258 cumulative IPC: 1.01788 (Simulation time: 0 hr 8 min 53 sec) 
Heartbeat CPU 0 instructions: 151000002 cycles: 147922718 heartbeat IPC: 0.903912 cumulative IPC: 1.01703 (Simulation time: 0 hr 8 min 58 sec) 
Heartbeat CPU 0 instructions: 152000003 cycles: 149049401 heartbeat IPC: 0.887562 cumulative IPC: 1.01605 (Simulation time: 0 hr 9 min 2 sec) 
Heartbeat CPU 0 instructions: 153000000 cycles: 150171287 heartbeat IPC: 0.891353 cumulative IPC: 1.01511 (Simulation time: 0 hr 9 min 7 sec) 
Heartbeat CPU 0 instructions: 154000000 cycles: 151158888 heartbeat IPC: 1.01255 cumulative IPC: 1.01509 (Simulation time: 0 hr 9 min 11 sec) 
Heartbeat CPU 0 instructions: 155000000 cycles: 152160798 heartbeat IPC: 0.998094 cumulative IPC: 1.01498 (Simulation time: 0 hr 9 min 16 sec) 
Heartbeat CPU 0 instructions: 156000001 cycles: 153131769 heartbeat IPC: 1.0299 cumulative IPC: 1.01508 (Simulation time: 0 hr 9 min 21 sec) 
Heartbeat CPU 0 instructions: 157000000 cycles: 154097206 heartbeat IPC: 1.0358 cumulative IPC: 1.01521 (Simulation time: 0 hr 9 min 26 sec) 
Heartbeat CPU 0 instructions: 158000002 cycles: 155093760 heartbeat IPC: 1.00346 cumulative IPC: 1.01513 (Simulation time: 0 hr 9 min 29 sec) 
Heartbeat CPU 0 instructions: 159000000 cycles: 156189025 heartbeat IPC: 0.913019 cumulative IPC: 1.01441 (Simulation time: 0 hr 9 min 34 sec) 
Heartbeat CPU 0 instructions: 160000001 cycles: 157317064 heartbeat IPC: 0.886495 cumulative IPC: 1.01349 (Simulation time: 0 hr 9 min 38 sec) 
Heartbeat CPU 0 instructions: 161000003 cycles: 158501662 heartbeat IPC: 0.84417 cumulative IPC: 1.01222 (Simulation time: 0 hr 9 min 42 sec) 
Heartbeat CPU 0 instructions: 162000000 cycles: 159683512 heartbeat IPC: 0.846129 cumulative IPC: 1.01099 (Simulation time: 0 hr 9 min 45 sec) 
Heartbeat CPU 0 instructions: 163000000 cycles: 160863108 heartbeat IPC: 0.847748 cumulative IPC: 1.00979 (Simulation time: 0 hr 9 min 48 sec) 
Heartbeat CPU 0 instructions: 164000003 cycles: 162021347 heartbeat IPC: 0.863382 cumulative IPC: 1.00874 (Simulation time: 0 hr 9 min 51 sec) 
Heartbeat CPU 0 instructions: 165000000 cycles: 163155972 heartbeat IPC: 0.881346 cumulative IPC: 1.00785 (Simulation time: 0 hr 9 min 54 sec) 
Heartbeat CPU 0 instructions: 166000000 cycles: 164186364 heartbeat IPC: 0.970504 cumulative IPC: 1.00762 (Simulation time: 0 hr 9 min 58 sec) 
Heartbeat CPU 0 instructions: 167000000 cycles: 165177641 heartbeat IPC: 1.0088 cumulative IPC: 1.00763 (Simulation time: 0 hr 10 min 2 sec) 
Heartbeat CPU 0 instructions: 168000000 cycles: 166167691 heartbeat IPC: 1.01005 cumulative IPC: 1.00764 (Simulation time: 0 hr 10 min 7 sec) 
Heartbeat CPU 0 instructions: 169000000 cycles: 167154122 heartbeat IPC: 1.01376 cumulative IPC: 1.00768 (Simulation time: 0 hr 10 min 11 sec) 
Heartbeat CPU 0 instructions: 170000000 cycles: 168199248 heartbeat IPC: 0.956822 cumulative IPC: 1.00736 (Simulation time: 0 hr 10 min 15 sec) 
Heartbeat CPU 0 instructions: 171000001 cycles: 169271568 heartbeat IPC: 0.932558 cumulative IPC: 1.00689 (Simulation time: 0 hr 10 min 18 sec) 
Heartbeat CPU 0 instructions: 172000001 cycles: 170309586 heartbeat IPC: 0.963374 cumulative IPC: 1.00662 (Simulation time: 0 hr 10 min 21 sec) 
Heartbeat CPU 0 instructions: 173000003 cycles: 171301780 heartbeat IPC: 1.00787 cumulative IPC: 1.00663 (Simulation time: 0 hr 10 min 23 sec) 
Heartbeat CPU 0 instructions: 174000003 cycles: 172290014 heartbeat IPC: 1.01191 cumulative IPC: 1.00666 (Simulation time: 0 hr 10 min 26 sec) 
Heartbeat CPU 0 instructions: 175000002 cycles: 173239926 heartbeat IPC: 1.05273 cumulative IPC: 1.00691 (Simulation time: 0 hr 10 min 29 sec) 
Heartbeat CPU 0 instructions: 176000000 cycles: 174233773 heartbeat IPC: 1.00619 cumulative IPC: 1.00691 (Simulation time: 0 hr 10 min 32 sec) 
Heartbeat CPU 0 instructions: 177000000 cycles: 175212433 heartbeat IPC: 1.02181 cumulative IPC: 1.00699 (Simulation time: 0 hr 10 min 36 sec) 
Heartbeat CPU 0 instructions: 178000003 cycles: 176204253 heartbeat IPC: 1.00825 cumulative IPC: 1.007 (Simulation time: 0 hr 10 min 40 sec) 
Heartbeat CPU 0 instructions: 179000000 cycles: 177165742 heartbeat IPC: 1.04005 cumulative IPC: 1.00718 (Simulation time: 0 hr 10 min 44 sec) 
Heartbeat CPU 0 instructions: 180000001 cycles: 178151858 heartbeat IPC: 1.01408 cumulative IPC: 1.00721 (Simulation time: 0 hr 10 min 47 sec) 
Heartbeat CPU 0 instructions: 181000002 cycles: 179118866 heartbeat IPC: 1.03412 cumulative IPC: 1.00736 (Simulation time: 0 hr 10 min 50 sec) 
Heartbeat CPU 0 instructions: 182000000 cycles: 180136235 heartbeat IPC: 0.982926 cumulative IPC: 1.00722 (Simulation time: 0 hr 10 min 53 sec) 
Heartbeat CPU 0 instructions: 183000000 cycles: 181099106 heartbeat IPC: 1.03856 cumulative IPC: 1.00739 (Simulation time: 0 hr 10 min 56 sec) 
Heartbeat CPU 0 instructions: 184000000 cycles: 182086213 heartbeat IPC: 1.01306 cumulative IPC: 1.00742 (Simulation time: 0 hr 10 min 59 sec) 
Heartbeat CPU 0 instructions: 185000003 cycles: 183097322 heartbeat IPC: 0.989016 cumulative IPC: 1.00732 (Simulation time: 0 hr 11 min 2 sec) 
Heartbeat CPU 0 instructions: 186000002 cycles: 184095768 heartbeat IPC: 1.00156 cumulative IPC: 1.00729 (Simulation time: 0 hr 11 min 5 sec) 
Heartbeat CPU 0 instructions: 187000000 cycles: 185072421 heartbeat IPC: 1.0239 cumulative IPC: 1.00737 (Simulation time: 0 hr 11 min 8 sec) 
Heartbeat CPU 0 instructions: 188000000 cycles: 186023940 heartbeat IPC: 1.05095 cumulative IPC: 1.0076 (Simulation time: 0 hr 11 min 11 sec) 
Heartbeat CPU 0 instructions: 189000003 cycles: 186996884 heartbeat IPC: 1.02781 cumulative IPC: 1.0077 (Simulation time: 0 hr 11 min 14 sec) 
Heartbeat CPU 0 instructions: 190000002 cycles: 188039902 heartbeat IPC: 0.958755 cumulative IPC: 1.00743 (Simulation time: 0 hr 11 min 17 sec) 
Heartbeat CPU 0 instructions: 191000002 cycles: 189087758 heartbeat IPC: 0.95433 cumulative IPC: 1.00714 (Simulation time: 0 hr 11 min 20 sec) 
Heartbeat CPU 0 instructions: 192000003 cycles: 190162685 heartbeat IPC: 0.930297 cumulative IPC: 1.0067 (Simulation time: 0 hr 11 min 23 sec) 
Heartbeat CPU 0 instructions: 193000001 cycles: 191222836 heartbeat IPC: 0.94326 cumulative IPC: 1.00635 (Simulation time: 0 hr 11 min 26 sec) 
Heartbeat CPU 0 instructions: 194000001 cycles: 192282889 heartbeat IPC: 0.943349 cumulative IPC: 1.006 (Simulation time: 0 hr 11 min 29 sec) 
Heartbeat CPU 0 instructions: 195000003 cycles: 193283368 heartbeat IPC: 0.999523 cumulative IPC: 1.00597 (Simulation time: 0 hr 11 min 32 sec) 
Heartbeat CPU 0 instructions: 196000000 cycles: 194274070 heartbeat IPC: 1.00938 cumulative IPC: 1.00598 (Simulation time: 0 hr 11 min 35 sec) 
Heartbeat CPU 0 instructions: 197000000 cycles: 195230394 heartbeat IPC: 1.04567 cumulative IPC: 1.00618 (Simulation time: 0 hr 11 min 38 sec) 
Heartbeat CPU 0 instructions: 198000000 cycles: 196169408 heartbeat IPC: 1.06495 cumulative IPC: 1.00646 (Simulation time: 0 hr 11 min 42 sec) 
Heartbeat CPU 0 instructions: 199000000 cycles: 197117689 heartbeat IPC: 1.05454 cumulative IPC: 1.00669 (Simulation time: 0 hr 11 min 45 sec) 
Heartbeat CPU 0 instructions: 200000002 cycles: 198055355 heartbeat IPC: 1.06648 cumulative IPC: 1.00698 (Simulation time: 0 hr 11 min 48 sec) 
Heartbeat CPU 0 instructions: 201000000 cycles: 199063329 heartbeat IPC: 0.992087 cumulative IPC: 1.0069 (Simulation time: 0 hr 11 min 51 sec) 
Heartbeat CPU 0 instructions: 202000000 cycles: 200039339 heartbeat IPC: 1.02458 cumulative IPC: 1.00699 (Simulation time: 0 hr 11 min 54 sec) 
Heartbeat CPU 0 instructions: 203000001 cycles: 201027640 heartbeat IPC: 1.01184 cumulative IPC: 1.00701 (Simulation time: 0 hr 11 min 57 sec) 
Heartbeat CPU 0 instructions: 204000003 cycles: 202047485 heartbeat IPC: 0.980543 cumulative IPC: 1.00688 (Simulation time: 0 hr 12 min 0 sec) 
Heartbeat CPU 0 instructions: 205000000 cycles: 203106379 heartbeat IPC: 0.944379 cumulative IPC: 1.00655 (Simulation time: 0 hr 12 min 3 sec) 
Heartbeat CPU 0 instructions: 206000003 cycles: 204131798 heartbeat IPC: 0.975214 cumulative IPC: 1.00639 (Simulation time: 0 hr 12 min 6 sec) 
Heartbeat CPU 0 instructions: 207000000 cycles: 205166367 heartbeat IPC: 0.966583 cumulative IPC: 1.00619 (Simulation time: 0 hr 12 min 9 sec) 
Heartbeat CPU 0 instructions: 208000001 cycles: 206232997 heartbeat IPC: 0.937533 cumulative IPC: 1.00584 (Simulation time: 0 hr 12 min 12 sec) 
Heartbeat CPU 0 instructions: 209000000 cycles: 207299114 heartbeat IPC: 0.937982 cumulative IPC: 1.00549 (Simulation time: 0 hr 12 min 15 sec) 
Heartbeat CPU 0 instructions: 210000001 cycles: 208333974 heartbeat IPC: 0.966315 cumulative IPC: 1.00529 (Simulation time: 0 hr 12 min 18 sec) 
Heartbeat CPU 0 instructions: 211000001 cycles: 209408186 heartbeat IPC: 0.930915 cumulative IPC: 1.00491 (Simulation time: 0 hr 12 min 21 sec) 
Heartbeat CPU 0 instructions: 212000003 cycles: 210456179 heartbeat IPC: 0.954207 cumulative IPC: 1.00466 (Simulation time: 0 hr 12 min 24 sec) 
Heartbeat CPU 0 instructions: 213000001 cycles: 211453389 heartbeat IPC: 1.0028 cumulative IPC: 1.00465 (Simulation time: 0 hr 12 min 27 sec) 
Heartbeat CPU 0 instructions: 214000002 cycles: 212393740 heartbeat IPC: 1.06343 cumulative IPC: 1.00491 (Simulation time: 0 hr 12 min 30 sec) 
Heartbeat CPU 0 instructions: 215000001 cycles: 213335009 heartbeat IPC: 1.06239 cumulative IPC: 1.00516 (Simulation time: 0 hr 12 min 33 sec) 
Heartbeat CPU 0 instructions: 216000000 cycles: 214254284 heartbeat IPC: 1.08781 cumulative IPC: 1.00552 (Simulation time: 0 hr 12 min 36 sec) 
Heartbeat CPU 0 instructions: 217000002 cycles: 215198174 heartbeat IPC: 1.05945 cumulative IPC: 1.00575 (Simulation time: 0 hr 12 min 39 sec) 
Heartbeat CPU 0 instructions: 218000001 cycles: 216138602 heartbeat IPC: 1.06334 cumulative IPC: 1.00601 (Simulation time: 0 hr 12 min 42 sec) 
Heartbeat CPU 0 instructions: 219000001 cycles: 217133071 heartbeat IPC: 1.00556 cumulative IPC: 1.006 (Simulation time: 0 hr 12 min 45 sec) 
Heartbeat CPU 0 instructions: 220000000 cycles: 218093170 heartbeat IPC: 1.04156 cumulative IPC: 1.00616 (Simulation time: 0 hr 12 min 48 sec) 
Heartbeat CPU 0 instructions: 221000000 cycles: 219079397 heartbeat IPC: 1.01397 cumulative IPC: 1.0062 (Simulation time: 0 hr 12 min 51 sec) 
Heartbeat CPU 0 instructions: 222000000 cycles: 220076886 heartbeat IPC: 1.00252 cumulative IPC: 1.00618 (Simulation time: 0 hr 12 min 54 sec) 
Heartbeat CPU 0 instructions: 223000003 cycles: 221162851 heartbeat IPC: 0.920843 cumulative IPC: 1.00576 (Simulation time: 0 hr 12 min 57 sec) 
Heartbeat CPU 0 instructions: 224000001 cycles: 222254713 heartbeat IPC: 0.915865 cumulative IPC: 1.00532 (Simulation time: 0 hr 13 min 0 sec) 
Heartbeat CPU 0 instructions: 225000000 cycles: 223313136 heartbeat IPC: 0.944801 cumulative IPC: 1.00503 (Simulation time: 0 hr 13 min 3 sec) 
Heartbeat CPU 0 instructions: 226000001 cycles: 224353650 heartbeat IPC: 0.961064 cumulative IPC: 1.00482 (Simulation time: 0 hr 13 min 6 sec) 
Heartbeat CPU 0 instructions: 227000003 cycles: 225440046 heartbeat IPC: 0.920476 cumulative IPC: 1.00442 (Simulation time: 0 hr 13 min 9 sec) 
Heartbeat CPU 0 instructions: 228000000 cycles: 226520338 heartbeat IPC: 0.925673 cumulative IPC: 1.00404 (Simulation time: 0 hr 13 min 11 sec) 
Heartbeat CPU 0 instructions: 229000003 cycles: 227578855 heartbeat IPC: 0.944721 cumulative IPC: 1.00376 (Simulation time: 0 hr 13 min 14 sec) 
Heartbeat CPU 0 instructions: 230000002 cycles: 228598165 heartbeat IPC: 0.981055 cumulative IPC: 1.00366 (Simulation time: 0 hr 13 min 17 sec) 
Heartbeat CPU 0 instructions: 231000000 cycles: 229618041 heartbeat IPC: 0.980509 cumulative IPC: 1.00356 (Simulation time: 0 hr 13 min 20 sec) 
Heartbeat CPU 0 instructions: 232000001 cycles: 230581829 heartbeat IPC: 1.03757 cumulative IPC: 1.0037 (Simulation time: 0 hr 13 min 23 sec) 
Heartbeat CPU 0 instructions: 233000003 cycles: 231562715 heartbeat IPC: 1.01949 cumulative IPC: 1.00377 (Simulation time: 0 hr 13 min 26 sec) 
Heartbeat CPU 0 instructions: 234000000 cycles: 232545691 heartbeat IPC: 1.01732 cumulative IPC: 1.00383 (Simulation time: 0 hr 13 min 29 sec) 
Heartbeat CPU 0 instructions: 235000001 cycles: 233554588 heartbeat IPC: 0.991182 cumulative IPC: 1.00377 (Simulation time: 0 hr 13 min 32 sec) 
Heartbeat CPU 0 instructions: 236000000 cycles: 234520321 heartbeat IPC: 1.03548 cumulative IPC: 1.0039 (Simulation time: 0 hr 13 min 35 sec) 
Heartbeat CPU 0 instructions: 237000001 cycles: 235509102 heartbeat IPC: 1.01135 cumulative IPC: 1.00393 (Simulation time: 0 hr 13 min 38 sec) 
Heartbeat CPU 0 instructions: 238000000 cycles: 236470101 heartbeat IPC: 1.04058 cumulative IPC: 1.00408 (Simulation time: 0 hr 13 min 42 sec) 
Heartbeat CPU 0 instructions: 239000000 cycles: 237406760 heartbeat IPC: 1.06762 cumulative IPC: 1.00433 (Simulation time: 0 hr 13 min 47 sec) 
Heartbeat CPU 0 instructions: 240000002 cycles: 238384129 heartbeat IPC: 1.02316 cumulative IPC: 1.00441 (Simulation time: 0 hr 13 min 52 sec) 
Heartbeat CPU 0 instructions: 241000001 cycles: 239324772 heartbeat IPC: 1.0631 cumulative IPC: 1.00464 (Simulation time: 0 hr 13 min 55 sec) 
Heartbeat CPU 0 instructions: 242000000 cycles: 240285245 heartbeat IPC: 1.04115 cumulative IPC: 1.00479 (Simulation time: 0 hr 13 min 58 sec) 
Heartbeat CPU 0 instructions: 243000003 cycles: 241224177 heartbeat IPC: 1.06504 cumulative IPC: 1.00502 (Simulation time: 0 hr 14 min 1 sec) 
Heartbeat CPU 0 instructions: 244000003 cycles: 242166594 heartbeat IPC: 1.0611 cumulative IPC: 1.00524 (Simulation time: 0 hr 14 min 4 sec) 
Heartbeat CPU 0 instructions: 245000002 cycles: 243123865 heartbeat IPC: 1.04464 cumulative IPC: 1.0054 (Simulation time: 0 hr 14 min 7 sec) 
Heartbeat CPU 0 instructions: 246000000 cycles: 244098255 heartbeat IPC: 1.02628 cumulative IPC: 1.00548 (Simulation time: 0 hr 14 min 11 sec) 
Heartbeat CPU 0 instructions: 247000001 cycles: 245061783 heartbeat IPC: 1.03785 cumulative IPC: 1.00561 (Simulation time: 0 hr 14 min 14 sec) 
Heartbeat CPU 0 instructions: 248000002 cycles: 245995283 heartbeat IPC: 1.07124 cumulative IPC: 1.00586 (Simulation time: 0 hr 14 min 17 sec) 
Heartbeat CPU 0 instructions: 249000003 cycles: 246932857 heartbeat IPC: 1.06658 cumulative IPC: 1.00609 (Simulation time: 0 hr 14 min 20 sec) 
Heartbeat CPU 0 instructions: 250000002 cycles: 247878278 heartbeat IPC: 1.05773 cumulative IPC: 1.00629 (Simulation time: 0 hr 14 min 23 sec) 
Heartbeat CPU 0 instructions: 251000003 cycles: 248858338 heartbeat IPC: 1.02035 cumulative IPC: 1.00634 (Simulation time: 0 hr 14 min 26 sec) 
Heartbeat CPU 0 instructions: 252000000 cycles: 249820253 heartbeat IPC: 1.03959 cumulative IPC: 1.00647 (Simulation time: 0 hr 14 min 29 sec) 
Heartbeat CPU 0 instructions: 253000000 cycles: 250829107 heartbeat IPC: 0.991224 cumulative IPC: 1.00641 (Simulation time: 0 hr 14 min 32 sec) 
Heartbeat CPU 0 instructions: 254000000 cycles: 251831533 heartbeat IPC: 0.99758 cumulative IPC: 1.00637 (Simulation time: 0 hr 14 min 35 sec) 
Heartbeat CPU 0 instructions: 255000003 cycles: 252865779 heartbeat IPC: 0.966891 cumulative IPC: 1.00621 (Simulation time: 0 hr 14 min 38 sec) 
Heartbeat CPU 0 instructions: 256000002 cycles: 253843935 heartbeat IPC: 1.02233 cumulative IPC: 1.00627 (Simulation time: 0 hr 14 min 41 sec) 
Heartbeat CPU 0 instructions: 257000003 cycles: 254798656 heartbeat IPC: 1.04743 cumulative IPC: 1.00643 (Simulation time: 0 hr 14 min 44 sec) 
Heartbeat CPU 0 instructions: 258000002 cycles: 255768607 heartbeat IPC: 1.03098 cumulative IPC: 1.00652 (Simulation time: 0 hr 14 min 47 sec) 
Heartbeat CPU 0 instructions: 259000001 cycles: 256776490 heartbeat IPC: 0.992178 cumulative IPC: 1.00647 (Simulation time: 0 hr 14 min 51 sec) 
Heartbeat CPU 0 instructions: 260000002 cycles: 257787297 heartbeat IPC: 0.98931 cumulative IPC: 1.0064 (Simulation time: 0 hr 14 min 54 sec) 
Heartbeat CPU 0 instructions: 261000000 cycles: 258808764 heartbeat IPC: 0.978982 cumulative IPC: 1.00629 (Simulation time: 0 hr 14 min 58 sec) 
Heartbeat CPU 0 instructions: 262000000 cycles: 259836026 heartbeat IPC: 0.973462 cumulative IPC: 1.00616 (Simulation time: 0 hr 15 min 3 sec) 
Heartbeat CPU 0 instructions: 263000000 cycles: 260887934 heartbeat IPC: 0.950653 cumulative IPC: 1.00594 (Simulation time: 0 hr 15 min 8 sec) 
Heartbeat CPU 0 instructions: 264000000 cycles: 261944202 heartbeat IPC: 0.946729 cumulative IPC: 1.0057 (Simulation time: 0 hr 15 min 13 sec) 
Heartbeat CPU 0 instructions: 265000003 cycles: 262988904 heartbeat IPC: 0.957214 cumulative IPC: 1.0055 (Simulation time: 0 hr 15 min 18 sec) 
Heartbeat CPU 0 instructions: 266000001 cycles: 264046503 heartbeat IPC: 0.945536 cumulative IPC: 1.00526 (Simulation time: 0 hr 15 min 23 sec) 
Heartbeat CPU 0 instructions: 267000003 cycles: 265052569 heartbeat IPC: 0.993973 cumulative IPC: 1.00522 (Simulation time: 0 hr 15 min 28 sec) 
Heartbeat CPU 0 instructions: 268000000 cycles: 266046269 heartbeat IPC: 1.00634 cumulative IPC: 1.00522 (Simulation time: 0 hr 15 min 33 sec) 
Heartbeat CPU 0 instructions: 269000003 cycles: 267038858 heartbeat IPC: 1.00747 cumulative IPC: 1.00523 (Simulation time: 0 hr 15 min 38 sec) 
Heartbeat CPU 0 instructions: 270000001 cycles: 267993158 heartbeat IPC: 1.04789 cumulative IPC: 1.00539 (Simulation time: 0 hr 15 min 43 sec) 
Heartbeat CPU 0 instructions: 271000002 cycles: 268950964 heartbeat IPC: 1.04405 cumulative IPC: 1.00552 (Simulation time: 0 hr 15 min 48 sec) 
Heartbeat CPU 0 instructions: 272000000 cycles: 269952672 heartbeat IPC: 0.998293 cumulative IPC: 1.0055 (Simulation time: 0 hr 15 min 53 sec) 
Heartbeat CPU 0 instructions: 273000000 cycles: 270936229 heartbeat IPC: 1.01672 cumulative IPC: 1.00554 (Simulation time: 0 hr 15 min 58 sec) 
Heartbeat CPU 0 instructions: 274000000 cycles: 271891842 heartbeat IPC: 1.04645 cumulative IPC: 1.00568 (Simulation time: 0 hr 16 min 2 sec) 
Heartbeat CPU 0 instructions: 275000000 cycles: 272868973 heartbeat IPC: 1.0234 cumulative IPC: 1.00574 (Simulation time: 0 hr 16 min 5 sec) 
Heartbeat CPU 0 instructions: 276000000 cycles: 273825743 heartbeat IPC: 1.04518 cumulative IPC: 1.00588 (Simulation time: 0 hr 16 min 8 sec) 
Heartbeat CPU 0 instructions: 277000002 cycles: 274786572 heartbeat IPC: 1.04077 cumulative IPC: 1.006 (Simulation time: 0 hr 16 min 12 sec) 
Heartbeat CPU 0 instructions: 278000001 cycles: 275726574 heartbeat IPC: 1.06383 cumulative IPC: 1.0062 (Simulation time: 0 hr 16 min 16 sec) 
Heartbeat CPU 0 instructions: 279000002 cycles: 276670910 heartbeat IPC: 1.05895 cumulative IPC: 1.00638 (Simulation time: 0 hr 16 min 21 sec) 
Heartbeat CPU 0 instructions: 280000003 cycles: 277656307 heartbeat IPC: 1.01482 cumulative IPC: 1.00641 (Simulation time: 0 hr 16 min 26 sec) 
Heartbeat CPU 0 instructions: 281000003 cycles: 278623197 heartbeat IPC: 1.03424 cumulative IPC: 1.00651 (Simulation time: 0 hr 16 min 29 sec) 
Heartbeat CPU 0 instructions: 282000000 cycles: 279583557 heartbeat IPC: 1.04127 cumulative IPC: 1.00663 (Simulation time: 0 hr 16 min 32 sec) 
Heartbeat CPU 0 instructions: 283000001 cycles: 280544903 heartbeat IPC: 1.04021 cumulative IPC: 1.00674 (Simulation time: 0 hr 16 min 35 sec) 
Heartbeat CPU 0 instructions: 284000002 cycles: 281534571 heartbeat IPC: 1.01044 cumulative IPC: 1.00676 (Simulation time: 0 hr 16 min 39 sec) 
Heartbeat CPU 0 instructions: 285000000 cycles: 282546924 heartbeat IPC: 0.987796 cumulative IPC: 1.00669 (Simulation time: 0 hr 16 min 44 sec) 
Heartbeat CPU 0 instructions: 286000000 cycles: 283540944 heartbeat IPC: 1.00602 cumulative IPC: 1.00669 (Simulation time: 0 hr 16 min 49 sec) 
Heartbeat CPU 0 instructions: 287000000 cycles: 284581117 heartbeat IPC: 0.961379 cumulative IPC: 1.00652 (Simulation time: 0 hr 16 min 54 sec) 
Heartbeat CPU 0 instructions: 288000002 cycles: 285617132 heartbeat IPC: 0.965239 cumulative IPC: 1.00637 (Simulation time: 0 hr 16 min 59 sec) 
Heartbeat CPU 0 instructions: 289000003 cycles: 286645314 heartbeat IPC: 0.972591 cumulative IPC: 1.00625 (Simulation time: 0 hr 17 min 3 sec) 
Heartbeat CPU 0 instructions: 290000000 cycles: 287710676 heartbeat IPC: 0.938645 cumulative IPC: 1.006 (Simulation time: 0 hr 17 min 6 sec) 
Heartbeat CPU 0 instructions: 291000000 cycles: 288731677 heartbeat IPC: 0.979431 cumulative IPC: 1.0059 (Simulation time: 0 hr 17 min 9 sec) 
Heartbeat CPU 0 instructions: 292000001 cycles: 289769173 heartbeat IPC: 0.96386 cumulative IPC: 1.00575 (Simulation time: 0 hr 17 min 12 sec) 
Heartbeat CPU 0 instructions: 293000000 cycles: 290821763 heartbeat IPC: 0.950037 cumulative IPC: 1.00555 (Simulation time: 0 hr 17 min 15 sec) 
Heartbeat CPU 0 instructions: 294000003 cycles: 291873269 heartbeat IPC: 0.95102 cumulative IPC: 1.00536 (Simulation time: 0 hr 17 min 18 sec) 
Heartbeat CPU 0 instructions: 295000002 cycles: 292926505 heartbeat IPC: 0.949454 cumulative IPC: 1.00515 (Simulation time: 0 hr 17 min 21 sec) 
Heartbeat CPU 0 instructions: 296000001 cycles: 293951716 heartbeat IPC: 0.975408 cumulative IPC: 1.00505 (Simulation time: 0 hr 17 min 24 sec) 
Heartbeat CPU 0 instructions: 297000000 cycles: 294974080 heartbeat IPC: 0.978124 cumulative IPC: 1.00496 (Simulation time: 0 hr 17 min 27 sec) 
Heartbeat CPU 0 instructions: 298000000 cycles: 296018164 heartbeat IPC: 0.957777 cumulative IPC: 1.00479 (Simulation time: 0 hr 17 min 30 sec) 
Heartbeat CPU 0 instructions: 299000002 cycles: 297062062 heartbeat IPC: 0.95795 cumulative IPC: 1.00463 (Simulation time: 0 hr 17 min 33 sec) 
Heartbeat CPU 0 instructions: 300000001 cycles: 298056583 heartbeat IPC: 1.00551 cumulative IPC: 1.00463 (Simulation time: 0 hr 17 min 36 sec) 
Heartbeat CPU 0 instructions: 301000001 cycles: 299099583 heartbeat IPC: 0.958773 cumulative IPC: 1.00447 (Simulation time: 0 hr 17 min 39 sec) 
Heartbeat CPU 0 instructions: 302000001 cycles: 300086806 heartbeat IPC: 1.01294 cumulative IPC: 1.0045 (Simulation time: 0 hr 17 min 42 sec) 
Heartbeat CPU 0 instructions: 303000000 cycles: 301102464 heartbeat IPC: 0.984582 cumulative IPC: 1.00443 (Simulation time: 0 hr 17 min 45 sec) 
Heartbeat CPU 0 instructions: 304000001 cycles: 302105933 heartbeat IPC: 0.996544 cumulative IPC: 1.0044 (Simulation time: 0 hr 17 min 48 sec) 
Heartbeat CPU 0 instructions: 305000003 cycles: 303123854 heartbeat IPC: 0.982396 cumulative IPC: 1.00433 (Simulation time: 0 hr 17 min 51 sec) 
Heartbeat CPU 0 instructions: 306000002 cycles: 304245912 heartbeat IPC: 0.891219 cumulative IPC: 1.00391 (Simulation time: 0 hr 17 min 54 sec) 
Heartbeat CPU 0 instructions: 307000000 cycles: 305374050 heartbeat IPC: 0.886415 cumulative IPC: 1.00348 (Simulation time: 0 hr 17 min 57 sec) 
Heartbeat CPU 0 instructions: 308000000 cycles: 306516860 heartbeat IPC: 0.875036 cumulative IPC: 1.003 (Simulation time: 0 hr 18 min 0 sec) 
Heartbeat CPU 0 instructions: 309000002 cycles: 307658448 heartbeat IPC: 0.875975 cumulative IPC: 1.00252 (Simulation time: 0 hr 18 min 3 sec) 
Heartbeat CPU 0 instructions: 310000001 cycles: 308809196 heartbeat IPC: 0.868999 cumulative IPC: 1.00203 (Simulation time: 0 hr 18 min 6 sec) 
Heartbeat CPU 0 instructions: 311000001 cycles: 309892602 heartbeat IPC: 0.923015 cumulative IPC: 1.00175 (Simulation time: 0 hr 18 min 9 sec) 
Heartbeat CPU 0 instructions: 312000000 cycles: 310945866 heartbeat IPC: 0.949429 cumulative IPC: 1.00157 (Simulation time: 0 hr 18 min 12 sec) 
Heartbeat CPU 0 instructions: 313000000 cycles: 311945377 heartbeat IPC: 1.00049 cumulative IPC: 1.00157 (Simulation time: 0 hr 18 min 15 sec) 
Heartbeat CPU 0 instructions: 314000002 cycles: 312924834 heartbeat IPC: 1.02098 cumulative IPC: 1.00163 (Simulation time: 0 hr 18 min 18 sec) 
Heartbeat CPU 0 instructions: 315000001 cycles: 313919031 heartbeat IPC: 1.00584 cumulative IPC: 1.00164 (Simulation time: 0 hr 18 min 21 sec) 
Heartbeat CPU 0 instructions: 316000000 cycles: 314899396 heartbeat IPC: 1.02003 cumulative IPC: 1.0017 (Simulation time: 0 hr 18 min 24 sec) 
Heartbeat CPU 0 instructions: 317000000 cycles: 315854017 heartbeat IPC: 1.04754 cumulative IPC: 1.00184 (Simulation time: 0 hr 18 min 27 sec) 
Heartbeat CPU 0 instructions: 318000001 cycles: 316819285 heartbeat IPC: 1.03598 cumulative IPC: 1.00194 (Simulation time: 0 hr 18 min 30 sec) 
Heartbeat CPU 0 instructions: 319000000 cycles: 317816467 heartbeat IPC: 1.00282 cumulative IPC: 1.00195 (Simulation time: 0 hr 18 min 33 sec) 
Heartbeat CPU 0 instructions: 320000001 cycles: 318803889 heartbeat IPC: 1.01274 cumulative IPC: 1.00198 (Simulation time: 0 hr 18 min 36 sec) 
Heartbeat CPU 0 instructions: 321000000 cycles: 319769039 heartbeat IPC: 1.03611 cumulative IPC: 1.00208 (Simulation time: 0 hr 18 min 39 sec) 
Heartbeat CPU 0 instructions: 322000003 cycles: 320752250 heartbeat IPC: 1.01708 cumulative IPC: 1.00213 (Simulation time: 0 hr 18 min 42 sec) 
Heartbeat CPU 0 instructions: 323000001 cycles: 321736034 heartbeat IPC: 1.01648 cumulative IPC: 1.00217 (Simulation time: 0 hr 18 min 45 sec) 
Heartbeat CPU 0 instructions: 324000002 cycles: 322715252 heartbeat IPC: 1.02122 cumulative IPC: 1.00223 (Simulation time: 0 hr 18 min 48 sec) 
Heartbeat CPU 0 instructions: 325000003 cycles: 323705842 heartbeat IPC: 1.0095 cumulative IPC: 1.00225 (Simulation time: 0 hr 18 min 51 sec) 
Heartbeat CPU 0 instructions: 326000001 cycles: 324734569 heartbeat IPC: 0.972073 cumulative IPC: 1.00216 (Simulation time: 0 hr 18 min 54 sec) 
Heartbeat CPU 0 instructions: 327000001 cycles: 325728079 heartbeat IPC: 1.00653 cumulative IPC: 1.00217 (Simulation time: 0 hr 18 min 57 sec) 
Heartbeat CPU 0 instructions: 328000001 cycles: 326728870 heartbeat IPC: 0.99921 cumulative IPC: 1.00216 (Simulation time: 0 hr 19 min 0 sec) 
Heartbeat CPU 0 instructions: 329000003 cycles: 327739959 heartbeat IPC: 0.989035 cumulative IPC: 1.00212 (Simulation time: 0 hr 19 min 3 sec) 
Heartbeat CPU 0 instructions: 330000000 cycles: 328726055 heartbeat IPC: 1.0141 cumulative IPC: 1.00216 (Simulation time: 0 hr 19 min 6 sec) 
Heartbeat CPU 0 instructions: 331000001 cycles: 329793403 heartbeat IPC: 0.936902 cumulative IPC: 1.00195 (Simulation time: 0 hr 19 min 9 sec) 
Heartbeat CPU 0 instructions: 332000001 cycles: 330829927 heartbeat IPC: 0.964763 cumulative IPC: 1.00183 (Simulation time: 0 hr 19 min 12 sec) 
Heartbeat CPU 0 instructions: 333000000 cycles: 331828765 heartbeat IPC: 1.00116 cumulative IPC: 1.00183 (Simulation time: 0 hr 19 min 15 sec) 
Heartbeat CPU 0 instructions: 334000000 cycles: 332835148 heartbeat IPC: 0.993657 cumulative IPC: 1.0018 (Simulation time: 0 hr 19 min 18 sec) 
Heartbeat CPU 0 instructions: 335000002 cycles: 333847082 heartbeat IPC: 0.988209 cumulative IPC: 1.00176 (Simulation time: 0 hr 19 min 21 sec) 
Heartbeat CPU 0 instructions: 336000003 cycles: 334823410 heartbeat IPC: 1.02425 cumulative IPC: 1.00183 (Simulation time: 0 hr 19 min 24 sec) 
Heartbeat CPU 0 instructions: 337000000 cycles: 335796021 heartbeat IPC: 1.02816 cumulative IPC: 1.0019 (Simulation time: 0 hr 19 min 27 sec) 
Heartbeat CPU 0 instructions: 338000001 cycles: 336792488 heartbeat IPC: 1.00355 cumulative IPC: 1.00191 (Simulation time: 0 hr 19 min 30 sec) 
Heartbeat CPU 0 instructions: 339000001 cycles: 337766790 heartbeat IPC: 1.02638 cumulative IPC: 1.00198 (Simulation time: 0 hr 19 min 33 sec) 
Heartbeat CPU 0 instructions: 340000000 cycles: 338712629 heartbeat IPC: 1.05726 cumulative IPC: 1.00213 (Simulation time: 0 hr 19 min 36 sec) 
Heartbeat CPU 0 instructions: 341000000 cycles: 339682811 heartbeat IPC: 1.03073 cumulative IPC: 1.00221 (Simulation time: 0 hr 19 min 39 sec) 
Heartbeat CPU 0 instructions: 342000001 cycles: 340617075 heartbeat IPC: 1.07036 cumulative IPC: 1.0024 (Simulation time: 0 hr 19 min 42 sec) 
Heartbeat CPU 0 instructions: 343000001 cycles: 341610647 heartbeat IPC: 1.00647 cumulative IPC: 1.00241 (Simulation time: 0 hr 19 min 45 sec) 
Heartbeat CPU 0 instructions: 344000001 cycles: 342575176 heartbeat IPC: 1.03678 cumulative IPC: 1.00251 (Simulation time: 0 hr 19 min 48 sec) 
Heartbeat CPU 0 instructions: 345000001 cycles: 343615665 heartbeat IPC: 0.961087 cumulative IPC: 1.00238 (Simulation time: 0 hr 19 min 51 sec) 
Heartbeat CPU 0 instructions: 346000003 cycles: 344603816 heartbeat IPC: 1.01199 cumulative IPC: 1.00241 (Simulation time: 0 hr 19 min 55 sec) 
Heartbeat CPU 0 instructions: 347000001 cycles: 345575983 heartbeat IPC: 1.02863 cumulative IPC: 1.00249 (Simulation time: 0 hr 19 min 58 sec) 
Heartbeat CPU 0 instructions: 348000002 cycles: 346578034 heartbeat IPC: 0.997954 cumulative IPC: 1.00247 (Simulation time: 0 hr 20 min 1 sec) 
Heartbeat CPU 0 instructions: 349000003 cycles: 347544820 heartbeat IPC: 1.03436 cumulative IPC: 1.00256 (Simulation time: 0 hr 20 min 4 sec) 
Heartbeat CPU 0 instructions: 350000003 cycles: 348504292 heartbeat IPC: 1.04224 cumulative IPC: 1.00267 (Simulation time: 0 hr 20 min 7 sec) 
Heartbeat CPU 0 instructions: 351000000 cycles: 349481643 heartbeat IPC: 1.02317 cumulative IPC: 1.00273 (Simulation time: 0 hr 20 min 10 sec) 
Heartbeat CPU 0 instructions: 352000000 cycles: 350445719 heartbeat IPC: 1.03726 cumulative IPC: 1.00282 (Simulation time: 0 hr 20 min 15 sec) 
Heartbeat CPU 0 instructions: 353000000 cycles: 351401533 heartbeat IPC: 1.04623 cumulative IPC: 1.00294 (Simulation time: 0 hr 20 min 20 sec) 
Heartbeat CPU 0 instructions: 354000001 cycles: 352318488 heartbeat IPC: 1.09057 cumulative IPC: 1.00317 (Simulation time: 0 hr 20 min 25 sec) 
Heartbeat CPU 0 instructions: 355000000 cycles: 353304648 heartbeat IPC: 1.01403 cumulative IPC: 1.0032 (Simulation time: 0 hr 20 min 30 sec) 
Heartbeat CPU 0 instructions: 356000002 cycles: 354248465 heartbeat IPC: 1.05953 cumulative IPC: 1.00335 (Simulation time: 0 hr 20 min 35 sec) 
Heartbeat CPU 0 instructions: 357000003 cycles: 355226838 heartbeat IPC: 1.02211 cumulative IPC: 1.0034 (Simulation time: 0 hr 20 min 41 sec) 
Heartbeat CPU 0 instructions: 358000002 cycles: 356159652 heartbeat IPC: 1.07202 cumulative IPC: 1.00358 (Simulation time: 0 hr 20 min 46 sec) 
Heartbeat CPU 0 instructions: 359000001 cycles: 357148873 heartbeat IPC: 1.0109 cumulative IPC: 1.0036 (Simulation time: 0 hr 20 min 51 sec) 
Heartbeat CPU 0 instructions: 360000000 cycles: 358141520 heartbeat IPC: 1.00741 cumulative IPC: 1.00361 (Simulation time: 0 hr 20 min 56 sec) 
Heartbeat CPU 0 instructions: 361000001 cycles: 359107146 heartbeat IPC: 1.0356 cumulative IPC: 1.0037 (Simulation time: 0 hr 21 min 1 sec) 
Heartbeat CPU 0 instructions: 362000000 cycles: 360086786 heartbeat IPC: 1.02078 cumulative IPC: 1.00375 (Simulation time: 0 hr 21 min 6 sec) 
Heartbeat CPU 0 instructions: 363000000 cycles: 361034550 heartbeat IPC: 1.05511 cumulative IPC: 1.00388 (Simulation time: 0 hr 21 min 11 sec) 
Heartbeat CPU 0 instructions: 364000003 cycles: 361999244 heartbeat IPC: 1.0366 cumulative IPC: 1.00397 (Simulation time: 0 hr 21 min 16 sec) 
Heartbeat CPU 0 instructions: 365000000 cycles: 362979410 heartbeat IPC: 1.02023 cumulative IPC: 1.00401 (Simulation time: 0 hr 21 min 21 sec) 
Heartbeat CPU 0 instructions: 366000000 cycles: 363960890 heartbeat IPC: 1.01887 cumulative IPC: 1.00405 (Simulation time: 0 hr 21 min 26 sec) 
Heartbeat CPU 0 instructions: 367000000 cycles: 364970137 heartbeat IPC: 0.990838 cumulative IPC: 1.00402 (Simulation time: 0 hr 21 min 31 sec) 
Heartbeat CPU 0 instructions: 368000001 cycles: 365960272 heartbeat IPC: 1.00996 cumulative IPC: 1.00403 (Simulation time: 0 hr 21 min 36 sec) 
Heartbeat CPU 0 instructions: 369000002 cycles: 366991535 heartbeat IPC: 0.969686 cumulative IPC: 1.00394 (Simulation time: 0 hr 21 min 41 sec) 
Heartbeat CPU 0 instructions: 370000001 cycles: 367992254 heartbeat IPC: 0.999281 cumulative IPC: 1.00392 (Simulation time: 0 hr 21 min 44 sec) 
Heartbeat CPU 0 instructions: 371000000 cycles: 368994931 heartbeat IPC: 0.997329 cumulative IPC: 1.0039 (Simulation time: 0 hr 21 min 47 sec) 
Heartbeat CPU 0 instructions: 372000001 cycles: 369974153 heartbeat IPC: 1.02122 cumulative IPC: 1.00395 (Simulation time: 0 hr 21 min 50 sec) 
Heartbeat CPU 0 instructions: 373000001 cycles: 370980731 heartbeat IPC: 0.993465 cumulative IPC: 1.00392 (Simulation time: 0 hr 21 min 53 sec) 
Heartbeat CPU 0 instructions: 374000000 cycles: 371972505 heartbeat IPC: 1.00829 cumulative IPC: 1.00393 (Simulation time: 0 hr 21 min 56 sec) 
Heartbeat CPU 0 instructions: 375000001 cycles: 372914638 heartbeat IPC: 1.06142 cumulative IPC: 1.00408 (Simulation time: 0 hr 21 min 59 sec) 
Heartbeat CPU 0 instructions: 376000001 cycles: 373902995 heartbeat IPC: 1.01178 cumulative IPC: 1.0041 (Simulation time: 0 hr 22 min 2 sec) 
Heartbeat CPU 0 instructions: 377000000 cycles: 374864841 heartbeat IPC: 1.03967 cumulative IPC: 1.00419 (Simulation time: 0 hr 22 min 5 sec) 
Heartbeat CPU 0 instructions: 378000000 cycles: 375857098 heartbeat IPC: 1.0078 cumulative IPC: 1.0042 (Simulation time: 0 hr 22 min 8 sec) 
Heartbeat CPU 0 instructions: 379000001 cycles: 376835255 heartbeat IPC: 1.02233 cumulative IPC: 1.00425 (Simulation time: 0 hr 22 min 11 sec) 
Heartbeat CPU 0 instructions: 380000003 cycles: 377816857 heartbeat IPC: 1.01874 cumulative IPC: 1.00429 (Simulation time: 0 hr 22 min 14 sec) 
Heartbeat CPU 0 instructions: 381000000 cycles: 378779865 heartbeat IPC: 1.03841 cumulative IPC: 1.00437 (Simulation time: 0 hr 22 min 17 sec) 
Heartbeat CPU 0 instructions: 382000002 cycles: 379729564 heartbeat IPC: 1.05297 cumulative IPC: 1.00449 (Simulation time: 0 hr 22 min 20 sec) 
Heartbeat CPU 0 instructions: 383000002 cycles: 380724783 heartbeat IPC: 1.0048 cumulative IPC: 1.00449 (Simulation time: 0 hr 22 min 23 sec) 
Heartbeat CPU 0 instructions: 384000000 cycles: 381680716 heartbeat IPC: 1.0461 cumulative IPC: 1.0046 (Simulation time: 0 hr 22 min 26 sec) 
Heartbeat CPU 0 instructions: 385000000 cycles: 382656129 heartbeat IPC: 1.02521 cumulative IPC: 1.00465 (Simulation time: 0 hr 22 min 29 sec) 
Heartbeat CPU 0 instructions: 386000001 cycles: 383590303 heartbeat IPC: 1.07047 cumulative IPC: 1.00481 (Simulation time: 0 hr 22 min 32 sec) 
Heartbeat CPU 0 instructions: 387000001 cycles: 384587999 heartbeat IPC: 1.00231 cumulative IPC: 1.00481 (Simulation time: 0 hr 22 min 35 sec) 
Heartbeat CPU 0 instructions: 388000002 cycles: 385596676 heartbeat IPC: 0.991399 cumulative IPC: 1.00477 (Simulation time: 0 hr 22 min 38 sec) 
Heartbeat CPU 0 instructions: 389000000 cycles: 386634142 heartbeat IPC: 0.963885 cumulative IPC: 1.00466 (Simulation time: 0 hr 22 min 41 sec) 
Heartbeat CPU 0 instructions: 390000001 cycles: 387678522 heartbeat IPC: 0.957507 cumulative IPC: 1.00453 (Simulation time: 0 hr 22 min 44 sec) 
Heartbeat CPU 0 instructions: 391000000 cycles: 388763406 heartbeat IPC: 0.921757 cumulative IPC: 1.0043 (Simulation time: 0 hr 22 min 47 sec) 
Heartbeat CPU 0 instructions: 392000003 cycles: 389811893 heartbeat IPC: 0.953758 cumulative IPC: 1.00417 (Simulation time: 0 hr 22 min 50 sec) 
Heartbeat CPU 0 instructions: 393000002 cycles: 390829196 heartbeat IPC: 0.98299 cumulative IPC: 1.00411 (Simulation time: 0 hr 22 min 53 sec) 
Heartbeat CPU 0 instructions: 394000001 cycles: 391898801 heartbeat IPC: 0.934924 cumulative IPC: 1.00392 (Simulation time: 0 hr 22 min 56 sec) 
Heartbeat CPU 0 instructions: 395000001 cycles: 392963719 heartbeat IPC: 0.939039 cumulative IPC: 1.00375 (Simulation time: 0 hr 22 min 59 sec) 
Heartbeat CPU 0 instructions: 396000000 cycles: 394032490 heartbeat IPC: 0.935653 cumulative IPC: 1.00356 (Simulation time: 0 hr 23 min 2 sec) 
Heartbeat CPU 0 instructions: 397000003 cycles: 395087578 heartbeat IPC: 0.947791 cumulative IPC: 1.00341 (Simulation time: 0 hr 23 min 5 sec) 
Heartbeat CPU 0 instructions: 398000000 cycles: 396113701 heartbeat IPC: 0.974539 cumulative IPC: 1.00334 (Simulation time: 0 hr 23 min 8 sec) 
Heartbeat CPU 0 instructions: 399000000 cycles: 397146283 heartbeat IPC: 0.968446 cumulative IPC: 1.00325 (Simulation time: 0 hr 23 min 11 sec) 
Heartbeat CPU 0 instructions: 400000002 cycles: 398164006 heartbeat IPC: 0.982588 cumulative IPC: 1.00319 (Simulation time: 0 hr 23 min 14 sec) 
Heartbeat CPU 0 instructions: 401000000 cycles: 399213032 heartbeat IPC: 0.953263 cumulative IPC: 1.00306 (Simulation time: 0 hr 23 min 17 sec) 
Heartbeat CPU 0 instructions: 402000003 cycles: 400272596 heartbeat IPC: 0.943787 cumulative IPC: 1.0029 (Simulation time: 0 hr 23 min 20 sec) 
Heartbeat CPU 0 instructions: 403000002 cycles: 401322014 heartbeat IPC: 0.952908 cumulative IPC: 1.00277 (Simulation time: 0 hr 23 min 22 sec) 
Heartbeat CPU 0 instructions: 404000001 cycles: 402381496 heartbeat IPC: 0.943857 cumulative IPC: 1.00262 (Simulation time: 0 hr 23 min 25 sec) 
Heartbeat CPU 0 instructions: 405000003 cycles: 403446212 heartbeat IPC: 0.939219 cumulative IPC: 1.00245 (Simulation time: 0 hr 23 min 28 sec) 
Heartbeat CPU 0 instructions: 406000000 cycles: 404534423 heartbeat IPC: 0.918937 cumulative IPC: 1.00223 (Simulation time: 0 hr 23 min 31 sec) 
Heartbeat CPU 0 instructions: 407000000 cycles: 405728481 heartbeat IPC: 0.83748 cumulative IPC: 1.00174 (Simulation time: 0 hr 23 min 34 sec) 
Heartbeat CPU 0 instructions: 408000003 cycles: 406915211 heartbeat IPC: 0.842654 cumulative IPC: 1.00128 (Simulation time: 0 hr 23 min 37 sec) 
Heartbeat CPU 0 instructions: 409000002 cycles: 408073851 heartbeat IPC: 0.86308 cumulative IPC: 1.00088 (Simulation time: 0 hr 23 min 40 sec) 
Heartbeat CPU 0 instructions: 410000001 cycles: 409222144 heartbeat IPC: 0.870857 cumulative IPC: 1.00052 (Simulation time: 0 hr 23 min 43 sec) 
Heartbeat CPU 0 instructions: 411000003 cycles: 410336642 heartbeat IPC: 0.897267 cumulative IPC: 1.00024 (Simulation time: 0 hr 23 min 46 sec) 
Heartbeat CPU 0 instructions: 412000000 cycles: 411427567 heartbeat IPC: 0.916651 cumulative IPC: 1.00002 (Simulation time: 0 hr 23 min 49 sec) 
Heartbeat CPU 0 instructions: 413000000 cycles: 412495092 heartbeat IPC: 0.936746 cumulative IPC: 0.999852 (Simulation time: 0 hr 23 min 52 sec) 
Heartbeat CPU 0 instructions: 414000001 cycles: 413532432 heartbeat IPC: 0.964005 cumulative IPC: 0.999762 (Simulation time: 0 hr 23 min 56 sec) 
Heartbeat CPU 0 instructions: 415000000 cycles: 414610625 heartbeat IPC: 0.927477 cumulative IPC: 0.999574 (Simulation time: 0 hr 24 min 1 sec) 
Heartbeat CPU 0 instructions: 416000003 cycles: 415673583 heartbeat IPC: 0.940774 cumulative IPC: 0.999423 (Simulation time: 0 hr 24 min 5 sec) 
Heartbeat CPU 0 instructions: 417000000 cycles: 416834731 heartbeat IPC: 0.861214 cumulative IPC: 0.999038 (Simulation time: 0 hr 24 min 10 sec) 
Heartbeat CPU 0 instructions: 418000000 cycles: 417999687 heartbeat IPC: 0.858402 cumulative IPC: 0.998645 (Simulation time: 0 hr 24 min 15 sec) 
Heartbeat CPU 0 instructions: 419000001 cycles: 419201362 heartbeat IPC: 0.832173 cumulative IPC: 0.998168 (Simulation time: 0 hr 24 min 19 sec) 
Heartbeat CPU 0 instructions: 420000000 cycles: 420372016 heartbeat IPC: 0.854223 cumulative IPC: 0.997766 (Simulation time: 0 hr 24 min 24 sec) 
Heartbeat CPU 0 instructions: 421000001 cycles: 421547435 heartbeat IPC: 0.850761 cumulative IPC: 0.997356 (Simulation time: 0 hr 24 min 28 sec) 
Heartbeat CPU 0 instructions: 422000002 cycles: 422753440 heartbeat IPC: 0.829185 cumulative IPC: 0.996876 (Simulation time: 0 hr 24 min 33 sec) 
Heartbeat CPU 0 instructions: 423000000 cycles: 423900623 heartbeat IPC: 0.871699 cumulative IPC: 0.996537 (Simulation time: 0 hr 24 min 37 sec) 
Heartbeat CPU 0 instructions: 424000000 cycles: 425066805 heartbeat IPC: 0.857499 cumulative IPC: 0.996155 (Simulation time: 0 hr 24 min 42 sec) 
Heartbeat CPU 0 instructions: 425000003 cycles: 426341628 heartbeat IPC: 0.784425 cumulative IPC: 0.995521 (Simulation time: 0 hr 24 min 45 sec) 
Heartbeat CPU 0 instructions: 426000001 cycles: 427650845 heartbeat IPC: 0.763814 cumulative IPC: 0.994811 (Simulation time: 0 hr 24 min 48 sec) 
Heartbeat CPU 0 instructions: 427000001 cycles: 428930283 heartbeat IPC: 0.781593 cumulative IPC: 0.994174 (Simulation time: 0 hr 24 min 50 sec) 
Heartbeat CPU 0 instructions: 428000002 cycles: 430147604 heartbeat IPC: 0.821477 cumulative IPC: 0.993685 (Simulation time: 0 hr 24 min 53 sec) 
Heartbeat CPU 0 instructions: 429000000 cycles: 431342674 heartbeat IPC: 0.836769 cumulative IPC: 0.99325 (Simulation time: 0 hr 24 min 56 sec) 
Heartbeat CPU 0 instructions: 430000001 cycles: 432520374 heartbeat IPC: 0.849114 cumulative IPC: 0.992857 (Simulation time: 0 hr 24 min 59 sec) 
Heartbeat CPU 0 instructions: 431000000 cycles: 433701150 heartbeat IPC: 0.8469 cumulative IPC: 0.992459 (Simulation time: 0 hr 25 min 1 sec) 
Heartbeat CPU 0 instructions: 432000001 cycles: 434927499 heartbeat IPC: 0.815429 cumulative IPC: 0.99196 (Simulation time: 0 hr 25 min 4 sec) 
Heartbeat CPU 0 instructions: 433000000 cycles: 436112315 heartbeat IPC: 0.844012 cumulative IPC: 0.991557 (Simulation time: 0 hr 25 min 7 sec) 
Heartbeat CPU 0 instructions: 434000003 cycles: 437270150 heartbeat IPC: 0.863684 cumulative IPC: 0.991218 (Simulation time: 0 hr 25 min 10 sec) 
Heartbeat CPU 0 instructions: 435000001 cycles: 438432798 heartbeat IPC: 0.860104 cumulative IPC: 0.99087 (Simulation time: 0 hr 25 min 13 sec) 
Heartbeat CPU 0 instructions: 436000000 cycles: 439552375 heartbeat IPC: 0.893194 cumulative IPC: 0.990621 (Simulation time: 0 hr 25 min 15 sec) 
Heartbeat CPU 0 instructions: 437000003 cycles: 440712539 heartbeat IPC: 0.86195 cumulative IPC: 0.990282 (Simulation time: 0 hr 25 min 18 sec) 
Heartbeat CPU 0 instructions: 438000001 cycles: 441881084 heartbeat IPC: 0.855763 cumulative IPC: 0.989926 (Simulation time: 0 hr 25 min 21 sec) 
Heartbeat CPU 0 instructions: 439000002 cycles: 443036587 heartbeat IPC: 0.865425 cumulative IPC: 0.989601 (Simulation time: 0 hr 25 min 24 sec) 
Heartbeat CPU 0 instructions: 440000000 cycles: 444273719 heartbeat IPC: 0.80832 cumulative IPC: 0.989096 (Simulation time: 0 hr 25 min 27 sec) 
Heartbeat CPU 0 instructions: 441000003 cycles: 445538003 heartbeat IPC: 0.790964 cumulative IPC: 0.988533 (Simulation time: 0 hr 25 min 30 sec) 
Heartbeat CPU 0 instructions: 442000003 cycles: 446861630 heartbeat IPC: 0.7555 cumulative IPC: 0.987842 (Simulation time: 0 hr 25 min 32 sec) 
Heartbeat CPU 0 instructions: 443000003 cycles: 448207738 heartbeat IPC: 0.742882 cumulative IPC: 0.987106 (Simulation time: 0 hr 25 min 35 sec) 
Heartbeat CPU 0 instructions: 444000002 cycles: 449541209 heartbeat IPC: 0.749922 cumulative IPC: 0.986401 (Simulation time: 0 hr 25 min 38 sec) 
Heartbeat CPU 0 instructions: 445000000 cycles: 450811913 heartbeat IPC: 0.786964 cumulative IPC: 0.985839 (Simulation time: 0 hr 25 min 40 sec) 
Heartbeat CPU 0 instructions: 446000000 cycles: 452047511 heartbeat IPC: 0.809325 cumulative IPC: 0.985356 (Simulation time: 0 hr 25 min 43 sec) 
Heartbeat CPU 0 instructions: 447000000 cycles: 453260117 heartbeat IPC: 0.82467 cumulative IPC: 0.984926 (Simulation time: 0 hr 25 min 46 sec) 
Heartbeat CPU 0 instructions: 448000003 cycles: 454449265 heartbeat IPC: 0.840941 cumulative IPC: 0.984548 (Simulation time: 0 hr 25 min 49 sec) 
Heartbeat CPU 0 instructions: 449000000 cycles: 455626339 heartbeat IPC: 0.849562 cumulative IPC: 0.984199 (Simulation time: 0 hr 25 min 52 sec) 
Heartbeat CPU 0 instructions: 450000001 cycles: 456797943 heartbeat IPC: 0.853532 cumulative IPC: 0.983864 (Simulation time: 0 hr 25 min 55 sec) 

Warmup complete CPU 0 instructions: 450000001 cycles: 456797943 (Simulation time: 0 hr 25 min 55 sec) 

Heartbeat CPU 0 instructions: 451000000 cycles: 457838601 heartbeat IPC: 0.96093 cumulative IPC: 0.96093 (Simulation time: 0 hr 25 min 58 sec) 
Heartbeat CPU 0 instructions: 452000002 cycles: 458861827 heartbeat IPC: 0.977303 cumulative IPC: 0.969047 (Simulation time: 0 hr 26 min 1 sec) 
Heartbeat CPU 0 instructions: 453000002 cycles: 459948967 heartbeat IPC: 0.919845 cumulative IPC: 0.952072 (Simulation time: 0 hr 26 min 4 sec) 
Heartbeat CPU 0 instructions: 454000000 cycles: 460950141 heartbeat IPC: 0.998825 cumulative IPC: 0.963345 (Simulation time: 0 hr 26 min 7 sec) 
Heartbeat CPU 0 instructions: 455000000 cycles: 461951156 heartbeat IPC: 0.998986 cumulative IPC: 0.970268 (Simulation time: 0 hr 26 min 10 sec) 
Heartbeat CPU 0 instructions: 456000000 cycles: 462969850 heartbeat IPC: 0.981649 cumulative IPC: 0.972147 (Simulation time: 0 hr 26 min 13 sec) 
Heartbeat CPU 0 instructions: 457000001 cycles: 463990672 heartbeat IPC: 0.979604 cumulative IPC: 0.973205 (Simulation time: 0 hr 26 min 16 sec) 
Heartbeat CPU 0 instructions: 458000000 cycles: 465004336 heartbeat IPC: 0.986519 cumulative IPC: 0.97485 (Simulation time: 0 hr 26 min 21 sec) 
Heartbeat CPU 0 instructions: 459000002 cycles: 465976304 heartbeat IPC: 1.02884 cumulative IPC: 0.980567 (Simulation time: 0 hr 26 min 25 sec) 
Heartbeat CPU 0 instructions: 460000000 cycles: 466938769 heartbeat IPC: 1.039 cumulative IPC: 0.986113 (Simulation time: 0 hr 26 min 30 sec) 
Heartbeat CPU 0 instructions: 461000003 cycles: 467905682 heartbeat IPC: 1.03422 cumulative IPC: 0.990301 (Simulation time: 0 hr 26 min 34 sec) 
Heartbeat CPU 0 instructions: 462000000 cycles: 468855157 heartbeat IPC: 1.05321 cumulative IPC: 0.995255 (Simulation time: 0 hr 26 min 39 sec) 
Heartbeat CPU 0 instructions: 463000001 cycles: 469819749 heartbeat IPC: 1.03671 cumulative IPC: 0.998325 (Simulation time: 0 hr 26 min 44 sec) 
Heartbeat CPU 0 instructions: 464000003 cycles: 470793348 heartbeat IPC: 1.02712 cumulative IPC: 1.00033 (Simulation time: 0 hr 26 min 48 sec) 
Heartbeat CPU 0 instructions: 465000001 cycles: 471743170 heartbeat IPC: 1.05283 cumulative IPC: 1.00366 (Simulation time: 0 hr 26 min 53 sec) 
Heartbeat CPU 0 instructions: 466000002 cycles: 472685245 heartbeat IPC: 1.06149 cumulative IPC: 1.00709 (Simulation time: 0 hr 26 min 58 sec) 
Heartbeat CPU 0 instructions: 467000001 cycles: 473666463 heartbeat IPC: 1.01914 cumulative IPC: 1.00779 (Simulation time: 0 hr 27 min 2 sec) 
Heartbeat CPU 0 instructions: 468000000 cycles: 474621344 heartbeat IPC: 1.04725 cumulative IPC: 1.00991 (Simulation time: 0 hr 27 min 7 sec) 
Heartbeat CPU 0 instructions: 469000003 cycles: 475605234 heartbeat IPC: 1.01638 cumulative IPC: 1.01025 (Simulation time: 0 hr 27 min 12 sec) 
Heartbeat CPU 0 instructions: 470000001 cycles: 476555779 heartbeat IPC: 1.05203 cumulative IPC: 1.01226 (Simulation time: 0 hr 27 min 17 sec) 
Heartbeat CPU 0 instructions: 471000002 cycles: 477530921 heartbeat IPC: 1.02549 cumulative IPC: 1.01288 (Simulation time: 0 hr 27 min 21 sec) 
Heartbeat CPU 0 instructions: 472000002 cycles: 478494871 heartbeat IPC: 1.0374 cumulative IPC: 1.01397 (Simulation time: 0 hr 27 min 26 sec) 
Heartbeat CPU 0 instructions: 473000000 cycles: 479464975 heartbeat IPC: 1.03082 cumulative IPC: 1.01469 (Simulation time: 0 hr 27 min 31 sec) 
Heartbeat CPU 0 instructions: 474000003 cycles: 480436518 heartbeat IPC: 1.02929 cumulative IPC: 1.01529 (Simulation time: 0 hr 27 min 36 sec) 
Heartbeat CPU 0 instructions: 475000002 cycles: 481437083 heartbeat IPC: 0.999434 cumulative IPC: 1.01465 (Simulation time: 0 hr 27 min 40 sec) 
Heartbeat CPU 0 instructions: 476000000 cycles: 482485581 heartbeat IPC: 0.953743 cumulative IPC: 1.01216 (Simulation time: 0 hr 27 min 45 sec) 
Heartbeat CPU 0 instructions: 477000003 cycles: 483516313 heartbeat IPC: 0.970187 cumulative IPC: 1.01054 (Simulation time: 0 hr 27 min 49 sec) 
Heartbeat CPU 0 instructions: 478000003 cycles: 484583473 heartbeat IPC: 0.937067 cumulative IPC: 1.00772 (Simulation time: 0 hr 27 min 53 sec) 
Heartbeat CPU 0 instructions: 479000003 cycles: 485596417 heartbeat IPC: 0.987221 cumulative IPC: 1.007 (Simulation time: 0 hr 27 min 56 sec) 
Heartbeat CPU 0 instructions: 480000003 cycles: 486630386 heartbeat IPC: 0.967147 cumulative IPC: 1.00562 (Simulation time: 0 hr 27 min 59 sec) 
Heartbeat CPU 0 instructions: 481000001 cycles: 487670798 heartbeat IPC: 0.961156 cumulative IPC: 1.00412 (Simulation time: 0 hr 28 min 2 sec) 
Heartbeat CPU 0 instructions: 482000002 cycles: 488690793 heartbeat IPC: 0.980398 cumulative IPC: 1.00336 (Simulation time: 0 hr 28 min 5 sec) 
Heartbeat CPU 0 instructions: 483000000 cycles: 489693673 heartbeat IPC: 0.997126 cumulative IPC: 1.00317 (Simulation time: 0 hr 28 min 8 sec) 
Heartbeat CPU 0 instructions: 484000000 cycles: 490705160 heartbeat IPC: 0.988643 cumulative IPC: 1.00274 (Simulation time: 0 hr 28 min 11 sec) 
Heartbeat CPU 0 instructions: 485000002 cycles: 491707817 heartbeat IPC: 0.997352 cumulative IPC: 1.00258 (Simulation time: 0 hr 28 min 14 sec) 
Heartbeat CPU 0 instructions: 486000002 cycles: 492715707 heartbeat IPC: 0.992172 cumulative IPC: 1.00229 (Simulation time: 0 hr 28 min 17 sec) 
Heartbeat CPU 0 instructions: 487000001 cycles: 493697261 heartbeat IPC: 1.01879 cumulative IPC: 1.00273 (Simulation time: 0 hr 28 min 20 sec) 
Heartbeat CPU 0 instructions: 488000000 cycles: 494653972 heartbeat IPC: 1.04525 cumulative IPC: 1.0038 (Simulation time: 0 hr 28 min 23 sec) 
Heartbeat CPU 0 instructions: 489000002 cycles: 495650041 heartbeat IPC: 1.00395 cumulative IPC: 1.00381 (Simulation time: 0 hr 28 min 26 sec) 
Heartbeat CPU 0 instructions: 490000002 cycles: 496638746 heartbeat IPC: 1.01142 cumulative IPC: 1.004 (Simulation time: 0 hr 28 min 29 sec) 
Heartbeat CPU 0 instructions: 491000000 cycles: 497635984 heartbeat IPC: 1.00277 cumulative IPC: 1.00397 (Simulation time: 0 hr 28 min 32 sec) 
Heartbeat CPU 0 instructions: 492000000 cycles: 498677912 heartbeat IPC: 0.959759 cumulative IPC: 1.00287 (Simulation time: 0 hr 28 min 35 sec) 
Heartbeat CPU 0 instructions: 493000000 cycles: 499731370 heartbeat IPC: 0.949255 cumulative IPC: 1.00155 (Simulation time: 0 hr 28 min 38 sec) 
Heartbeat CPU 0 instructions: 494000001 cycles: 500779611 heartbeat IPC: 0.95398 cumulative IPC: 1.00042 (Simulation time: 0 hr 28 min 41 sec) 
Heartbeat CPU 0 instructions: 495000000 cycles: 501864604 heartbeat IPC: 0.921664 cumulative IPC: 0.998521 (Simulation time: 0 hr 28 min 44 sec) 
Heartbeat CPU 0 instructions: 496000002 cycles: 502947696 heartbeat IPC: 0.923284 cumulative IPC: 0.996755 (Simulation time: 0 hr 28 min 47 sec) 
Heartbeat CPU 0 instructions: 497000000 cycles: 504021370 heartbeat IPC: 0.93138 cumulative IPC: 0.995269 (Simulation time: 0 hr 28 min 50 sec) 
Heartbeat CPU 0 instructions: 498000000 cycles: 505104855 heartbeat IPC: 0.922948 cumulative IPC: 0.993647 (Simulation time: 0 hr 28 min 53 sec) 
Heartbeat CPU 0 instructions: 499000000 cycles: 506196230 heartbeat IPC: 0.916275 cumulative IPC: 0.991937 (Simulation time: 0 hr 28 min 56 sec) 
Heartbeat CPU 0 instructions: 500000002 cycles: 507331190 heartbeat IPC: 0.88109 cumulative IPC: 0.989448 (Simulation time: 0 hr 28 min 59 sec) 
Heartbeat CPU 0 instructions: 501000001 cycles: 508487837 heartbeat IPC: 0.864567 cumulative IPC: 0.986653 (Simulation time: 0 hr 29 min 4 sec) 
Heartbeat CPU 0 instructions: 502000002 cycles: 509593390 heartbeat IPC: 0.904526 cumulative IPC: 0.984933 (Simulation time: 0 hr 29 min 9 sec) 
Heartbeat CPU 0 instructions: 503000001 cycles: 510699218 heartbeat IPC: 0.904299 cumulative IPC: 0.983279 (Simulation time: 0 hr 29 min 13 sec) 
Heartbeat CPU 0 instructions: 504000000 cycles: 511771697 heartbeat IPC: 0.932418 cumulative IPC: 0.982287 (Simulation time: 0 hr 29 min 16 sec) 
Heartbeat CPU 0 instructions: 505000000 cycles: 512834795 heartbeat IPC: 0.940647 cumulative IPC: 0.981497 (Simulation time: 0 hr 29 min 19 sec) 
Heartbeat CPU 0 instructions: 506000000 cycles: 513864949 heartbeat IPC: 0.970729 cumulative IPC: 0.981303 (Simulation time: 0 hr 29 min 21 sec) 
Heartbeat CPU 0 instructions: 507000001 cycles: 514893892 heartbeat IPC: 0.971872 cumulative IPC: 0.981136 (Simulation time: 0 hr 29 min 24 sec) 
Heartbeat CPU 0 instructions: 508000003 cycles: 515935860 heartbeat IPC: 0.959724 cumulative IPC: 0.980758 (Simulation time: 0 hr 29 min 27 sec) 
Heartbeat CPU 0 instructions: 509000001 cycles: 516967633 heartbeat IPC: 0.969203 cumulative IPC: 0.98056 (Simulation time: 0 hr 29 min 30 sec) 
Heartbeat CPU 0 instructions: 510000000 cycles: 518003328 heartbeat IPC: 0.965534 cumulative IPC: 0.980306 (Simulation time: 0 hr 29 min 33 sec) 
Heartbeat CPU 0 instructions: 511000000 cycles: 519044786 heartbeat IPC: 0.960192 cumulative IPC: 0.979969 (Simulation time: 0 hr 29 min 36 sec) 
Heartbeat CPU 0 instructions: 512000002 cycles: 520078330 heartbeat IPC: 0.967547 cumulative IPC: 0.979766 (Simulation time: 0 hr 29 min 39 sec) 
Heartbeat CPU 0 instructions: 513000001 cycles: 521112154 heartbeat IPC: 0.967282 cumulative IPC: 0.979566 (Simulation time: 0 hr 29 min 42 sec) 
Heartbeat CPU 0 instructions: 514000001 cycles: 522160146 heartbeat IPC: 0.954206 cumulative IPC: 0.979159 (Simulation time: 0 hr 29 min 45 sec) 
Heartbeat CPU 0 instructions: 515000002 cycles: 523227801 heartbeat IPC: 0.936633 cumulative IPC: 0.978476 (Simulation time: 0 hr 29 min 48 sec) 
Heartbeat CPU 0 instructions: 516000003 cycles: 524300774 heartbeat IPC: 0.931991 cumulative IPC: 0.977737 (Simulation time: 0 hr 29 min 50 sec) 
Heartbeat CPU 0 instructions: 517000000 cycles: 525372426 heartbeat IPC: 0.933136 cumulative IPC: 0.97704 (Simulation time: 0 hr 29 min 53 sec) 
Heartbeat CPU 0 instructions: 518000002 cycles: 526436299 heartbeat IPC: 0.939964 cumulative IPC: 0.976473 (Simulation time: 0 hr 29 min 56 sec) 
Heartbeat CPU 0 instructions: 519000001 cycles: 527466922 heartbeat IPC: 0.970286 cumulative IPC: 0.976383 (Simulation time: 0 hr 29 min 59 sec) 
Heartbeat CPU 0 instructions: 520000002 cycles: 528506620 heartbeat IPC: 0.961819 cumulative IPC: 0.976172 (Simulation time: 0 hr 30 min 2 sec) 
Heartbeat CPU 0 instructions: 521000002 cycles: 529550546 heartbeat IPC: 0.957922 cumulative IPC: 0.97591 (Simulation time: 0 hr 30 min 4 sec) 
Heartbeat CPU 0 instructions: 522000000 cycles: 530590513 heartbeat IPC: 0.961567 cumulative IPC: 0.975708 (Simulation time: 0 hr 30 min 7 sec) 
Heartbeat CPU 0 instructions: 523000000 cycles: 531607070 heartbeat IPC: 0.983713 cumulative IPC: 0.975817 (Simulation time: 0 hr 30 min 10 sec) 
Heartbeat CPU 0 instructions: 524000000 cycles: 532658528 heartbeat IPC: 0.95106 cumulative IPC: 0.975474 (Simulation time: 0 hr 30 min 13 sec) 
Heartbeat CPU 0 instructions: 525000000 cycles: 533755679 heartbeat IPC: 0.911452 cumulative IPC: 0.974561 (Simulation time: 0 hr 30 min 16 sec) 
Heartbeat CPU 0 instructions: 526000000 cycles: 534862598 heartbeat IPC: 0.903408 cumulative IPC: 0.973552 (Simulation time: 0 hr 30 min 19 sec) 
Heartbeat CPU 0 instructions: 527000003 cycles: 536003580 heartbeat IPC: 0.876441 cumulative IPC: 0.972153 (Simulation time: 0 hr 30 min 21 sec) 
Heartbeat CPU 0 instructions: 528000000 cycles: 537159292 heartbeat IPC: 0.865265 cumulative IPC: 0.970616 (Simulation time: 0 hr 30 min 24 sec) 
Heartbeat CPU 0 instructions: 529000002 cycles: 538319913 heartbeat IPC: 0.861609 cumulative IPC: 0.969064 (Simulation time: 0 hr 30 min 27 sec) 
Heartbeat CPU 0 instructions: 530000000 cycles: 539443703 heartbeat IPC: 0.889844 cumulative IPC: 0.967987 (Simulation time: 0 hr 30 min 29 sec) 
Heartbeat CPU 0 instructions: 531000000 cycles: 540606651 heartbeat IPC: 0.859884 cumulative IPC: 0.966487 (Simulation time: 0 hr 30 min 32 sec) 
Heartbeat CPU 0 instructions: 532000002 cycles: 541770133 heartbeat IPC: 0.859491 cumulative IPC: 0.965022 (Simulation time: 0 hr 30 min 35 sec) 
Heartbeat CPU 0 instructions: 533000000 cycles: 542908398 heartbeat IPC: 0.878528 cumulative IPC: 0.963878 (Simulation time: 0 hr 30 min 38 sec) 
Heartbeat CPU 0 instructions: 534000000 cycles: 544046112 heartbeat IPC: 0.878956 cumulative IPC: 0.962771 (Simulation time: 0 hr 30 min 40 sec) 
Heartbeat CPU 0 instructions: 535000002 cycles: 545219765 heartbeat IPC: 0.852042 cumulative IPC: 0.961301 (Simulation time: 0 hr 30 min 43 sec) 
Heartbeat CPU 0 instructions: 536000002 cycles: 546374057 heartbeat IPC: 0.866332 cumulative IPC: 0.960077 (Simulation time: 0 hr 30 min 46 sec) 
Heartbeat CPU 0 instructions: 537000001 cycles: 547502914 heartbeat IPC: 0.885851 cumulative IPC: 0.959154 (Simulation time: 0 hr 30 min 49 sec) 
Heartbeat CPU 0 instructions: 538000003 cycles: 548691750 heartbeat IPC: 0.841161 cumulative IPC: 0.957627 (Simulation time: 0 hr 30 min 51 sec) 
Heartbeat CPU 0 instructions: 539000000 cycles: 549828086 heartbeat IPC: 0.880019 cumulative IPC: 0.956679 (Simulation time: 0 hr 30 min 54 sec) 
Heartbeat CPU 0 instructions: 540000003 cycles: 550931246 heartbeat IPC: 0.90649 cumulative IPC: 0.956091 (Simulation time: 0 hr 30 min 57 sec) 
Heartbeat CPU 0 instructions: 541000000 cycles: 552085828 heartbeat IPC: 0.866112 cumulative IPC: 0.955001 (Simulation time: 0 hr 30 min 59 sec) 
Heartbeat CPU 0 instructions: 542000001 cycles: 553224388 heartbeat IPC: 0.878303 cumulative IPC: 0.954095 (Simulation time: 0 hr 31 min 2 sec) 
Heartbeat CPU 0 instructions: 543000000 cycles: 554366646 heartbeat IPC: 0.875458 cumulative IPC: 0.953174 (Simulation time: 0 hr 31 min 5 sec) 
Heartbeat CPU 0 instructions: 544000000 cycles: 555499710 heartbeat IPC: 0.882563 cumulative IPC: 0.952364 (Simulation time: 0 hr 31 min 8 sec) 
Heartbeat CPU 0 instructions: 545000001 cycles: 556597023 heartbeat IPC: 0.911318 cumulative IPC: 0.951913 (Simulation time: 0 hr 31 min 10 sec) 
Heartbeat CPU 0 instructions: 546000001 cycles: 557698806 heartbeat IPC: 0.90762 cumulative IPC: 0.951429 (Simulation time: 0 hr 31 min 13 sec) 
Heartbeat CPU 0 instructions: 547000001 cycles: 558787670 heartbeat IPC: 0.918388 cumulative IPC: 0.951076 (Simulation time: 0 hr 31 min 16 sec) 
Heartbeat CPU 0 instructions: 548000002 cycles: 559894919 heartbeat IPC: 0.90314 cumulative IPC: 0.950561 (Simulation time: 0 hr 31 min 19 sec) 
Heartbeat CPU 0 instructions: 549000003 cycles: 560994275 heartbeat IPC: 0.909624 cumulative IPC: 0.950129 (Simulation time: 0 hr 31 min 22 sec) 
Heartbeat CPU 0 instructions: 550000000 cycles: 562080849 heartbeat IPC: 0.920321 cumulative IPC: 0.949822 (Simulation time: 0 hr 31 min 24 sec) 
Heartbeat CPU 0 instructions: 551000002 cycles: 563187968 heartbeat IPC: 0.903247 cumulative IPC: 0.949337 (Simulation time: 0 hr 31 min 27 sec) 
Heartbeat CPU 0 instructions: 552000002 cycles: 564263019 heartbeat IPC: 0.930188 cumulative IPC: 0.949146 (Simulation time: 0 hr 31 min 30 sec) 
[...]
Heartbeat CPU 0 instructions: 833000002 cycles: 870822347 heartbeat IPC: 0.871465 cumulative IPC: 0.925066 (Simulation time: 0 hr 54 min 32 sec) 
Heartbeat CPU 0 instructions: 834000001 cycles: 871971459 heartbeat IPC: 0.870236 cumulative IPC: 0.924914 (Simulation time: 0 hr 54 min 37 sec) 
Heartbeat CPU 0 instructions: 835000000 cycles: 873123136 heartbeat IPC: 0.868298 cumulative IPC: 0.924758 (Simulation time: 0 hr 54 min 42 sec) 
Heartbeat CPU 0 instructions: 836000000 cycles: 874286316 heartbeat IPC: 0.859712 cumulative IPC: 0.924577 (Simulation time: 0 hr 54 min 47 sec) 
Heartbeat CPU 0 instructions: 837000002 cycles: 875408395 heartbeat IPC: 0.891205 cumulative IPC: 0.924487 (Simulation time: 0 hr 54 min 52 sec) 
Heartbeat CPU 0 instructions: 838000001 cycles: 876608119 heartbeat IPC: 0.833524 cumulative IPC: 0.924227 (Simulation time: 0 hr 54 min 57 sec) 
Heartbeat CPU 0 instructions: 839000003 cycles: 877793659 heartbeat IPC: 0.843499 cumulative IPC: 0.924 (Simulation time: 0 hr 55 min 2 sec) 
Heartbeat CPU 0 instructions: 840000002 cycles: 878976478 heartbeat IPC: 0.845437 cumulative IPC: 0.92378 (Simulation time: 0 hr 55 min 7 sec) 
Heartbeat CPU 0 instructions: 841000000 cycles: 880182381 heartbeat IPC: 0.829252 cumulative IPC: 0.923511 (Simulation time: 0 hr 55 min 12 sec) 
Heartbeat CPU 0 instructions: 842000000 cycles: 881329518 heartbeat IPC: 0.871735 cumulative IPC: 0.923371 (Simulation time: 0 hr 55 min 17 sec) 
Heartbeat CPU 0 instructions: 843000002 cycles: 882479517 heartbeat IPC: 0.869568 cumulative IPC: 0.923225 (Simulation time: 0 hr 55 min 22 sec) 
Heartbeat CPU 0 instructions: 844000002 cycles: 883627982 heartbeat IPC: 0.870727 cumulative IPC: 0.923084 (Simulation time: 0 hr 55 min 27 sec) 
Heartbeat CPU 0 instructions: 845000003 cycles: 884795758 heartbeat IPC: 0.856329 cumulative IPC: 0.922902 (Simulation time: 0 hr 55 min 32 sec) 
Heartbeat CPU 0 instructions: 846000002 cycles: 885910943 heartbeat IPC: 0.896711 cumulative IPC: 0.922834 (Simulation time: 0 hr 55 min 37 sec) 
Heartbeat CPU 0 instructions: 847000000 cycles: 887130544 heartbeat IPC: 0.819939 cumulative IPC: 0.922542 (Simulation time: 0 hr 55 min 42 sec) 
Heartbeat CPU 0 instructions: 848000003 cycles: 888279275 heartbeat IPC: 0.870528 cumulative IPC: 0.922404 (Simulation time: 0 hr 55 min 47 sec) 
Heartbeat CPU 0 instructions: 849000001 cycles: 889431617 heartbeat IPC: 0.867796 cumulative IPC: 0.922258 (Simulation time: 0 hr 55 min 52 sec) 
Heartbeat CPU 0 instructions: 850000001 cycles: 890577065 heartbeat IPC: 0.873021 cumulative IPC: 0.922128 (Simulation time: 0 hr 55 min 57 sec) 
Heartbeat CPU 0 instructions: 851000001 cycles: 891708324 heartbeat IPC: 0.883971 cumulative IPC: 0.922029 (Simulation time: 0 hr 56 min 2 sec) 
Heartbeat CPU 0 instructions: 852000000 cycles: 892876510 heartbeat IPC: 0.856027 cumulative IPC: 0.921852 (Simulation time: 0 hr 56 min 7 sec) 
Heartbeat CPU 0 instructions: 853000000 cycles: 894016125 heartbeat IPC: 0.877489 cumulative IPC: 0.921737 (Simulation time: 0 hr 56 min 12 sec) 
Heartbeat CPU 0 instructions: 854000003 cycles: 895132450 heartbeat IPC: 0.895799 cumulative IPC: 0.921671 (Simulation time: 0 hr 56 min 17 sec) 
Heartbeat CPU 0 instructions: 855000000 cycles: 896259481 heartbeat IPC: 0.887284 cumulative IPC: 0.921582 (Simulation time: 0 hr 56 min 22 sec) 
Heartbeat CPU 0 instructions: 856000003 cycles: 897436648 heartbeat IPC: 0.8495 cumulative IPC: 0.92139 (Simulation time: 0 hr 56 min 27 sec) 
Heartbeat CPU 0 instructions: 857000003 cycles: 898612506 heartbeat IPC: 0.850443 cumulative IPC: 0.921201 (Simulation time: 0 hr 56 min 32 sec) 
Heartbeat CPU 0 instructions: 858000000 cycles: 899754792 heartbeat IPC: 0.875435 cumulative IPC: 0.921083 (Simulation time: 0 hr 56 min 37 sec) 
Heartbeat CPU 0 instructions: 859000001 cycles: 900908608 heartbeat IPC: 0.86669 cumulative IPC: 0.920942 (Simulation time: 0 hr 56 min 42 sec) 
Heartbeat CPU 0 instructions: 860000000 cycles: 902054644 heartbeat IPC: 0.872572 cumulative IPC: 0.920817 (Simulation time: 0 hr 56 min 47 sec) 
Heartbeat CPU 0 instructions: 861000002 cycles: 903216525 heartbeat IPC: 0.860675 cumulative IPC: 0.920661 (Simulation time: 0 hr 56 min 52 sec) 
Heartbeat CPU 0 instructions: 862000001 cycles: 904364028 heartbeat IPC: 0.871457 cumulative IPC: 0.920534 (Simulation time: 0 hr 56 min 57 sec) 
Heartbeat CPU 0 instructions: 863000003 cycles: 905525780 heartbeat IPC: 0.860771 cumulative IPC: 0.92038 (Simulation time: 0 hr 57 min 2 sec) 
Heartbeat CPU 0 instructions: 864000003 cycles: 906679600 heartbeat IPC: 0.866686 cumulative IPC: 0.920242 (Simulation time: 0 hr 57 min 7 sec) 
Heartbeat CPU 0 instructions: 865000001 cycles: 907876854 heartbeat IPC: 0.835243 cumulative IPC: 0.920016 (Simulation time: 0 hr 57 min 12 sec) 
Heartbeat CPU 0 instructions: 866000001 cycles: 909046261 heartbeat IPC: 0.855134 cumulative IPC: 0.919849 (Simulation time: 0 hr 57 min 17 sec) 
Heartbeat CPU 0 instructions: 867000001 cycles: 910248553 heartbeat IPC: 0.831745 cumulative IPC: 0.919615 (Simulation time: 0 hr 57 min 22 sec) 
Heartbeat CPU 0 instructions: 868000001 cycles: 911421920 heartbeat IPC: 0.852248 cumulative IPC: 0.919441 (Simulation time: 0 hr 57 min 27 sec) 
Heartbeat CPU 0 instructions: 869000000 cycles: 912572658 heartbeat IPC: 0.869007 cumulative IPC: 0.919314 (Simulation time: 0 hr 57 min 32 sec) 
Heartbeat CPU 0 instructions: 870000002 cycles: 913723932 heartbeat IPC: 0.868605 cumulative IPC: 0.919186 (Simulation time: 0 hr 57 min 38 sec) 
Heartbeat CPU 0 instructions: 871000000 cycles: 914889153 heartbeat IPC: 0.858205 cumulative IPC: 0.919031 (Simulation time: 0 hr 57 min 43 sec) 
Heartbeat CPU 0 instructions: 872000000 cycles: 916009141 heartbeat IPC: 0.892867 cumulative IPC: 0.918967 (Simulation time: 0 hr 57 min 48 sec) 
Heartbeat CPU 0 instructions: 873000003 cycles: 917209623 heartbeat IPC: 0.833001 cumulative IPC: 0.918743 (Simulation time: 0 hr 57 min 53 sec) 
Heartbeat CPU 0 instructions: 874000000 cycles: 918387557 heartbeat IPC: 0.848941 cumulative IPC: 0.918565 (Simulation time: 0 hr 57 min 58 sec) 
Heartbeat CPU 0 instructions: 875000003 cycles: 919525243 heartbeat IPC: 0.87898 cumulative IPC: 0.918468 (Simulation time: 0 hr 58 min 4 sec) 
Heartbeat CPU 0 instructions: 876000000 cycles: 920682322 heartbeat IPC: 0.864243 cumulative IPC: 0.918332 (Simulation time: 0 hr 58 min 9 sec) 
Heartbeat CPU 0 instructions: 877000000 cycles: 921826902 heartbeat IPC: 0.873683 cumulative IPC: 0.918222 (Simulation time: 0 hr 58 min 15 sec) 
Heartbeat CPU 0 instructions: 878000000 cycles: 923008345 heartbeat IPC: 0.846423 cumulative IPC: 0.91804 (Simulation time: 0 hr 58 min 19 sec) 
Heartbeat CPU 0 instructions: 879000002 cycles: 924140388 heartbeat IPC: 0.88336 cumulative IPC: 0.917956 (Simulation time: 0 hr 58 min 25 sec) 
Heartbeat CPU 0 instructions: 880000000 cycles: 925211312 heartbeat IPC: 0.933771 cumulative IPC: 0.917993 (Simulation time: 0 hr 58 min 30 sec) 
Heartbeat CPU 0 instructions: 881000000 cycles: 926266506 heartbeat IPC: 0.947693 cumulative IPC: 0.918059 (Simulation time: 0 hr 58 min 35 sec) 
Heartbeat CPU 0 instructions: 882000000 cycles: 927357818 heartbeat IPC: 0.916328 cumulative IPC: 0.918055 (Simulation time: 0 hr 58 min 40 sec) 
Heartbeat CPU 0 instructions: 883000001 cycles: 928450048 heartbeat IPC: 0.915559 cumulative IPC: 0.91805 (Simulation time: 0 hr 58 min 45 sec) 
Heartbeat CPU 0 instructions: 884000000 cycles: 929539744 heartbeat IPC: 0.917686 cumulative IPC: 0.918049 (Simulation time: 0 hr 58 min 50 sec) 
Heartbeat CPU 0 instructions: 885000001 cycles: 930587192 heartbeat IPC: 0.954702 cumulative IPC: 0.91813 (Simulation time: 0 hr 58 min 55 sec) 
Heartbeat CPU 0 instructions: 886000001 cycles: 931680268 heartbeat IPC: 0.914849 cumulative IPC: 0.918122 (Simulation time: 0 hr 59 min 1 sec) 
Heartbeat CPU 0 instructions: 887000003 cycles: 932701388 heartbeat IPC: 0.979319 cumulative IPC: 0.918253 (Simulation time: 0 hr 59 min 6 sec) 
Heartbeat CPU 0 instructions: 888000003 cycles: 933742919 heartbeat IPC: 0.960125 cumulative IPC: 0.918345 (Simulation time: 0 hr 59 min 11 sec) 
Heartbeat CPU 0 instructions: 889000002 cycles: 934753870 heartbeat IPC: 0.989167 cumulative IPC: 0.918495 (Simulation time: 0 hr 59 min 16 sec) 
Heartbeat CPU 0 instructions: 890000003 cycles: 935774704 heartbeat IPC: 0.979592 cumulative IPC: 0.918625 (Simulation time: 0 hr 59 min 21 sec) 
Heartbeat CPU 0 instructions: 891000000 cycles: 936792011 heartbeat IPC: 0.982984 cumulative IPC: 0.918761 (Simulation time: 0 hr 59 min 27 sec) 
Heartbeat CPU 0 instructions: 892000001 cycles: 937775099 heartbeat IPC: 1.0172 cumulative IPC: 0.918963 (Simulation time: 0 hr 59 min 32 sec) 
Heartbeat CPU 0 instructions: 893000000 cycles: 938798372 heartbeat IPC: 0.977255 cumulative IPC: 0.919086 (Simulation time: 0 hr 59 min 37 sec) 
Heartbeat CPU 0 instructions: 894000002 cycles: 939797692 heartbeat IPC: 1.00068 cumulative IPC: 0.919255 (Simulation time: 0 hr 59 min 43 sec) 
Heartbeat CPU 0 instructions: 895000002 cycles: 940734931 heartbeat IPC: 1.06696 cumulative IPC: 0.919541 (Simulation time: 0 hr 59 min 48 sec) 
Heartbeat CPU 0 instructions: 896000003 cycles: 941707232 heartbeat IPC: 1.02849 cumulative IPC: 0.91976 (Simulation time: 0 hr 59 min 55 sec) 
Heartbeat CPU 0 instructions: 897000001 cycles: 942686796 heartbeat IPC: 1.02086 cumulative IPC: 0.919963 (Simulation time: 1 hr 0 min 0 sec) 
Heartbeat CPU 0 instructions: 898000000 cycles: 943696521 heartbeat IPC: 0.990368 cumulative IPC: 0.92011 (Simulation time: 1 hr 0 min 6 sec) 
Heartbeat CPU 0 instructions: 899000001 cycles: 944691703 heartbeat IPC: 1.00484 cumulative IPC: 0.920282 (Simulation time: 1 hr 0 min 11 sec) 
Heartbeat CPU 0 instructions: 900000001 cycles: 945670719 heartbeat IPC: 1.02143 cumulative IPC: 0.920485 (Simulation time: 1 hr 0 min 17 sec) 
Heartbeat CPU 0 instructions: 901000002 cycles: 946675929 heartbeat IPC: 0.994818 cumulative IPC: 0.920637 (Simulation time: 1 hr 0 min 22 sec) 
Heartbeat CPU 0 instructions: 902000000 cycles: 947682596 heartbeat IPC: 0.993375 cumulative IPC: 0.920787 (Simulation time: 1 hr 0 min 28 sec) 
Heartbeat CPU 0 instructions: 903000000 cycles: 948689030 heartbeat IPC: 0.993607 cumulative IPC: 0.920936 (Simulation time: 1 hr 0 min 34 sec) 
Heartbeat CPU 0 instructions: 904000002 cycles: 949678888 heartbeat IPC: 1.01025 cumulative IPC: 0.921115 (Simulation time: 1 hr 0 min 39 sec) 
Heartbeat CPU 0 instructions: 905000001 cycles: 950705263 heartbeat IPC: 0.974302 cumulative IPC: 0.921225 (Simulation time: 1 hr 0 min 45 sec) 
Heartbeat CPU 0 instructions: 906000003 cycles: 951683067 heartbeat IPC: 1.0227 cumulative IPC: 0.921426 (Simulation time: 1 hr 0 min 50 sec) 
Heartbeat CPU 0 instructions: 907000002 cycles: 952688268 heartbeat IPC: 0.994825 cumulative IPC: 0.921575 (Simulation time: 1 hr 0 min 56 sec) 
Heartbeat CPU 0 instructions: 908000003 cycles: 953643965 heartbeat IPC: 1.04636 cumulative IPC: 0.921815 (Simulation time: 1 hr 1 min 1 sec) 
Heartbeat CPU 0 instructions: 909000002 cycles: 954611836 heartbeat IPC: 1.03319 cumulative IPC: 0.922031 (Simulation time: 1 hr 1 min 7 sec) 
Heartbeat CPU 0 instructions: 910000001 cycles: 955603886 heartbeat IPC: 1.00801 cumulative IPC: 0.922202 (Simulation time: 1 hr 1 min 12 sec) 
Heartbeat CPU 0 instructions: 911000000 cycles: 956632002 heartbeat IPC: 0.972652 cumulative IPC: 0.922306 (Simulation time: 1 hr 1 min 18 sec) 
Heartbeat CPU 0 instructions: 912000000 cycles: 957609626 heartbeat IPC: 1.02289 cumulative IPC: 0.922502 (Simulation time: 1 hr 1 min 24 sec) 
Heartbeat CPU 0 instructions: 913000000 cycles: 958579149 heartbeat IPC: 1.03144 cumulative IPC: 0.922713 (Simulation time: 1 hr 1 min 29 sec) 
Heartbeat CPU 0 instructions: 914000001 cycles: 959539126 heartbeat IPC: 1.04169 cumulative IPC: 0.92294 (Simulation time: 1 hr 1 min 35 sec) 
Heartbeat CPU 0 instructions: 915000000 cycles: 960539382 heartbeat IPC: 0.999743 cumulative IPC: 0.923093 (Simulation time: 1 hr 1 min 40 sec) 
Heartbeat CPU 0 instructions: 916000003 cycles: 961533378 heartbeat IPC: 1.00604 cumulative IPC: 0.923256 (Simulation time: 1 hr 1 min 46 sec) 
Heartbeat CPU 0 instructions: 917000001 cycles: 962531097 heartbeat IPC: 1.00228 cumulative IPC: 0.923412 (Simulation time: 1 hr 1 min 51 sec) 
Heartbeat CPU 0 instructions: 918000001 cycles: 963498011 heartbeat IPC: 1.03422 cumulative IPC: 0.923623 (Simulation time: 1 hr 1 min 57 sec) 
Heartbeat CPU 0 instructions: 919000000 cycles: 964485290 heartbeat IPC: 1.01288 cumulative IPC: 0.923797 (Simulation time: 1 hr 2 min 3 sec) 
Heartbeat CPU 0 instructions: 920000003 cycles: 965471547 heartbeat IPC: 1.01394 cumulative IPC: 0.923972 (Simulation time: 1 hr 2 min 8 sec) 
Heartbeat CPU 0 instructions: 921000003 cycles: 966457265 heartbeat IPC: 1.01449 cumulative IPC: 0.924147 (Simulation time: 1 hr 2 min 13 sec) 
Heartbeat CPU 0 instructions: 922000000 cycles: 967466292 heartbeat IPC: 0.991051 cumulative IPC: 0.924279 (Simulation time: 1 hr 2 min 19 sec) 
Heartbeat CPU 0 instructions: 923000000 cycles: 968515982 heartbeat IPC: 0.952662 cumulative IPC: 0.924337 (Simulation time: 1 hr 2 min 24 sec) 
Heartbeat CPU 0 instructions: 924000000 cycles: 969560872 heartbeat IPC: 0.957039 cumulative IPC: 0.924404 (Simulation time: 1 hr 2 min 30 sec) 
Heartbeat CPU 0 instructions: 925000003 cycles: 970627654 heartbeat IPC: 0.937401 cumulative IPC: 0.924431 (Simulation time: 1 hr 2 min 35 sec) 
Heartbeat CPU 0 instructions: 926000001 cycles: 971694499 heartbeat IPC: 0.937341 cumulative IPC: 0.924458 (Simulation time: 1 hr 2 min 41 sec) 
Heartbeat CPU 0 instructions: 927000000 cycles: 972772916 heartbeat IPC: 0.927284 cumulative IPC: 0.924463 (Simulation time: 1 hr 2 min 46 sec) 
Heartbeat CPU 0 instructions: 928000001 cycles: 973853258 heartbeat IPC: 0.925634 cumulative IPC: 0.924466 (Simulation time: 1 hr 2 min 52 sec) 
Heartbeat CPU 0 instructions: 929000000 cycles: 974916438 heartbeat IPC: 0.940574 cumulative IPC: 0.924499 (Simulation time: 1 hr 2 min 57 sec) 
Heartbeat CPU 0 instructions: 930000001 cycles: 976033164 heartbeat IPC: 0.895476 cumulative IPC: 0.924437 (Simulation time: 1 hr 3 min 3 sec) 
Heartbeat CPU 0 instructions: 931000001 cycles: 977139138 heartbeat IPC: 0.90418 cumulative IPC: 0.924393 (Simulation time: 1 hr 3 min 8 sec) 
Heartbeat CPU 0 instructions: 932000000 cycles: 978237899 heartbeat IPC: 0.910115 cumulative IPC: 0.924363 (Simulation time: 1 hr 3 min 13 sec) 
Heartbeat CPU 0 instructions: 933000002 cycles: 979348379 heartbeat IPC: 0.900513 cumulative IPC: 0.924313 (Simulation time: 1 hr 3 min 19 sec) 
Heartbeat CPU 0 instructions: 934000002 cycles: 980446429 heartbeat IPC: 0.910705 cumulative IPC: 0.924284 (Simulation time: 1 hr 3 min 24 sec) 
Heartbeat CPU 0 instructions: 935000000 cycles: 981560474 heartbeat IPC: 0.897628 cumulative IPC: 0.924228 (Simulation time: 1 hr 3 min 30 sec) 
Heartbeat CPU 0 instructions: 936000003 cycles: 982673237 heartbeat IPC: 0.898667 cumulative IPC: 0.924173 (Simulation time: 1 hr 3 min 35 sec) 
Heartbeat CPU 0 instructions: 937000000 cycles: 983766487 heartbeat IPC: 0.914701 cumulative IPC: 0.924154 (Simulation time: 1 hr 3 min 40 sec) 
Heartbeat CPU 0 instructions: 938000000 cycles: 984879608 heartbeat IPC: 0.898375 cumulative IPC: 0.9241 (Simulation time: 1 hr 3 min 46 sec) 
Heartbeat CPU 0 instructions: 939000000 cycles: 985943133 heartbeat IPC: 0.940269 cumulative IPC: 0.924132 (Simulation time: 1 hr 3 min 51 sec) 
Heartbeat CPU 0 instructions: 940000001 cycles: 987046532 heartbeat IPC: 0.906291 cumulative IPC: 0.924095 (Simulation time: 1 hr 3 min 57 sec) 
Heartbeat CPU 0 instructions: 941000000 cycles: 988145878 heartbeat IPC: 0.909631 cumulative IPC: 0.924065 (Simulation time: 1 hr 4 min 2 sec) 
Heartbeat CPU 0 instructions: 942000001 cycles: 989221321 heartbeat IPC: 0.92985 cumulative IPC: 0.924077 (Simulation time: 1 hr 4 min 7 sec) 
Heartbeat CPU 0 instructions: 943000002 cycles: 990323673 heartbeat IPC: 0.907152 cumulative IPC: 0.924042 (Simulation time: 1 hr 4 min 13 sec) 
Heartbeat CPU 0 instructions: 944000002 cycles: 991432417 heartbeat IPC: 0.901921 cumulative IPC: 0.923996 (Simulation time: 1 hr 4 min 18 sec) 
Heartbeat CPU 0 instructions: 945000001 cycles: 992557025 heartbeat IPC: 0.889198 cumulative IPC: 0.923923 (Simulation time: 1 hr 4 min 23 sec) 
Heartbeat CPU 0 instructions: 946000000 cycles: 993659551 heartbeat IPC: 0.907007 cumulative IPC: 0.923888 (Simulation time: 1 hr 4 min 29 sec) 
Heartbeat CPU 0 instructions: 947000001 cycles: 994793234 heartbeat IPC: 0.882082 cumulative IPC: 0.9238 (Simulation time: 1 hr 4 min 34 sec) 
Heartbeat CPU 0 instructions: 948000000 cycles: 995997485 heartbeat IPC: 0.830391 cumulative IPC: 0.923591 (Simulation time: 1 hr 4 min 39 sec) 
Heartbeat CPU 0 instructions: 949000003 cycles: 997118034 heartbeat IPC: 0.892422 cumulative IPC: 0.923527 (Simulation time: 1 hr 4 min 45 sec) 
Heartbeat CPU 0 instructions: 950000002 cycles: 998271010 heartbeat IPC: 0.86732 cumulative IPC: 0.923407 (Simulation time: 1 hr 4 min 50 sec) 
Finished CPU 0 instructions: 500000001 cycles: 541473067 cumulative IPC: 0.923407 (Simulation time: 1 hr 4 min 50 sec) 

ChampSim completed all CPUs

Region of Interest Statistics

CPU 0 cumulative IPC: 0.923407 instructions: 500000001 cycles: 541473067
L1D TOTAL     ACCESS:  138846724  HIT:  135244901  MISS:    3601823
L1D LOAD      ACCESS:   87441527  HIT:   84188770  MISS:    3252757
L1D RFO       ACCESS:   51405197  HIT:   51056131  MISS:     349066
L1D PREFETCH  ACCESS:          0  HIT:          0  MISS:          0
L1D WRITEBACK ACCESS:          0  HIT:          0  MISS:          0
L1D PREFETCH  REQUESTED:          0  ISSUED:          0  USEFUL:          0  USELESS:          0
L1D AVERAGE MISS LATENCY: 57.0435 cycles
L1I TOTAL     ACCESS:   87429314  HIT:   87429314  MISS:          0
L1I LOAD      ACCESS:   87429314  HIT:   87429314  MISS:          0
L1I RFO       ACCESS:          0  HIT:          0  MISS:          0
L1I PREFETCH  ACCESS:          0  HIT:          0  MISS:          0
L1I WRITEBACK ACCESS:          0  HIT:          0  MISS:          0
L1I PREFETCH  REQUESTED:          0  ISSUED:          0  USEFUL:          0  USELESS:          0
L1I AVERAGE MISS LATENCY: -nan cycles
L2C TOTAL     ACCESS:    4836292  HIT:    3385236  MISS:    1451056
L2C LOAD      ACCESS:    3252482  HIT:    1946344  MISS:    1306138
L2C RFO       ACCESS:     349066  HIT:     204176  MISS:     144890
L2C PREFETCH  ACCESS:          0  HIT:          0  MISS:          0
L2C WRITEBACK ACCESS:    1234744  HIT:    1234716  MISS:         28
L2C PREFETCH  REQUESTED:          0  ISSUED:          0  USEFUL:          0  USELESS:          0
L2C AVERAGE MISS LATENCY: 100.218 cycles
LLC TOTAL     ACCESS:    4706859  HIT:    3206438  MISS:    1500421
LLC LOAD      ACCESS:    1306131  HIT:     843131  MISS:     463000
LLC RFO       ACCESS:     144890  HIT:       1272  MISS:     143618
LLC PREFETCH  ACCESS:    2334684  HIT:    1441008  MISS:     893676
LLC WRITEBACK ACCESS:     921154  HIT:     921027  MISS:        127
LLC PREFETCH  REQUESTED:    3790792  ISSUED:    2484661  USEFUL:     769460  USELESS:     120063
LLC AVERAGE MISS LATENCY: 181.368 cycles
Major fault: 0 Minor fault: 5760
performance stats:
mapping cache size: 217269
divergence: 1031313

DRAM Statistics
 CHANNEL 0
 RQ ROW_BUFFER_HIT:     143021  ROW_BUFFER_MISS:    1357269
 DBUS_CONGESTED:     359741
 WQ ROW_BUFFER_HIT:      66714  ROW_BUFFER_MISS:     845444  FULL:          0

 AVG_CONGESTED_CYCLE: 6

CPU 0 Branch Prediction Accuracy: 98.4155% MPKI: 2.31243 Average ROB Occupancy at Mispredict: 112.727

Branch types
NOT_BRANCH: 427030974 85.4062%
BRANCH_DIRECT_JUMP: 3179709 0.635942%
BRANCH_INDIRECT: 0 0%
BRANCH_CONDITIONAL: 61339580 12.2679%
BRANCH_DIRECT_CALL: 4224863 0.844973%
BRANCH_INDIRECT_CALL: 0 0%
BRANCH_RETURN: 4224864 0.844973%
BRANCH_OTHER: 0 0%


gzip: stdout: Broken pipe
