
*** ChampSim Multicore Out-of-Order Simulator ***

Warmup Instructions: 1000000
Prefetch Warmup Instructions: 450000000
Simulation Instructions: 500000000
Stat Printing Period: 1000000
Number of CPUs: 1
LLC sets: 2048
LLC ways: 16
Off-chip DRAM Size: 4096 MB Channels: 1 Width: 64-bit Data Rate: 3200 MT/s

CPU 0 runs /scratch/cluster/cmolder/ML-DPC/ChampSimTraces/spec06/473.astar-s2.trace.gz
Read seed: 851
Heartbeat CPU 0 instructions: 1000003 cycles: 546153 heartbeat IPC: 1.83099 cumulative IPC: 1.83099 (Simulation time: 0 hr 0 min 6 sec) 

Warmup complete CPU 0 instructions: 1000003 cycles: 546153 (Simulation time: 0 hr 0 min 6 sec) 

Heartbeat CPU 0 instructions: 2000000 cycles: 9941161 heartbeat IPC: 0.106439 cumulative IPC: 0.106439 (Simulation time: 0 hr 0 min 12 sec) 
Heartbeat CPU 0 instructions: 3000000 cycles: 16707568 heartbeat IPC: 0.147789 cumulative IPC: 0.123751 (Simulation time: 0 hr 0 min 16 sec) 
Heartbeat CPU 0 instructions: 4000000 cycles: 23691388 heartbeat IPC: 0.143188 cumulative IPC: 0.129616 (Simulation time: 0 hr 0 min 20 sec) 
Heartbeat CPU 0 instructions: 5000000 cycles: 30779616 heartbeat IPC: 0.141079 cumulative IPC: 0.132304 (Simulation time: 0 hr 0 min 24 sec) 
Heartbeat CPU 0 instructions: 6000002 cycles: 40256726 heartbeat IPC: 0.105518 cumulative IPC: 0.125911 (Simulation time: 0 hr 0 min 30 sec) 
Heartbeat CPU 0 instructions: 7000001 cycles: 50490735 heartbeat IPC: 0.0977133 cumulative IPC: 0.120133 (Simulation time: 0 hr 0 min 37 sec) 
Heartbeat CPU 0 instructions: 8000002 cycles: 61381197 heartbeat IPC: 0.0918236 cumulative IPC: 0.115065 (Simulation time: 0 hr 0 min 44 sec) 
Heartbeat CPU 0 instructions: 9000000 cycles: 71683291 heartbeat IPC: 0.0970675 cumulative IPC: 0.112459 (Simulation time: 0 hr 0 min 51 sec) 
Heartbeat CPU 0 instructions: 10000003 cycles: 78435699 heartbeat IPC: 0.148096 cumulative IPC: 0.115548 (Simulation time: 0 hr 0 min 55 sec) 
Heartbeat CPU 0 instructions: 11000000 cycles: 85243950 heartbeat IPC: 0.14688 cumulative IPC: 0.118067 (Simulation time: 0 hr 0 min 59 sec) 
Heartbeat CPU 0 instructions: 12000003 cycles: 92345679 heartbeat IPC: 0.140811 cumulative IPC: 0.119826 (Simulation time: 0 hr 1 min 3 sec) 
Heartbeat CPU 0 instructions: 13000000 cycles: 101600348 heartbeat IPC: 0.108053 cumulative IPC: 0.118748 (Simulation time: 0 hr 1 min 9 sec) 
Heartbeat CPU 0 instructions: 14000000 cycles: 108449817 heartbeat IPC: 0.145997 cumulative IPC: 0.120478 (Simulation time: 0 hr 1 min 13 sec) 
Heartbeat CPU 0 instructions: 15000002 cycles: 115335198 heartbeat IPC: 0.145236 cumulative IPC: 0.121963 (Simulation time: 0 hr 1 min 17 sec) 
Heartbeat CPU 0 instructions: 16000000 cycles: 122037465 heartbeat IPC: 0.149203 cumulative IPC: 0.123466 (Simulation time: 0 hr 1 min 20 sec) 
Heartbeat CPU 0 instructions: 17000002 cycles: 128651047 heartbeat IPC: 0.151204 cumulative IPC: 0.124898 (Simulation time: 0 hr 1 min 24 sec) 
Heartbeat CPU 0 instructions: 18000001 cycles: 138029399 heartbeat IPC: 0.106628 cumulative IPC: 0.123651 (Simulation time: 0 hr 1 min 30 sec) 
Heartbeat CPU 0 instructions: 19000000 cycles: 144564186 heartbeat IPC: 0.153027 cumulative IPC: 0.124984 (Simulation time: 0 hr 1 min 34 sec) 
Heartbeat CPU 0 instructions: 20000003 cycles: 151496888 heartbeat IPC: 0.144244 cumulative IPC: 0.125869 (Simulation time: 0 hr 1 min 38 sec) 
Heartbeat CPU 0 instructions: 21000002 cycles: 160204079 heartbeat IPC: 0.114847 cumulative IPC: 0.125268 (Simulation time: 0 hr 1 min 42 sec) 
Heartbeat CPU 0 instructions: 22000000 cycles: 167952927 heartbeat IPC: 0.129051 cumulative IPC: 0.125443 (Simulation time: 0 hr 1 min 48 sec) 
Heartbeat CPU 0 instructions: 23000002 cycles: 174425638 heartbeat IPC: 0.154495 cumulative IPC: 0.126524 (Simulation time: 0 hr 1 min 54 sec) 
Heartbeat CPU 0 instructions: 24000002 cycles: 181535260 heartbeat IPC: 0.140654 cumulative IPC: 0.127079 (Simulation time: 0 hr 1 min 58 sec) 
Heartbeat CPU 0 instructions: 25000002 cycles: 190215307 heartbeat IPC: 0.115207 cumulative IPC: 0.126536 (Simulation time: 0 hr 2 min 4 sec) 
Heartbeat CPU 0 instructions: 26000001 cycles: 197187531 heartbeat IPC: 0.143426 cumulative IPC: 0.127135 (Simulation time: 0 hr 2 min 7 sec) 
Heartbeat CPU 0 instructions: 27000000 cycles: 207038312 heartbeat IPC: 0.101515 cumulative IPC: 0.125913 (Simulation time: 0 hr 2 min 13 sec) 
Heartbeat CPU 0 instructions: 28000000 cycles: 213707444 heartbeat IPC: 0.149945 cumulative IPC: 0.126665 (Simulation time: 0 hr 2 min 17 sec) 
Heartbeat CPU 0 instructions: 29000002 cycles: 222917698 heartbeat IPC: 0.108575 cumulative IPC: 0.125915 (Simulation time: 0 hr 2 min 23 sec) 
Heartbeat CPU 0 instructions: 30000000 cycles: 229300130 heartbeat IPC: 0.15668 cumulative IPC: 0.126774 (Simulation time: 0 hr 2 min 27 sec) 
Heartbeat CPU 0 instructions: 31000000 cycles: 235678762 heartbeat IPC: 0.156773 cumulative IPC: 0.127588 (Simulation time: 0 hr 2 min 31 sec) 
Heartbeat CPU 0 instructions: 32000000 cycles: 241785334 heartbeat IPC: 0.163758 cumulative IPC: 0.128503 (Simulation time: 0 hr 2 min 35 sec) 
Heartbeat CPU 0 instructions: 33000000 cycles: 247672662 heartbeat IPC: 0.169856 cumulative IPC: 0.129488 (Simulation time: 0 hr 2 min 39 sec) 
Heartbeat CPU 0 instructions: 34000001 cycles: 256864529 heartbeat IPC: 0.108792 cumulative IPC: 0.128746 (Simulation time: 0 hr 2 min 45 sec) 
Heartbeat CPU 0 instructions: 35000000 cycles: 263549631 heartbeat IPC: 0.149586 cumulative IPC: 0.129276 (Simulation time: 0 hr 2 min 52 sec) 
Heartbeat CPU 0 instructions: 36000000 cycles: 270374217 heartbeat IPC: 0.146529 cumulative IPC: 0.129712 (Simulation time: 0 hr 2 min 58 sec) 
Heartbeat CPU 0 instructions: 37000003 cycles: 279779457 heartbeat IPC: 0.106324 cumulative IPC: 0.128924 (Simulation time: 0 hr 3 min 4 sec) 
Heartbeat CPU 0 instructions: 38000001 cycles: 286161314 heartbeat IPC: 0.156694 cumulative IPC: 0.129545 (Simulation time: 0 hr 3 min 8 sec) 
Heartbeat CPU 0 instructions: 39000000 cycles: 295506135 heartbeat IPC: 0.107011 cumulative IPC: 0.128831 (Simulation time: 0 hr 3 min 13 sec) 
Heartbeat CPU 0 instructions: 40000000 cycles: 304762199 heartbeat IPC: 0.108037 cumulative IPC: 0.128198 (Simulation time: 0 hr 3 min 19 sec) 
Heartbeat CPU 0 instructions: 41000002 cycles: 311329457 heartbeat IPC: 0.152271 cumulative IPC: 0.128707 (Simulation time: 0 hr 3 min 23 sec) 
Heartbeat CPU 0 instructions: 42000000 cycles: 318587112 heartbeat IPC: 0.137785 cumulative IPC: 0.128914 (Simulation time: 0 hr 3 min 26 sec) 
Heartbeat CPU 0 instructions: 43000003 cycles: 328357035 heartbeat IPC: 0.102355 cumulative IPC: 0.128123 (Simulation time: 0 hr 3 min 32 sec) 
Heartbeat CPU 0 instructions: 44000000 cycles: 334918133 heartbeat IPC: 0.152413 cumulative IPC: 0.128599 (Simulation time: 0 hr 3 min 38 sec) 
Heartbeat CPU 0 instructions: 45000000 cycles: 341868657 heartbeat IPC: 0.143874 cumulative IPC: 0.12891 (Simulation time: 0 hr 3 min 44 sec) 
Heartbeat CPU 0 instructions: 46000003 cycles: 348993591 heartbeat IPC: 0.140353 cumulative IPC: 0.129144 (Simulation time: 0 hr 3 min 49 sec) 
Heartbeat CPU 0 instructions: 47000000 cycles: 356112094 heartbeat IPC: 0.140479 cumulative IPC: 0.129371 (Simulation time: 0 hr 3 min 53 sec) 
Heartbeat CPU 0 instructions: 48000000 cycles: 365387913 heartbeat IPC: 0.107807 cumulative IPC: 0.128823 (Simulation time: 0 hr 3 min 59 sec) 
Heartbeat CPU 0 instructions: 49000000 cycles: 371729522 heartbeat IPC: 0.157689 cumulative IPC: 0.129316 (Simulation time: 0 hr 4 min 2 sec) 
Heartbeat CPU 0 instructions: 50000001 cycles: 378211066 heartbeat IPC: 0.154284 cumulative IPC: 0.129745 (Simulation time: 0 hr 4 min 8 sec) 
Heartbeat CPU 0 instructions: 51000000 cycles: 385259759 heartbeat IPC: 0.14187 cumulative IPC: 0.129967 (Simulation time: 0 hr 4 min 15 sec) 
Heartbeat CPU 0 instructions: 52000003 cycles: 394045131 heartbeat IPC: 0.113826 cumulative IPC: 0.129606 (Simulation time: 0 hr 4 min 25 sec) 
Heartbeat CPU 0 instructions: 53000000 cycles: 400977775 heartbeat IPC: 0.144245 cumulative IPC: 0.12986 (Simulation time: 0 hr 4 min 31 sec) 
Heartbeat CPU 0 instructions: 54000001 cycles: 408558123 heartbeat IPC: 0.13192 cumulative IPC: 0.129898 (Simulation time: 0 hr 4 min 34 sec) 
Heartbeat CPU 0 instructions: 55000000 cycles: 416334478 heartbeat IPC: 0.128595 cumulative IPC: 0.129874 (Simulation time: 0 hr 4 min 38 sec) 
Heartbeat CPU 0 instructions: 56000000 cycles: 426290883 heartbeat IPC: 0.100438 cumulative IPC: 0.129185 (Simulation time: 0 hr 4 min 44 sec) 
Heartbeat CPU 0 instructions: 57000000 cycles: 432728249 heartbeat IPC: 0.155343 cumulative IPC: 0.129575 (Simulation time: 0 hr 4 min 48 sec) 
Heartbeat CPU 0 instructions: 58000002 cycles: 439520084 heartbeat IPC: 0.147236 cumulative IPC: 0.129848 (Simulation time: 0 hr 4 min 51 sec) 
Heartbeat CPU 0 instructions: 59000001 cycles: 447898511 heartbeat IPC: 0.119354 cumulative IPC: 0.129652 (Simulation time: 0 hr 4 min 58 sec) 
Heartbeat CPU 0 instructions: 60000000 cycles: 455948192 heartbeat IPC: 0.124228 cumulative IPC: 0.129556 (Simulation time: 0 hr 5 min 7 sec) 
Heartbeat CPU 0 instructions: 61000002 cycles: 462775851 heartbeat IPC: 0.146463 cumulative IPC: 0.129806 (Simulation time: 0 hr 5 min 14 sec) 
Heartbeat CPU 0 instructions: 62000000 cycles: 469674493 heartbeat IPC: 0.144956 cumulative IPC: 0.130028 (Simulation time: 0 hr 5 min 20 sec) 
Heartbeat CPU 0 instructions: 63000000 cycles: 476585075 heartbeat IPC: 0.144706 cumulative IPC: 0.130241 (Simulation time: 0 hr 5 min 25 sec) 
Heartbeat CPU 0 instructions: 64000002 cycles: 485515196 heartbeat IPC: 0.111981 cumulative IPC: 0.129905 (Simulation time: 0 hr 5 min 30 sec) 
Heartbeat CPU 0 instructions: 65000000 cycles: 492598663 heartbeat IPC: 0.141174 cumulative IPC: 0.130067 (Simulation time: 0 hr 5 min 35 sec) 
Heartbeat CPU 0 instructions: 66000000 cycles: 499390690 heartbeat IPC: 0.147231 cumulative IPC: 0.130301 (Simulation time: 0 hr 5 min 38 sec) 
Heartbeat CPU 0 instructions: 67000001 cycles: 506456037 heartbeat IPC: 0.141536 cumulative IPC: 0.130458 (Simulation time: 0 hr 5 min 42 sec) 
Heartbeat CPU 0 instructions: 68000003 cycles: 513615475 heartbeat IPC: 0.139676 cumulative IPC: 0.130587 (Simulation time: 0 hr 5 min 46 sec) 
Heartbeat CPU 0 instructions: 69000000 cycles: 526034362 heartbeat IPC: 0.0805223 cumulative IPC: 0.129403 (Simulation time: 0 hr 5 min 54 sec) 
Heartbeat CPU 0 instructions: 70000000 cycles: 532627478 heartbeat IPC: 0.151673 cumulative IPC: 0.129679 (Simulation time: 0 hr 6 min 3 sec) 
Heartbeat CPU 0 instructions: 71000003 cycles: 539658728 heartbeat IPC: 0.142223 cumulative IPC: 0.129843 (Simulation time: 0 hr 6 min 7 sec) 
Heartbeat CPU 0 instructions: 72000001 cycles: 546817359 heartbeat IPC: 0.139691 cumulative IPC: 0.129972 (Simulation time: 0 hr 6 min 11 sec) 
Heartbeat CPU 0 instructions: 73000000 cycles: 553955511 heartbeat IPC: 0.140092 cumulative IPC: 0.130103 (Simulation time: 0 hr 6 min 15 sec) 
Heartbeat CPU 0 instructions: 74000003 cycles: 562593121 heartbeat IPC: 0.115773 cumulative IPC: 0.129882 (Simulation time: 0 hr 6 min 19 sec) 
Heartbeat CPU 0 instructions: 75000000 cycles: 570184736 heartbeat IPC: 0.131724 cumulative IPC: 0.129907 (Simulation time: 0 hr 6 min 24 sec) 
Heartbeat CPU 0 instructions: 76000000 cycles: 576559264 heartbeat IPC: 0.156874 cumulative IPC: 0.130205 (Simulation time: 0 hr 6 min 28 sec) 
Heartbeat CPU 0 instructions: 77000000 cycles: 582943879 heartbeat IPC: 0.156627 cumulative IPC: 0.130495 (Simulation time: 0 hr 6 min 32 sec) 
Heartbeat CPU 0 instructions: 78000000 cycles: 589174295 heartbeat IPC: 0.160503 cumulative IPC: 0.130813 (Simulation time: 0 hr 6 min 36 sec) 
Heartbeat CPU 0 instructions: 79000001 cycles: 598276094 heartbeat IPC: 0.109868 cumulative IPC: 0.130494 (Simulation time: 0 hr 6 min 44 sec) 
Heartbeat CPU 0 instructions: 80000000 cycles: 604745262 heartbeat IPC: 0.154579 cumulative IPC: 0.130752 (Simulation time: 0 hr 6 min 47 sec) 
Heartbeat CPU 0 instructions: 81000000 cycles: 612663716 heartbeat IPC: 0.126287 cumulative IPC: 0.130694 (Simulation time: 0 hr 6 min 51 sec) 
Heartbeat CPU 0 instructions: 82000000 cycles: 621053270 heartbeat IPC: 0.119196 cumulative IPC: 0.130538 (Simulation time: 0 hr 6 min 57 sec) 
Heartbeat CPU 0 instructions: 83000003 cycles: 627860273 heartbeat IPC: 0.146908 cumulative IPC: 0.130716 (Simulation time: 0 hr 7 min 1 sec) 
Heartbeat CPU 0 instructions: 84000001 cycles: 634868370 heartbeat IPC: 0.142692 cumulative IPC: 0.130848 (Simulation time: 0 hr 7 min 7 sec) 
Heartbeat CPU 0 instructions: 85000001 cycles: 642276814 heartbeat IPC: 0.134981 cumulative IPC: 0.130896 (Simulation time: 0 hr 7 min 13 sec) 
Heartbeat CPU 0 instructions: 86000002 cycles: 651234808 heartbeat IPC: 0.111632 cumulative IPC: 0.130631 (Simulation time: 0 hr 7 min 19 sec) 
Heartbeat CPU 0 instructions: 87000001 cycles: 657540122 heartbeat IPC: 0.158596 cumulative IPC: 0.130899 (Simulation time: 0 hr 7 min 23 sec) 
Heartbeat CPU 0 instructions: 88000000 cycles: 664003085 heartbeat IPC: 0.154728 cumulative IPC: 0.131131 (Simulation time: 0 hr 7 min 27 sec) 
Heartbeat CPU 0 instructions: 89000002 cycles: 670510951 heartbeat IPC: 0.153661 cumulative IPC: 0.13135 (Simulation time: 0 hr 7 min 31 sec) 
Heartbeat CPU 0 instructions: 90000000 cycles: 676923653 heartbeat IPC: 0.15594 cumulative IPC: 0.131583 (Simulation time: 0 hr 7 min 36 sec) 
Heartbeat CPU 0 instructions: 91000002 cycles: 686304199 heartbeat IPC: 0.106604 cumulative IPC: 0.131242 (Simulation time: 0 hr 7 min 46 sec) 
Heartbeat CPU 0 instructions: 92000000 cycles: 693235682 heartbeat IPC: 0.144269 cumulative IPC: 0.131372 (Simulation time: 0 hr 7 min 53 sec) 
Heartbeat CPU 0 instructions: 93000000 cycles: 700460293 heartbeat IPC: 0.138416 cumulative IPC: 0.131445 (Simulation time: 0 hr 7 min 59 sec) 
Heartbeat CPU 0 instructions: 94000000 cycles: 707850432 heartbeat IPC: 0.135315 cumulative IPC: 0.131485 (Simulation time: 0 hr 8 min 4 sec) 
Heartbeat CPU 0 instructions: 95000001 cycles: 714223199 heartbeat IPC: 0.156918 cumulative IPC: 0.131712 (Simulation time: 0 hr 8 min 8 sec) 
Heartbeat CPU 0 instructions: 96000002 cycles: 723507776 heartbeat IPC: 0.107706 cumulative IPC: 0.131404 (Simulation time: 0 hr 8 min 13 sec) 
Heartbeat CPU 0 instructions: 97000002 cycles: 730401005 heartbeat IPC: 0.14507 cumulative IPC: 0.131533 (Simulation time: 0 hr 8 min 17 sec) 
Heartbeat CPU 0 instructions: 98000000 cycles: 737955518 heartbeat IPC: 0.132371 cumulative IPC: 0.131542 (Simulation time: 0 hr 8 min 21 sec) 
Heartbeat CPU 0 instructions: 99000000 cycles: 745569518 heartbeat IPC: 0.131337 cumulative IPC: 0.131539 (Simulation time: 0 hr 8 min 24 sec) 
Heartbeat CPU 0 instructions: 100000000 cycles: 752802142 heartbeat IPC: 0.138262 cumulative IPC: 0.131604 (Simulation time: 0 hr 8 min 28 sec) 
Heartbeat CPU 0 instructions: 101000000 cycles: 762274340 heartbeat IPC: 0.105572 cumulative IPC: 0.13128 (Simulation time: 0 hr 8 min 33 sec) 
Heartbeat CPU 0 instructions: 102000001 cycles: 768712416 heartbeat IPC: 0.155326 cumulative IPC: 0.131482 (Simulation time: 0 hr 8 min 37 sec) 
Heartbeat CPU 0 instructions: 103000001 cycles: 775182888 heartbeat IPC: 0.154548 cumulative IPC: 0.131675 (Simulation time: 0 hr 8 min 41 sec) 
Heartbeat CPU 0 instructions: 104000003 cycles: 781472632 heartbeat IPC: 0.158989 cumulative IPC: 0.131895 (Simulation time: 0 hr 8 min 45 sec) 
Heartbeat CPU 0 instructions: 105000001 cycles: 787427917 heartbeat IPC: 0.167918 cumulative IPC: 0.132167 (Simulation time: 0 hr 8 min 52 sec) 
Heartbeat CPU 0 instructions: 106000001 cycles: 796530975 heartbeat IPC: 0.109853 cumulative IPC: 0.131912 (Simulation time: 0 hr 9 min 2 sec) 
Heartbeat CPU 0 instructions: 107000003 cycles: 803199357 heartbeat IPC: 0.149962 cumulative IPC: 0.132062 (Simulation time: 0 hr 9 min 9 sec) 
Heartbeat CPU 0 instructions: 108000002 cycles: 812584185 heartbeat IPC: 0.106555 cumulative IPC: 0.131767 (Simulation time: 0 hr 9 min 17 sec) 
Heartbeat CPU 0 instructions: 109000000 cycles: 819480756 heartbeat IPC: 0.144999 cumulative IPC: 0.131879 (Simulation time: 0 hr 9 min 25 sec) 
Heartbeat CPU 0 instructions: 110000000 cycles: 826057469 heartbeat IPC: 0.152052 cumulative IPC: 0.132039 (Simulation time: 0 hr 9 min 32 sec) 
Heartbeat CPU 0 instructions: 111000000 cycles: 832652832 heartbeat IPC: 0.151622 cumulative IPC: 0.132195 (Simulation time: 0 hr 9 min 39 sec) 
Heartbeat CPU 0 instructions: 112000001 cycles: 841073260 heartbeat IPC: 0.118759 cumulative IPC: 0.13206 (Simulation time: 0 hr 9 min 45 sec) 
Heartbeat CPU 0 instructions: 113000001 cycles: 848603987 heartbeat IPC: 0.132789 cumulative IPC: 0.132066 (Simulation time: 0 hr 9 min 50 sec) 
Heartbeat CPU 0 instructions: 114000001 cycles: 856337795 heartbeat IPC: 0.129302 cumulative IPC: 0.132041 (Simulation time: 0 hr 9 min 54 sec) 
Heartbeat CPU 0 instructions: 115000001 cycles: 864761123 heartbeat IPC: 0.118718 cumulative IPC: 0.131912 (Simulation time: 0 hr 9 min 59 sec) 
Heartbeat CPU 0 instructions: 116000001 cycles: 871466847 heartbeat IPC: 0.149126 cumulative IPC: 0.132044 (Simulation time: 0 hr 10 min 3 sec) 
Heartbeat CPU 0 instructions: 117000002 cycles: 878509846 heartbeat IPC: 0.141985 cumulative IPC: 0.132124 (Simulation time: 0 hr 10 min 7 sec) 
Heartbeat CPU 0 instructions: 118000000 cycles: 888146686 heartbeat IPC: 0.103768 cumulative IPC: 0.131816 (Simulation time: 0 hr 10 min 12 sec) 
Heartbeat CPU 0 instructions: 119000002 cycles: 894922285 heartbeat IPC: 0.147589 cumulative IPC: 0.131936 (Simulation time: 0 hr 10 min 16 sec) 
Heartbeat CPU 0 instructions: 120000001 cycles: 901643552 heartbeat IPC: 0.148781 cumulative IPC: 0.132061 (Simulation time: 0 hr 10 min 20 sec) 
Heartbeat CPU 0 instructions: 121000000 cycles: 908232052 heartbeat IPC: 0.151779 cumulative IPC: 0.132204 (Simulation time: 0 hr 10 min 24 sec) 
Heartbeat CPU 0 instructions: 122000000 cycles: 914967614 heartbeat IPC: 0.148466 cumulative IPC: 0.132324 (Simulation time: 0 hr 10 min 28 sec) 
Heartbeat CPU 0 instructions: 123000002 cycles: 924445070 heartbeat IPC: 0.105514 cumulative IPC: 0.132049 (Simulation time: 0 hr 10 min 33 sec) 
Heartbeat CPU 0 instructions: 124000000 cycles: 931002123 heartbeat IPC: 0.152507 cumulative IPC: 0.132193 (Simulation time: 0 hr 10 min 37 sec) 
Heartbeat CPU 0 instructions: 125000003 cycles: 938025192 heartbeat IPC: 0.142388 cumulative IPC: 0.13227 (Simulation time: 0 hr 10 min 41 sec) 
Heartbeat CPU 0 instructions: 126000000 cycles: 945211447 heartbeat IPC: 0.139154 cumulative IPC: 0.132322 (Simulation time: 0 hr 10 min 44 sec) 
Heartbeat CPU 0 instructions: 127000000 cycles: 954913426 heartbeat IPC: 0.103072 cumulative IPC: 0.132025 (Simulation time: 0 hr 10 min 50 sec) 
Heartbeat CPU 0 instructions: 128000000 cycles: 961532282 heartbeat IPC: 0.151084 cumulative IPC: 0.132156 (Simulation time: 0 hr 10 min 53 sec) 
Heartbeat CPU 0 instructions: 129000002 cycles: 970836823 heartbeat IPC: 0.107475 cumulative IPC: 0.131919 (Simulation time: 0 hr 10 min 59 sec) 
Heartbeat CPU 0 instructions: 130000001 cycles: 977615192 heartbeat IPC: 0.147528 cumulative IPC: 0.132028 (Simulation time: 0 hr 11 min 3 sec) 
Heartbeat CPU 0 instructions: 131000000 cycles: 984571585 heartbeat IPC: 0.143753 cumulative IPC: 0.13211 (Simulation time: 0 hr 11 min 6 sec) 
Heartbeat CPU 0 instructions: 132000000 cycles: 996423538 heartbeat IPC: 0.0843743 cumulative IPC: 0.131542 (Simulation time: 0 hr 11 min 13 sec) 
Heartbeat CPU 0 instructions: 133000001 cycles: 1006672618 heartbeat IPC: 0.0975698 cumulative IPC: 0.131196 (Simulation time: 0 hr 11 min 20 sec) 
Heartbeat CPU 0 instructions: 134000001 cycles: 1013483371 heartbeat IPC: 0.146827 cumulative IPC: 0.131301 (Simulation time: 0 hr 11 min 24 sec) 
Heartbeat CPU 0 instructions: 135000003 cycles: 1020898677 heartbeat IPC: 0.134856 cumulative IPC: 0.131327 (Simulation time: 0 hr 11 min 27 sec) 
Heartbeat CPU 0 instructions: 136000001 cycles: 1029502655 heartbeat IPC: 0.116225 cumulative IPC: 0.131201 (Simulation time: 0 hr 11 min 31 sec) 
Heartbeat CPU 0 instructions: 137000002 cycles: 1037970826 heartbeat IPC: 0.118089 cumulative IPC: 0.131094 (Simulation time: 0 hr 11 min 36 sec) 
Heartbeat CPU 0 instructions: 138000003 cycles: 1044849826 heartbeat IPC: 0.14537 cumulative IPC: 0.131188 (Simulation time: 0 hr 11 min 40 sec) 
Heartbeat CPU 0 instructions: 139000002 cycles: 1051784148 heartbeat IPC: 0.14421 cumulative IPC: 0.131274 (Simulation time: 0 hr 11 min 44 sec) 
Heartbeat CPU 0 instructions: 140000001 cycles: 1061444791 heartbeat IPC: 0.103513 cumulative IPC: 0.131021 (Simulation time: 0 hr 11 min 49 sec) 
Heartbeat CPU 0 instructions: 141000003 cycles: 1068106802 heartbeat IPC: 0.150105 cumulative IPC: 0.13114 (Simulation time: 0 hr 11 min 53 sec) 
Heartbeat CPU 0 instructions: 142000001 cycles: 1074964401 heartbeat IPC: 0.145823 cumulative IPC: 0.131234 (Simulation time: 0 hr 11 min 57 sec) 
Heartbeat CPU 0 instructions: 143000000 cycles: 1081905160 heartbeat IPC: 0.144076 cumulative IPC: 0.131316 (Simulation time: 0 hr 12 min 0 sec) 
Heartbeat CPU 0 instructions: 144000002 cycles: 1091536116 heartbeat IPC: 0.103832 cumulative IPC: 0.131074 (Simulation time: 0 hr 12 min 6 sec) 
Heartbeat CPU 0 instructions: 145000000 cycles: 1097895764 heartbeat IPC: 0.157241 cumulative IPC: 0.131225 (Simulation time: 0 hr 12 min 9 sec) 
Heartbeat CPU 0 instructions: 146000000 cycles: 1104512910 heartbeat IPC: 0.151123 cumulative IPC: 0.131345 (Simulation time: 0 hr 12 min 13 sec) 
Heartbeat CPU 0 instructions: 147000001 cycles: 1113905063 heartbeat IPC: 0.106472 cumulative IPC: 0.131135 (Simulation time: 0 hr 12 min 19 sec) 
Heartbeat CPU 0 instructions: 148000000 cycles: 1120116070 heartbeat IPC: 0.161004 cumulative IPC: 0.1313 (Simulation time: 0 hr 12 min 22 sec) 
Heartbeat CPU 0 instructions: 149000001 cycles: 1129452341 heartbeat IPC: 0.107109 cumulative IPC: 0.1311 (Simulation time: 0 hr 12 min 28 sec) 
Heartbeat CPU 0 instructions: 150000003 cycles: 1136282912 heartbeat IPC: 0.146401 cumulative IPC: 0.131192 (Simulation time: 0 hr 12 min 32 sec) 
Heartbeat CPU 0 instructions: 151000003 cycles: 1143156573 heartbeat IPC: 0.145483 cumulative IPC: 0.131278 (Simulation time: 0 hr 12 min 36 sec) 
Heartbeat CPU 0 instructions: 152000000 cycles: 1152694547 heartbeat IPC: 0.104844 cumulative IPC: 0.131059 (Simulation time: 0 hr 12 min 41 sec) 
Heartbeat CPU 0 instructions: 153000003 cycles: 1159171255 heartbeat IPC: 0.1544 cumulative IPC: 0.13119 (Simulation time: 0 hr 12 min 45 sec) 
Heartbeat CPU 0 instructions: 154000000 cycles: 1166250839 heartbeat IPC: 0.141251 cumulative IPC: 0.131251 (Simulation time: 0 hr 12 min 48 sec) 
Heartbeat CPU 0 instructions: 155000003 cycles: 1173481958 heartbeat IPC: 0.138292 cumulative IPC: 0.131294 (Simulation time: 0 hr 12 min 52 sec) 
Heartbeat CPU 0 instructions: 156000002 cycles: 1183028536 heartbeat IPC: 0.104749 cumulative IPC: 0.13108 (Simulation time: 0 hr 12 min 58 sec) 
Heartbeat CPU 0 instructions: 157000001 cycles: 1189743019 heartbeat IPC: 0.148932 cumulative IPC: 0.131181 (Simulation time: 0 hr 13 min 1 sec) 
Heartbeat CPU 0 instructions: 158000000 cycles: 1196830831 heartbeat IPC: 0.141087 cumulative IPC: 0.13124 (Simulation time: 0 hr 13 min 5 sec) 
Heartbeat CPU 0 instructions: 159000002 cycles: 1203992557 heartbeat IPC: 0.139631 cumulative IPC: 0.13129 (Simulation time: 0 hr 13 min 8 sec) 
Heartbeat CPU 0 instructions: 160000002 cycles: 1213571304 heartbeat IPC: 0.104398 cumulative IPC: 0.131077 (Simulation time: 0 hr 13 min 14 sec) 
Heartbeat CPU 0 instructions: 161000000 cycles: 1220051192 heartbeat IPC: 0.154323 cumulative IPC: 0.131201 (Simulation time: 0 hr 13 min 17 sec) 
Heartbeat CPU 0 instructions: 162000001 cycles: 1226458125 heartbeat IPC: 0.156081 cumulative IPC: 0.131331 (Simulation time: 0 hr 13 min 21 sec) 
Heartbeat CPU 0 instructions: 163000002 cycles: 1235840481 heartbeat IPC: 0.106583 cumulative IPC: 0.131143 (Simulation time: 0 hr 13 min 27 sec) 
Heartbeat CPU 0 instructions: 164000002 cycles: 1242819917 heartbeat IPC: 0.143278 cumulative IPC: 0.131211 (Simulation time: 0 hr 13 min 31 sec) 
Heartbeat CPU 0 instructions: 165000000 cycles: 1250475595 heartbeat IPC: 0.130622 cumulative IPC: 0.131207 (Simulation time: 0 hr 13 min 34 sec) 
Heartbeat CPU 0 instructions: 166000001 cycles: 1262776790 heartbeat IPC: 0.081293 cumulative IPC: 0.130721 (Simulation time: 0 hr 13 min 42 sec) 
Heartbeat CPU 0 instructions: 167000002 cycles: 1269250177 heartbeat IPC: 0.154479 cumulative IPC: 0.130842 (Simulation time: 0 hr 13 min 46 sec) 
Heartbeat CPU 0 instructions: 168000002 cycles: 1276435955 heartbeat IPC: 0.139164 cumulative IPC: 0.130889 (Simulation time: 0 hr 13 min 49 sec) 
Heartbeat CPU 0 instructions: 169000001 cycles: 1284066728 heartbeat IPC: 0.131048 cumulative IPC: 0.13089 (Simulation time: 0 hr 13 min 53 sec) 
Heartbeat CPU 0 instructions: 170000000 cycles: 1293340766 heartbeat IPC: 0.107828 cumulative IPC: 0.130725 (Simulation time: 0 hr 13 min 57 sec) 
Heartbeat CPU 0 instructions: 171000000 cycles: 1300833865 heartbeat IPC: 0.133456 cumulative IPC: 0.13074 (Simulation time: 0 hr 14 min 2 sec) 
Heartbeat CPU 0 instructions: 172000002 cycles: 1307705672 heartbeat IPC: 0.145522 cumulative IPC: 0.130818 (Simulation time: 0 hr 14 min 6 sec) 
Heartbeat CPU 0 instructions: 173000001 cycles: 1314756965 heartbeat IPC: 0.141818 cumulative IPC: 0.130877 (Simulation time: 0 hr 14 min 9 sec) 
Heartbeat CPU 0 instructions: 174000003 cycles: 1321876053 heartbeat IPC: 0.140468 cumulative IPC: 0.130929 (Simulation time: 0 hr 14 min 13 sec) 
Heartbeat CPU 0 instructions: 175000002 cycles: 1331378367 heartbeat IPC: 0.105237 cumulative IPC: 0.130745 (Simulation time: 0 hr 14 min 18 sec) 
Heartbeat CPU 0 instructions: 176000000 cycles: 1338223923 heartbeat IPC: 0.14608 cumulative IPC: 0.130824 (Simulation time: 0 hr 14 min 22 sec) 
Heartbeat CPU 0 instructions: 177000000 cycles: 1345295127 heartbeat IPC: 0.141419 cumulative IPC: 0.130879 (Simulation time: 0 hr 14 min 26 sec) 
Heartbeat CPU 0 instructions: 178000002 cycles: 1354821178 heartbeat IPC: 0.104976 cumulative IPC: 0.130697 (Simulation time: 0 hr 14 min 31 sec) 
Heartbeat CPU 0 instructions: 179000002 cycles: 1361805501 heartbeat IPC: 0.143178 cumulative IPC: 0.130761 (Simulation time: 0 hr 14 min 35 sec) 
Heartbeat CPU 0 instructions: 180000002 cycles: 1368219824 heartbeat IPC: 0.155901 cumulative IPC: 0.130879 (Simulation time: 0 hr 14 min 39 sec) 
Heartbeat CPU 0 instructions: 181000003 cycles: 1374618819 heartbeat IPC: 0.156275 cumulative IPC: 0.130997 (Simulation time: 0 hr 14 min 43 sec) 
Heartbeat CPU 0 instructions: 182000000 cycles: 1380766728 heartbeat IPC: 0.162656 cumulative IPC: 0.131138 (Simulation time: 0 hr 14 min 46 sec) 
Heartbeat CPU 0 instructions: 183000001 cycles: 1389850794 heartbeat IPC: 0.110083 cumulative IPC: 0.131001 (Simulation time: 0 hr 14 min 52 sec) 
Heartbeat CPU 0 instructions: 184000003 cycles: 1399157675 heartbeat IPC: 0.107448 cumulative IPC: 0.130844 (Simulation time: 0 hr 14 min 58 sec) 
Heartbeat CPU 0 instructions: 185000001 cycles: 1408585304 heartbeat IPC: 0.106071 cumulative IPC: 0.130678 (Simulation time: 0 hr 15 min 4 sec) 
Heartbeat CPU 0 instructions: 186000000 cycles: 1414983526 heartbeat IPC: 0.156293 cumulative IPC: 0.130794 (Simulation time: 0 hr 15 min 7 sec) 
Heartbeat CPU 0 instructions: 187000000 cycles: 1424245868 heartbeat IPC: 0.107964 cumulative IPC: 0.130646 (Simulation time: 0 hr 15 min 13 sec) 
Heartbeat CPU 0 instructions: 188000001 cycles: 1430840102 heartbeat IPC: 0.151648 cumulative IPC: 0.130742 (Simulation time: 0 hr 15 min 16 sec) 
Heartbeat CPU 0 instructions: 189000001 cycles: 1437539173 heartbeat IPC: 0.149274 cumulative IPC: 0.130829 (Simulation time: 0 hr 15 min 20 sec) 
Heartbeat CPU 0 instructions: 190000002 cycles: 1445555838 heartbeat IPC: 0.12474 cumulative IPC: 0.130795 (Simulation time: 0 hr 15 min 24 sec) 
Heartbeat CPU 0 instructions: 191000000 cycles: 1453593515 heartbeat IPC: 0.124414 cumulative IPC: 0.13076 (Simulation time: 0 hr 15 min 29 sec) 
Heartbeat CPU 0 instructions: 192000000 cycles: 1462846399 heartbeat IPC: 0.108074 cumulative IPC: 0.130616 (Simulation time: 0 hr 15 min 35 sec) 
Heartbeat CPU 0 instructions: 193000003 cycles: 1469123242 heartbeat IPC: 0.159316 cumulative IPC: 0.130739 (Simulation time: 0 hr 15 min 39 sec) 
Heartbeat CPU 0 instructions: 194000001 cycles: 1475677016 heartbeat IPC: 0.152584 cumulative IPC: 0.130836 (Simulation time: 0 hr 15 min 42 sec) 
Heartbeat CPU 0 instructions: 195000002 cycles: 1482312830 heartbeat IPC: 0.150698 cumulative IPC: 0.130925 (Simulation time: 0 hr 15 min 46 sec) 
Heartbeat CPU 0 instructions: 196000001 cycles: 1491589040 heartbeat IPC: 0.107803 cumulative IPC: 0.130781 (Simulation time: 0 hr 15 min 51 sec) 
Heartbeat CPU 0 instructions: 197000002 cycles: 1497827986 heartbeat IPC: 0.160284 cumulative IPC: 0.130904 (Simulation time: 0 hr 15 min 55 sec) 
Heartbeat CPU 0 instructions: 198000000 cycles: 1504357318 heartbeat IPC: 0.153155 cumulative IPC: 0.131 (Simulation time: 0 hr 15 min 59 sec) 
Heartbeat CPU 0 instructions: 199000002 cycles: 1510935640 heartbeat IPC: 0.152015 cumulative IPC: 0.131092 (Simulation time: 0 hr 16 min 3 sec) 
Heartbeat CPU 0 instructions: 200000000 cycles: 1517511103 heartbeat IPC: 0.15208 cumulative IPC: 0.131183 (Simulation time: 0 hr 16 min 7 sec) 
Heartbeat CPU 0 instructions: 201000001 cycles: 1526780630 heartbeat IPC: 0.10788 cumulative IPC: 0.131041 (Simulation time: 0 hr 16 min 12 sec) 
Heartbeat CPU 0 instructions: 202000001 cycles: 1536338077 heartbeat IPC: 0.10463 cumulative IPC: 0.130877 (Simulation time: 0 hr 16 min 18 sec) 
Heartbeat CPU 0 instructions: 203000003 cycles: 1543598152 heartbeat IPC: 0.13774 cumulative IPC: 0.130909 (Simulation time: 0 hr 16 min 22 sec) 
Heartbeat CPU 0 instructions: 204000001 cycles: 1552485108 heartbeat IPC: 0.112524 cumulative IPC: 0.130804 (Simulation time: 0 hr 16 min 27 sec) 
Heartbeat CPU 0 instructions: 205000003 cycles: 1559256004 heartbeat IPC: 0.147691 cumulative IPC: 0.130877 (Simulation time: 0 hr 16 min 31 sec) 
Heartbeat CPU 0 instructions: 206000000 cycles: 1566275613 heartbeat IPC: 0.142458 cumulative IPC: 0.130929 (Simulation time: 0 hr 16 min 35 sec) 
Heartbeat CPU 0 instructions: 207000000 cycles: 1573473342 heartbeat IPC: 0.138933 cumulative IPC: 0.130966 (Simulation time: 0 hr 16 min 38 sec) 
Heartbeat CPU 0 instructions: 208000001 cycles: 1580563484 heartbeat IPC: 0.141041 cumulative IPC: 0.131011 (Simulation time: 0 hr 16 min 42 sec) 
Heartbeat CPU 0 instructions: 209000000 cycles: 1589981898 heartbeat IPC: 0.106175 cumulative IPC: 0.130864 (Simulation time: 0 hr 16 min 47 sec) 
Heartbeat CPU 0 instructions: 210000000 cycles: 1596270546 heartbeat IPC: 0.159017 cumulative IPC: 0.130975 (Simulation time: 0 hr 16 min 51 sec) 
Heartbeat CPU 0 instructions: 211000000 cycles: 1602621187 heartbeat IPC: 0.157464 cumulative IPC: 0.13108 (Simulation time: 0 hr 16 min 55 sec) 
Heartbeat CPU 0 instructions: 212000000 cycles: 1609024523 heartbeat IPC: 0.156169 cumulative IPC: 0.13118 (Simulation time: 0 hr 16 min 58 sec) 
Heartbeat CPU 0 instructions: 213000003 cycles: 1618253711 heartbeat IPC: 0.108352 cumulative IPC: 0.13105 (Simulation time: 0 hr 17 min 4 sec) 
Heartbeat CPU 0 instructions: 214000000 cycles: 1624895865 heartbeat IPC: 0.150553 cumulative IPC: 0.131129 (Simulation time: 0 hr 17 min 8 sec) 
Heartbeat CPU 0 instructions: 215000000 cycles: 1634370911 heartbeat IPC: 0.10554 cumulative IPC: 0.130981 (Simulation time: 0 hr 17 min 14 sec) 
Heartbeat CPU 0 instructions: 216000001 cycles: 1641122878 heartbeat IPC: 0.148105 cumulative IPC: 0.131051 (Simulation time: 0 hr 17 min 17 sec) 
Heartbeat CPU 0 instructions: 217000001 cycles: 1647711409 heartbeat IPC: 0.151779 cumulative IPC: 0.131134 (Simulation time: 0 hr 17 min 21 sec) 
Heartbeat CPU 0 instructions: 218000003 cycles: 1657132413 heartbeat IPC: 0.106146 cumulative IPC: 0.130992 (Simulation time: 0 hr 17 min 27 sec) 
Heartbeat CPU 0 instructions: 219000001 cycles: 1663902183 heartbeat IPC: 0.147715 cumulative IPC: 0.13106 (Simulation time: 0 hr 17 min 31 sec) 
Heartbeat CPU 0 instructions: 220000000 cycles: 1670903492 heartbeat IPC: 0.14283 cumulative IPC: 0.13111 (Simulation time: 0 hr 17 min 34 sec) 
Heartbeat CPU 0 instructions: 221000003 cycles: 1680515192 heartbeat IPC: 0.10404 cumulative IPC: 0.130955 (Simulation time: 0 hr 17 min 40 sec) 
Heartbeat CPU 0 instructions: 222000000 cycles: 1689862438 heartbeat IPC: 0.106983 cumulative IPC: 0.130822 (Simulation time: 0 hr 17 min 46 sec) 
Heartbeat CPU 0 instructions: 223000000 cycles: 1696632821 heartbeat IPC: 0.147702 cumulative IPC: 0.13089 (Simulation time: 0 hr 17 min 49 sec) 
Heartbeat CPU 0 instructions: 224000002 cycles: 1703692799 heartbeat IPC: 0.141644 cumulative IPC: 0.130934 (Simulation time: 0 hr 17 min 53 sec) 
Heartbeat CPU 0 instructions: 225000000 cycles: 1710854199 heartbeat IPC: 0.139637 cumulative IPC: 0.130971 (Simulation time: 0 hr 17 min 56 sec) 
Heartbeat CPU 0 instructions: 226000003 cycles: 1720559886 heartbeat IPC: 0.103033 cumulative IPC: 0.130813 (Simulation time: 0 hr 18 min 2 sec) 
Heartbeat CPU 0 instructions: 227000000 cycles: 1727307565 heartbeat IPC: 0.148199 cumulative IPC: 0.130881 (Simulation time: 0 hr 18 min 5 sec) 
Heartbeat CPU 0 instructions: 228000003 cycles: 1734235032 heartbeat IPC: 0.144353 cumulative IPC: 0.130935 (Simulation time: 0 hr 18 min 9 sec) 
Heartbeat CPU 0 instructions: 229000002 cycles: 1741167939 heartbeat IPC: 0.14424 cumulative IPC: 0.130988 (Simulation time: 0 hr 18 min 13 sec) 
Heartbeat CPU 0 instructions: 230000003 cycles: 1747895084 heartbeat IPC: 0.148652 cumulative IPC: 0.131056 (Simulation time: 0 hr 18 min 16 sec) 
Heartbeat CPU 0 instructions: 231000000 cycles: 1755306683 heartbeat IPC: 0.134923 cumulative IPC: 0.131072 (Simulation time: 0 hr 18 min 20 sec) 
Heartbeat CPU 0 instructions: 232000000 cycles: 1763778861 heartbeat IPC: 0.118033 cumulative IPC: 0.131009 (Simulation time: 0 hr 18 min 25 sec) 
Heartbeat CPU 0 instructions: 233000000 cycles: 1770173266 heartbeat IPC: 0.156387 cumulative IPC: 0.131101 (Simulation time: 0 hr 18 min 29 sec) 
Heartbeat CPU 0 instructions: 234000003 cycles: 1776507839 heartbeat IPC: 0.157864 cumulative IPC: 0.131197 (Simulation time: 0 hr 18 min 33 sec) 
Heartbeat CPU 0 instructions: 235000000 cycles: 1782624271 heartbeat IPC: 0.163494 cumulative IPC: 0.131307 (Simulation time: 0 hr 18 min 37 sec) 
Heartbeat CPU 0 instructions: 236000003 cycles: 1791825391 heartbeat IPC: 0.108683 cumulative IPC: 0.131191 (Simulation time: 0 hr 18 min 43 sec) 
Heartbeat CPU 0 instructions: 237000000 cycles: 1798171983 heartbeat IPC: 0.157564 cumulative IPC: 0.131284 (Simulation time: 0 hr 18 min 46 sec) 
Heartbeat CPU 0 instructions: 238000003 cycles: 1804526018 heartbeat IPC: 0.157381 cumulative IPC: 0.131376 (Simulation time: 0 hr 18 min 50 sec) 
Heartbeat CPU 0 instructions: 239000000 cycles: 1810811175 heartbeat IPC: 0.159105 cumulative IPC: 0.131472 (Simulation time: 0 hr 18 min 54 sec) 
Heartbeat CPU 0 instructions: 240000000 cycles: 1818440834 heartbeat IPC: 0.131067 cumulative IPC: 0.131471 (Simulation time: 0 hr 18 min 58 sec) 
Heartbeat CPU 0 instructions: 241000003 cycles: 1826272429 heartbeat IPC: 0.127688 cumulative IPC: 0.131455 (Simulation time: 0 hr 19 min 3 sec) 
Heartbeat CPU 0 instructions: 242000000 cycles: 1833387720 heartbeat IPC: 0.140542 cumulative IPC: 0.13149 (Simulation time: 0 hr 19 min 7 sec) 
Heartbeat CPU 0 instructions: 243000001 cycles: 1840825761 heartbeat IPC: 0.134444 cumulative IPC: 0.131502 (Simulation time: 0 hr 19 min 11 sec) 
Heartbeat CPU 0 instructions: 244000001 cycles: 1850444934 heartbeat IPC: 0.103959 cumulative IPC: 0.131359 (Simulation time: 0 hr 19 min 15 sec) 
Heartbeat CPU 0 instructions: 245000000 cycles: 1857506580 heartbeat IPC: 0.14161 cumulative IPC: 0.131398 (Simulation time: 0 hr 19 min 20 sec) 
Heartbeat CPU 0 instructions: 246000000 cycles: 1864463144 heartbeat IPC: 0.143749 cumulative IPC: 0.131444 (Simulation time: 0 hr 19 min 23 sec) 
Heartbeat CPU 0 instructions: 247000000 cycles: 1871572171 heartbeat IPC: 0.140666 cumulative IPC: 0.131479 (Simulation time: 0 hr 19 min 27 sec) 
Heartbeat CPU 0 instructions: 248000001 cycles: 1878783219 heartbeat IPC: 0.138676 cumulative IPC: 0.131506 (Simulation time: 0 hr 19 min 31 sec) 
Heartbeat CPU 0 instructions: 249000002 cycles: 1887131409 heartbeat IPC: 0.119787 cumulative IPC: 0.131454 (Simulation time: 0 hr 19 min 35 sec) 
Heartbeat CPU 0 instructions: 250000002 cycles: 1895188543 heartbeat IPC: 0.124114 cumulative IPC: 0.131423 (Simulation time: 0 hr 19 min 42 sec) 
Heartbeat CPU 0 instructions: 251000000 cycles: 1904481828 heartbeat IPC: 0.107604 cumulative IPC: 0.131307 (Simulation time: 0 hr 19 min 51 sec) 
Heartbeat CPU 0 instructions: 252000001 cycles: 1911196244 heartbeat IPC: 0.148933 cumulative IPC: 0.131369 (Simulation time: 0 hr 19 min 58 sec) 
Heartbeat CPU 0 instructions: 253000000 cycles: 1920672178 heartbeat IPC: 0.10553 cumulative IPC: 0.131241 (Simulation time: 0 hr 20 min 7 sec) 
Heartbeat CPU 0 instructions: 254000001 cycles: 1933246641 heartbeat IPC: 0.0795263 cumulative IPC: 0.130905 (Simulation time: 0 hr 20 min 20 sec) 
Heartbeat CPU 0 instructions: 255000002 cycles: 1939817480 heartbeat IPC: 0.152188 cumulative IPC: 0.130977 (Simulation time: 0 hr 20 min 25 sec) 
Heartbeat CPU 0 instructions: 256000001 cycles: 1946724207 heartbeat IPC: 0.144786 cumulative IPC: 0.131026 (Simulation time: 0 hr 20 min 29 sec) 
Heartbeat CPU 0 instructions: 257000002 cycles: 1956380671 heartbeat IPC: 0.103558 cumulative IPC: 0.13089 (Simulation time: 0 hr 20 min 35 sec) 
Heartbeat CPU 0 instructions: 258000003 cycles: 1963034341 heartbeat IPC: 0.150293 cumulative IPC: 0.130956 (Simulation time: 0 hr 20 min 39 sec) 
Heartbeat CPU 0 instructions: 259000003 cycles: 1970089085 heartbeat IPC: 0.141749 cumulative IPC: 0.130995 (Simulation time: 0 hr 20 min 43 sec) 
Heartbeat CPU 0 instructions: 260000000 cycles: 1982391684 heartbeat IPC: 0.0812834 cumulative IPC: 0.130686 (Simulation time: 0 hr 20 min 51 sec) 
Heartbeat CPU 0 instructions: 261000001 cycles: 1990008478 heartbeat IPC: 0.131289 cumulative IPC: 0.130689 (Simulation time: 0 hr 20 min 55 sec) 
Heartbeat CPU 0 instructions: 262000000 cycles: 1998228367 heartbeat IPC: 0.121656 cumulative IPC: 0.130651 (Simulation time: 0 hr 21 min 1 sec) 
Heartbeat CPU 0 instructions: 263000001 cycles: 2005078151 heartbeat IPC: 0.14599 cumulative IPC: 0.130704 (Simulation time: 0 hr 21 min 5 sec) 
Heartbeat CPU 0 instructions: 264000000 cycles: 2011953544 heartbeat IPC: 0.145446 cumulative IPC: 0.130754 (Simulation time: 0 hr 21 min 8 sec) 
Heartbeat CPU 0 instructions: 265000001 cycles: 2019881534 heartbeat IPC: 0.126135 cumulative IPC: 0.130736 (Simulation time: 0 hr 21 min 12 sec) 
Heartbeat CPU 0 instructions: 266000000 cycles: 2028308497 heartbeat IPC: 0.118667 cumulative IPC: 0.130686 (Simulation time: 0 hr 21 min 18 sec) 
Heartbeat CPU 0 instructions: 267000002 cycles: 2035209738 heartbeat IPC: 0.144902 cumulative IPC: 0.130734 (Simulation time: 0 hr 21 min 22 sec) 
Heartbeat CPU 0 instructions: 268000001 cycles: 2042027369 heartbeat IPC: 0.146678 cumulative IPC: 0.130787 (Simulation time: 0 hr 21 min 26 sec) 
Heartbeat CPU 0 instructions: 269000000 cycles: 2048671165 heartbeat IPC: 0.150516 cumulative IPC: 0.130851 (Simulation time: 0 hr 21 min 29 sec) 
Heartbeat CPU 0 instructions: 270000000 cycles: 2055053868 heartbeat IPC: 0.156673 cumulative IPC: 0.130932 (Simulation time: 0 hr 21 min 33 sec) 
Heartbeat CPU 0 instructions: 271000002 cycles: 2064284411 heartbeat IPC: 0.108336 cumulative IPC: 0.130831 (Simulation time: 0 hr 21 min 39 sec) 
Heartbeat CPU 0 instructions: 272000000 cycles: 2071050453 heartbeat IPC: 0.147797 cumulative IPC: 0.130886 (Simulation time: 0 hr 21 min 43 sec) 
Heartbeat CPU 0 instructions: 273000000 cycles: 2080680023 heartbeat IPC: 0.103847 cumulative IPC: 0.130761 (Simulation time: 0 hr 21 min 49 sec) 
Heartbeat CPU 0 instructions: 274000003 cycles: 2087034922 heartbeat IPC: 0.157359 cumulative IPC: 0.130842 (Simulation time: 0 hr 21 min 53 sec) 
Heartbeat CPU 0 instructions: 275000000 cycles: 2093673719 heartbeat IPC: 0.150629 cumulative IPC: 0.130905 (Simulation time: 0 hr 21 min 57 sec) 
Heartbeat CPU 0 instructions: 276000000 cycles: 2102646176 heartbeat IPC: 0.111452 cumulative IPC: 0.130822 (Simulation time: 0 hr 22 min 2 sec) 
Heartbeat CPU 0 instructions: 277000001 cycles: 2109817398 heartbeat IPC: 0.139446 cumulative IPC: 0.130851 (Simulation time: 0 hr 22 min 6 sec) 
Heartbeat CPU 0 instructions: 278000002 cycles: 2116725025 heartbeat IPC: 0.144768 cumulative IPC: 0.130896 (Simulation time: 0 hr 22 min 10 sec) 
Heartbeat CPU 0 instructions: 279000001 cycles: 2126092218 heartbeat IPC: 0.106755 cumulative IPC: 0.13079 (Simulation time: 0 hr 22 min 19 sec) 
Heartbeat CPU 0 instructions: 280000001 cycles: 2133011307 heartbeat IPC: 0.144528 cumulative IPC: 0.130834 (Simulation time: 0 hr 22 min 26 sec) 
Heartbeat CPU 0 instructions: 281000000 cycles: 2140229253 heartbeat IPC: 0.138543 cumulative IPC: 0.13086 (Simulation time: 0 hr 22 min 32 sec) 
Heartbeat CPU 0 instructions: 282000003 cycles: 2149730648 heartbeat IPC: 0.105248 cumulative IPC: 0.130747 (Simulation time: 0 hr 22 min 42 sec) 
Heartbeat CPU 0 instructions: 283000001 cycles: 2156002747 heartbeat IPC: 0.159436 cumulative IPC: 0.130831 (Simulation time: 0 hr 22 min 49 sec) 
Heartbeat CPU 0 instructions: 284000000 cycles: 2162468569 heartbeat IPC: 0.154659 cumulative IPC: 0.130902 (Simulation time: 0 hr 22 min 55 sec) 
Heartbeat CPU 0 instructions: 285000001 cycles: 2171971663 heartbeat IPC: 0.105229 cumulative IPC: 0.13079 (Simulation time: 0 hr 23 min 6 sec) 
Heartbeat CPU 0 instructions: 286000000 cycles: 2178525841 heartbeat IPC: 0.152574 cumulative IPC: 0.130855 (Simulation time: 0 hr 23 min 12 sec) 
Heartbeat CPU 0 instructions: 287000000 cycles: 2185205545 heartbeat IPC: 0.149707 cumulative IPC: 0.130913 (Simulation time: 0 hr 23 min 15 sec) 
Heartbeat CPU 0 instructions: 288000001 cycles: 2191871787 heartbeat IPC: 0.15001 cumulative IPC: 0.130971 (Simulation time: 0 hr 23 min 19 sec) 
Heartbeat CPU 0 instructions: 289000001 cycles: 2199559079 heartbeat IPC: 0.130085 cumulative IPC: 0.130968 (Simulation time: 0 hr 23 min 23 sec) 
Heartbeat CPU 0 instructions: 290000000 cycles: 2210916203 heartbeat IPC: 0.0880504 cumulative IPC: 0.130747 (Simulation time: 0 hr 23 min 30 sec) 
Heartbeat CPU 0 instructions: 291000001 cycles: 2217478683 heartbeat IPC: 0.152382 cumulative IPC: 0.130811 (Simulation time: 0 hr 23 min 34 sec) 
Heartbeat CPU 0 instructions: 292000000 cycles: 2224677204 heartbeat IPC: 0.138917 cumulative IPC: 0.130838 (Simulation time: 0 hr 23 min 38 sec) 
Heartbeat CPU 0 instructions: 293000003 cycles: 2234124750 heartbeat IPC: 0.105848 cumulative IPC: 0.130732 (Simulation time: 0 hr 23 min 43 sec) 
Heartbeat CPU 0 instructions: 294000000 cycles: 2240908027 heartbeat IPC: 0.147421 cumulative IPC: 0.130782 (Simulation time: 0 hr 23 min 47 sec) 
Heartbeat CPU 0 instructions: 295000001 cycles: 2247823179 heartbeat IPC: 0.14461 cumulative IPC: 0.130825 (Simulation time: 0 hr 23 min 50 sec) 
Heartbeat CPU 0 instructions: 296000000 cycles: 2257125951 heartbeat IPC: 0.107495 cumulative IPC: 0.130729 (Simulation time: 0 hr 23 min 56 sec) 
Heartbeat CPU 0 instructions: 297000000 cycles: 2266746725 heartbeat IPC: 0.103942 cumulative IPC: 0.130615 (Simulation time: 0 hr 24 min 2 sec) 
Heartbeat CPU 0 instructions: 298000000 cycles: 2273223967 heartbeat IPC: 0.154387 cumulative IPC: 0.130683 (Simulation time: 0 hr 24 min 5 sec) 
Heartbeat CPU 0 instructions: 299000000 cycles: 2279799519 heartbeat IPC: 0.152078 cumulative IPC: 0.130745 (Simulation time: 0 hr 24 min 9 sec) 
Heartbeat CPU 0 instructions: 300000000 cycles: 2286320247 heartbeat IPC: 0.153357 cumulative IPC: 0.130809 (Simulation time: 0 hr 24 min 13 sec) 
Heartbeat CPU 0 instructions: 301000001 cycles: 2295745361 heartbeat IPC: 0.1061 cumulative IPC: 0.130708 (Simulation time: 0 hr 24 min 18 sec) 
Heartbeat CPU 0 instructions: 302000003 cycles: 2304388909 heartbeat IPC: 0.115693 cumulative IPC: 0.130651 (Simulation time: 0 hr 24 min 23 sec) 
Heartbeat CPU 0 instructions: 303000000 cycles: 2311552677 heartbeat IPC: 0.139591 cumulative IPC: 0.130679 (Simulation time: 0 hr 24 min 28 sec) 
Heartbeat CPU 0 instructions: 304000000 cycles: 2317978729 heartbeat IPC: 0.155617 cumulative IPC: 0.130748 (Simulation time: 0 hr 24 min 31 sec) 
Heartbeat CPU 0 instructions: 305000000 cycles: 2325002613 heartbeat IPC: 0.142371 cumulative IPC: 0.130783 (Simulation time: 0 hr 24 min 35 sec) 
Heartbeat CPU 0 instructions: 306000001 cycles: 2333793526 heartbeat IPC: 0.113754 cumulative IPC: 0.130719 (Simulation time: 0 hr 24 min 41 sec) 
Heartbeat CPU 0 instructions: 307000000 cycles: 2340526757 heartbeat IPC: 0.148517 cumulative IPC: 0.13077 (Simulation time: 0 hr 24 min 44 sec) 
Heartbeat CPU 0 instructions: 308000000 cycles: 2351843228 heartbeat IPC: 0.0883668 cumulative IPC: 0.130566 (Simulation time: 0 hr 24 min 51 sec) 
Heartbeat CPU 0 instructions: 309000002 cycles: 2359443100 heartbeat IPC: 0.131581 cumulative IPC: 0.13057 (Simulation time: 0 hr 24 min 56 sec) 
Heartbeat CPU 0 instructions: 310000002 cycles: 2366487640 heartbeat IPC: 0.141954 cumulative IPC: 0.130603 (Simulation time: 0 hr 25 min 0 sec) 
Heartbeat CPU 0 instructions: 311000000 cycles: 2376377534 heartbeat IPC: 0.101113 cumulative IPC: 0.130481 (Simulation time: 0 hr 25 min 5 sec) 
Heartbeat CPU 0 instructions: 312000001 cycles: 2383023107 heartbeat IPC: 0.150476 cumulative IPC: 0.130536 (Simulation time: 0 hr 25 min 9 sec) 
Heartbeat CPU 0 instructions: 313000002 cycles: 2389808736 heartbeat IPC: 0.14737 cumulative IPC: 0.130584 (Simulation time: 0 hr 25 min 13 sec) 
Heartbeat CPU 0 instructions: 314000000 cycles: 2396556680 heartbeat IPC: 0.148193 cumulative IPC: 0.130634 (Simulation time: 0 hr 25 min 17 sec) 
Heartbeat CPU 0 instructions: 315000001 cycles: 2402884560 heartbeat IPC: 0.158031 cumulative IPC: 0.130706 (Simulation time: 0 hr 25 min 20 sec) 
Heartbeat CPU 0 instructions: 316000001 cycles: 2408807070 heartbeat IPC: 0.168847 cumulative IPC: 0.1308 (Simulation time: 0 hr 25 min 24 sec) 
Heartbeat CPU 0 instructions: 317000002 cycles: 2418244747 heartbeat IPC: 0.105958 cumulative IPC: 0.130703 (Simulation time: 0 hr 25 min 30 sec) 
Heartbeat CPU 0 instructions: 318000002 cycles: 2427754668 heartbeat IPC: 0.105153 cumulative IPC: 0.130603 (Simulation time: 0 hr 25 min 35 sec) 
Heartbeat CPU 0 instructions: 319000000 cycles: 2433996574 heartbeat IPC: 0.160207 cumulative IPC: 0.130679 (Simulation time: 0 hr 25 min 39 sec) 
Heartbeat CPU 0 instructions: 320000000 cycles: 2440481168 heartbeat IPC: 0.154212 cumulative IPC: 0.130741 (Simulation time: 0 hr 25 min 43 sec) 
Heartbeat CPU 0 instructions: 321000000 cycles: 2447014178 heartbeat IPC: 0.153069 cumulative IPC: 0.130801 (Simulation time: 0 hr 25 min 46 sec) 
Heartbeat CPU 0 instructions: 322000001 cycles: 2453626742 heartbeat IPC: 0.151227 cumulative IPC: 0.130856 (Simulation time: 0 hr 25 min 50 sec) 
Heartbeat CPU 0 instructions: 323000003 cycles: 2462239843 heartbeat IPC: 0.116102 cumulative IPC: 0.130804 (Simulation time: 0 hr 25 min 55 sec) 
Heartbeat CPU 0 instructions: 324000002 cycles: 2469434570 heartbeat IPC: 0.138991 cumulative IPC: 0.130828 (Simulation time: 0 hr 25 min 59 sec) 
Heartbeat CPU 0 instructions: 325000003 cycles: 2476346696 heartbeat IPC: 0.144673 cumulative IPC: 0.130867 (Simulation time: 0 hr 26 min 3 sec) 
Heartbeat CPU 0 instructions: 326000000 cycles: 2483363367 heartbeat IPC: 0.142517 cumulative IPC: 0.1309 (Simulation time: 0 hr 26 min 7 sec) 
Heartbeat CPU 0 instructions: 327000000 cycles: 2492961518 heartbeat IPC: 0.104187 cumulative IPC: 0.130797 (Simulation time: 0 hr 26 min 13 sec) 
Heartbeat CPU 0 instructions: 328000002 cycles: 2499748910 heartbeat IPC: 0.147332 cumulative IPC: 0.130842 (Simulation time: 0 hr 26 min 16 sec) 
Heartbeat CPU 0 instructions: 329000002 cycles: 2506961798 heartbeat IPC: 0.138641 cumulative IPC: 0.130864 (Simulation time: 0 hr 26 min 20 sec) 
Heartbeat CPU 0 instructions: 330000000 cycles: 2513768266 heartbeat IPC: 0.146919 cumulative IPC: 0.130908 (Simulation time: 0 hr 26 min 24 sec) 
Heartbeat CPU 0 instructions: 331000000 cycles: 2520597706 heartbeat IPC: 0.146425 cumulative IPC: 0.13095 (Simulation time: 0 hr 26 min 27 sec) 
Heartbeat CPU 0 instructions: 332000000 cycles: 2530043633 heartbeat IPC: 0.105866 cumulative IPC: 0.130856 (Simulation time: 0 hr 26 min 33 sec) 
Heartbeat CPU 0 instructions: 333000002 cycles: 2536773190 heartbeat IPC: 0.148598 cumulative IPC: 0.130903 (Simulation time: 0 hr 26 min 36 sec) 
Heartbeat CPU 0 instructions: 334000002 cycles: 2546246240 heartbeat IPC: 0.105563 cumulative IPC: 0.130809 (Simulation time: 0 hr 26 min 42 sec) 
Heartbeat CPU 0 instructions: 335000003 cycles: 2552882302 heartbeat IPC: 0.150692 cumulative IPC: 0.130861 (Simulation time: 0 hr 26 min 46 sec) 
Heartbeat CPU 0 instructions: 336000002 cycles: 2559421963 heartbeat IPC: 0.152913 cumulative IPC: 0.130917 (Simulation time: 0 hr 26 min 49 sec) 
Heartbeat CPU 0 instructions: 337000001 cycles: 2566000451 heartbeat IPC: 0.15201 cumulative IPC: 0.130971 (Simulation time: 0 hr 26 min 53 sec) 
Heartbeat CPU 0 instructions: 338000001 cycles: 2572565318 heartbeat IPC: 0.152326 cumulative IPC: 0.131025 (Simulation time: 0 hr 26 min 57 sec) 
Heartbeat CPU 0 instructions: 339000001 cycles: 2581808427 heartbeat IPC: 0.108189 cumulative IPC: 0.130944 (Simulation time: 0 hr 27 min 2 sec) 
Heartbeat CPU 0 instructions: 340000001 cycles: 2588379453 heartbeat IPC: 0.152183 cumulative IPC: 0.130998 (Simulation time: 0 hr 27 min 6 sec) 
Heartbeat CPU 0 instructions: 341000000 cycles: 2597151479 heartbeat IPC: 0.113999 cumulative IPC: 0.13094 (Simulation time: 0 hr 27 min 11 sec) 
Heartbeat CPU 0 instructions: 342000002 cycles: 2604590280 heartbeat IPC: 0.134431 cumulative IPC: 0.13095 (Simulation time: 0 hr 27 min 16 sec) 
Heartbeat CPU 0 instructions: 343000000 cycles: 2611405954 heartbeat IPC: 0.14672 cumulative IPC: 0.130991 (Simulation time: 0 hr 27 min 19 sec) 
Heartbeat CPU 0 instructions: 344000003 cycles: 2618262934 heartbeat IPC: 0.145837 cumulative IPC: 0.13103 (Simulation time: 0 hr 27 min 23 sec) 
Heartbeat CPU 0 instructions: 345000002 cycles: 2625601430 heartbeat IPC: 0.136268 cumulative IPC: 0.131045 (Simulation time: 0 hr 27 min 27 sec) 
Heartbeat CPU 0 instructions: 346000000 cycles: 2634626556 heartbeat IPC: 0.110802 cumulative IPC: 0.130975 (Simulation time: 0 hr 27 min 33 sec) 
Heartbeat CPU 0 instructions: 347000000 cycles: 2641439200 heartbeat IPC: 0.146786 cumulative IPC: 0.131016 (Simulation time: 0 hr 27 min 36 sec) 
Heartbeat CPU 0 instructions: 348000001 cycles: 2648438388 heartbeat IPC: 0.142874 cumulative IPC: 0.131048 (Simulation time: 0 hr 27 min 40 sec) 
Heartbeat CPU 0 instructions: 349000000 cycles: 2657984156 heartbeat IPC: 0.104758 cumulative IPC: 0.130953 (Simulation time: 0 hr 27 min 46 sec) 
Heartbeat CPU 0 instructions: 350000002 cycles: 2664730426 heartbeat IPC: 0.14823 cumulative IPC: 0.130997 (Simulation time: 0 hr 27 min 50 sec) 
Heartbeat CPU 0 instructions: 351000002 cycles: 2674068297 heartbeat IPC: 0.107091 cumulative IPC: 0.130913 (Simulation time: 0 hr 27 min 55 sec) 
Heartbeat CPU 0 instructions: 352000000 cycles: 2680917954 heartbeat IPC: 0.145992 cumulative IPC: 0.130952 (Simulation time: 0 hr 28 min 0 sec) 
Heartbeat CPU 0 instructions: 353000002 cycles: 2688088806 heartbeat IPC: 0.139454 cumulative IPC: 0.130975 (Simulation time: 0 hr 28 min 3 sec) 
Heartbeat CPU 0 instructions: 354000000 cycles: 2695789932 heartbeat IPC: 0.129851 cumulative IPC: 0.130971 (Simulation time: 0 hr 28 min 7 sec) 
Heartbeat CPU 0 instructions: 355000000 cycles: 2705700405 heartbeat IPC: 0.100903 cumulative IPC: 0.130861 (Simulation time: 0 hr 28 min 13 sec) 
Heartbeat CPU 0 instructions: 356000000 cycles: 2712172484 heartbeat IPC: 0.15451 cumulative IPC: 0.130918 (Simulation time: 0 hr 28 min 19 sec) 
Heartbeat CPU 0 instructions: 357000000 cycles: 2719124627 heartbeat IPC: 0.143841 cumulative IPC: 0.130951 (Simulation time: 0 hr 28 min 26 sec) 
Heartbeat CPU 0 instructions: 358000000 cycles: 2726246394 heartbeat IPC: 0.140415 cumulative IPC: 0.130976 (Simulation time: 0 hr 28 min 29 sec) 
Heartbeat CPU 0 instructions: 359000000 cycles: 2733452635 heartbeat IPC: 0.138769 cumulative IPC: 0.130996 (Simulation time: 0 hr 28 min 33 sec) 
Heartbeat CPU 0 instructions: 360000000 cycles: 2743021817 heartbeat IPC: 0.104502 cumulative IPC: 0.130904 (Simulation time: 0 hr 28 min 39 sec) 
Heartbeat CPU 0 instructions: 361000003 cycles: 2749697012 heartbeat IPC: 0.149809 cumulative IPC: 0.13095 (Simulation time: 0 hr 28 min 43 sec) 
Heartbeat CPU 0 instructions: 362000001 cycles: 2756683994 heartbeat IPC: 0.143123 cumulative IPC: 0.13098 (Simulation time: 0 hr 28 min 47 sec) 
Heartbeat CPU 0 instructions: 363000000 cycles: 2766251795 heartbeat IPC: 0.104517 cumulative IPC: 0.130889 (Simulation time: 0 hr 28 min 52 sec) 
Heartbeat CPU 0 instructions: 364000001 cycles: 2772970293 heartbeat IPC: 0.148843 cumulative IPC: 0.130932 (Simulation time: 0 hr 28 min 56 sec) 
Heartbeat CPU 0 instructions: 365000002 cycles: 2779916335 heartbeat IPC: 0.143967 cumulative IPC: 0.130965 (Simulation time: 0 hr 29 min 0 sec) 
Heartbeat CPU 0 instructions: 366000001 cycles: 2787039585 heartbeat IPC: 0.140385 cumulative IPC: 0.130989 (Simulation time: 0 hr 29 min 4 sec) 
Heartbeat CPU 0 instructions: 367000000 cycles: 2794141872 heartbeat IPC: 0.1408 cumulative IPC: 0.131014 (Simulation time: 0 hr 29 min 8 sec) 
Heartbeat CPU 0 instructions: 368000002 cycles: 2803966716 heartbeat IPC: 0.101783 cumulative IPC: 0.130911 (Simulation time: 0 hr 29 min 14 sec) 
Heartbeat CPU 0 instructions: 369000000 cycles: 2810605004 heartbeat IPC: 0.150641 cumulative IPC: 0.130958 (Simulation time: 0 hr 29 min 17 sec) 
Heartbeat CPU 0 instructions: 370000001 cycles: 2817860390 heartbeat IPC: 0.137829 cumulative IPC: 0.130976 (Simulation time: 0 hr 29 min 21 sec) 
Heartbeat CPU 0 instructions: 371000000 cycles: 2828342676 heartbeat IPC: 0.0953989 cumulative IPC: 0.130844 (Simulation time: 0 hr 29 min 28 sec) 
Heartbeat CPU 0 instructions: 372000002 cycles: 2836735555 heartbeat IPC: 0.119149 cumulative IPC: 0.130809 (Simulation time: 0 hr 29 min 33 sec) 
Heartbeat CPU 0 instructions: 373000003 cycles: 2843547958 heartbeat IPC: 0.146791 cumulative IPC: 0.130848 (Simulation time: 0 hr 29 min 37 sec) 
Heartbeat CPU 0 instructions: 374000000 cycles: 2850525986 heartbeat IPC: 0.143307 cumulative IPC: 0.130878 (Simulation time: 0 hr 29 min 41 sec) 
Heartbeat CPU 0 instructions: 375000002 cycles: 2857702396 heartbeat IPC: 0.139346 cumulative IPC: 0.130899 (Simulation time: 0 hr 29 min 45 sec) 
Heartbeat CPU 0 instructions: 376000001 cycles: 2867390677 heartbeat IPC: 0.103217 cumulative IPC: 0.130806 (Simulation time: 0 hr 29 min 51 sec) 
Heartbeat CPU 0 instructions: 377000001 cycles: 2873974919 heartbeat IPC: 0.151878 cumulative IPC: 0.130854 (Simulation time: 0 hr 29 min 54 sec) 
Heartbeat CPU 0 instructions: 378000000 cycles: 2880869244 heartbeat IPC: 0.145047 cumulative IPC: 0.130888 (Simulation time: 0 hr 29 min 58 sec) 
Heartbeat CPU 0 instructions: 379000003 cycles: 2890201875 heartbeat IPC: 0.107151 cumulative IPC: 0.130811 (Simulation time: 0 hr 30 min 4 sec) 
Heartbeat CPU 0 instructions: 380000000 cycles: 2899617393 heartbeat IPC: 0.106207 cumulative IPC: 0.130732 (Simulation time: 0 hr 30 min 10 sec) 
Heartbeat CPU 0 instructions: 381000001 cycles: 2906147926 heartbeat IPC: 0.153127 cumulative IPC: 0.130782 (Simulation time: 0 hr 30 min 14 sec) 
Heartbeat CPU 0 instructions: 382000002 cycles: 2913031969 heartbeat IPC: 0.145264 cumulative IPC: 0.130816 (Simulation time: 0 hr 30 min 18 sec) 
Heartbeat CPU 0 instructions: 383000000 cycles: 2920091737 heartbeat IPC: 0.141647 cumulative IPC: 0.130842 (Simulation time: 0 hr 30 min 22 sec) 
Heartbeat CPU 0 instructions: 384000001 cycles: 2927290262 heartbeat IPC: 0.138917 cumulative IPC: 0.130862 (Simulation time: 0 hr 30 min 25 sec) 
Heartbeat CPU 0 instructions: 385000000 cycles: 2936968670 heartbeat IPC: 0.103323 cumulative IPC: 0.130771 (Simulation time: 0 hr 30 min 31 sec) 
Heartbeat CPU 0 instructions: 386000000 cycles: 2943655537 heartbeat IPC: 0.149547 cumulative IPC: 0.130814 (Simulation time: 0 hr 30 min 35 sec) 
Heartbeat CPU 0 instructions: 387000000 cycles: 2950608045 heartbeat IPC: 0.143833 cumulative IPC: 0.130845 (Simulation time: 0 hr 30 min 39 sec) 
Heartbeat CPU 0 instructions: 388000002 cycles: 2960360689 heartbeat IPC: 0.102536 cumulative IPC: 0.130751 (Simulation time: 0 hr 30 min 45 sec) 
Heartbeat CPU 0 instructions: 389000001 cycles: 2966838962 heartbeat IPC: 0.154362 cumulative IPC: 0.130803 (Simulation time: 0 hr 30 min 49 sec) 
Heartbeat CPU 0 instructions: 390000000 cycles: 2973667466 heartbeat IPC: 0.146445 cumulative IPC: 0.130839 (Simulation time: 0 hr 30 min 53 sec) 
Heartbeat CPU 0 instructions: 391000000 cycles: 2980754705 heartbeat IPC: 0.141099 cumulative IPC: 0.130863 (Simulation time: 0 hr 30 min 56 sec) 
Heartbeat CPU 0 instructions: 392000002 cycles: 2990618725 heartbeat IPC: 0.101379 cumulative IPC: 0.130766 (Simulation time: 0 hr 31 min 2 sec) 
Heartbeat CPU 0 instructions: 393000002 cycles: 2997125238 heartbeat IPC: 0.153692 cumulative IPC: 0.130816 (Simulation time: 0 hr 31 min 6 sec) 
Heartbeat CPU 0 instructions: 394000001 cycles: 3003634214 heartbeat IPC: 0.153634 cumulative IPC: 0.130865 (Simulation time: 0 hr 31 min 10 sec) 
Heartbeat CPU 0 instructions: 395000000 cycles: 3010168036 heartbeat IPC: 0.15305 cumulative IPC: 0.130913 (Simulation time: 0 hr 31 min 14 sec) 
Heartbeat CPU 0 instructions: 396000000 cycles: 3019497607 heartbeat IPC: 0.107186 cumulative IPC: 0.13084 (Simulation time: 0 hr 31 min 23 sec) 
Heartbeat CPU 0 instructions: 397000000 cycles: 3026198761 heartbeat IPC: 0.149228 cumulative IPC: 0.130881 (Simulation time: 0 hr 31 min 30 sec) 
Heartbeat CPU 0 instructions: 398000001 cycles: 3033444262 heartbeat IPC: 0.138017 cumulative IPC: 0.130898 (Simulation time: 0 hr 31 min 37 sec) 
Heartbeat CPU 0 instructions: 399000001 cycles: 3040944675 heartbeat IPC: 0.133326 cumulative IPC: 0.130904 (Simulation time: 0 hr 31 min 44 sec) 
Heartbeat CPU 0 instructions: 400000002 cycles: 3048011038 heartbeat IPC: 0.141516 cumulative IPC: 0.130929 (Simulation time: 0 hr 31 min 51 sec) 
Heartbeat CPU 0 instructions: 401000000 cycles: 3057356387 heartbeat IPC: 0.107005 cumulative IPC: 0.130855 (Simulation time: 0 hr 32 min 2 sec) 
Heartbeat CPU 0 instructions: 402000000 cycles: 3064160045 heartbeat IPC: 0.14698 cumulative IPC: 0.130891 (Simulation time: 0 hr 32 min 9 sec) 
Heartbeat CPU 0 instructions: 403000003 cycles: 3071156182 heartbeat IPC: 0.142936 cumulative IPC: 0.130919 (Simulation time: 0 hr 32 min 16 sec) 
Heartbeat CPU 0 instructions: 404000000 cycles: 3079794695 heartbeat IPC: 0.11576 cumulative IPC: 0.130876 (Simulation time: 0 hr 32 min 24 sec) 
Heartbeat CPU 0 instructions: 405000002 cycles: 3087623904 heartbeat IPC: 0.127727 cumulative IPC: 0.130868 (Simulation time: 0 hr 32 min 33 sec) 
Heartbeat CPU 0 instructions: 406000001 cycles: 3094555878 heartbeat IPC: 0.144259 cumulative IPC: 0.130898 (Simulation time: 0 hr 32 min 40 sec) 
Heartbeat CPU 0 instructions: 407000000 cycles: 3104245584 heartbeat IPC: 0.103202 cumulative IPC: 0.130812 (Simulation time: 0 hr 32 min 51 sec) 
Heartbeat CPU 0 instructions: 408000000 cycles: 3110830612 heartbeat IPC: 0.15186 cumulative IPC: 0.130856 (Simulation time: 0 hr 32 min 58 sec) 
Heartbeat CPU 0 instructions: 409000003 cycles: 3117625422 heartbeat IPC: 0.147172 cumulative IPC: 0.130892 (Simulation time: 0 hr 33 min 5 sec) 
Heartbeat CPU 0 instructions: 410000001 cycles: 3127182942 heartbeat IPC: 0.104629 cumulative IPC: 0.130811 (Simulation time: 0 hr 33 min 16 sec) 
Heartbeat CPU 0 instructions: 411000000 cycles: 3133776831 heartbeat IPC: 0.151655 cumulative IPC: 0.130855 (Simulation time: 0 hr 33 min 23 sec) 
Heartbeat CPU 0 instructions: 412000002 cycles: 3140653708 heartbeat IPC: 0.145415 cumulative IPC: 0.130887 (Simulation time: 0 hr 33 min 30 sec) 
Heartbeat CPU 0 instructions: 413000001 cycles: 3150152419 heartbeat IPC: 0.105277 cumulative IPC: 0.13081 (Simulation time: 0 hr 33 min 41 sec) 
Heartbeat CPU 0 instructions: 414000002 cycles: 3159680260 heartbeat IPC: 0.104956 cumulative IPC: 0.130732 (Simulation time: 0 hr 33 min 52 sec) 
Heartbeat CPU 0 instructions: 415000002 cycles: 3166216698 heartbeat IPC: 0.152989 cumulative IPC: 0.130778 (Simulation time: 0 hr 33 min 59 sec) 
Heartbeat CPU 0 instructions: 416000002 cycles: 3173147673 heartbeat IPC: 0.14428 cumulative IPC: 0.130807 (Simulation time: 0 hr 34 min 6 sec) 
Heartbeat CPU 0 instructions: 417000001 cycles: 3180225458 heartbeat IPC: 0.141287 cumulative IPC: 0.130831 (Simulation time: 0 hr 34 min 13 sec) 
Heartbeat CPU 0 instructions: 418000000 cycles: 3187247737 heartbeat IPC: 0.142404 cumulative IPC: 0.130856 (Simulation time: 0 hr 34 min 21 sec) 
Heartbeat CPU 0 instructions: 419000000 cycles: 3197006834 heartbeat IPC: 0.102468 cumulative IPC: 0.13077 (Simulation time: 0 hr 34 min 31 sec) 
Heartbeat CPU 0 instructions: 420000000 cycles: 3206264721 heartbeat IPC: 0.108016 cumulative IPC: 0.130704 (Simulation time: 0 hr 34 min 42 sec) 
Heartbeat CPU 0 instructions: 421000002 cycles: 3212892930 heartbeat IPC: 0.150871 cumulative IPC: 0.130746 (Simulation time: 0 hr 34 min 49 sec) 
Heartbeat CPU 0 instructions: 422000001 cycles: 3219866184 heartbeat IPC: 0.143405 cumulative IPC: 0.130773 (Simulation time: 0 hr 34 min 56 sec) 
Heartbeat CPU 0 instructions: 423000001 cycles: 3226873870 heartbeat IPC: 0.1427 cumulative IPC: 0.130799 (Simulation time: 0 hr 35 min 4 sec) 
Heartbeat CPU 0 instructions: 424000002 cycles: 3233830870 heartbeat IPC: 0.14374 cumulative IPC: 0.130827 (Simulation time: 0 hr 35 min 11 sec) 
Heartbeat CPU 0 instructions: 425000001 cycles: 3243216585 heartbeat IPC: 0.106545 cumulative IPC: 0.130756 (Simulation time: 0 hr 35 min 22 sec) 
Heartbeat CPU 0 instructions: 426000000 cycles: 3249998608 heartbeat IPC: 0.147448 cumulative IPC: 0.130791 (Simulation time: 0 hr 35 min 29 sec) 
Heartbeat CPU 0 instructions: 427000000 cycles: 3257360873 heartbeat IPC: 0.135828 cumulative IPC: 0.130803 (Simulation time: 0 hr 35 min 36 sec) 
Heartbeat CPU 0 instructions: 428000003 cycles: 3264563281 heartbeat IPC: 0.138843 cumulative IPC: 0.13082 (Simulation time: 0 hr 35 min 43 sec) 
Heartbeat CPU 0 instructions: 429000000 cycles: 3274325966 heartbeat IPC: 0.102431 cumulative IPC: 0.130736 (Simulation time: 0 hr 35 min 54 sec) 
Heartbeat CPU 0 instructions: 430000001 cycles: 3281024008 heartbeat IPC: 0.149298 cumulative IPC: 0.130774 (Simulation time: 0 hr 36 min 1 sec) 
Heartbeat CPU 0 instructions: 431000001 cycles: 3287833444 heartbeat IPC: 0.146855 cumulative IPC: 0.130807 (Simulation time: 0 hr 36 min 8 sec) 
Heartbeat CPU 0 instructions: 432000002 cycles: 3294519264 heartbeat IPC: 0.14957 cumulative IPC: 0.130845 (Simulation time: 0 hr 36 min 16 sec) 
Heartbeat CPU 0 instructions: 433000002 cycles: 3304305292 heartbeat IPC: 0.102187 cumulative IPC: 0.13076 (Simulation time: 0 hr 36 min 26 sec) 
Heartbeat CPU 0 instructions: 434000001 cycles: 3313149546 heartbeat IPC: 0.113068 cumulative IPC: 0.130713 (Simulation time: 0 hr 36 min 37 sec) 
Heartbeat CPU 0 instructions: 435000001 cycles: 3319497671 heartbeat IPC: 0.157527 cumulative IPC: 0.130764 (Simulation time: 0 hr 36 min 44 sec) 
Heartbeat CPU 0 instructions: 436000000 cycles: 3328811366 heartbeat IPC: 0.107369 cumulative IPC: 0.130699 (Simulation time: 0 hr 36 min 55 sec) 
Heartbeat CPU 0 instructions: 437000000 cycles: 3335439693 heartbeat IPC: 0.150868 cumulative IPC: 0.130739 (Simulation time: 0 hr 37 min 2 sec) 
Heartbeat CPU 0 instructions: 438000001 cycles: 3342373211 heartbeat IPC: 0.144227 cumulative IPC: 0.130767 (Simulation time: 0 hr 37 min 9 sec) 
Heartbeat CPU 0 instructions: 439000002 cycles: 3349269298 heartbeat IPC: 0.14501 cumulative IPC: 0.130796 (Simulation time: 0 hr 37 min 16 sec) 
Heartbeat CPU 0 instructions: 440000000 cycles: 3358625445 heartbeat IPC: 0.106881 cumulative IPC: 0.130729 (Simulation time: 0 hr 37 min 27 sec) 
Heartbeat CPU 0 instructions: 441000000 cycles: 3367054228 heartbeat IPC: 0.118641 cumulative IPC: 0.130699 (Simulation time: 0 hr 37 min 35 sec) 
Heartbeat CPU 0 instructions: 442000000 cycles: 3374693741 heartbeat IPC: 0.130898 cumulative IPC: 0.1307 (Simulation time: 0 hr 37 min 45 sec) 
Heartbeat CPU 0 instructions: 443000003 cycles: 3381446677 heartbeat IPC: 0.148084 cumulative IPC: 0.130734 (Simulation time: 0 hr 37 min 52 sec) 
Heartbeat CPU 0 instructions: 444000000 cycles: 3388478649 heartbeat IPC: 0.142207 cumulative IPC: 0.130758 (Simulation time: 0 hr 37 min 59 sec) 
Heartbeat CPU 0 instructions: 445000000 cycles: 3395603093 heartbeat IPC: 0.140362 cumulative IPC: 0.130778 (Simulation time: 0 hr 38 min 6 sec) 
Heartbeat CPU 0 instructions: 446000000 cycles: 3403470501 heartbeat IPC: 0.127107 cumulative IPC: 0.13077 (Simulation time: 0 hr 38 min 14 sec) 
Heartbeat CPU 0 instructions: 447000000 cycles: 3412010747 heartbeat IPC: 0.117093 cumulative IPC: 0.130736 (Simulation time: 0 hr 38 min 24 sec) 
Heartbeat CPU 0 instructions: 448000002 cycles: 3418924998 heartbeat IPC: 0.144629 cumulative IPC: 0.130764 (Simulation time: 0 hr 38 min 31 sec) 
Heartbeat CPU 0 instructions: 449000001 cycles: 3425973677 heartbeat IPC: 0.14187 cumulative IPC: 0.130787 (Simulation time: 0 hr 38 min 38 sec) 
Heartbeat CPU 0 instructions: 450000002 cycles: 3435847196 heartbeat IPC: 0.101281 cumulative IPC: 0.130702 (Simulation time: 0 hr 38 min 48 sec) 

Warmup complete CPU 0 instructions: 450000002 cycles: 3435847196 (Simulation time: 0 hr 38 min 48 sec) 

Heartbeat CPU 0 instructions: 451000000 cycles: 3440147084 heartbeat IPC: 0.232564 cumulative IPC: 0.232564 (Simulation time: 0 hr 38 min 55 sec) 
Heartbeat CPU 0 instructions: 452000001 cycles: 3444511858 heartbeat IPC: 0.229107 cumulative IPC: 0.230823 (Simulation time: 0 hr 39 min 1 sec) 
Heartbeat CPU 0 instructions: 453000003 cycles: 3449398395 heartbeat IPC: 0.204644 cumulative IPC: 0.221383 (Simulation time: 0 hr 39 min 7 sec) 
Heartbeat CPU 0 instructions: 454000003 cycles: 3457458405 heartbeat IPC: 0.124069 cumulative IPC: 0.185089 (Simulation time: 0 hr 39 min 17 sec) 
Heartbeat CPU 0 instructions: 455000001 cycles: 3463117614 heartbeat IPC: 0.176703 cumulative IPC: 0.183349 (Simulation time: 0 hr 39 min 23 sec) 
Heartbeat CPU 0 instructions: 456000000 cycles: 3469821235 heartbeat IPC: 0.149173 cumulative IPC: 0.176605 (Simulation time: 0 hr 39 min 33 sec) 
Heartbeat CPU 0 instructions: 457000000 cycles: 3475927555 heartbeat IPC: 0.163765 cumulative IPC: 0.174649 (Simulation time: 0 hr 39 min 40 sec) 
Heartbeat CPU 0 instructions: 458000003 cycles: 3481545224 heartbeat IPC: 0.17801 cumulative IPC: 0.175062 (Simulation time: 0 hr 39 min 49 sec) 
Heartbeat CPU 0 instructions: 459000000 cycles: 3485446252 heartbeat IPC: 0.256342 cumulative IPC: 0.181455 (Simulation time: 0 hr 39 min 55 sec) 
Heartbeat CPU 0 instructions: 460000002 cycles: 3493049639 heartbeat IPC: 0.131521 cumulative IPC: 0.174818 (Simulation time: 0 hr 40 min 4 sec) 
Heartbeat CPU 0 instructions: 461000001 cycles: 3497453781 heartbeat IPC: 0.227059 cumulative IPC: 0.178552 (Simulation time: 0 hr 40 min 11 sec) 
Heartbeat CPU 0 instructions: 462000000 cycles: 3502408010 heartbeat IPC: 0.201848 cumulative IPC: 0.180286 (Simulation time: 0 hr 40 min 17 sec) 
Heartbeat CPU 0 instructions: 463000001 cycles: 3510490759 heartbeat IPC: 0.12372 cumulative IPC: 0.174161 (Simulation time: 0 hr 40 min 26 sec) 
Heartbeat CPU 0 instructions: 464000002 cycles: 3515771757 heartbeat IPC: 0.189358 cumulative IPC: 0.175165 (Simulation time: 0 hr 40 min 33 sec) 
Heartbeat CPU 0 instructions: 465000002 cycles: 3520741026 heartbeat IPC: 0.201237 cumulative IPC: 0.176691 (Simulation time: 0 hr 40 min 40 sec) 
Heartbeat CPU 0 instructions: 466000001 cycles: 3526517423 heartbeat IPC: 0.173118 cumulative IPC: 0.176464 (Simulation time: 0 hr 40 min 46 sec) 
Heartbeat CPU 0 instructions: 467000003 cycles: 3532744894 heartbeat IPC: 0.160579 cumulative IPC: 0.175443 (Simulation time: 0 hr 40 min 55 sec) 
Heartbeat CPU 0 instructions: 468000000 cycles: 3537086615 heartbeat IPC: 0.230323 cumulative IPC: 0.177796 (Simulation time: 0 hr 41 min 1 sec) 
Heartbeat CPU 0 instructions: 469000000 cycles: 3541936387 heartbeat IPC: 0.206195 cumulative IPC: 0.179095 (Simulation time: 0 hr 41 min 8 sec) 
Heartbeat CPU 0 instructions: 470000002 cycles: 3547285444 heartbeat IPC: 0.186949 cumulative IPC: 0.179472 (Simulation time: 0 hr 41 min 14 sec) 
Heartbeat CPU 0 instructions: 471000000 cycles: 3555235434 heartbeat IPC: 0.125786 cumulative IPC: 0.175897 (Simulation time: 0 hr 41 min 24 sec) 
Heartbeat CPU 0 instructions: 472000000 cycles: 3562974546 heartbeat IPC: 0.129214 cumulative IPC: 0.173055 (Simulation time: 0 hr 41 min 33 sec) 
Heartbeat CPU 0 instructions: 473000000 cycles: 3567722985 heartbeat IPC: 0.210596 cumulative IPC: 0.174407 (Simulation time: 0 hr 41 min 40 sec) 
Heartbeat CPU 0 instructions: 474000000 cycles: 3572351979 heartbeat IPC: 0.21603 cumulative IPC: 0.175818 (Simulation time: 0 hr 41 min 46 sec) 
Heartbeat CPU 0 instructions: 475000002 cycles: 3580160573 heartbeat IPC: 0.128064 cumulative IPC: 0.173234 (Simulation time: 0 hr 41 min 55 sec) 
Heartbeat CPU 0 instructions: 476000000 cycles: 3584912305 heartbeat IPC: 0.210449 cumulative IPC: 0.17442 (Simulation time: 0 hr 42 min 2 sec) 
Heartbeat CPU 0 instructions: 477000000 cycles: 3589798273 heartbeat IPC: 0.204668 cumulative IPC: 0.17538 (Simulation time: 0 hr 42 min 8 sec) 
Heartbeat CPU 0 instructions: 478000002 cycles: 3594638063 heartbeat IPC: 0.206621 cumulative IPC: 0.176333 (Simulation time: 0 hr 42 min 14 sec) 
Heartbeat CPU 0 instructions: 479000000 cycles: 3599388401 heartbeat IPC: 0.210511 cumulative IPC: 0.177325 (Simulation time: 0 hr 42 min 20 sec) 
Heartbeat CPU 0 instructions: 480000000 cycles: 3607280101 heartbeat IPC: 0.126715 cumulative IPC: 0.174996 (Simulation time: 0 hr 42 min 30 sec) 
Heartbeat CPU 0 instructions: 481000000 cycles: 3612435109 heartbeat IPC: 0.193986 cumulative IPC: 0.17555 (Simulation time: 0 hr 42 min 37 sec) 
Heartbeat CPU 0 instructions: 482000000 cycles: 3617857543 heartbeat IPC: 0.184419 cumulative IPC: 0.175814 (Simulation time: 0 hr 42 min 43 sec) 
Heartbeat CPU 0 instructions: 483000000 cycles: 3623133404 heartbeat IPC: 0.189543 cumulative IPC: 0.176201 (Simulation time: 0 hr 42 min 49 sec) 
Heartbeat CPU 0 instructions: 484000000 cycles: 3631113600 heartbeat IPC: 0.12531 cumulative IPC: 0.174121 (Simulation time: 0 hr 42 min 59 sec) 
Heartbeat CPU 0 instructions: 485000002 cycles: 3635758830 heartbeat IPC: 0.215275 cumulative IPC: 0.175077 (Simulation time: 0 hr 43 min 6 sec) 
Heartbeat CPU 0 instructions: 486000000 cycles: 3639889243 heartbeat IPC: 0.242106 cumulative IPC: 0.176434 (Simulation time: 0 hr 43 min 12 sec) 
Heartbeat CPU 0 instructions: 487000001 cycles: 3647500711 heartbeat IPC: 0.131381 cumulative IPC: 0.174814 (Simulation time: 0 hr 43 min 21 sec) 
Heartbeat CPU 0 instructions: 488000001 cycles: 3652049596 heartbeat IPC: 0.219834 cumulative IPC: 0.175761 (Simulation time: 0 hr 43 min 28 sec) 
Heartbeat CPU 0 instructions: 489000002 cycles: 3659195380 heartbeat IPC: 0.139943 cumulative IPC: 0.174615 (Simulation time: 0 hr 43 min 36 sec) 
Heartbeat CPU 0 instructions: 490000000 cycles: 3664448816 heartbeat IPC: 0.190351 cumulative IPC: 0.174977 (Simulation time: 0 hr 43 min 44 sec) 
Heartbeat CPU 0 instructions: 491000000 cycles: 3669198555 heartbeat IPC: 0.210538 cumulative IPC: 0.175701 (Simulation time: 0 hr 43 min 50 sec) 
Heartbeat CPU 0 instructions: 492000003 cycles: 3674149521 heartbeat IPC: 0.201981 cumulative IPC: 0.176247 (Simulation time: 0 hr 43 min 56 sec) 
Heartbeat CPU 0 instructions: 493000003 cycles: 3681952256 heartbeat IPC: 0.12816 cumulative IPC: 0.174722 (Simulation time: 0 hr 44 min 6 sec) 
Heartbeat CPU 0 instructions: 494000000 cycles: 3686857449 heartbeat IPC: 0.203865 cumulative IPC: 0.175292 (Simulation time: 0 hr 44 min 12 sec) 
Heartbeat CPU 0 instructions: 495000000 cycles: 3693178588 heartbeat IPC: 0.158199 cumulative IPC: 0.174872 (Simulation time: 0 hr 44 min 19 sec) 
Heartbeat CPU 0 instructions: 496000000 cycles: 3699538459 heartbeat IPC: 0.157236 cumulative IPC: 0.174446 (Simulation time: 0 hr 44 min 28 sec) 
Heartbeat CPU 0 instructions: 497000001 cycles: 3704637086 heartbeat IPC: 0.196131 cumulative IPC: 0.174858 (Simulation time: 0 hr 44 min 34 sec) 
Heartbeat CPU 0 instructions: 498000000 cycles: 3710335830 heartbeat IPC: 0.175477 cumulative IPC: 0.174871 (Simulation time: 0 hr 44 min 41 sec) 
Heartbeat CPU 0 instructions: 499000001 cycles: 3718520797 heartbeat IPC: 0.122175 cumulative IPC: 0.173345 (Simulation time: 0 hr 44 min 51 sec) 
Heartbeat CPU 0 instructions: 500000001 cycles: 3723296432 heartbeat IPC: 0.209396 cumulative IPC: 0.173944 (Simulation time: 0 hr 44 min 57 sec) 
Heartbeat CPU 0 instructions: 501000000 cycles: 3730426043 heartbeat IPC: 0.14026 cumulative IPC: 0.173129 (Simulation time: 0 hr 45 min 6 sec) 
Heartbeat CPU 0 instructions: 502000003 cycles: 3734443140 heartbeat IPC: 0.248937 cumulative IPC: 0.174148 (Simulation time: 0 hr 45 min 12 sec) 
Heartbeat CPU 0 instructions: 503000000 cycles: 3739137888 heartbeat IPC: 0.213003 cumulative IPC: 0.17475 (Simulation time: 0 hr 45 min 18 sec) 
Heartbeat CPU 0 instructions: 504000001 cycles: 3744917836 heartbeat IPC: 0.173012 cumulative IPC: 0.174717 (Simulation time: 0 hr 45 min 25 sec) 
Heartbeat CPU 0 instructions: 505000002 cycles: 3753427630 heartbeat IPC: 0.117512 cumulative IPC: 0.173184 (Simulation time: 0 hr 45 min 34 sec) 
Heartbeat CPU 0 instructions: 506000000 cycles: 3757349052 heartbeat IPC: 0.255009 cumulative IPC: 0.174183 (Simulation time: 0 hr 45 min 40 sec) 
Heartbeat CPU 0 instructions: 507000003 cycles: 3761815355 heartbeat IPC: 0.223899 cumulative IPC: 0.174864 (Simulation time: 0 hr 45 min 46 sec) 
Heartbeat CPU 0 instructions: 508000001 cycles: 3766722320 heartbeat IPC: 0.203792 cumulative IPC: 0.175293 (Simulation time: 0 hr 45 min 52 sec) 
Heartbeat CPU 0 instructions: 509000000 cycles: 3771226803 heartbeat IPC: 0.222001 cumulative IPC: 0.17592 (Simulation time: 0 hr 45 min 58 sec) 
Heartbeat CPU 0 instructions: 510000000 cycles: 3778311725 heartbeat IPC: 0.141145 cumulative IPC: 0.175201 (Simulation time: 0 hr 46 min 7 sec) 
Heartbeat CPU 0 instructions: 511000000 cycles: 3782564413 heartbeat IPC: 0.235145 cumulative IPC: 0.175936 (Simulation time: 0 hr 46 min 14 sec) 
Heartbeat CPU 0 instructions: 512000001 cycles: 3786463114 heartbeat IPC: 0.256496 cumulative IPC: 0.176832 (Simulation time: 0 hr 46 min 20 sec) 
Heartbeat CPU 0 instructions: 513000000 cycles: 3794027030 heartbeat IPC: 0.132207 cumulative IPC: 0.175889 (Simulation time: 0 hr 46 min 30 sec) 
Heartbeat CPU 0 instructions: 514000000 cycles: 3798930761 heartbeat IPC: 0.203926 cumulative IPC: 0.176268 (Simulation time: 0 hr 46 min 36 sec) 
Heartbeat CPU 0 instructions: 515000003 cycles: 3804216423 heartbeat IPC: 0.189192 cumulative IPC: 0.176453 (Simulation time: 0 hr 46 min 43 sec) 
Heartbeat CPU 0 instructions: 516000000 cycles: 3809867480 heartbeat IPC: 0.176958 cumulative IPC: 0.176461 (Simulation time: 0 hr 46 min 49 sec) 
Heartbeat CPU 0 instructions: 517000000 cycles: 3815405586 heartbeat IPC: 0.180567 cumulative IPC: 0.176521 (Simulation time: 0 hr 46 min 56 sec) 
Heartbeat CPU 0 instructions: 518000000 cycles: 3823311825 heartbeat IPC: 0.126482 cumulative IPC: 0.1755 (Simulation time: 0 hr 47 min 6 sec) 
Heartbeat CPU 0 instructions: 519000000 cycles: 3827452187 heartbeat IPC: 0.241525 cumulative IPC: 0.176198 (Simulation time: 0 hr 47 min 12 sec) 
Heartbeat CPU 0 instructions: 520000001 cycles: 3831329770 heartbeat IPC: 0.257893 cumulative IPC: 0.176999 (Simulation time: 0 hr 47 min 17 sec) 
Heartbeat CPU 0 instructions: 521000000 cycles: 3835310011 heartbeat IPC: 0.251241 cumulative IPC: 0.177739 (Simulation time: 0 hr 47 min 23 sec) 
Heartbeat CPU 0 instructions: 522000001 cycles: 3842860689 heartbeat IPC: 0.132439 cumulative IPC: 0.176898 (Simulation time: 0 hr 47 min 33 sec) 
Heartbeat CPU 0 instructions: 523000001 cycles: 3847001568 heartbeat IPC: 0.241495 cumulative IPC: 0.177549 (Simulation time: 0 hr 47 min 39 sec) 
Heartbeat CPU 0 instructions: 524000000 cycles: 3851034651 heartbeat IPC: 0.247949 cumulative IPC: 0.178233 (Simulation time: 0 hr 47 min 45 sec) 
Heartbeat CPU 0 instructions: 525000001 cycles: 3858477720 heartbeat IPC: 0.134353 cumulative IPC: 0.17746 (Simulation time: 0 hr 47 min 55 sec) 
Heartbeat CPU 0 instructions: 526000003 cycles: 3862801986 heartbeat IPC: 0.231254 cumulative IPC: 0.178005 (Simulation time: 0 hr 48 min 1 sec) 
Heartbeat CPU 0 instructions: 527000000 cycles: 3867654163 heartbeat IPC: 0.206092 cumulative IPC: 0.17832 (Simulation time: 0 hr 48 min 7 sec) 
Heartbeat CPU 0 instructions: 528000000 cycles: 3872613808 heartbeat IPC: 0.201627 cumulative IPC: 0.178585 (Simulation time: 0 hr 48 min 14 sec) 
Heartbeat CPU 0 instructions: 529000000 cycles: 3877630139 heartbeat IPC: 0.199349 cumulative IPC: 0.178821 (Simulation time: 0 hr 48 min 20 sec) 
Heartbeat CPU 0 instructions: 530000002 cycles: 3886043019 heartbeat IPC: 0.118866 cumulative IPC: 0.1777 (Simulation time: 0 hr 48 min 30 sec) 
Heartbeat CPU 0 instructions: 531000001 cycles: 3889746476 heartbeat IPC: 0.270018 cumulative IPC: 0.178454 (Simulation time: 0 hr 48 min 36 sec) 
Heartbeat CPU 0 instructions: 532000001 cycles: 3894128697 heartbeat IPC: 0.228195 cumulative IPC: 0.178929 (Simulation time: 0 hr 48 min 42 sec) 
Heartbeat CPU 0 instructions: 533000000 cycles: 3901390948 heartbeat IPC: 0.137698 cumulative IPC: 0.178286 (Simulation time: 0 hr 48 min 51 sec) 
Heartbeat CPU 0 instructions: 534000001 cycles: 3909144077 heartbeat IPC: 0.12898 cumulative IPC: 0.177478 (Simulation time: 0 hr 49 min 1 sec) 
Heartbeat CPU 0 instructions: 535000000 cycles: 3913749346 heartbeat IPC: 0.217142 cumulative IPC: 0.177861 (Simulation time: 0 hr 49 min 7 sec) 
Heartbeat CPU 0 instructions: 536000001 cycles: 3918797845 heartbeat IPC: 0.198079 cumulative IPC: 0.178072 (Simulation time: 0 hr 49 min 14 sec) 
Heartbeat CPU 0 instructions: 537000000 cycles: 3927267611 heartbeat IPC: 0.118067 cumulative IPC: 0.177038 (Simulation time: 0 hr 49 min 23 sec) 
Heartbeat CPU 0 instructions: 538000000 cycles: 3932084327 heartbeat IPC: 0.20761 cumulative IPC: 0.177335 (Simulation time: 0 hr 49 min 30 sec) 
Heartbeat CPU 0 instructions: 539000000 cycles: 3936670984 heartbeat IPC: 0.218024 cumulative IPC: 0.177707 (Simulation time: 0 hr 49 min 36 sec) 
Heartbeat CPU 0 instructions: 540000000 cycles: 3943086220 heartbeat IPC: 0.155879 cumulative IPC: 0.177431 (Simulation time: 0 hr 49 min 43 sec) 
Heartbeat CPU 0 instructions: 541000000 cycles: 3948248804 heartbeat IPC: 0.193701 cumulative IPC: 0.177595 (Simulation time: 0 hr 49 min 52 sec) 
Heartbeat CPU 0 instructions: 542000000 cycles: 3953114641 heartbeat IPC: 0.205514 cumulative IPC: 0.177858 (Simulation time: 0 hr 49 min 58 sec) 
Heartbeat CPU 0 instructions: 543000000 cycles: 3961087636 heartbeat IPC: 0.125423 cumulative IPC: 0.177062 (Simulation time: 0 hr 50 min 8 sec) 
[...]
Heartbeat CPU 0 instructions: 835000001 cycles: 5575866311 heartbeat IPC: 0.129776 cumulative IPC: 0.179905 (Simulation time: 1 hr 25 min 27 sec) 
Heartbeat CPU 0 instructions: 836000000 cycles: 5580063760 heartbeat IPC: 0.23824 cumulative IPC: 0.180019 (Simulation time: 1 hr 25 min 33 sec) 
Heartbeat CPU 0 instructions: 837000002 cycles: 5584224939 heartbeat IPC: 0.240317 cumulative IPC: 0.180136 (Simulation time: 1 hr 25 min 39 sec) 
Heartbeat CPU 0 instructions: 838000001 cycles: 5588603774 heartbeat IPC: 0.228371 cumulative IPC: 0.180234 (Simulation time: 1 hr 25 min 45 sec) 
Heartbeat CPU 0 instructions: 839000002 cycles: 5594940386 heartbeat IPC: 0.157813 cumulative IPC: 0.180168 (Simulation time: 1 hr 25 min 52 sec) 
Heartbeat CPU 0 instructions: 840000001 cycles: 5600963016 heartbeat IPC: 0.16604 cumulative IPC: 0.180129 (Simulation time: 1 hr 26 min 1 sec) 
Heartbeat CPU 0 instructions: 841000000 cycles: 5608317559 heartbeat IPC: 0.13597 cumulative IPC: 0.179979 (Simulation time: 1 hr 26 min 11 sec) 
Heartbeat CPU 0 instructions: 842000000 cycles: 5611952092 heartbeat IPC: 0.275138 cumulative IPC: 0.180138 (Simulation time: 1 hr 26 min 17 sec) 
Heartbeat CPU 0 instructions: 843000001 cycles: 5615851156 heartbeat IPC: 0.256472 cumulative IPC: 0.180275 (Simulation time: 1 hr 26 min 23 sec) 
Heartbeat CPU 0 instructions: 844000001 cycles: 5619798109 heartbeat IPC: 0.25336 cumulative IPC: 0.180407 (Simulation time: 1 hr 26 min 29 sec) 
Heartbeat CPU 0 instructions: 845000000 cycles: 5627156025 heartbeat IPC: 0.135908 cumulative IPC: 0.180258 (Simulation time: 1 hr 26 min 39 sec) 
Heartbeat CPU 0 instructions: 846000000 cycles: 5630360045 heartbeat IPC: 0.312108 cumulative IPC: 0.18045 (Simulation time: 1 hr 26 min 45 sec) 
Heartbeat CPU 0 instructions: 847000000 cycles: 5633664388 heartbeat IPC: 0.302632 cumulative IPC: 0.180634 (Simulation time: 1 hr 26 min 51 sec) 
Heartbeat CPU 0 instructions: 848000000 cycles: 5637092422 heartbeat IPC: 0.291712 cumulative IPC: 0.180807 (Simulation time: 1 hr 26 min 57 sec) 
Heartbeat CPU 0 instructions: 849000002 cycles: 5640727053 heartbeat IPC: 0.275132 cumulative IPC: 0.180962 (Simulation time: 1 hr 27 min 3 sec) 
Heartbeat CPU 0 instructions: 850000001 cycles: 5645631491 heartbeat IPC: 0.203897 cumulative IPC: 0.181013 (Simulation time: 1 hr 27 min 10 sec) 
Heartbeat CPU 0 instructions: 851000003 cycles: 5652206714 heartbeat IPC: 0.152086 cumulative IPC: 0.180927 (Simulation time: 1 hr 27 min 19 sec) 
Heartbeat CPU 0 instructions: 852000000 cycles: 5657283121 heartbeat IPC: 0.196989 cumulative IPC: 0.180964 (Simulation time: 1 hr 27 min 25 sec) 
Heartbeat CPU 0 instructions: 853000002 cycles: 5665572065 heartbeat IPC: 0.120643 cumulative IPC: 0.18074 (Simulation time: 1 hr 27 min 35 sec) 
Heartbeat CPU 0 instructions: 854000000 cycles: 5670161007 heartbeat IPC: 0.217915 cumulative IPC: 0.180816 (Simulation time: 1 hr 27 min 42 sec) 
Heartbeat CPU 0 instructions: 855000002 cycles: 5675327295 heartbeat IPC: 0.193563 cumulative IPC: 0.180846 (Simulation time: 1 hr 27 min 48 sec) 
Heartbeat CPU 0 instructions: 856000000 cycles: 5680700303 heartbeat IPC: 0.186115 cumulative IPC: 0.180858 (Simulation time: 1 hr 27 min 54 sec) 
Heartbeat CPU 0 instructions: 857000001 cycles: 5685902062 heartbeat IPC: 0.192243 cumulative IPC: 0.180884 (Simulation time: 1 hr 28 min 1 sec) 
Heartbeat CPU 0 instructions: 858000000 cycles: 5694122411 heartbeat IPC: 0.121649 cumulative IPC: 0.180669 (Simulation time: 1 hr 28 min 10 sec) 
Heartbeat CPU 0 instructions: 859000003 cycles: 5701813159 heartbeat IPC: 0.130027 cumulative IPC: 0.180497 (Simulation time: 1 hr 28 min 21 sec) 
Heartbeat CPU 0 instructions: 860000003 cycles: 5706502624 heartbeat IPC: 0.213244 cumulative IPC: 0.180565 (Simulation time: 1 hr 28 min 27 sec) 
Heartbeat CPU 0 instructions: 861000000 cycles: 5714361371 heartbeat IPC: 0.127246 cumulative IPC: 0.180381 (Simulation time: 1 hr 28 min 37 sec) 
Heartbeat CPU 0 instructions: 862000003 cycles: 5718539005 heartbeat IPC: 0.239371 cumulative IPC: 0.180489 (Simulation time: 1 hr 28 min 43 sec) 
Heartbeat CPU 0 instructions: 863000001 cycles: 5722608188 heartbeat IPC: 0.245749 cumulative IPC: 0.180605 (Simulation time: 1 hr 28 min 49 sec) 
Heartbeat CPU 0 instructions: 864000000 cycles: 5726870614 heartbeat IPC: 0.234608 cumulative IPC: 0.180705 (Simulation time: 1 hr 28 min 55 sec) 
Heartbeat CPU 0 instructions: 865000001 cycles: 5734623745 heartbeat IPC: 0.12898 cumulative IPC: 0.180531 (Simulation time: 1 hr 29 min 5 sec) 
Heartbeat CPU 0 instructions: 866000003 cycles: 5739071389 heartbeat IPC: 0.224839 cumulative IPC: 0.180616 (Simulation time: 1 hr 29 min 11 sec) 
Heartbeat CPU 0 instructions: 867000003 cycles: 5743485927 heartbeat IPC: 0.226524 cumulative IPC: 0.180704 (Simulation time: 1 hr 29 min 18 sec) 
Heartbeat CPU 0 instructions: 868000000 cycles: 5747785297 heartbeat IPC: 0.232592 cumulative IPC: 0.180801 (Simulation time: 1 hr 29 min 24 sec) 
Heartbeat CPU 0 instructions: 869000000 cycles: 5755426037 heartbeat IPC: 0.130877 cumulative IPC: 0.180636 (Simulation time: 1 hr 29 min 33 sec) 
Heartbeat CPU 0 instructions: 870000000 cycles: 5760044357 heartbeat IPC: 0.216529 cumulative IPC: 0.180708 (Simulation time: 1 hr 29 min 40 sec) 
Heartbeat CPU 0 instructions: 871000001 cycles: 5765325292 heartbeat IPC: 0.189361 cumulative IPC: 0.180727 (Simulation time: 1 hr 29 min 47 sec) 
Heartbeat CPU 0 instructions: 872000001 cycles: 5770800303 heartbeat IPC: 0.182648 cumulative IPC: 0.180732 (Simulation time: 1 hr 29 min 53 sec) 
Heartbeat CPU 0 instructions: 873000000 cycles: 5775738406 heartbeat IPC: 0.202507 cumulative IPC: 0.180778 (Simulation time: 1 hr 30 min 0 sec) 
Heartbeat CPU 0 instructions: 874000003 cycles: 5783687967 heartbeat IPC: 0.125793 cumulative IPC: 0.180591 (Simulation time: 1 hr 30 min 9 sec) 
Heartbeat CPU 0 instructions: 875000000 cycles: 5788152612 heartbeat IPC: 0.223981 cumulative IPC: 0.180674 (Simulation time: 1 hr 30 min 16 sec) 
Heartbeat CPU 0 instructions: 876000001 cycles: 5794086071 heartbeat IPC: 0.168536 cumulative IPC: 0.180643 (Simulation time: 1 hr 30 min 23 sec) 
Heartbeat CPU 0 instructions: 877000000 cycles: 5800639069 heartbeat IPC: 0.152602 cumulative IPC: 0.180566 (Simulation time: 1 hr 30 min 33 sec) 
Heartbeat CPU 0 instructions: 878000001 cycles: 5808630557 heartbeat IPC: 0.125133 cumulative IPC: 0.180379 (Simulation time: 1 hr 30 min 43 sec) 
Heartbeat CPU 0 instructions: 879000000 cycles: 5812810682 heartbeat IPC: 0.239227 cumulative IPC: 0.180482 (Simulation time: 1 hr 30 min 49 sec) 
Heartbeat CPU 0 instructions: 880000000 cycles: 5817940803 heartbeat IPC: 0.194927 cumulative IPC: 0.180513 (Simulation time: 1 hr 30 min 55 sec) 
Heartbeat CPU 0 instructions: 881000003 cycles: 5825934374 heartbeat IPC: 0.125101 cumulative IPC: 0.180328 (Simulation time: 1 hr 31 min 5 sec) 
Heartbeat CPU 0 instructions: 882000000 cycles: 5830866930 heartbeat IPC: 0.202734 cumulative IPC: 0.180374 (Simulation time: 1 hr 31 min 11 sec) 
Heartbeat CPU 0 instructions: 883000000 cycles: 5838643457 heartbeat IPC: 0.128592 cumulative IPC: 0.180207 (Simulation time: 1 hr 31 min 21 sec) 
Heartbeat CPU 0 instructions: 884000003 cycles: 5843251379 heartbeat IPC: 0.217018 cumulative IPC: 0.180277 (Simulation time: 1 hr 31 min 27 sec) 
Heartbeat CPU 0 instructions: 885000003 cycles: 5847352030 heartbeat IPC: 0.243864 cumulative IPC: 0.180385 (Simulation time: 1 hr 31 min 33 sec) 
Heartbeat CPU 0 instructions: 886000002 cycles: 5851346830 heartbeat IPC: 0.250325 cumulative IPC: 0.180501 (Simulation time: 1 hr 31 min 39 sec) 
Heartbeat CPU 0 instructions: 887000001 cycles: 5855461797 heartbeat IPC: 0.243015 cumulative IPC: 0.180607 (Simulation time: 1 hr 31 min 45 sec) 
Heartbeat CPU 0 instructions: 888000002 cycles: 5862762042 heartbeat IPC: 0.136982 cumulative IPC: 0.180476 (Simulation time: 1 hr 31 min 55 sec) 
Heartbeat CPU 0 instructions: 889000000 cycles: 5866067245 heartbeat IPC: 0.302553 cumulative IPC: 0.180642 (Simulation time: 1 hr 32 min 1 sec) 
Heartbeat CPU 0 instructions: 890000000 cycles: 5873609236 heartbeat IPC: 0.132591 cumulative IPC: 0.180493 (Simulation time: 1 hr 32 min 10 sec) 
Heartbeat CPU 0 instructions: 891000000 cycles: 5878477741 heartbeat IPC: 0.205402 cumulative IPC: 0.180543 (Simulation time: 1 hr 32 min 17 sec) 
Heartbeat CPU 0 instructions: 892000002 cycles: 5883780006 heartbeat IPC: 0.188599 cumulative IPC: 0.180561 (Simulation time: 1 hr 32 min 23 sec) 
Heartbeat CPU 0 instructions: 893000001 cycles: 5891499874 heartbeat IPC: 0.129536 cumulative IPC: 0.1804 (Simulation time: 1 hr 32 min 31 sec) 
Heartbeat CPU 0 instructions: 894000000 cycles: 5896348988 heartbeat IPC: 0.206223 cumulative IPC: 0.180451 (Simulation time: 1 hr 32 min 39 sec) 
Heartbeat CPU 0 instructions: 895000003 cycles: 5900155276 heartbeat IPC: 0.262724 cumulative IPC: 0.180578 (Simulation time: 1 hr 32 min 45 sec) 
Heartbeat CPU 0 instructions: 896000000 cycles: 5904429040 heartbeat IPC: 0.233985 cumulative IPC: 0.180671 (Simulation time: 1 hr 32 min 51 sec) 
Heartbeat CPU 0 instructions: 897000003 cycles: 5908829153 heartbeat IPC: 0.227268 cumulative IPC: 0.180753 (Simulation time: 1 hr 32 min 57 sec) 
Heartbeat CPU 0 instructions: 898000001 cycles: 5916693668 heartbeat IPC: 0.127153 cumulative IPC: 0.180584 (Simulation time: 1 hr 33 min 7 sec) 
Heartbeat CPU 0 instructions: 899000000 cycles: 5920397931 heartbeat IPC: 0.269959 cumulative IPC: 0.180717 (Simulation time: 1 hr 33 min 13 sec) 
Heartbeat CPU 0 instructions: 900000000 cycles: 5924257566 heartbeat IPC: 0.259092 cumulative IPC: 0.180838 (Simulation time: 1 hr 33 min 19 sec) 
Heartbeat CPU 0 instructions: 901000002 cycles: 5928058533 heartbeat IPC: 0.263091 cumulative IPC: 0.180964 (Simulation time: 1 hr 33 min 25 sec) 
Heartbeat CPU 0 instructions: 902000000 cycles: 5931464679 heartbeat IPC: 0.293586 cumulative IPC: 0.181118 (Simulation time: 1 hr 33 min 31 sec) 
Heartbeat CPU 0 instructions: 903000000 cycles: 5938934757 heartbeat IPC: 0.133867 cumulative IPC: 0.180976 (Simulation time: 1 hr 33 min 41 sec) 
Heartbeat CPU 0 instructions: 904000001 cycles: 5943823227 heartbeat IPC: 0.204563 cumulative IPC: 0.181022 (Simulation time: 1 hr 33 min 48 sec) 
Heartbeat CPU 0 instructions: 905000002 cycles: 5949104896 heartbeat IPC: 0.189334 cumulative IPC: 0.18104 (Simulation time: 1 hr 33 min 54 sec) 
Heartbeat CPU 0 instructions: 906000002 cycles: 5953868464 heartbeat IPC: 0.209927 cumulative IPC: 0.181095 (Simulation time: 1 hr 34 min 0 sec) 
Heartbeat CPU 0 instructions: 907000001 cycles: 5964653361 heartbeat IPC: 0.0927222 cumulative IPC: 0.180718 (Simulation time: 1 hr 34 min 13 sec) 
Heartbeat CPU 0 instructions: 908000000 cycles: 5969524166 heartbeat IPC: 0.205305 cumulative IPC: 0.180765 (Simulation time: 1 hr 34 min 20 sec) 
Heartbeat CPU 0 instructions: 909000002 cycles: 5974250568 heartbeat IPC: 0.211578 cumulative IPC: 0.180822 (Simulation time: 1 hr 34 min 27 sec) 
Heartbeat CPU 0 instructions: 910000000 cycles: 5981549797 heartbeat IPC: 0.137001 cumulative IPC: 0.180697 (Simulation time: 1 hr 34 min 35 sec) 
Heartbeat CPU 0 instructions: 911000001 cycles: 5986453681 heartbeat IPC: 0.20392 cumulative IPC: 0.180741 (Simulation time: 1 hr 34 min 43 sec) 
Heartbeat CPU 0 instructions: 912000000 cycles: 5991579305 heartbeat IPC: 0.195098 cumulative IPC: 0.18077 (Simulation time: 1 hr 34 min 49 sec) 
Heartbeat CPU 0 instructions: 913000000 cycles: 5997340284 heartbeat IPC: 0.173582 cumulative IPC: 0.180754 (Simulation time: 1 hr 34 min 56 sec) 
Heartbeat CPU 0 instructions: 914000000 cycles: 6003256280 heartbeat IPC: 0.169033 cumulative IPC: 0.180727 (Simulation time: 1 hr 35 min 2 sec) 
Heartbeat CPU 0 instructions: 915000000 cycles: 6011379235 heartbeat IPC: 0.123108 cumulative IPC: 0.180545 (Simulation time: 1 hr 35 min 12 sec) 
Heartbeat CPU 0 instructions: 916000000 cycles: 6015876206 heartbeat IPC: 0.222372 cumulative IPC: 0.180618 (Simulation time: 1 hr 35 min 18 sec) 
Heartbeat CPU 0 instructions: 917000002 cycles: 6020586285 heartbeat IPC: 0.212311 cumulative IPC: 0.180676 (Simulation time: 1 hr 35 min 24 sec) 
Heartbeat CPU 0 instructions: 918000000 cycles: 6025196915 heartbeat IPC: 0.21689 cumulative IPC: 0.18074 (Simulation time: 1 hr 35 min 30 sec) 
Heartbeat CPU 0 instructions: 919000001 cycles: 6029653064 heartbeat IPC: 0.224409 cumulative IPC: 0.180815 (Simulation time: 1 hr 35 min 36 sec) 
Heartbeat CPU 0 instructions: 920000000 cycles: 6037316711 heartbeat IPC: 0.130486 cumulative IPC: 0.180667 (Simulation time: 1 hr 35 min 46 sec) 
Heartbeat CPU 0 instructions: 921000002 cycles: 6041963488 heartbeat IPC: 0.215203 cumulative IPC: 0.180729 (Simulation time: 1 hr 35 min 52 sec) 
Heartbeat CPU 0 instructions: 922000001 cycles: 6046411502 heartbeat IPC: 0.224819 cumulative IPC: 0.180804 (Simulation time: 1 hr 35 min 59 sec) 
Heartbeat CPU 0 instructions: 923000001 cycles: 6050767403 heartbeat IPC: 0.229574 cumulative IPC: 0.180885 (Simulation time: 1 hr 36 min 5 sec) 
Heartbeat CPU 0 instructions: 924000000 cycles: 6055172007 heartbeat IPC: 0.227035 cumulative IPC: 0.180963 (Simulation time: 1 hr 36 min 11 sec) 
Heartbeat CPU 0 instructions: 925000003 cycles: 6062657851 heartbeat IPC: 0.133586 cumulative IPC: 0.180828 (Simulation time: 1 hr 36 min 21 sec) 
Heartbeat CPU 0 instructions: 926000000 cycles: 6070169555 heartbeat IPC: 0.133125 cumulative IPC: 0.180692 (Simulation time: 1 hr 36 min 31 sec) 
Heartbeat CPU 0 instructions: 927000000 cycles: 6074742802 heartbeat IPC: 0.218663 cumulative IPC: 0.180757 (Simulation time: 1 hr 36 min 38 sec) 
Heartbeat CPU 0 instructions: 928000001 cycles: 6079529567 heartbeat IPC: 0.20891 cumulative IPC: 0.180808 (Simulation time: 1 hr 36 min 44 sec) 
Heartbeat CPU 0 instructions: 929000000 cycles: 6087241114 heartbeat IPC: 0.129676 cumulative IPC: 0.18066 (Simulation time: 1 hr 36 min 54 sec) 
Heartbeat CPU 0 instructions: 930000002 cycles: 6092155773 heartbeat IPC: 0.203473 cumulative IPC: 0.180702 (Simulation time: 1 hr 37 min 1 sec) 
Heartbeat CPU 0 instructions: 931000000 cycles: 6097642984 heartbeat IPC: 0.182242 cumulative IPC: 0.180705 (Simulation time: 1 hr 37 min 7 sec) 
Heartbeat CPU 0 instructions: 932000001 cycles: 6103272143 heartbeat IPC: 0.177647 cumulative IPC: 0.180699 (Simulation time: 1 hr 37 min 14 sec) 
Heartbeat CPU 0 instructions: 933000000 cycles: 6109631582 heartbeat IPC: 0.157246 cumulative IPC: 0.180643 (Simulation time: 1 hr 37 min 20 sec) 
Heartbeat CPU 0 instructions: 934000001 cycles: 6116275867 heartbeat IPC: 0.150505 cumulative IPC: 0.180568 (Simulation time: 1 hr 37 min 29 sec) 
Heartbeat CPU 0 instructions: 935000000 cycles: 6120672259 heartbeat IPC: 0.227459 cumulative IPC: 0.180645 (Simulation time: 1 hr 37 min 36 sec) 
Heartbeat CPU 0 instructions: 936000002 cycles: 6124802937 heartbeat IPC: 0.242091 cumulative IPC: 0.180739 (Simulation time: 1 hr 37 min 42 sec) 
Heartbeat CPU 0 instructions: 937000000 cycles: 6129049399 heartbeat IPC: 0.23549 cumulative IPC: 0.180826 (Simulation time: 1 hr 37 min 48 sec) 
Heartbeat CPU 0 instructions: 938000001 cycles: 6136800247 heartbeat IPC: 0.129018 cumulative IPC: 0.180677 (Simulation time: 1 hr 37 min 57 sec) 
Heartbeat CPU 0 instructions: 939000001 cycles: 6142418585 heartbeat IPC: 0.177989 cumulative IPC: 0.180671 (Simulation time: 1 hr 38 min 4 sec) 
Heartbeat CPU 0 instructions: 940000002 cycles: 6152477025 heartbeat IPC: 0.0994191 cumulative IPC: 0.180371 (Simulation time: 1 hr 38 min 17 sec) 
Heartbeat CPU 0 instructions: 941000003 cycles: 6156196743 heartbeat IPC: 0.268838 cumulative IPC: 0.180492 (Simulation time: 1 hr 38 min 23 sec) 
Heartbeat CPU 0 instructions: 942000003 cycles: 6163849526 heartbeat IPC: 0.130671 cumulative IPC: 0.180352 (Simulation time: 1 hr 38 min 33 sec) 
Heartbeat CPU 0 instructions: 943000000 cycles: 6168303087 heartbeat IPC: 0.224539 cumulative IPC: 0.180424 (Simulation time: 1 hr 38 min 39 sec) 
Heartbeat CPU 0 instructions: 944000000 cycles: 6173149562 heartbeat IPC: 0.206336 cumulative IPC: 0.18047 (Simulation time: 1 hr 38 min 46 sec) 
Heartbeat CPU 0 instructions: 945000000 cycles: 6178707922 heartbeat IPC: 0.179909 cumulative IPC: 0.180469 (Simulation time: 1 hr 38 min 52 sec) 
Heartbeat CPU 0 instructions: 946000000 cycles: 6185697580 heartbeat IPC: 0.143069 cumulative IPC: 0.180373 (Simulation time: 1 hr 39 min 1 sec) 
Heartbeat CPU 0 instructions: 947000000 cycles: 6190431778 heartbeat IPC: 0.211229 cumulative IPC: 0.180426 (Simulation time: 1 hr 39 min 7 sec) 
Heartbeat CPU 0 instructions: 948000001 cycles: 6195512109 heartbeat IPC: 0.196838 cumulative IPC: 0.180457 (Simulation time: 1 hr 39 min 13 sec) 
Heartbeat CPU 0 instructions: 949000003 cycles: 6200818970 heartbeat IPC: 0.188436 cumulative IPC: 0.180472 (Simulation time: 1 hr 39 min 20 sec) 
Heartbeat CPU 0 instructions: 950000000 cycles: 6208712936 heartbeat IPC: 0.126679 cumulative IPC: 0.180319 (Simulation time: 1 hr 39 min 29 sec) 
Finished CPU 0 instructions: 500000002 cycles: 2772865742 cumulative IPC: 0.180319 (Simulation time: 1 hr 39 min 29 sec) 

ChampSim completed all CPUs

Region of Interest Statistics

CPU 0 cumulative IPC: 0.180319 instructions: 500000002 cycles: 2772865742
L1D TOTAL     ACCESS:  177290865  HIT:  146874711  MISS:   30416154
L1D LOAD      ACCESS:  125977064  HIT:  106384698  MISS:   19592366
L1D RFO       ACCESS:   51313801  HIT:   40490013  MISS:   10823788
L1D PREFETCH  ACCESS:          0  HIT:          0  MISS:          0
L1D WRITEBACK ACCESS:          0  HIT:          0  MISS:          0
L1D PREFETCH  REQUESTED:          0  ISSUED:          0  USEFUL:          0  USELESS:          0
L1D AVERAGE MISS LATENCY: 336.106 cycles
L1I TOTAL     ACCESS:   81906632  HIT:   81906619  MISS:         13
L1I LOAD      ACCESS:   81906632  HIT:   81906619  MISS:         13
L1I RFO       ACCESS:          0  HIT:          0  MISS:          0
L1I PREFETCH  ACCESS:          0  HIT:          0  MISS:          0
L1I WRITEBACK ACCESS:          0  HIT:          0  MISS:          0
L1I PREFETCH  REQUESTED:          0  ISSUED:          0  USEFUL:          0  USELESS:          0
L1I AVERAGE MISS LATENCY: 216.154 cycles
L2C TOTAL     ACCESS:   45847027  HIT:   23633269  MISS:   22213758
L2C LOAD      ACCESS:   19592146  HIT:    7669215  MISS:   11922931
L2C RFO       ACCESS:   10823788  HIT:     534043  MISS:   10289745
L2C PREFETCH  ACCESS:          0  HIT:          0  MISS:          0
L2C WRITEBACK ACCESS:   15431093  HIT:   15430011  MISS:       1082
L2C PREFETCH  REQUESTED:          0  ISSUED:          0  USEFUL:          0  USELESS:          0
L2C AVERAGE MISS LATENCY: 357.689 cycles
LLC TOTAL     ACCESS:   58845732  HIT:   36998618  MISS:   21847114
LLC LOAD      ACCESS:   11922931  HIT:    8256979  MISS:    3665952
LLC RFO       ACCESS:   10289734  HIT:     580565  MISS:    9709169
LLC PREFETCH  ACCESS:   21767653  HIT:   13307748  MISS:    8459905
LLC WRITEBACK ACCESS:   14865414  HIT:   14853326  MISS:      12088
LLC PREFETCH  REQUESTED:   23842758  ISSUED:   23842758  USEFUL:    7989740  USELESS:     468001
LLC AVERAGE MISS LATENCY: 325.229 cycles
Major fault: 0 Minor fault: 29901
performance stats:
mapping cache size: 134715
divergence: 13586212

DRAM Statistics
 CHANNEL 0
 RQ ROW_BUFFER_HIT:    1194733  ROW_BUFFER_MISS:   20638779
 DBUS_CONGESTED:   22181565
 WQ ROW_BUFFER_HIT:    2026421  ROW_BUFFER_MISS:   12119773  FULL:          0

 AVG_CONGESTED_CYCLE: 6

CPU 0 Branch Prediction Accuracy: 92.7448% MPKI: 15.2948 Average ROB Occupancy at Mispredict: 32.4603

Branch types
NOT_BRANCH: 394593523 78.9187%
BRANCH_DIRECT_JUMP: 4561055 0.912211%
BRANCH_INDIRECT: 0 0%
BRANCH_CONDITIONAL: 64869352 12.9739%
BRANCH_DIRECT_CALL: 21031 0.0042062%
BRANCH_INDIRECT_CALL: 17967024 3.5934%
BRANCH_RETURN: 17988055 3.59761%
BRANCH_OTHER: 0 0%


gzip: stdout: Broken pipe
