
*** ChampSim Multicore Out-of-Order Simulator ***

Warmup Instructions: 1000000
Prefetch Warmup Instructions: 450000000
Simulation Instructions: 500000000
Stat Printing Period: 1000000
Number of CPUs: 1
LLC sets: 2048
LLC ways: 16
Off-chip DRAM Size: 4096 MB Channels: 1 Width: 64-bit Data Rate: 3200 MT/s

CPU 0 runs /scratch/cluster/cmolder/ML-DPC/ChampSimTraces/spec06/473.astar-s2.trace.gz
Read seed: 851
Heartbeat CPU 0 instructions: 1000003 cycles: 546153 heartbeat IPC: 1.83099 cumulative IPC: 1.83099 (Simulation time: 0 hr 0 min 3 sec) 

Warmup complete CPU 0 instructions: 1000003 cycles: 546153 (Simulation time: 0 hr 0 min 3 sec) 

Heartbeat CPU 0 instructions: 2000000 cycles: 9941161 heartbeat IPC: 0.106439 cumulative IPC: 0.106439 (Simulation time: 0 hr 0 min 10 sec) 
Heartbeat CPU 0 instructions: 3000000 cycles: 16707568 heartbeat IPC: 0.147789 cumulative IPC: 0.123751 (Simulation time: 0 hr 0 min 15 sec) 
Heartbeat CPU 0 instructions: 4000000 cycles: 23691388 heartbeat IPC: 0.143188 cumulative IPC: 0.129616 (Simulation time: 0 hr 0 min 22 sec) 
Heartbeat CPU 0 instructions: 5000000 cycles: 30779616 heartbeat IPC: 0.141079 cumulative IPC: 0.132304 (Simulation time: 0 hr 0 min 27 sec) 
Heartbeat CPU 0 instructions: 6000002 cycles: 40256726 heartbeat IPC: 0.105518 cumulative IPC: 0.125911 (Simulation time: 0 hr 0 min 36 sec) 
Heartbeat CPU 0 instructions: 7000001 cycles: 50490735 heartbeat IPC: 0.0977133 cumulative IPC: 0.120133 (Simulation time: 0 hr 0 min 47 sec) 
Heartbeat CPU 0 instructions: 8000002 cycles: 61381197 heartbeat IPC: 0.0918236 cumulative IPC: 0.115065 (Simulation time: 0 hr 0 min 58 sec) 
Heartbeat CPU 0 instructions: 9000000 cycles: 71683291 heartbeat IPC: 0.0970675 cumulative IPC: 0.112459 (Simulation time: 0 hr 1 min 7 sec) 
Heartbeat CPU 0 instructions: 10000003 cycles: 78435699 heartbeat IPC: 0.148096 cumulative IPC: 0.115548 (Simulation time: 0 hr 1 min 11 sec) 
Heartbeat CPU 0 instructions: 11000000 cycles: 85243950 heartbeat IPC: 0.14688 cumulative IPC: 0.118067 (Simulation time: 0 hr 1 min 14 sec) 
Heartbeat CPU 0 instructions: 12000003 cycles: 92345679 heartbeat IPC: 0.140811 cumulative IPC: 0.119826 (Simulation time: 0 hr 1 min 18 sec) 
Heartbeat CPU 0 instructions: 13000000 cycles: 101600348 heartbeat IPC: 0.108053 cumulative IPC: 0.118748 (Simulation time: 0 hr 1 min 24 sec) 
Heartbeat CPU 0 instructions: 14000000 cycles: 108449817 heartbeat IPC: 0.145997 cumulative IPC: 0.120478 (Simulation time: 0 hr 1 min 28 sec) 
Heartbeat CPU 0 instructions: 15000002 cycles: 115335198 heartbeat IPC: 0.145236 cumulative IPC: 0.121963 (Simulation time: 0 hr 1 min 32 sec) 
Heartbeat CPU 0 instructions: 16000000 cycles: 122037465 heartbeat IPC: 0.149203 cumulative IPC: 0.123466 (Simulation time: 0 hr 1 min 37 sec) 
Heartbeat CPU 0 instructions: 17000002 cycles: 128651047 heartbeat IPC: 0.151204 cumulative IPC: 0.124898 (Simulation time: 0 hr 1 min 41 sec) 
Heartbeat CPU 0 instructions: 18000001 cycles: 138029399 heartbeat IPC: 0.106628 cumulative IPC: 0.123651 (Simulation time: 0 hr 1 min 48 sec) 
Heartbeat CPU 0 instructions: 19000000 cycles: 144564186 heartbeat IPC: 0.153027 cumulative IPC: 0.124984 (Simulation time: 0 hr 1 min 53 sec) 
Heartbeat CPU 0 instructions: 20000003 cycles: 151496888 heartbeat IPC: 0.144244 cumulative IPC: 0.125869 (Simulation time: 0 hr 1 min 59 sec) 
Heartbeat CPU 0 instructions: 21000002 cycles: 160204079 heartbeat IPC: 0.114847 cumulative IPC: 0.125268 (Simulation time: 0 hr 2 min 7 sec) 
Heartbeat CPU 0 instructions: 22000000 cycles: 167952927 heartbeat IPC: 0.129051 cumulative IPC: 0.125443 (Simulation time: 0 hr 2 min 16 sec) 
Heartbeat CPU 0 instructions: 23000002 cycles: 174425638 heartbeat IPC: 0.154495 cumulative IPC: 0.126524 (Simulation time: 0 hr 2 min 23 sec) 
Heartbeat CPU 0 instructions: 24000002 cycles: 181535260 heartbeat IPC: 0.140654 cumulative IPC: 0.127079 (Simulation time: 0 hr 2 min 29 sec) 
Heartbeat CPU 0 instructions: 25000002 cycles: 190215307 heartbeat IPC: 0.115207 cumulative IPC: 0.126536 (Simulation time: 0 hr 2 min 35 sec) 
Heartbeat CPU 0 instructions: 26000001 cycles: 197187531 heartbeat IPC: 0.143426 cumulative IPC: 0.127135 (Simulation time: 0 hr 2 min 38 sec) 
Heartbeat CPU 0 instructions: 27000000 cycles: 207038312 heartbeat IPC: 0.101515 cumulative IPC: 0.125913 (Simulation time: 0 hr 2 min 47 sec) 
Heartbeat CPU 0 instructions: 28000000 cycles: 213707444 heartbeat IPC: 0.149945 cumulative IPC: 0.126665 (Simulation time: 0 hr 2 min 52 sec) 
Heartbeat CPU 0 instructions: 29000002 cycles: 222917698 heartbeat IPC: 0.108575 cumulative IPC: 0.125915 (Simulation time: 0 hr 3 min 1 sec) 
Heartbeat CPU 0 instructions: 30000000 cycles: 229300130 heartbeat IPC: 0.15668 cumulative IPC: 0.126774 (Simulation time: 0 hr 3 min 5 sec) 
Heartbeat CPU 0 instructions: 31000000 cycles: 235678762 heartbeat IPC: 0.156773 cumulative IPC: 0.127588 (Simulation time: 0 hr 3 min 9 sec) 
Heartbeat CPU 0 instructions: 32000000 cycles: 241785334 heartbeat IPC: 0.163758 cumulative IPC: 0.128503 (Simulation time: 0 hr 3 min 13 sec) 
Heartbeat CPU 0 instructions: 33000000 cycles: 247672662 heartbeat IPC: 0.169856 cumulative IPC: 0.129488 (Simulation time: 0 hr 3 min 19 sec) 
Heartbeat CPU 0 instructions: 34000001 cycles: 256864529 heartbeat IPC: 0.108792 cumulative IPC: 0.128746 (Simulation time: 0 hr 3 min 29 sec) 
Heartbeat CPU 0 instructions: 35000000 cycles: 263549631 heartbeat IPC: 0.149586 cumulative IPC: 0.129276 (Simulation time: 0 hr 3 min 35 sec) 
Heartbeat CPU 0 instructions: 36000000 cycles: 270374217 heartbeat IPC: 0.146529 cumulative IPC: 0.129712 (Simulation time: 0 hr 3 min 42 sec) 
Heartbeat CPU 0 instructions: 37000003 cycles: 279779457 heartbeat IPC: 0.106324 cumulative IPC: 0.128924 (Simulation time: 0 hr 3 min 50 sec) 
Heartbeat CPU 0 instructions: 38000001 cycles: 286161314 heartbeat IPC: 0.156694 cumulative IPC: 0.129545 (Simulation time: 0 hr 3 min 57 sec) 
Heartbeat CPU 0 instructions: 39000000 cycles: 295506135 heartbeat IPC: 0.107011 cumulative IPC: 0.128831 (Simulation time: 0 hr 4 min 7 sec) 
Heartbeat CPU 0 instructions: 40000000 cycles: 304762199 heartbeat IPC: 0.108037 cumulative IPC: 0.128198 (Simulation time: 0 hr 4 min 16 sec) 
Heartbeat CPU 0 instructions: 41000002 cycles: 311329457 heartbeat IPC: 0.152271 cumulative IPC: 0.128707 (Simulation time: 0 hr 4 min 20 sec) 
Heartbeat CPU 0 instructions: 42000000 cycles: 318587112 heartbeat IPC: 0.137785 cumulative IPC: 0.128914 (Simulation time: 0 hr 4 min 24 sec) 
Heartbeat CPU 0 instructions: 43000003 cycles: 328357035 heartbeat IPC: 0.102355 cumulative IPC: 0.128123 (Simulation time: 0 hr 4 min 30 sec) 
Heartbeat CPU 0 instructions: 44000000 cycles: 334918133 heartbeat IPC: 0.152413 cumulative IPC: 0.128599 (Simulation time: 0 hr 4 min 34 sec) 
Heartbeat CPU 0 instructions: 45000000 cycles: 341868657 heartbeat IPC: 0.143874 cumulative IPC: 0.12891 (Simulation time: 0 hr 4 min 38 sec) 
Heartbeat CPU 0 instructions: 46000003 cycles: 348993591 heartbeat IPC: 0.140353 cumulative IPC: 0.129144 (Simulation time: 0 hr 4 min 41 sec) 
Heartbeat CPU 0 instructions: 47000000 cycles: 356112094 heartbeat IPC: 0.140479 cumulative IPC: 0.129371 (Simulation time: 0 hr 4 min 45 sec) 
Heartbeat CPU 0 instructions: 48000000 cycles: 365387913 heartbeat IPC: 0.107807 cumulative IPC: 0.128823 (Simulation time: 0 hr 4 min 51 sec) 
Heartbeat CPU 0 instructions: 49000000 cycles: 371729522 heartbeat IPC: 0.157689 cumulative IPC: 0.129316 (Simulation time: 0 hr 4 min 55 sec) 
Heartbeat CPU 0 instructions: 50000001 cycles: 378211066 heartbeat IPC: 0.154284 cumulative IPC: 0.129745 (Simulation time: 0 hr 4 min 59 sec) 
Heartbeat CPU 0 instructions: 51000000 cycles: 385259759 heartbeat IPC: 0.14187 cumulative IPC: 0.129967 (Simulation time: 0 hr 5 min 3 sec) 
Heartbeat CPU 0 instructions: 52000003 cycles: 394045131 heartbeat IPC: 0.113826 cumulative IPC: 0.129606 (Simulation time: 0 hr 5 min 9 sec) 
Heartbeat CPU 0 instructions: 53000000 cycles: 400977775 heartbeat IPC: 0.144245 cumulative IPC: 0.12986 (Simulation time: 0 hr 5 min 13 sec) 
Heartbeat CPU 0 instructions: 54000001 cycles: 408558123 heartbeat IPC: 0.13192 cumulative IPC: 0.129898 (Simulation time: 0 hr 5 min 17 sec) 
Heartbeat CPU 0 instructions: 55000000 cycles: 416334478 heartbeat IPC: 0.128595 cumulative IPC: 0.129874 (Simulation time: 0 hr 5 min 21 sec) 
Heartbeat CPU 0 instructions: 56000000 cycles: 426290883 heartbeat IPC: 0.100438 cumulative IPC: 0.129185 (Simulation time: 0 hr 5 min 29 sec) 
Heartbeat CPU 0 instructions: 57000000 cycles: 432728249 heartbeat IPC: 0.155343 cumulative IPC: 0.129575 (Simulation time: 0 hr 5 min 34 sec) 
Heartbeat CPU 0 instructions: 58000002 cycles: 439520084 heartbeat IPC: 0.147236 cumulative IPC: 0.129848 (Simulation time: 0 hr 5 min 38 sec) 
Heartbeat CPU 0 instructions: 59000001 cycles: 447898511 heartbeat IPC: 0.119354 cumulative IPC: 0.129652 (Simulation time: 0 hr 5 min 43 sec) 
Heartbeat CPU 0 instructions: 60000000 cycles: 455948192 heartbeat IPC: 0.124228 cumulative IPC: 0.129556 (Simulation time: 0 hr 5 min 49 sec) 
Heartbeat CPU 0 instructions: 61000002 cycles: 462775851 heartbeat IPC: 0.146463 cumulative IPC: 0.129806 (Simulation time: 0 hr 5 min 53 sec) 
Heartbeat CPU 0 instructions: 62000000 cycles: 469674493 heartbeat IPC: 0.144956 cumulative IPC: 0.130028 (Simulation time: 0 hr 5 min 56 sec) 
Heartbeat CPU 0 instructions: 63000000 cycles: 476585075 heartbeat IPC: 0.144706 cumulative IPC: 0.130241 (Simulation time: 0 hr 6 min 0 sec) 
Heartbeat CPU 0 instructions: 64000002 cycles: 485515196 heartbeat IPC: 0.111981 cumulative IPC: 0.129905 (Simulation time: 0 hr 6 min 5 sec) 
Heartbeat CPU 0 instructions: 65000000 cycles: 492598663 heartbeat IPC: 0.141174 cumulative IPC: 0.130067 (Simulation time: 0 hr 6 min 10 sec) 
Heartbeat CPU 0 instructions: 66000000 cycles: 499390690 heartbeat IPC: 0.147231 cumulative IPC: 0.130301 (Simulation time: 0 hr 6 min 14 sec) 
Heartbeat CPU 0 instructions: 67000001 cycles: 506456037 heartbeat IPC: 0.141536 cumulative IPC: 0.130458 (Simulation time: 0 hr 6 min 18 sec) 
Heartbeat CPU 0 instructions: 68000003 cycles: 513615475 heartbeat IPC: 0.139676 cumulative IPC: 0.130587 (Simulation time: 0 hr 6 min 22 sec) 
Heartbeat CPU 0 instructions: 69000000 cycles: 526034362 heartbeat IPC: 0.0805223 cumulative IPC: 0.129403 (Simulation time: 0 hr 6 min 30 sec) 
Heartbeat CPU 0 instructions: 70000000 cycles: 532627478 heartbeat IPC: 0.151673 cumulative IPC: 0.129679 (Simulation time: 0 hr 6 min 34 sec) 
Heartbeat CPU 0 instructions: 71000003 cycles: 539658728 heartbeat IPC: 0.142223 cumulative IPC: 0.129843 (Simulation time: 0 hr 6 min 38 sec) 
Heartbeat CPU 0 instructions: 72000001 cycles: 546817359 heartbeat IPC: 0.139691 cumulative IPC: 0.129972 (Simulation time: 0 hr 6 min 42 sec) 
Heartbeat CPU 0 instructions: 73000000 cycles: 553955511 heartbeat IPC: 0.140092 cumulative IPC: 0.130103 (Simulation time: 0 hr 6 min 46 sec) 
Heartbeat CPU 0 instructions: 74000003 cycles: 562593121 heartbeat IPC: 0.115773 cumulative IPC: 0.129882 (Simulation time: 0 hr 6 min 51 sec) 
Heartbeat CPU 0 instructions: 75000000 cycles: 570184736 heartbeat IPC: 0.131724 cumulative IPC: 0.129907 (Simulation time: 0 hr 7 min 0 sec) 
Heartbeat CPU 0 instructions: 76000000 cycles: 576559264 heartbeat IPC: 0.156874 cumulative IPC: 0.130205 (Simulation time: 0 hr 7 min 4 sec) 
Heartbeat CPU 0 instructions: 77000000 cycles: 582943879 heartbeat IPC: 0.156627 cumulative IPC: 0.130495 (Simulation time: 0 hr 7 min 8 sec) 
Heartbeat CPU 0 instructions: 78000000 cycles: 589174295 heartbeat IPC: 0.160503 cumulative IPC: 0.130813 (Simulation time: 0 hr 7 min 12 sec) 
Heartbeat CPU 0 instructions: 79000001 cycles: 598276094 heartbeat IPC: 0.109868 cumulative IPC: 0.130494 (Simulation time: 0 hr 7 min 18 sec) 
Heartbeat CPU 0 instructions: 80000000 cycles: 604745262 heartbeat IPC: 0.154579 cumulative IPC: 0.130752 (Simulation time: 0 hr 7 min 23 sec) 
Heartbeat CPU 0 instructions: 81000000 cycles: 612663716 heartbeat IPC: 0.126287 cumulative IPC: 0.130694 (Simulation time: 0 hr 7 min 26 sec) 
Heartbeat CPU 0 instructions: 82000000 cycles: 621053270 heartbeat IPC: 0.119196 cumulative IPC: 0.130538 (Simulation time: 0 hr 7 min 32 sec) 
Heartbeat CPU 0 instructions: 83000003 cycles: 627860273 heartbeat IPC: 0.146908 cumulative IPC: 0.130716 (Simulation time: 0 hr 7 min 35 sec) 
Heartbeat CPU 0 instructions: 84000001 cycles: 634868370 heartbeat IPC: 0.142692 cumulative IPC: 0.130848 (Simulation time: 0 hr 7 min 39 sec) 
Heartbeat CPU 0 instructions: 85000001 cycles: 642276814 heartbeat IPC: 0.134981 cumulative IPC: 0.130896 (Simulation time: 0 hr 7 min 43 sec) 
Heartbeat CPU 0 instructions: 86000002 cycles: 651234808 heartbeat IPC: 0.111632 cumulative IPC: 0.130631 (Simulation time: 0 hr 7 min 48 sec) 
Heartbeat CPU 0 instructions: 87000001 cycles: 657540122 heartbeat IPC: 0.158596 cumulative IPC: 0.130899 (Simulation time: 0 hr 7 min 52 sec) 
Heartbeat CPU 0 instructions: 88000000 cycles: 664003085 heartbeat IPC: 0.154728 cumulative IPC: 0.131131 (Simulation time: 0 hr 7 min 56 sec) 
Heartbeat CPU 0 instructions: 89000002 cycles: 670510951 heartbeat IPC: 0.153661 cumulative IPC: 0.13135 (Simulation time: 0 hr 7 min 59 sec) 
Heartbeat CPU 0 instructions: 90000000 cycles: 676923653 heartbeat IPC: 0.15594 cumulative IPC: 0.131583 (Simulation time: 0 hr 8 min 3 sec) 
Heartbeat CPU 0 instructions: 91000002 cycles: 686304199 heartbeat IPC: 0.106604 cumulative IPC: 0.131242 (Simulation time: 0 hr 8 min 9 sec) 
Heartbeat CPU 0 instructions: 92000000 cycles: 693235682 heartbeat IPC: 0.144269 cumulative IPC: 0.131372 (Simulation time: 0 hr 8 min 12 sec) 
Heartbeat CPU 0 instructions: 93000000 cycles: 700460293 heartbeat IPC: 0.138416 cumulative IPC: 0.131445 (Simulation time: 0 hr 8 min 16 sec) 
Heartbeat CPU 0 instructions: 94000000 cycles: 707850432 heartbeat IPC: 0.135315 cumulative IPC: 0.131485 (Simulation time: 0 hr 8 min 20 sec) 
Heartbeat CPU 0 instructions: 95000001 cycles: 714223199 heartbeat IPC: 0.156918 cumulative IPC: 0.131712 (Simulation time: 0 hr 8 min 23 sec) 
Heartbeat CPU 0 instructions: 96000002 cycles: 723507776 heartbeat IPC: 0.107706 cumulative IPC: 0.131404 (Simulation time: 0 hr 8 min 29 sec) 
Heartbeat CPU 0 instructions: 97000002 cycles: 730401005 heartbeat IPC: 0.14507 cumulative IPC: 0.131533 (Simulation time: 0 hr 8 min 33 sec) 
Heartbeat CPU 0 instructions: 98000000 cycles: 737955518 heartbeat IPC: 0.132371 cumulative IPC: 0.131542 (Simulation time: 0 hr 8 min 36 sec) 
Heartbeat CPU 0 instructions: 99000000 cycles: 745569518 heartbeat IPC: 0.131337 cumulative IPC: 0.131539 (Simulation time: 0 hr 8 min 40 sec) 
Heartbeat CPU 0 instructions: 100000000 cycles: 752802142 heartbeat IPC: 0.138262 cumulative IPC: 0.131604 (Simulation time: 0 hr 8 min 44 sec) 
Heartbeat CPU 0 instructions: 101000000 cycles: 762274340 heartbeat IPC: 0.105572 cumulative IPC: 0.13128 (Simulation time: 0 hr 8 min 50 sec) 
Heartbeat CPU 0 instructions: 102000001 cycles: 768712416 heartbeat IPC: 0.155326 cumulative IPC: 0.131482 (Simulation time: 0 hr 8 min 55 sec) 
Heartbeat CPU 0 instructions: 103000001 cycles: 775182888 heartbeat IPC: 0.154548 cumulative IPC: 0.131675 (Simulation time: 0 hr 9 min 1 sec) 
Heartbeat CPU 0 instructions: 104000003 cycles: 781472632 heartbeat IPC: 0.158989 cumulative IPC: 0.131895 (Simulation time: 0 hr 9 min 6 sec) 
Heartbeat CPU 0 instructions: 105000001 cycles: 787427917 heartbeat IPC: 0.167918 cumulative IPC: 0.132167 (Simulation time: 0 hr 9 min 9 sec) 
Heartbeat CPU 0 instructions: 106000001 cycles: 796530975 heartbeat IPC: 0.109853 cumulative IPC: 0.131912 (Simulation time: 0 hr 9 min 15 sec) 
Heartbeat CPU 0 instructions: 107000003 cycles: 803199357 heartbeat IPC: 0.149962 cumulative IPC: 0.132062 (Simulation time: 0 hr 9 min 19 sec) 
Heartbeat CPU 0 instructions: 108000002 cycles: 812584185 heartbeat IPC: 0.106555 cumulative IPC: 0.131767 (Simulation time: 0 hr 9 min 24 sec) 
Heartbeat CPU 0 instructions: 109000000 cycles: 819480756 heartbeat IPC: 0.144999 cumulative IPC: 0.131879 (Simulation time: 0 hr 9 min 28 sec) 
Heartbeat CPU 0 instructions: 110000000 cycles: 826057469 heartbeat IPC: 0.152052 cumulative IPC: 0.132039 (Simulation time: 0 hr 9 min 32 sec) 
Heartbeat CPU 0 instructions: 111000000 cycles: 832652832 heartbeat IPC: 0.151622 cumulative IPC: 0.132195 (Simulation time: 0 hr 9 min 36 sec) 
Heartbeat CPU 0 instructions: 112000001 cycles: 841073260 heartbeat IPC: 0.118759 cumulative IPC: 0.13206 (Simulation time: 0 hr 9 min 40 sec) 
Heartbeat CPU 0 instructions: 113000001 cycles: 848603987 heartbeat IPC: 0.132789 cumulative IPC: 0.132066 (Simulation time: 0 hr 9 min 45 sec) 
Heartbeat CPU 0 instructions: 114000001 cycles: 856337795 heartbeat IPC: 0.129302 cumulative IPC: 0.132041 (Simulation time: 0 hr 9 min 49 sec) 
Heartbeat CPU 0 instructions: 115000001 cycles: 864761123 heartbeat IPC: 0.118718 cumulative IPC: 0.131912 (Simulation time: 0 hr 9 min 55 sec) 
Heartbeat CPU 0 instructions: 116000001 cycles: 871466847 heartbeat IPC: 0.149126 cumulative IPC: 0.132044 (Simulation time: 0 hr 9 min 58 sec) 
Heartbeat CPU 0 instructions: 117000002 cycles: 878509846 heartbeat IPC: 0.141985 cumulative IPC: 0.132124 (Simulation time: 0 hr 10 min 3 sec) 
Heartbeat CPU 0 instructions: 118000000 cycles: 888146686 heartbeat IPC: 0.103768 cumulative IPC: 0.131816 (Simulation time: 0 hr 10 min 8 sec) 
Heartbeat CPU 0 instructions: 119000002 cycles: 894922285 heartbeat IPC: 0.147589 cumulative IPC: 0.131936 (Simulation time: 0 hr 10 min 12 sec) 
Heartbeat CPU 0 instructions: 120000001 cycles: 901643552 heartbeat IPC: 0.148781 cumulative IPC: 0.132061 (Simulation time: 0 hr 10 min 16 sec) 
Heartbeat CPU 0 instructions: 121000000 cycles: 908232052 heartbeat IPC: 0.151779 cumulative IPC: 0.132204 (Simulation time: 0 hr 10 min 21 sec) 
Heartbeat CPU 0 instructions: 122000000 cycles: 914967614 heartbeat IPC: 0.148466 cumulative IPC: 0.132324 (Simulation time: 0 hr 10 min 28 sec) 
Heartbeat CPU 0 instructions: 123000002 cycles: 924445070 heartbeat IPC: 0.105514 cumulative IPC: 0.132049 (Simulation time: 0 hr 10 min 38 sec) 
Heartbeat CPU 0 instructions: 124000000 cycles: 931002123 heartbeat IPC: 0.152507 cumulative IPC: 0.132193 (Simulation time: 0 hr 10 min 44 sec) 
Heartbeat CPU 0 instructions: 125000003 cycles: 938025192 heartbeat IPC: 0.142388 cumulative IPC: 0.13227 (Simulation time: 0 hr 10 min 52 sec) 
Heartbeat CPU 0 instructions: 126000000 cycles: 945211447 heartbeat IPC: 0.139154 cumulative IPC: 0.132322 (Simulation time: 0 hr 10 min 56 sec) 
Heartbeat CPU 0 instructions: 127000000 cycles: 954913426 heartbeat IPC: 0.103072 cumulative IPC: 0.132025 (Simulation time: 0 hr 11 min 1 sec) 
Heartbeat CPU 0 instructions: 128000000 cycles: 961532282 heartbeat IPC: 0.151084 cumulative IPC: 0.132156 (Simulation time: 0 hr 11 min 5 sec) 
Heartbeat CPU 0 instructions: 129000002 cycles: 970836823 heartbeat IPC: 0.107475 cumulative IPC: 0.131919 (Simulation time: 0 hr 11 min 11 sec) 
Heartbeat CPU 0 instructions: 130000001 cycles: 977615192 heartbeat IPC: 0.147528 cumulative IPC: 0.132028 (Simulation time: 0 hr 11 min 14 sec) 
Heartbeat CPU 0 instructions: 131000000 cycles: 984571585 heartbeat IPC: 0.143753 cumulative IPC: 0.13211 (Simulation time: 0 hr 11 min 18 sec) 
Heartbeat CPU 0 instructions: 132000000 cycles: 996423538 heartbeat IPC: 0.0843743 cumulative IPC: 0.131542 (Simulation time: 0 hr 11 min 30 sec) 
Heartbeat CPU 0 instructions: 133000001 cycles: 1006672618 heartbeat IPC: 0.0975698 cumulative IPC: 0.131196 (Simulation time: 0 hr 11 min 38 sec) 
Heartbeat CPU 0 instructions: 134000001 cycles: 1013483371 heartbeat IPC: 0.146827 cumulative IPC: 0.131301 (Simulation time: 0 hr 11 min 41 sec) 
Heartbeat CPU 0 instructions: 135000003 cycles: 1020898677 heartbeat IPC: 0.134856 cumulative IPC: 0.131327 (Simulation time: 0 hr 11 min 45 sec) 
Heartbeat CPU 0 instructions: 136000001 cycles: 1029502655 heartbeat IPC: 0.116225 cumulative IPC: 0.131201 (Simulation time: 0 hr 11 min 49 sec) 
Heartbeat CPU 0 instructions: 137000002 cycles: 1037970826 heartbeat IPC: 0.118089 cumulative IPC: 0.131094 (Simulation time: 0 hr 11 min 55 sec) 
Heartbeat CPU 0 instructions: 138000003 cycles: 1044849826 heartbeat IPC: 0.14537 cumulative IPC: 0.131188 (Simulation time: 0 hr 11 min 58 sec) 
Heartbeat CPU 0 instructions: 139000002 cycles: 1051784148 heartbeat IPC: 0.14421 cumulative IPC: 0.131274 (Simulation time: 0 hr 12 min 2 sec) 
Heartbeat CPU 0 instructions: 140000001 cycles: 1061444791 heartbeat IPC: 0.103513 cumulative IPC: 0.131021 (Simulation time: 0 hr 12 min 7 sec) 
Heartbeat CPU 0 instructions: 141000003 cycles: 1068106802 heartbeat IPC: 0.150105 cumulative IPC: 0.13114 (Simulation time: 0 hr 12 min 11 sec) 
Heartbeat CPU 0 instructions: 142000001 cycles: 1074964401 heartbeat IPC: 0.145823 cumulative IPC: 0.131234 (Simulation time: 0 hr 12 min 15 sec) 
Heartbeat CPU 0 instructions: 143000000 cycles: 1081905160 heartbeat IPC: 0.144076 cumulative IPC: 0.131316 (Simulation time: 0 hr 12 min 18 sec) 
Heartbeat CPU 0 instructions: 144000002 cycles: 1091536116 heartbeat IPC: 0.103832 cumulative IPC: 0.131074 (Simulation time: 0 hr 12 min 24 sec) 
Heartbeat CPU 0 instructions: 145000000 cycles: 1097895764 heartbeat IPC: 0.157241 cumulative IPC: 0.131225 (Simulation time: 0 hr 12 min 28 sec) 
Heartbeat CPU 0 instructions: 146000000 cycles: 1104512910 heartbeat IPC: 0.151123 cumulative IPC: 0.131345 (Simulation time: 0 hr 12 min 31 sec) 
Heartbeat CPU 0 instructions: 147000001 cycles: 1113905063 heartbeat IPC: 0.106472 cumulative IPC: 0.131135 (Simulation time: 0 hr 12 min 40 sec) 
Heartbeat CPU 0 instructions: 148000000 cycles: 1120116070 heartbeat IPC: 0.161004 cumulative IPC: 0.1313 (Simulation time: 0 hr 12 min 47 sec) 
Heartbeat CPU 0 instructions: 149000001 cycles: 1129452341 heartbeat IPC: 0.107109 cumulative IPC: 0.1311 (Simulation time: 0 hr 12 min 57 sec) 
Heartbeat CPU 0 instructions: 150000003 cycles: 1136282912 heartbeat IPC: 0.146401 cumulative IPC: 0.131192 (Simulation time: 0 hr 13 min 3 sec) 
Heartbeat CPU 0 instructions: 151000003 cycles: 1143156573 heartbeat IPC: 0.145483 cumulative IPC: 0.131278 (Simulation time: 0 hr 13 min 9 sec) 
Heartbeat CPU 0 instructions: 152000000 cycles: 1152694547 heartbeat IPC: 0.104844 cumulative IPC: 0.131059 (Simulation time: 0 hr 13 min 19 sec) 
Heartbeat CPU 0 instructions: 153000003 cycles: 1159171255 heartbeat IPC: 0.1544 cumulative IPC: 0.13119 (Simulation time: 0 hr 13 min 25 sec) 
Heartbeat CPU 0 instructions: 154000000 cycles: 1166250839 heartbeat IPC: 0.141251 cumulative IPC: 0.131251 (Simulation time: 0 hr 13 min 32 sec) 
Heartbeat CPU 0 instructions: 155000003 cycles: 1173481958 heartbeat IPC: 0.138292 cumulative IPC: 0.131294 (Simulation time: 0 hr 13 min 38 sec) 
Heartbeat CPU 0 instructions: 156000002 cycles: 1183028536 heartbeat IPC: 0.104749 cumulative IPC: 0.13108 (Simulation time: 0 hr 13 min 47 sec) 
Heartbeat CPU 0 instructions: 157000001 cycles: 1189743019 heartbeat IPC: 0.148932 cumulative IPC: 0.131181 (Simulation time: 0 hr 13 min 52 sec) 
Heartbeat CPU 0 instructions: 158000000 cycles: 1196830831 heartbeat IPC: 0.141087 cumulative IPC: 0.13124 (Simulation time: 0 hr 13 min 59 sec) 
Heartbeat CPU 0 instructions: 159000002 cycles: 1203992557 heartbeat IPC: 0.139631 cumulative IPC: 0.13129 (Simulation time: 0 hr 14 min 5 sec) 
Heartbeat CPU 0 instructions: 160000002 cycles: 1213571304 heartbeat IPC: 0.104398 cumulative IPC: 0.131077 (Simulation time: 0 hr 14 min 15 sec) 
Heartbeat CPU 0 instructions: 161000000 cycles: 1220051192 heartbeat IPC: 0.154323 cumulative IPC: 0.131201 (Simulation time: 0 hr 14 min 22 sec) 
Heartbeat CPU 0 instructions: 162000001 cycles: 1226458125 heartbeat IPC: 0.156081 cumulative IPC: 0.131331 (Simulation time: 0 hr 14 min 28 sec) 
Heartbeat CPU 0 instructions: 163000002 cycles: 1235840481 heartbeat IPC: 0.106583 cumulative IPC: 0.131143 (Simulation time: 0 hr 14 min 38 sec) 
Heartbeat CPU 0 instructions: 164000002 cycles: 1242819917 heartbeat IPC: 0.143278 cumulative IPC: 0.131211 (Simulation time: 0 hr 14 min 45 sec) 
Heartbeat CPU 0 instructions: 165000000 cycles: 1250475595 heartbeat IPC: 0.130622 cumulative IPC: 0.131207 (Simulation time: 0 hr 14 min 51 sec) 
Heartbeat CPU 0 instructions: 166000001 cycles: 1262776790 heartbeat IPC: 0.081293 cumulative IPC: 0.130721 (Simulation time: 0 hr 15 min 5 sec) 
Heartbeat CPU 0 instructions: 167000002 cycles: 1269250177 heartbeat IPC: 0.154479 cumulative IPC: 0.130842 (Simulation time: 0 hr 15 min 10 sec) 
Heartbeat CPU 0 instructions: 168000002 cycles: 1276435955 heartbeat IPC: 0.139164 cumulative IPC: 0.130889 (Simulation time: 0 hr 15 min 13 sec) 
Heartbeat CPU 0 instructions: 169000001 cycles: 1284066728 heartbeat IPC: 0.131048 cumulative IPC: 0.13089 (Simulation time: 0 hr 15 min 17 sec) 
Heartbeat CPU 0 instructions: 170000000 cycles: 1293340766 heartbeat IPC: 0.107828 cumulative IPC: 0.130725 (Simulation time: 0 hr 15 min 22 sec) 
Heartbeat CPU 0 instructions: 171000000 cycles: 1300833865 heartbeat IPC: 0.133456 cumulative IPC: 0.13074 (Simulation time: 0 hr 15 min 27 sec) 
Heartbeat CPU 0 instructions: 172000002 cycles: 1307705672 heartbeat IPC: 0.145522 cumulative IPC: 0.130818 (Simulation time: 0 hr 15 min 33 sec) 
Heartbeat CPU 0 instructions: 173000001 cycles: 1314756965 heartbeat IPC: 0.141818 cumulative IPC: 0.130877 (Simulation time: 0 hr 15 min 39 sec) 
Heartbeat CPU 0 instructions: 174000003 cycles: 1321876053 heartbeat IPC: 0.140468 cumulative IPC: 0.130929 (Simulation time: 0 hr 15 min 42 sec) 
Heartbeat CPU 0 instructions: 175000002 cycles: 1331378367 heartbeat IPC: 0.105237 cumulative IPC: 0.130745 (Simulation time: 0 hr 15 min 48 sec) 
Heartbeat CPU 0 instructions: 176000000 cycles: 1338223923 heartbeat IPC: 0.14608 cumulative IPC: 0.130824 (Simulation time: 0 hr 15 min 55 sec) 
Heartbeat CPU 0 instructions: 177000000 cycles: 1345295127 heartbeat IPC: 0.141419 cumulative IPC: 0.130879 (Simulation time: 0 hr 16 min 2 sec) 
Heartbeat CPU 0 instructions: 178000002 cycles: 1354821178 heartbeat IPC: 0.104976 cumulative IPC: 0.130697 (Simulation time: 0 hr 16 min 9 sec) 
Heartbeat CPU 0 instructions: 179000002 cycles: 1361805501 heartbeat IPC: 0.143178 cumulative IPC: 0.130761 (Simulation time: 0 hr 16 min 14 sec) 
Heartbeat CPU 0 instructions: 180000002 cycles: 1368219824 heartbeat IPC: 0.155901 cumulative IPC: 0.130879 (Simulation time: 0 hr 16 min 18 sec) 
Heartbeat CPU 0 instructions: 181000003 cycles: 1374618819 heartbeat IPC: 0.156275 cumulative IPC: 0.130997 (Simulation time: 0 hr 16 min 21 sec) 
Heartbeat CPU 0 instructions: 182000000 cycles: 1380766728 heartbeat IPC: 0.162656 cumulative IPC: 0.131138 (Simulation time: 0 hr 16 min 25 sec) 
Heartbeat CPU 0 instructions: 183000001 cycles: 1389850794 heartbeat IPC: 0.110083 cumulative IPC: 0.131001 (Simulation time: 0 hr 16 min 31 sec) 
Heartbeat CPU 0 instructions: 184000003 cycles: 1399157675 heartbeat IPC: 0.107448 cumulative IPC: 0.130844 (Simulation time: 0 hr 16 min 37 sec) 
Heartbeat CPU 0 instructions: 185000001 cycles: 1408585304 heartbeat IPC: 0.106071 cumulative IPC: 0.130678 (Simulation time: 0 hr 16 min 42 sec) 
Heartbeat CPU 0 instructions: 186000000 cycles: 1414983526 heartbeat IPC: 0.156293 cumulative IPC: 0.130794 (Simulation time: 0 hr 16 min 46 sec) 
Heartbeat CPU 0 instructions: 187000000 cycles: 1424245868 heartbeat IPC: 0.107964 cumulative IPC: 0.130646 (Simulation time: 0 hr 16 min 51 sec) 
Heartbeat CPU 0 instructions: 188000001 cycles: 1430840102 heartbeat IPC: 0.151648 cumulative IPC: 0.130742 (Simulation time: 0 hr 16 min 55 sec) 
Heartbeat CPU 0 instructions: 189000001 cycles: 1437539173 heartbeat IPC: 0.149274 cumulative IPC: 0.130829 (Simulation time: 0 hr 16 min 59 sec) 
Heartbeat CPU 0 instructions: 190000002 cycles: 1445555838 heartbeat IPC: 0.12474 cumulative IPC: 0.130795 (Simulation time: 0 hr 17 min 3 sec) 
Heartbeat CPU 0 instructions: 191000000 cycles: 1453593515 heartbeat IPC: 0.124414 cumulative IPC: 0.13076 (Simulation time: 0 hr 17 min 8 sec) 
Heartbeat CPU 0 instructions: 192000000 cycles: 1462846399 heartbeat IPC: 0.108074 cumulative IPC: 0.130616 (Simulation time: 0 hr 17 min 14 sec) 
Heartbeat CPU 0 instructions: 193000003 cycles: 1469123242 heartbeat IPC: 0.159316 cumulative IPC: 0.130739 (Simulation time: 0 hr 17 min 17 sec) 
Heartbeat CPU 0 instructions: 194000001 cycles: 1475677016 heartbeat IPC: 0.152584 cumulative IPC: 0.130836 (Simulation time: 0 hr 17 min 21 sec) 
Heartbeat CPU 0 instructions: 195000002 cycles: 1482312830 heartbeat IPC: 0.150698 cumulative IPC: 0.130925 (Simulation time: 0 hr 17 min 25 sec) 
Heartbeat CPU 0 instructions: 196000001 cycles: 1491589040 heartbeat IPC: 0.107803 cumulative IPC: 0.130781 (Simulation time: 0 hr 17 min 30 sec) 
Heartbeat CPU 0 instructions: 197000002 cycles: 1497827986 heartbeat IPC: 0.160284 cumulative IPC: 0.130904 (Simulation time: 0 hr 17 min 34 sec) 
Heartbeat CPU 0 instructions: 198000000 cycles: 1504357318 heartbeat IPC: 0.153155 cumulative IPC: 0.131 (Simulation time: 0 hr 17 min 38 sec) 
Heartbeat CPU 0 instructions: 199000002 cycles: 1510935640 heartbeat IPC: 0.152015 cumulative IPC: 0.131092 (Simulation time: 0 hr 17 min 41 sec) 
Heartbeat CPU 0 instructions: 200000000 cycles: 1517511103 heartbeat IPC: 0.15208 cumulative IPC: 0.131183 (Simulation time: 0 hr 17 min 45 sec) 
Heartbeat CPU 0 instructions: 201000001 cycles: 1526780630 heartbeat IPC: 0.10788 cumulative IPC: 0.131041 (Simulation time: 0 hr 17 min 51 sec) 
Heartbeat CPU 0 instructions: 202000001 cycles: 1536338077 heartbeat IPC: 0.10463 cumulative IPC: 0.130877 (Simulation time: 0 hr 17 min 56 sec) 
Heartbeat CPU 0 instructions: 203000003 cycles: 1543598152 heartbeat IPC: 0.13774 cumulative IPC: 0.130909 (Simulation time: 0 hr 18 min 0 sec) 
Heartbeat CPU 0 instructions: 204000001 cycles: 1552485108 heartbeat IPC: 0.112524 cumulative IPC: 0.130804 (Simulation time: 0 hr 18 min 6 sec) 
Heartbeat CPU 0 instructions: 205000003 cycles: 1559256004 heartbeat IPC: 0.147691 cumulative IPC: 0.130877 (Simulation time: 0 hr 18 min 9 sec) 
Heartbeat CPU 0 instructions: 206000000 cycles: 1566275613 heartbeat IPC: 0.142458 cumulative IPC: 0.130929 (Simulation time: 0 hr 18 min 13 sec) 
Heartbeat CPU 0 instructions: 207000000 cycles: 1573473342 heartbeat IPC: 0.138933 cumulative IPC: 0.130966 (Simulation time: 0 hr 18 min 16 sec) 
Heartbeat CPU 0 instructions: 208000001 cycles: 1580563484 heartbeat IPC: 0.141041 cumulative IPC: 0.131011 (Simulation time: 0 hr 18 min 20 sec) 
Heartbeat CPU 0 instructions: 209000000 cycles: 1589981898 heartbeat IPC: 0.106175 cumulative IPC: 0.130864 (Simulation time: 0 hr 18 min 25 sec) 
Heartbeat CPU 0 instructions: 210000000 cycles: 1596270546 heartbeat IPC: 0.159017 cumulative IPC: 0.130975 (Simulation time: 0 hr 18 min 29 sec) 
Heartbeat CPU 0 instructions: 211000000 cycles: 1602621187 heartbeat IPC: 0.157464 cumulative IPC: 0.13108 (Simulation time: 0 hr 18 min 33 sec) 
Heartbeat CPU 0 instructions: 212000000 cycles: 1609024523 heartbeat IPC: 0.156169 cumulative IPC: 0.13118 (Simulation time: 0 hr 18 min 37 sec) 
Heartbeat CPU 0 instructions: 213000003 cycles: 1618253711 heartbeat IPC: 0.108352 cumulative IPC: 0.13105 (Simulation time: 0 hr 18 min 42 sec) 
Heartbeat CPU 0 instructions: 214000000 cycles: 1624895865 heartbeat IPC: 0.150553 cumulative IPC: 0.131129 (Simulation time: 0 hr 18 min 46 sec) 
Heartbeat CPU 0 instructions: 215000000 cycles: 1634370911 heartbeat IPC: 0.10554 cumulative IPC: 0.130981 (Simulation time: 0 hr 18 min 51 sec) 
Heartbeat CPU 0 instructions: 216000001 cycles: 1641122878 heartbeat IPC: 0.148105 cumulative IPC: 0.131051 (Simulation time: 0 hr 18 min 55 sec) 
Heartbeat CPU 0 instructions: 217000001 cycles: 1647711409 heartbeat IPC: 0.151779 cumulative IPC: 0.131134 (Simulation time: 0 hr 18 min 59 sec) 
Heartbeat CPU 0 instructions: 218000003 cycles: 1657132413 heartbeat IPC: 0.106146 cumulative IPC: 0.130992 (Simulation time: 0 hr 19 min 4 sec) 
Heartbeat CPU 0 instructions: 219000001 cycles: 1663902183 heartbeat IPC: 0.147715 cumulative IPC: 0.13106 (Simulation time: 0 hr 19 min 8 sec) 
Heartbeat CPU 0 instructions: 220000000 cycles: 1670903492 heartbeat IPC: 0.14283 cumulative IPC: 0.13111 (Simulation time: 0 hr 19 min 12 sec) 
Heartbeat CPU 0 instructions: 221000003 cycles: 1680515192 heartbeat IPC: 0.10404 cumulative IPC: 0.130955 (Simulation time: 0 hr 19 min 17 sec) 
Heartbeat CPU 0 instructions: 222000000 cycles: 1689862438 heartbeat IPC: 0.106983 cumulative IPC: 0.130822 (Simulation time: 0 hr 19 min 23 sec) 
Heartbeat CPU 0 instructions: 223000000 cycles: 1696632821 heartbeat IPC: 0.147702 cumulative IPC: 0.13089 (Simulation time: 0 hr 19 min 27 sec) 
Heartbeat CPU 0 instructions: 224000002 cycles: 1703692799 heartbeat IPC: 0.141644 cumulative IPC: 0.130934 (Simulation time: 0 hr 19 min 30 sec) 
Heartbeat CPU 0 instructions: 225000000 cycles: 1710854199 heartbeat IPC: 0.139637 cumulative IPC: 0.130971 (Simulation time: 0 hr 19 min 34 sec) 
Heartbeat CPU 0 instructions: 226000003 cycles: 1720559886 heartbeat IPC: 0.103033 cumulative IPC: 0.130813 (Simulation time: 0 hr 19 min 39 sec) 
Heartbeat CPU 0 instructions: 227000000 cycles: 1727307565 heartbeat IPC: 0.148199 cumulative IPC: 0.130881 (Simulation time: 0 hr 19 min 46 sec) 
Heartbeat CPU 0 instructions: 228000003 cycles: 1734235032 heartbeat IPC: 0.144353 cumulative IPC: 0.130935 (Simulation time: 0 hr 19 min 51 sec) 
Heartbeat CPU 0 instructions: 229000002 cycles: 1741167939 heartbeat IPC: 0.14424 cumulative IPC: 0.130988 (Simulation time: 0 hr 19 min 55 sec) 
Heartbeat CPU 0 instructions: 230000003 cycles: 1747895084 heartbeat IPC: 0.148652 cumulative IPC: 0.131056 (Simulation time: 0 hr 19 min 58 sec) 
Heartbeat CPU 0 instructions: 231000000 cycles: 1755306683 heartbeat IPC: 0.134923 cumulative IPC: 0.131072 (Simulation time: 0 hr 20 min 2 sec) 
Heartbeat CPU 0 instructions: 232000000 cycles: 1763778861 heartbeat IPC: 0.118033 cumulative IPC: 0.131009 (Simulation time: 0 hr 20 min 7 sec) 
Heartbeat CPU 0 instructions: 233000000 cycles: 1770173266 heartbeat IPC: 0.156387 cumulative IPC: 0.131101 (Simulation time: 0 hr 20 min 11 sec) 
Heartbeat CPU 0 instructions: 234000003 cycles: 1776507839 heartbeat IPC: 0.157864 cumulative IPC: 0.131197 (Simulation time: 0 hr 20 min 15 sec) 
Heartbeat CPU 0 instructions: 235000000 cycles: 1782624271 heartbeat IPC: 0.163494 cumulative IPC: 0.131307 (Simulation time: 0 hr 20 min 19 sec) 
Heartbeat CPU 0 instructions: 236000003 cycles: 1791825391 heartbeat IPC: 0.108683 cumulative IPC: 0.131191 (Simulation time: 0 hr 20 min 24 sec) 
Heartbeat CPU 0 instructions: 237000000 cycles: 1798171983 heartbeat IPC: 0.157564 cumulative IPC: 0.131284 (Simulation time: 0 hr 20 min 28 sec) 
Heartbeat CPU 0 instructions: 238000003 cycles: 1804526018 heartbeat IPC: 0.157381 cumulative IPC: 0.131376 (Simulation time: 0 hr 20 min 32 sec) 
Heartbeat CPU 0 instructions: 239000000 cycles: 1810811175 heartbeat IPC: 0.159105 cumulative IPC: 0.131472 (Simulation time: 0 hr 20 min 35 sec) 
Heartbeat CPU 0 instructions: 240000000 cycles: 1818440834 heartbeat IPC: 0.131067 cumulative IPC: 0.131471 (Simulation time: 0 hr 20 min 40 sec) 
Heartbeat CPU 0 instructions: 241000003 cycles: 1826272429 heartbeat IPC: 0.127688 cumulative IPC: 0.131455 (Simulation time: 0 hr 20 min 45 sec) 
Heartbeat CPU 0 instructions: 242000000 cycles: 1833387720 heartbeat IPC: 0.140542 cumulative IPC: 0.13149 (Simulation time: 0 hr 20 min 48 sec) 
Heartbeat CPU 0 instructions: 243000001 cycles: 1840825761 heartbeat IPC: 0.134444 cumulative IPC: 0.131502 (Simulation time: 0 hr 20 min 52 sec) 
Heartbeat CPU 0 instructions: 244000001 cycles: 1850444934 heartbeat IPC: 0.103959 cumulative IPC: 0.131359 (Simulation time: 0 hr 20 min 56 sec) 
Heartbeat CPU 0 instructions: 245000000 cycles: 1857506580 heartbeat IPC: 0.14161 cumulative IPC: 0.131398 (Simulation time: 0 hr 21 min 1 sec) 
Heartbeat CPU 0 instructions: 246000000 cycles: 1864463144 heartbeat IPC: 0.143749 cumulative IPC: 0.131444 (Simulation time: 0 hr 21 min 4 sec) 
Heartbeat CPU 0 instructions: 247000000 cycles: 1871572171 heartbeat IPC: 0.140666 cumulative IPC: 0.131479 (Simulation time: 0 hr 21 min 10 sec) 
Heartbeat CPU 0 instructions: 248000001 cycles: 1878783219 heartbeat IPC: 0.138676 cumulative IPC: 0.131506 (Simulation time: 0 hr 21 min 17 sec) 
Heartbeat CPU 0 instructions: 249000002 cycles: 1887131409 heartbeat IPC: 0.119787 cumulative IPC: 0.131454 (Simulation time: 0 hr 21 min 24 sec) 
Heartbeat CPU 0 instructions: 250000002 cycles: 1895188543 heartbeat IPC: 0.124114 cumulative IPC: 0.131423 (Simulation time: 0 hr 21 min 30 sec) 
Heartbeat CPU 0 instructions: 251000000 cycles: 1904481828 heartbeat IPC: 0.107604 cumulative IPC: 0.131307 (Simulation time: 0 hr 21 min 35 sec) 
Heartbeat CPU 0 instructions: 252000001 cycles: 1911196244 heartbeat IPC: 0.148933 cumulative IPC: 0.131369 (Simulation time: 0 hr 21 min 39 sec) 
Heartbeat CPU 0 instructions: 253000000 cycles: 1920672178 heartbeat IPC: 0.10553 cumulative IPC: 0.131241 (Simulation time: 0 hr 21 min 44 sec) 
Heartbeat CPU 0 instructions: 254000001 cycles: 1933246641 heartbeat IPC: 0.0795263 cumulative IPC: 0.130905 (Simulation time: 0 hr 21 min 52 sec) 
Heartbeat CPU 0 instructions: 255000002 cycles: 1939817480 heartbeat IPC: 0.152188 cumulative IPC: 0.130977 (Simulation time: 0 hr 21 min 56 sec) 
Heartbeat CPU 0 instructions: 256000001 cycles: 1946724207 heartbeat IPC: 0.144786 cumulative IPC: 0.131026 (Simulation time: 0 hr 22 min 0 sec) 
Heartbeat CPU 0 instructions: 257000002 cycles: 1956380671 heartbeat IPC: 0.103558 cumulative IPC: 0.13089 (Simulation time: 0 hr 22 min 6 sec) 
Heartbeat CPU 0 instructions: 258000003 cycles: 1963034341 heartbeat IPC: 0.150293 cumulative IPC: 0.130956 (Simulation time: 0 hr 22 min 10 sec) 
Heartbeat CPU 0 instructions: 259000003 cycles: 1970089085 heartbeat IPC: 0.141749 cumulative IPC: 0.130995 (Simulation time: 0 hr 22 min 17 sec) 
Heartbeat CPU 0 instructions: 260000000 cycles: 1982391684 heartbeat IPC: 0.0812834 cumulative IPC: 0.130686 (Simulation time: 0 hr 22 min 31 sec) 
Heartbeat CPU 0 instructions: 261000001 cycles: 1990008478 heartbeat IPC: 0.131289 cumulative IPC: 0.130689 (Simulation time: 0 hr 22 min 38 sec) 
Heartbeat CPU 0 instructions: 262000000 cycles: 1998228367 heartbeat IPC: 0.121656 cumulative IPC: 0.130651 (Simulation time: 0 hr 22 min 48 sec) 
Heartbeat CPU 0 instructions: 263000001 cycles: 2005078151 heartbeat IPC: 0.14599 cumulative IPC: 0.130704 (Simulation time: 0 hr 22 min 54 sec) 
Heartbeat CPU 0 instructions: 264000000 cycles: 2011953544 heartbeat IPC: 0.145446 cumulative IPC: 0.130754 (Simulation time: 0 hr 23 min 1 sec) 
Heartbeat CPU 0 instructions: 265000001 cycles: 2019881534 heartbeat IPC: 0.126135 cumulative IPC: 0.130736 (Simulation time: 0 hr 23 min 8 sec) 
Heartbeat CPU 0 instructions: 266000000 cycles: 2028308497 heartbeat IPC: 0.118667 cumulative IPC: 0.130686 (Simulation time: 0 hr 23 min 14 sec) 
Heartbeat CPU 0 instructions: 267000002 cycles: 2035209738 heartbeat IPC: 0.144902 cumulative IPC: 0.130734 (Simulation time: 0 hr 23 min 18 sec) 
Heartbeat CPU 0 instructions: 268000001 cycles: 2042027369 heartbeat IPC: 0.146678 cumulative IPC: 0.130787 (Simulation time: 0 hr 23 min 22 sec) 
Heartbeat CPU 0 instructions: 269000000 cycles: 2048671165 heartbeat IPC: 0.150516 cumulative IPC: 0.130851 (Simulation time: 0 hr 23 min 26 sec) 
Heartbeat CPU 0 instructions: 270000000 cycles: 2055053868 heartbeat IPC: 0.156673 cumulative IPC: 0.130932 (Simulation time: 0 hr 23 min 29 sec) 
Heartbeat CPU 0 instructions: 271000002 cycles: 2064284411 heartbeat IPC: 0.108336 cumulative IPC: 0.130831 (Simulation time: 0 hr 23 min 35 sec) 
Heartbeat CPU 0 instructions: 272000000 cycles: 2071050453 heartbeat IPC: 0.147797 cumulative IPC: 0.130886 (Simulation time: 0 hr 23 min 39 sec) 
Heartbeat CPU 0 instructions: 273000000 cycles: 2080680023 heartbeat IPC: 0.103847 cumulative IPC: 0.130761 (Simulation time: 0 hr 23 min 44 sec) 
Heartbeat CPU 0 instructions: 274000003 cycles: 2087034922 heartbeat IPC: 0.157359 cumulative IPC: 0.130842 (Simulation time: 0 hr 23 min 48 sec) 
Heartbeat CPU 0 instructions: 275000000 cycles: 2093673719 heartbeat IPC: 0.150629 cumulative IPC: 0.130905 (Simulation time: 0 hr 23 min 52 sec) 
Heartbeat CPU 0 instructions: 276000000 cycles: 2102646176 heartbeat IPC: 0.111452 cumulative IPC: 0.130822 (Simulation time: 0 hr 23 min 57 sec) 
Heartbeat CPU 0 instructions: 277000001 cycles: 2109817398 heartbeat IPC: 0.139446 cumulative IPC: 0.130851 (Simulation time: 0 hr 24 min 1 sec) 
Heartbeat CPU 0 instructions: 278000002 cycles: 2116725025 heartbeat IPC: 0.144768 cumulative IPC: 0.130896 (Simulation time: 0 hr 24 min 5 sec) 
Heartbeat CPU 0 instructions: 279000001 cycles: 2126092218 heartbeat IPC: 0.106755 cumulative IPC: 0.13079 (Simulation time: 0 hr 24 min 11 sec) 
Heartbeat CPU 0 instructions: 280000001 cycles: 2133011307 heartbeat IPC: 0.144528 cumulative IPC: 0.130834 (Simulation time: 0 hr 24 min 14 sec) 
Heartbeat CPU 0 instructions: 281000000 cycles: 2140229253 heartbeat IPC: 0.138543 cumulative IPC: 0.13086 (Simulation time: 0 hr 24 min 18 sec) 
Heartbeat CPU 0 instructions: 282000003 cycles: 2149730648 heartbeat IPC: 0.105248 cumulative IPC: 0.130747 (Simulation time: 0 hr 24 min 23 sec) 
Heartbeat CPU 0 instructions: 283000001 cycles: 2156002747 heartbeat IPC: 0.159436 cumulative IPC: 0.130831 (Simulation time: 0 hr 24 min 27 sec) 
Heartbeat CPU 0 instructions: 284000000 cycles: 2162468569 heartbeat IPC: 0.154659 cumulative IPC: 0.130902 (Simulation time: 0 hr 24 min 33 sec) 
Heartbeat CPU 0 instructions: 285000001 cycles: 2171971663 heartbeat IPC: 0.105229 cumulative IPC: 0.13079 (Simulation time: 0 hr 24 min 41 sec) 
Heartbeat CPU 0 instructions: 286000000 cycles: 2178525841 heartbeat IPC: 0.152574 cumulative IPC: 0.130855 (Simulation time: 0 hr 24 min 47 sec) 
Heartbeat CPU 0 instructions: 287000000 cycles: 2185205545 heartbeat IPC: 0.149707 cumulative IPC: 0.130913 (Simulation time: 0 hr 24 min 52 sec) 
Heartbeat CPU 0 instructions: 288000001 cycles: 2191871787 heartbeat IPC: 0.15001 cumulative IPC: 0.130971 (Simulation time: 0 hr 24 min 57 sec) 
Heartbeat CPU 0 instructions: 289000001 cycles: 2199559079 heartbeat IPC: 0.130085 cumulative IPC: 0.130968 (Simulation time: 0 hr 25 min 2 sec) 
Heartbeat CPU 0 instructions: 290000000 cycles: 2210916203 heartbeat IPC: 0.0880504 cumulative IPC: 0.130747 (Simulation time: 0 hr 25 min 13 sec) 
Heartbeat CPU 0 instructions: 291000001 cycles: 2217478683 heartbeat IPC: 0.152382 cumulative IPC: 0.130811 (Simulation time: 0 hr 25 min 18 sec) 
Heartbeat CPU 0 instructions: 292000000 cycles: 2224677204 heartbeat IPC: 0.138917 cumulative IPC: 0.130838 (Simulation time: 0 hr 25 min 22 sec) 
Heartbeat CPU 0 instructions: 293000003 cycles: 2234124750 heartbeat IPC: 0.105848 cumulative IPC: 0.130732 (Simulation time: 0 hr 25 min 28 sec) 
Heartbeat CPU 0 instructions: 294000000 cycles: 2240908027 heartbeat IPC: 0.147421 cumulative IPC: 0.130782 (Simulation time: 0 hr 25 min 31 sec) 
Heartbeat CPU 0 instructions: 295000001 cycles: 2247823179 heartbeat IPC: 0.14461 cumulative IPC: 0.130825 (Simulation time: 0 hr 25 min 35 sec) 
Heartbeat CPU 0 instructions: 296000000 cycles: 2257125951 heartbeat IPC: 0.107495 cumulative IPC: 0.130729 (Simulation time: 0 hr 25 min 41 sec) 
Heartbeat CPU 0 instructions: 297000000 cycles: 2266746725 heartbeat IPC: 0.103942 cumulative IPC: 0.130615 (Simulation time: 0 hr 25 min 46 sec) 
Heartbeat CPU 0 instructions: 298000000 cycles: 2273223967 heartbeat IPC: 0.154387 cumulative IPC: 0.130683 (Simulation time: 0 hr 25 min 50 sec) 
Heartbeat CPU 0 instructions: 299000000 cycles: 2279799519 heartbeat IPC: 0.152078 cumulative IPC: 0.130745 (Simulation time: 0 hr 25 min 54 sec) 
Heartbeat CPU 0 instructions: 300000000 cycles: 2286320247 heartbeat IPC: 0.153357 cumulative IPC: 0.130809 (Simulation time: 0 hr 25 min 58 sec) 
Heartbeat CPU 0 instructions: 301000001 cycles: 2295745361 heartbeat IPC: 0.1061 cumulative IPC: 0.130708 (Simulation time: 0 hr 26 min 4 sec) 
Heartbeat CPU 0 instructions: 302000003 cycles: 2304388909 heartbeat IPC: 0.115693 cumulative IPC: 0.130651 (Simulation time: 0 hr 26 min 8 sec) 
Heartbeat CPU 0 instructions: 303000000 cycles: 2311552677 heartbeat IPC: 0.139591 cumulative IPC: 0.130679 (Simulation time: 0 hr 26 min 14 sec) 
Heartbeat CPU 0 instructions: 304000000 cycles: 2317978729 heartbeat IPC: 0.155617 cumulative IPC: 0.130748 (Simulation time: 0 hr 26 min 17 sec) 
Heartbeat CPU 0 instructions: 305000000 cycles: 2325002613 heartbeat IPC: 0.142371 cumulative IPC: 0.130783 (Simulation time: 0 hr 26 min 21 sec) 
Heartbeat CPU 0 instructions: 306000001 cycles: 2333793526 heartbeat IPC: 0.113754 cumulative IPC: 0.130719 (Simulation time: 0 hr 26 min 27 sec) 
Heartbeat CPU 0 instructions: 307000000 cycles: 2340526757 heartbeat IPC: 0.148517 cumulative IPC: 0.13077 (Simulation time: 0 hr 26 min 32 sec) 
Heartbeat CPU 0 instructions: 308000000 cycles: 2351843228 heartbeat IPC: 0.0883668 cumulative IPC: 0.130566 (Simulation time: 0 hr 26 min 42 sec) 
Heartbeat CPU 0 instructions: 309000002 cycles: 2359443100 heartbeat IPC: 0.131581 cumulative IPC: 0.13057 (Simulation time: 0 hr 26 min 47 sec) 
Heartbeat CPU 0 instructions: 310000002 cycles: 2366487640 heartbeat IPC: 0.141954 cumulative IPC: 0.130603 (Simulation time: 0 hr 26 min 50 sec) 
Heartbeat CPU 0 instructions: 311000000 cycles: 2376377534 heartbeat IPC: 0.101113 cumulative IPC: 0.130481 (Simulation time: 0 hr 26 min 56 sec) 
Heartbeat CPU 0 instructions: 312000001 cycles: 2383023107 heartbeat IPC: 0.150476 cumulative IPC: 0.130536 (Simulation time: 0 hr 27 min 0 sec) 
Heartbeat CPU 0 instructions: 313000002 cycles: 2389808736 heartbeat IPC: 0.14737 cumulative IPC: 0.130584 (Simulation time: 0 hr 27 min 3 sec) 
Heartbeat CPU 0 instructions: 314000000 cycles: 2396556680 heartbeat IPC: 0.148193 cumulative IPC: 0.130634 (Simulation time: 0 hr 27 min 7 sec) 
Heartbeat CPU 0 instructions: 315000001 cycles: 2402884560 heartbeat IPC: 0.158031 cumulative IPC: 0.130706 (Simulation time: 0 hr 27 min 11 sec) 
Heartbeat CPU 0 instructions: 316000001 cycles: 2408807070 heartbeat IPC: 0.168847 cumulative IPC: 0.1308 (Simulation time: 0 hr 27 min 14 sec) 
Heartbeat CPU 0 instructions: 317000002 cycles: 2418244747 heartbeat IPC: 0.105958 cumulative IPC: 0.130703 (Simulation time: 0 hr 27 min 20 sec) 
Heartbeat CPU 0 instructions: 318000002 cycles: 2427754668 heartbeat IPC: 0.105153 cumulative IPC: 0.130603 (Simulation time: 0 hr 27 min 25 sec) 
Heartbeat CPU 0 instructions: 319000000 cycles: 2433996574 heartbeat IPC: 0.160207 cumulative IPC: 0.130679 (Simulation time: 0 hr 27 min 29 sec) 
Heartbeat CPU 0 instructions: 320000000 cycles: 2440481168 heartbeat IPC: 0.154212 cumulative IPC: 0.130741 (Simulation time: 0 hr 27 min 33 sec) 
Heartbeat CPU 0 instructions: 321000000 cycles: 2447014178 heartbeat IPC: 0.153069 cumulative IPC: 0.130801 (Simulation time: 0 hr 27 min 37 sec) 
Heartbeat CPU 0 instructions: 322000001 cycles: 2453626742 heartbeat IPC: 0.151227 cumulative IPC: 0.130856 (Simulation time: 0 hr 27 min 40 sec) 
Heartbeat CPU 0 instructions: 323000003 cycles: 2462239843 heartbeat IPC: 0.116102 cumulative IPC: 0.130804 (Simulation time: 0 hr 27 min 45 sec) 
Heartbeat CPU 0 instructions: 324000002 cycles: 2469434570 heartbeat IPC: 0.138991 cumulative IPC: 0.130828 (Simulation time: 0 hr 27 min 49 sec) 
Heartbeat CPU 0 instructions: 325000003 cycles: 2476346696 heartbeat IPC: 0.144673 cumulative IPC: 0.130867 (Simulation time: 0 hr 27 min 53 sec) 
Heartbeat CPU 0 instructions: 326000000 cycles: 2483363367 heartbeat IPC: 0.142517 cumulative IPC: 0.1309 (Simulation time: 0 hr 27 min 57 sec) 
Heartbeat CPU 0 instructions: 327000000 cycles: 2492961518 heartbeat IPC: 0.104187 cumulative IPC: 0.130797 (Simulation time: 0 hr 28 min 2 sec) 
Heartbeat CPU 0 instructions: 328000002 cycles: 2499748910 heartbeat IPC: 0.147332 cumulative IPC: 0.130842 (Simulation time: 0 hr 28 min 6 sec) 
Heartbeat CPU 0 instructions: 329000002 cycles: 2506961798 heartbeat IPC: 0.138641 cumulative IPC: 0.130864 (Simulation time: 0 hr 28 min 11 sec) 
Heartbeat CPU 0 instructions: 330000000 cycles: 2513768266 heartbeat IPC: 0.146919 cumulative IPC: 0.130908 (Simulation time: 0 hr 28 min 18 sec) 
Heartbeat CPU 0 instructions: 331000000 cycles: 2520597706 heartbeat IPC: 0.146425 cumulative IPC: 0.13095 (Simulation time: 0 hr 28 min 23 sec) 
Heartbeat CPU 0 instructions: 332000000 cycles: 2530043633 heartbeat IPC: 0.105866 cumulative IPC: 0.130856 (Simulation time: 0 hr 28 min 28 sec) 
Heartbeat CPU 0 instructions: 333000002 cycles: 2536773190 heartbeat IPC: 0.148598 cumulative IPC: 0.130903 (Simulation time: 0 hr 28 min 32 sec) 
Heartbeat CPU 0 instructions: 334000002 cycles: 2546246240 heartbeat IPC: 0.105563 cumulative IPC: 0.130809 (Simulation time: 0 hr 28 min 37 sec) 
Heartbeat CPU 0 instructions: 335000003 cycles: 2552882302 heartbeat IPC: 0.150692 cumulative IPC: 0.130861 (Simulation time: 0 hr 28 min 41 sec) 
Heartbeat CPU 0 instructions: 336000002 cycles: 2559421963 heartbeat IPC: 0.152913 cumulative IPC: 0.130917 (Simulation time: 0 hr 28 min 45 sec) 
Heartbeat CPU 0 instructions: 337000001 cycles: 2566000451 heartbeat IPC: 0.15201 cumulative IPC: 0.130971 (Simulation time: 0 hr 28 min 48 sec) 
Heartbeat CPU 0 instructions: 338000001 cycles: 2572565318 heartbeat IPC: 0.152326 cumulative IPC: 0.131025 (Simulation time: 0 hr 28 min 52 sec) 
Heartbeat CPU 0 instructions: 339000001 cycles: 2581808427 heartbeat IPC: 0.108189 cumulative IPC: 0.130944 (Simulation time: 0 hr 28 min 58 sec) 
Heartbeat CPU 0 instructions: 340000001 cycles: 2588379453 heartbeat IPC: 0.152183 cumulative IPC: 0.130998 (Simulation time: 0 hr 29 min 1 sec) 
Heartbeat CPU 0 instructions: 341000000 cycles: 2597151479 heartbeat IPC: 0.113999 cumulative IPC: 0.13094 (Simulation time: 0 hr 29 min 5 sec) 
Heartbeat CPU 0 instructions: 342000002 cycles: 2604590280 heartbeat IPC: 0.134431 cumulative IPC: 0.13095 (Simulation time: 0 hr 29 min 10 sec) 
Heartbeat CPU 0 instructions: 343000000 cycles: 2611405954 heartbeat IPC: 0.14672 cumulative IPC: 0.130991 (Simulation time: 0 hr 29 min 14 sec) 
Heartbeat CPU 0 instructions: 344000003 cycles: 2618262934 heartbeat IPC: 0.145837 cumulative IPC: 0.13103 (Simulation time: 0 hr 29 min 18 sec) 
Heartbeat CPU 0 instructions: 345000002 cycles: 2625601430 heartbeat IPC: 0.136268 cumulative IPC: 0.131045 (Simulation time: 0 hr 29 min 22 sec) 
Heartbeat CPU 0 instructions: 346000000 cycles: 2634626556 heartbeat IPC: 0.110802 cumulative IPC: 0.130975 (Simulation time: 0 hr 29 min 27 sec) 
Heartbeat CPU 0 instructions: 347000000 cycles: 2641439200 heartbeat IPC: 0.146786 cumulative IPC: 0.131016 (Simulation time: 0 hr 29 min 31 sec) 
Heartbeat CPU 0 instructions: 348000001 cycles: 2648438388 heartbeat IPC: 0.142874 cumulative IPC: 0.131048 (Simulation time: 0 hr 29 min 34 sec) 
Heartbeat CPU 0 instructions: 349000000 cycles: 2657984156 heartbeat IPC: 0.104758 cumulative IPC: 0.130953 (Simulation time: 0 hr 29 min 40 sec) 
Heartbeat CPU 0 instructions: 350000002 cycles: 2664730426 heartbeat IPC: 0.14823 cumulative IPC: 0.130997 (Simulation time: 0 hr 29 min 43 sec) 
Heartbeat CPU 0 instructions: 351000002 cycles: 2674068297 heartbeat IPC: 0.107091 cumulative IPC: 0.130913 (Simulation time: 0 hr 29 min 48 sec) 
Heartbeat CPU 0 instructions: 352000000 cycles: 2680917954 heartbeat IPC: 0.145992 cumulative IPC: 0.130952 (Simulation time: 0 hr 29 min 53 sec) 
Heartbeat CPU 0 instructions: 353000002 cycles: 2688088806 heartbeat IPC: 0.139454 cumulative IPC: 0.130975 (Simulation time: 0 hr 29 min 56 sec) 
Heartbeat CPU 0 instructions: 354000000 cycles: 2695789932 heartbeat IPC: 0.129851 cumulative IPC: 0.130971 (Simulation time: 0 hr 30 min 0 sec) 
Heartbeat CPU 0 instructions: 355000000 cycles: 2705700405 heartbeat IPC: 0.100903 cumulative IPC: 0.130861 (Simulation time: 0 hr 30 min 6 sec) 
Heartbeat CPU 0 instructions: 356000000 cycles: 2712172484 heartbeat IPC: 0.15451 cumulative IPC: 0.130918 (Simulation time: 0 hr 30 min 10 sec) 
Heartbeat CPU 0 instructions: 357000000 cycles: 2719124627 heartbeat IPC: 0.143841 cumulative IPC: 0.130951 (Simulation time: 0 hr 30 min 13 sec) 
Heartbeat CPU 0 instructions: 358000000 cycles: 2726246394 heartbeat IPC: 0.140415 cumulative IPC: 0.130976 (Simulation time: 0 hr 30 min 17 sec) 
Heartbeat CPU 0 instructions: 359000000 cycles: 2733452635 heartbeat IPC: 0.138769 cumulative IPC: 0.130996 (Simulation time: 0 hr 30 min 21 sec) 
Heartbeat CPU 0 instructions: 360000000 cycles: 2743021817 heartbeat IPC: 0.104502 cumulative IPC: 0.130904 (Simulation time: 0 hr 30 min 30 sec) 
Heartbeat CPU 0 instructions: 361000003 cycles: 2749697012 heartbeat IPC: 0.149809 cumulative IPC: 0.13095 (Simulation time: 0 hr 30 min 34 sec) 
Heartbeat CPU 0 instructions: 362000001 cycles: 2756683994 heartbeat IPC: 0.143123 cumulative IPC: 0.13098 (Simulation time: 0 hr 30 min 39 sec) 
Heartbeat CPU 0 instructions: 363000000 cycles: 2766251795 heartbeat IPC: 0.104517 cumulative IPC: 0.130889 (Simulation time: 0 hr 30 min 47 sec) 
Heartbeat CPU 0 instructions: 364000001 cycles: 2772970293 heartbeat IPC: 0.148843 cumulative IPC: 0.130932 (Simulation time: 0 hr 30 min 55 sec) 
Heartbeat CPU 0 instructions: 365000002 cycles: 2779916335 heartbeat IPC: 0.143967 cumulative IPC: 0.130965 (Simulation time: 0 hr 31 min 1 sec) 
Heartbeat CPU 0 instructions: 366000001 cycles: 2787039585 heartbeat IPC: 0.140385 cumulative IPC: 0.130989 (Simulation time: 0 hr 31 min 7 sec) 
Heartbeat CPU 0 instructions: 367000000 cycles: 2794141872 heartbeat IPC: 0.1408 cumulative IPC: 0.131014 (Simulation time: 0 hr 31 min 14 sec) 
Heartbeat CPU 0 instructions: 368000002 cycles: 2803966716 heartbeat IPC: 0.101783 cumulative IPC: 0.130911 (Simulation time: 0 hr 31 min 24 sec) 
Heartbeat CPU 0 instructions: 369000000 cycles: 2810605004 heartbeat IPC: 0.150641 cumulative IPC: 0.130958 (Simulation time: 0 hr 31 min 30 sec) 
Heartbeat CPU 0 instructions: 370000001 cycles: 2817860390 heartbeat IPC: 0.137829 cumulative IPC: 0.130976 (Simulation time: 0 hr 31 min 37 sec) 
Heartbeat CPU 0 instructions: 371000000 cycles: 2828342676 heartbeat IPC: 0.0953989 cumulative IPC: 0.130844 (Simulation time: 0 hr 31 min 48 sec) 
Heartbeat CPU 0 instructions: 372000002 cycles: 2836735555 heartbeat IPC: 0.119149 cumulative IPC: 0.130809 (Simulation time: 0 hr 31 min 57 sec) 
Heartbeat CPU 0 instructions: 373000003 cycles: 2843547958 heartbeat IPC: 0.146791 cumulative IPC: 0.130848 (Simulation time: 0 hr 32 min 4 sec) 
Heartbeat CPU 0 instructions: 374000000 cycles: 2850525986 heartbeat IPC: 0.143307 cumulative IPC: 0.130878 (Simulation time: 0 hr 32 min 10 sec) 
Heartbeat CPU 0 instructions: 375000002 cycles: 2857702396 heartbeat IPC: 0.139346 cumulative IPC: 0.130899 (Simulation time: 0 hr 32 min 17 sec) 
Heartbeat CPU 0 instructions: 376000001 cycles: 2867390677 heartbeat IPC: 0.103217 cumulative IPC: 0.130806 (Simulation time: 0 hr 32 min 23 sec) 
Heartbeat CPU 0 instructions: 377000001 cycles: 2873974919 heartbeat IPC: 0.151878 cumulative IPC: 0.130854 (Simulation time: 0 hr 32 min 26 sec) 
Heartbeat CPU 0 instructions: 378000000 cycles: 2880869244 heartbeat IPC: 0.145047 cumulative IPC: 0.130888 (Simulation time: 0 hr 32 min 30 sec) 
Heartbeat CPU 0 instructions: 379000003 cycles: 2890201875 heartbeat IPC: 0.107151 cumulative IPC: 0.130811 (Simulation time: 0 hr 32 min 35 sec) 
Heartbeat CPU 0 instructions: 380000000 cycles: 2899617393 heartbeat IPC: 0.106207 cumulative IPC: 0.130732 (Simulation time: 0 hr 32 min 41 sec) 
Heartbeat CPU 0 instructions: 381000001 cycles: 2906147926 heartbeat IPC: 0.153127 cumulative IPC: 0.130782 (Simulation time: 0 hr 32 min 45 sec) 
Heartbeat CPU 0 instructions: 382000002 cycles: 2913031969 heartbeat IPC: 0.145264 cumulative IPC: 0.130816 (Simulation time: 0 hr 32 min 50 sec) 
Heartbeat CPU 0 instructions: 383000000 cycles: 2920091737 heartbeat IPC: 0.141647 cumulative IPC: 0.130842 (Simulation time: 0 hr 32 min 54 sec) 
Heartbeat CPU 0 instructions: 384000001 cycles: 2927290262 heartbeat IPC: 0.138917 cumulative IPC: 0.130862 (Simulation time: 0 hr 32 min 57 sec) 
Heartbeat CPU 0 instructions: 385000000 cycles: 2936968670 heartbeat IPC: 0.103323 cumulative IPC: 0.130771 (Simulation time: 0 hr 33 min 3 sec) 
Heartbeat CPU 0 instructions: 386000000 cycles: 2943655537 heartbeat IPC: 0.149547 cumulative IPC: 0.130814 (Simulation time: 0 hr 33 min 7 sec) 
Heartbeat CPU 0 instructions: 387000000 cycles: 2950608045 heartbeat IPC: 0.143833 cumulative IPC: 0.130845 (Simulation time: 0 hr 33 min 10 sec) 
Heartbeat CPU 0 instructions: 388000002 cycles: 2960360689 heartbeat IPC: 0.102536 cumulative IPC: 0.130751 (Simulation time: 0 hr 33 min 16 sec) 
Heartbeat CPU 0 instructions: 389000001 cycles: 2966838962 heartbeat IPC: 0.154362 cumulative IPC: 0.130803 (Simulation time: 0 hr 33 min 19 sec) 
Heartbeat CPU 0 instructions: 390000000 cycles: 2973667466 heartbeat IPC: 0.146445 cumulative IPC: 0.130839 (Simulation time: 0 hr 33 min 23 sec) 
Heartbeat CPU 0 instructions: 391000000 cycles: 2980754705 heartbeat IPC: 0.141099 cumulative IPC: 0.130863 (Simulation time: 0 hr 33 min 27 sec) 
Heartbeat CPU 0 instructions: 392000002 cycles: 2990618725 heartbeat IPC: 0.101379 cumulative IPC: 0.130766 (Simulation time: 0 hr 33 min 32 sec) 
Heartbeat CPU 0 instructions: 393000002 cycles: 2997125238 heartbeat IPC: 0.153692 cumulative IPC: 0.130816 (Simulation time: 0 hr 33 min 36 sec) 
Heartbeat CPU 0 instructions: 394000001 cycles: 3003634214 heartbeat IPC: 0.153634 cumulative IPC: 0.130865 (Simulation time: 0 hr 33 min 40 sec) 
Heartbeat CPU 0 instructions: 395000000 cycles: 3010168036 heartbeat IPC: 0.15305 cumulative IPC: 0.130913 (Simulation time: 0 hr 33 min 43 sec) 
Heartbeat CPU 0 instructions: 396000000 cycles: 3019497607 heartbeat IPC: 0.107186 cumulative IPC: 0.13084 (Simulation time: 0 hr 33 min 49 sec) 
Heartbeat CPU 0 instructions: 397000000 cycles: 3026198761 heartbeat IPC: 0.149228 cumulative IPC: 0.130881 (Simulation time: 0 hr 33 min 53 sec) 
Heartbeat CPU 0 instructions: 398000001 cycles: 3033444262 heartbeat IPC: 0.138017 cumulative IPC: 0.130898 (Simulation time: 0 hr 33 min 56 sec) 
Heartbeat CPU 0 instructions: 399000001 cycles: 3040944675 heartbeat IPC: 0.133326 cumulative IPC: 0.130904 (Simulation time: 0 hr 34 min 2 sec) 
Heartbeat CPU 0 instructions: 400000002 cycles: 3048011038 heartbeat IPC: 0.141516 cumulative IPC: 0.130929 (Simulation time: 0 hr 34 min 8 sec) 
Heartbeat CPU 0 instructions: 401000000 cycles: 3057356387 heartbeat IPC: 0.107005 cumulative IPC: 0.130855 (Simulation time: 0 hr 34 min 17 sec) 
Heartbeat CPU 0 instructions: 402000000 cycles: 3064160045 heartbeat IPC: 0.14698 cumulative IPC: 0.130891 (Simulation time: 0 hr 34 min 24 sec) 
Heartbeat CPU 0 instructions: 403000003 cycles: 3071156182 heartbeat IPC: 0.142936 cumulative IPC: 0.130919 (Simulation time: 0 hr 34 min 30 sec) 
Heartbeat CPU 0 instructions: 404000000 cycles: 3079794695 heartbeat IPC: 0.11576 cumulative IPC: 0.130876 (Simulation time: 0 hr 34 min 37 sec) 
Heartbeat CPU 0 instructions: 405000002 cycles: 3087623904 heartbeat IPC: 0.127727 cumulative IPC: 0.130868 (Simulation time: 0 hr 34 min 46 sec) 
Heartbeat CPU 0 instructions: 406000001 cycles: 3094555878 heartbeat IPC: 0.144259 cumulative IPC: 0.130898 (Simulation time: 0 hr 34 min 52 sec) 
Heartbeat CPU 0 instructions: 407000000 cycles: 3104245584 heartbeat IPC: 0.103202 cumulative IPC: 0.130812 (Simulation time: 0 hr 34 min 57 sec) 
Heartbeat CPU 0 instructions: 408000000 cycles: 3110830612 heartbeat IPC: 0.15186 cumulative IPC: 0.130856 (Simulation time: 0 hr 35 min 1 sec) 
Heartbeat CPU 0 instructions: 409000003 cycles: 3117625422 heartbeat IPC: 0.147172 cumulative IPC: 0.130892 (Simulation time: 0 hr 35 min 5 sec) 
Heartbeat CPU 0 instructions: 410000001 cycles: 3127182942 heartbeat IPC: 0.104629 cumulative IPC: 0.130811 (Simulation time: 0 hr 35 min 11 sec) 
Heartbeat CPU 0 instructions: 411000000 cycles: 3133776831 heartbeat IPC: 0.151655 cumulative IPC: 0.130855 (Simulation time: 0 hr 35 min 17 sec) 
Heartbeat CPU 0 instructions: 412000002 cycles: 3140653708 heartbeat IPC: 0.145415 cumulative IPC: 0.130887 (Simulation time: 0 hr 35 min 24 sec) 
Heartbeat CPU 0 instructions: 413000001 cycles: 3150152419 heartbeat IPC: 0.105277 cumulative IPC: 0.13081 (Simulation time: 0 hr 35 min 34 sec) 
Heartbeat CPU 0 instructions: 414000002 cycles: 3159680260 heartbeat IPC: 0.104956 cumulative IPC: 0.130732 (Simulation time: 0 hr 35 min 43 sec) 
Heartbeat CPU 0 instructions: 415000002 cycles: 3166216698 heartbeat IPC: 0.152989 cumulative IPC: 0.130778 (Simulation time: 0 hr 35 min 49 sec) 
Heartbeat CPU 0 instructions: 416000002 cycles: 3173147673 heartbeat IPC: 0.14428 cumulative IPC: 0.130807 (Simulation time: 0 hr 35 min 53 sec) 
Heartbeat CPU 0 instructions: 417000001 cycles: 3180225458 heartbeat IPC: 0.141287 cumulative IPC: 0.130831 (Simulation time: 0 hr 35 min 57 sec) 
Heartbeat CPU 0 instructions: 418000000 cycles: 3187247737 heartbeat IPC: 0.142404 cumulative IPC: 0.130856 (Simulation time: 0 hr 36 min 1 sec) 
Heartbeat CPU 0 instructions: 419000000 cycles: 3197006834 heartbeat IPC: 0.102468 cumulative IPC: 0.13077 (Simulation time: 0 hr 36 min 7 sec) 
Heartbeat CPU 0 instructions: 420000000 cycles: 3206264721 heartbeat IPC: 0.108016 cumulative IPC: 0.130704 (Simulation time: 0 hr 36 min 13 sec) 
Heartbeat CPU 0 instructions: 421000002 cycles: 3212892930 heartbeat IPC: 0.150871 cumulative IPC: 0.130746 (Simulation time: 0 hr 36 min 18 sec) 
Heartbeat CPU 0 instructions: 422000001 cycles: 3219866184 heartbeat IPC: 0.143405 cumulative IPC: 0.130773 (Simulation time: 0 hr 36 min 25 sec) 
Heartbeat CPU 0 instructions: 423000001 cycles: 3226873870 heartbeat IPC: 0.1427 cumulative IPC: 0.130799 (Simulation time: 0 hr 36 min 31 sec) 
Heartbeat CPU 0 instructions: 424000002 cycles: 3233830870 heartbeat IPC: 0.14374 cumulative IPC: 0.130827 (Simulation time: 0 hr 36 min 36 sec) 
Heartbeat CPU 0 instructions: 425000001 cycles: 3243216585 heartbeat IPC: 0.106545 cumulative IPC: 0.130756 (Simulation time: 0 hr 36 min 41 sec) 
Heartbeat CPU 0 instructions: 426000000 cycles: 3249998608 heartbeat IPC: 0.147448 cumulative IPC: 0.130791 (Simulation time: 0 hr 36 min 46 sec) 
Heartbeat CPU 0 instructions: 427000000 cycles: 3257360873 heartbeat IPC: 0.135828 cumulative IPC: 0.130803 (Simulation time: 0 hr 36 min 52 sec) 
Heartbeat CPU 0 instructions: 428000003 cycles: 3264563281 heartbeat IPC: 0.138843 cumulative IPC: 0.13082 (Simulation time: 0 hr 36 min 58 sec) 
Heartbeat CPU 0 instructions: 429000000 cycles: 3274325966 heartbeat IPC: 0.102431 cumulative IPC: 0.130736 (Simulation time: 0 hr 37 min 8 sec) 
Heartbeat CPU 0 instructions: 430000001 cycles: 3281024008 heartbeat IPC: 0.149298 cumulative IPC: 0.130774 (Simulation time: 0 hr 37 min 15 sec) 
Heartbeat CPU 0 instructions: 431000001 cycles: 3287833444 heartbeat IPC: 0.146855 cumulative IPC: 0.130807 (Simulation time: 0 hr 37 min 21 sec) 
Heartbeat CPU 0 instructions: 432000002 cycles: 3294519264 heartbeat IPC: 0.14957 cumulative IPC: 0.130845 (Simulation time: 0 hr 37 min 25 sec) 
Heartbeat CPU 0 instructions: 433000002 cycles: 3304305292 heartbeat IPC: 0.102187 cumulative IPC: 0.13076 (Simulation time: 0 hr 37 min 31 sec) 
Heartbeat CPU 0 instructions: 434000001 cycles: 3313149546 heartbeat IPC: 0.113068 cumulative IPC: 0.130713 (Simulation time: 0 hr 37 min 37 sec) 
Heartbeat CPU 0 instructions: 435000001 cycles: 3319497671 heartbeat IPC: 0.157527 cumulative IPC: 0.130764 (Simulation time: 0 hr 37 min 42 sec) 
Heartbeat CPU 0 instructions: 436000000 cycles: 3328811366 heartbeat IPC: 0.107369 cumulative IPC: 0.130699 (Simulation time: 0 hr 37 min 51 sec) 
Heartbeat CPU 0 instructions: 437000000 cycles: 3335439693 heartbeat IPC: 0.150868 cumulative IPC: 0.130739 (Simulation time: 0 hr 37 min 55 sec) 
Heartbeat CPU 0 instructions: 438000001 cycles: 3342373211 heartbeat IPC: 0.144227 cumulative IPC: 0.130767 (Simulation time: 0 hr 37 min 59 sec) 
Heartbeat CPU 0 instructions: 439000002 cycles: 3349269298 heartbeat IPC: 0.14501 cumulative IPC: 0.130796 (Simulation time: 0 hr 38 min 2 sec) 
Heartbeat CPU 0 instructions: 440000000 cycles: 3358625445 heartbeat IPC: 0.106881 cumulative IPC: 0.130729 (Simulation time: 0 hr 38 min 11 sec) 
Heartbeat CPU 0 instructions: 441000000 cycles: 3367054228 heartbeat IPC: 0.118641 cumulative IPC: 0.130699 (Simulation time: 0 hr 38 min 15 sec) 
Heartbeat CPU 0 instructions: 442000000 cycles: 3374693741 heartbeat IPC: 0.130898 cumulative IPC: 0.1307 (Simulation time: 0 hr 38 min 20 sec) 
Heartbeat CPU 0 instructions: 443000003 cycles: 3381446677 heartbeat IPC: 0.148084 cumulative IPC: 0.130734 (Simulation time: 0 hr 38 min 24 sec) 
Heartbeat CPU 0 instructions: 444000000 cycles: 3388478649 heartbeat IPC: 0.142207 cumulative IPC: 0.130758 (Simulation time: 0 hr 38 min 28 sec) 
Heartbeat CPU 0 instructions: 445000000 cycles: 3395603093 heartbeat IPC: 0.140362 cumulative IPC: 0.130778 (Simulation time: 0 hr 38 min 31 sec) 
Heartbeat CPU 0 instructions: 446000000 cycles: 3403470501 heartbeat IPC: 0.127107 cumulative IPC: 0.13077 (Simulation time: 0 hr 38 min 35 sec) 
Heartbeat CPU 0 instructions: 447000000 cycles: 3412010747 heartbeat IPC: 0.117093 cumulative IPC: 0.130736 (Simulation time: 0 hr 38 min 40 sec) 
Heartbeat CPU 0 instructions: 448000002 cycles: 3418924998 heartbeat IPC: 0.144629 cumulative IPC: 0.130764 (Simulation time: 0 hr 38 min 44 sec) 
Heartbeat CPU 0 instructions: 449000001 cycles: 3425973677 heartbeat IPC: 0.14187 cumulative IPC: 0.130787 (Simulation time: 0 hr 38 min 48 sec) 
Heartbeat CPU 0 instructions: 450000002 cycles: 3435847196 heartbeat IPC: 0.101281 cumulative IPC: 0.130702 (Simulation time: 0 hr 38 min 54 sec) 

Warmup complete CPU 0 instructions: 450000002 cycles: 3435847196 (Simulation time: 0 hr 38 min 54 sec) 

Heartbeat CPU 0 instructions: 451000000 cycles: 3442354245 heartbeat IPC: 0.153679 cumulative IPC: 0.153679 (Simulation time: 0 hr 38 min 57 sec) 
Heartbeat CPU 0 instructions: 452000001 cycles: 3449293806 heartbeat IPC: 0.144101 cumulative IPC: 0.148736 (Simulation time: 0 hr 39 min 3 sec) 
Heartbeat CPU 0 instructions: 453000003 cycles: 3456421185 heartbeat IPC: 0.140304 cumulative IPC: 0.145815 (Simulation time: 0 hr 39 min 7 sec) 
Heartbeat CPU 0 instructions: 454000003 cycles: 3465673166 heartbeat IPC: 0.108085 cumulative IPC: 0.134111 (Simulation time: 0 hr 39 min 16 sec) 
Heartbeat CPU 0 instructions: 455000001 cycles: 3473093376 heartbeat IPC: 0.134767 cumulative IPC: 0.134242 (Simulation time: 0 hr 39 min 22 sec) 
Heartbeat CPU 0 instructions: 456000000 cycles: 3481042669 heartbeat IPC: 0.125797 cumulative IPC: 0.132757 (Simulation time: 0 hr 39 min 28 sec) 
Heartbeat CPU 0 instructions: 457000001 cycles: 3489134003 heartbeat IPC: 0.123589 cumulative IPC: 0.131365 (Simulation time: 0 hr 39 min 32 sec) 
Heartbeat CPU 0 instructions: 458000003 cycles: 3496594435 heartbeat IPC: 0.134041 cumulative IPC: 0.131693 (Simulation time: 0 hr 39 min 37 sec) 
Heartbeat CPU 0 instructions: 459000000 cycles: 3503208396 heartbeat IPC: 0.151195 cumulative IPC: 0.133608 (Simulation time: 0 hr 39 min 44 sec) 
Heartbeat CPU 0 instructions: 460000002 cycles: 3512267242 heartbeat IPC: 0.11039 cumulative IPC: 0.130856 (Simulation time: 0 hr 39 min 54 sec) 
Heartbeat CPU 0 instructions: 461000001 cycles: 3518900619 heartbeat IPC: 0.150753 cumulative IPC: 0.132445 (Simulation time: 0 hr 39 min 58 sec) 
Heartbeat CPU 0 instructions: 462000000 cycles: 3525816497 heartbeat IPC: 0.144595 cumulative IPC: 0.133379 (Simulation time: 0 hr 40 min 4 sec) 
Heartbeat CPU 0 instructions: 463000001 cycles: 3535055525 heartbeat IPC: 0.108237 cumulative IPC: 0.131037 (Simulation time: 0 hr 40 min 11 sec) 
Heartbeat CPU 0 instructions: 464000002 cycles: 3541868728 heartbeat IPC: 0.146774 cumulative IPC: 0.132049 (Simulation time: 0 hr 40 min 18 sec) 
Heartbeat CPU 0 instructions: 465000002 cycles: 3548940168 heartbeat IPC: 0.141414 cumulative IPC: 0.132634 (Simulation time: 0 hr 40 min 22 sec) 
Heartbeat CPU 0 instructions: 466000002 cycles: 3556996251 heartbeat IPC: 0.12413 cumulative IPC: 0.132069 (Simulation time: 0 hr 40 min 27 sec) 
Heartbeat CPU 0 instructions: 467000003 cycles: 3564899873 heartbeat IPC: 0.126524 cumulative IPC: 0.131729 (Simulation time: 0 hr 40 min 32 sec) 
Heartbeat CPU 0 instructions: 468000000 cycles: 3571631167 heartbeat IPC: 0.148559 cumulative IPC: 0.132564 (Simulation time: 0 hr 40 min 36 sec) 
Heartbeat CPU 0 instructions: 469000000 cycles: 3578639756 heartbeat IPC: 0.142682 cumulative IPC: 0.13306 (Simulation time: 0 hr 40 min 42 sec) 
Heartbeat CPU 0 instructions: 470000002 cycles: 3585769622 heartbeat IPC: 0.140255 cumulative IPC: 0.133402 (Simulation time: 0 hr 40 min 48 sec) 
Heartbeat CPU 0 instructions: 471000000 cycles: 3594864563 heartbeat IPC: 0.109951 cumulative IPC: 0.132061 (Simulation time: 0 hr 40 min 57 sec) 
Heartbeat CPU 0 instructions: 472000000 cycles: 3603796185 heartbeat IPC: 0.111962 cumulative IPC: 0.130992 (Simulation time: 0 hr 41 min 2 sec) 
Heartbeat CPU 0 instructions: 473000000 cycles: 3610458249 heartbeat IPC: 0.150104 cumulative IPC: 0.131721 (Simulation time: 0 hr 41 min 6 sec) 
Heartbeat CPU 0 instructions: 474000000 cycles: 3617472111 heartbeat IPC: 0.142575 cumulative IPC: 0.13214 (Simulation time: 0 hr 41 min 9 sec) 
Heartbeat CPU 0 instructions: 475000002 cycles: 3626894875 heartbeat IPC: 0.106126 cumulative IPC: 0.130857 (Simulation time: 0 hr 41 min 15 sec) 
Heartbeat CPU 0 instructions: 476000000 cycles: 3633240209 heartbeat IPC: 0.157596 cumulative IPC: 0.131717 (Simulation time: 0 hr 41 min 19 sec) 
Heartbeat CPU 0 instructions: 477000000 cycles: 3640139209 heartbeat IPC: 0.144949 cumulative IPC: 0.132164 (Simulation time: 0 hr 41 min 22 sec) 
Heartbeat CPU 0 instructions: 478000002 cycles: 3647291800 heartbeat IPC: 0.13981 cumulative IPC: 0.132422 (Simulation time: 0 hr 41 min 26 sec) 
Heartbeat CPU 0 instructions: 479000000 cycles: 3654547159 heartbeat IPC: 0.137829 cumulative IPC: 0.132602 (Simulation time: 0 hr 41 min 30 sec) 
Heartbeat CPU 0 instructions: 480000000 cycles: 3663696701 heartbeat IPC: 0.109295 cumulative IPC: 0.131666 (Simulation time: 0 hr 41 min 36 sec) 
Heartbeat CPU 0 instructions: 481000000 cycles: 3670437234 heartbeat IPC: 0.148356 cumulative IPC: 0.132145 (Simulation time: 0 hr 41 min 40 sec) 
Heartbeat CPU 0 instructions: 482000000 cycles: 3677393926 heartbeat IPC: 0.143746 cumulative IPC: 0.13248 (Simulation time: 0 hr 41 min 43 sec) 
Heartbeat CPU 0 instructions: 483000000 cycles: 3684249525 heartbeat IPC: 0.145866 cumulative IPC: 0.132849 (Simulation time: 0 hr 41 min 47 sec) 
Heartbeat CPU 0 instructions: 484000000 cycles: 3693180930 heartbeat IPC: 0.111964 cumulative IPC: 0.132124 (Simulation time: 0 hr 41 min 53 sec) 
Heartbeat CPU 0 instructions: 485000002 cycles: 3699793066 heartbeat IPC: 0.151237 cumulative IPC: 0.132603 (Simulation time: 0 hr 41 min 57 sec) 
Heartbeat CPU 0 instructions: 486000000 cycles: 3706600148 heartbeat IPC: 0.146906 cumulative IPC: 0.132963 (Simulation time: 0 hr 42 min 0 sec) 
Heartbeat CPU 0 instructions: 487000002 cycles: 3715879661 heartbeat IPC: 0.107764 cumulative IPC: 0.132128 (Simulation time: 0 hr 42 min 8 sec) 
Heartbeat CPU 0 instructions: 488000001 cycles: 3722523048 heartbeat IPC: 0.150525 cumulative IPC: 0.132554 (Simulation time: 0 hr 42 min 11 sec) 
Heartbeat CPU 0 instructions: 489000002 cycles: 3731374548 heartbeat IPC: 0.112975 cumulative IPC: 0.131967 (Simulation time: 0 hr 42 min 16 sec) 
Heartbeat CPU 0 instructions: 490000000 cycles: 3738029600 heartbeat IPC: 0.150261 cumulative IPC: 0.13237 (Simulation time: 0 hr 42 min 20 sec) 
Heartbeat CPU 0 instructions: 491000000 cycles: 3744783605 heartbeat IPC: 0.14806 cumulative IPC: 0.132713 (Simulation time: 0 hr 42 min 24 sec) 
Heartbeat CPU 0 instructions: 492000003 cycles: 3751853611 heartbeat IPC: 0.141443 cumulative IPC: 0.132909 (Simulation time: 0 hr 42 min 30 sec) 
Heartbeat CPU 0 instructions: 493000003 cycles: 3761125270 heartbeat IPC: 0.107856 cumulative IPC: 0.132195 (Simulation time: 0 hr 42 min 36 sec) 
Heartbeat CPU 0 instructions: 494000000 cycles: 3768023073 heartbeat IPC: 0.144973 cumulative IPC: 0.13246 (Simulation time: 0 hr 42 min 39 sec) 
Heartbeat CPU 0 instructions: 495000000 cycles: 3776172972 heartbeat IPC: 0.122701 cumulative IPC: 0.132226 (Simulation time: 0 hr 42 min 43 sec) 
Heartbeat CPU 0 instructions: 496000000 cycles: 3783905442 heartbeat IPC: 0.129325 cumulative IPC: 0.132162 (Simulation time: 0 hr 42 min 48 sec) 
Heartbeat CPU 0 instructions: 497000001 cycles: 3790877521 heartbeat IPC: 0.143429 cumulative IPC: 0.132383 (Simulation time: 0 hr 42 min 52 sec) 
Heartbeat CPU 0 instructions: 498000000 cycles: 3798430239 heartbeat IPC: 0.132403 cumulative IPC: 0.132383 (Simulation time: 0 hr 42 min 56 sec) 
Heartbeat CPU 0 instructions: 499000001 cycles: 3807690067 heartbeat IPC: 0.107993 cumulative IPC: 0.131776 (Simulation time: 0 hr 43 min 1 sec) 
Heartbeat CPU 0 instructions: 500000001 cycles: 3814099764 heartbeat IPC: 0.156014 cumulative IPC: 0.132187 (Simulation time: 0 hr 43 min 5 sec) 
Heartbeat CPU 0 instructions: 501000000 cycles: 3823127621 heartbeat IPC: 0.110768 cumulative IPC: 0.131688 (Simulation time: 0 hr 43 min 10 sec) 
Heartbeat CPU 0 instructions: 502000003 cycles: 3830001147 heartbeat IPC: 0.145486 cumulative IPC: 0.131928 (Simulation time: 0 hr 43 min 14 sec) 
Heartbeat CPU 0 instructions: 503000000 cycles: 3837500649 heartbeat IPC: 0.133342 cumulative IPC: 0.131955 (Simulation time: 0 hr 43 min 18 sec) 
Heartbeat CPU 0 instructions: 504000001 cycles: 3845219776 heartbeat IPC: 0.129548 cumulative IPC: 0.131909 (Simulation time: 0 hr 43 min 21 sec) 
Heartbeat CPU 0 instructions: 505000002 cycles: 3854835686 heartbeat IPC: 0.103994 cumulative IPC: 0.131269 (Simulation time: 0 hr 43 min 27 sec) 
Heartbeat CPU 0 instructions: 506000000 cycles: 3861332124 heartbeat IPC: 0.15393 cumulative IPC: 0.131615 (Simulation time: 0 hr 43 min 30 sec) 
Heartbeat CPU 0 instructions: 507000003 cycles: 3868681521 heartbeat IPC: 0.136066 cumulative IPC: 0.13169 (Simulation time: 0 hr 43 min 34 sec) 
Heartbeat CPU 0 instructions: 508000001 cycles: 3876204480 heartbeat IPC: 0.132926 cumulative IPC: 0.131711 (Simulation time: 0 hr 43 min 38 sec) 
Heartbeat CPU 0 instructions: 509000000 cycles: 3883323947 heartbeat IPC: 0.14046 cumulative IPC: 0.13185 (Simulation time: 0 hr 43 min 41 sec) 
Heartbeat CPU 0 instructions: 510000003 cycles: 3892214336 heartbeat IPC: 0.112481 cumulative IPC: 0.131473 (Simulation time: 0 hr 43 min 47 sec) 
Heartbeat CPU 0 instructions: 511000000 cycles: 3898535090 heartbeat IPC: 0.158209 cumulative IPC: 0.131838 (Simulation time: 0 hr 43 min 51 sec) 
Heartbeat CPU 0 instructions: 512000003 cycles: 3905117547 heartbeat IPC: 0.151919 cumulative IPC: 0.13212 (Simulation time: 0 hr 43 min 58 sec) 
Heartbeat CPU 0 instructions: 513000000 cycles: 3913788353 heartbeat IPC: 0.115329 cumulative IPC: 0.131815 (Simulation time: 0 hr 44 min 7 sec) 
Heartbeat CPU 0 instructions: 514000000 cycles: 3920525087 heartbeat IPC: 0.14844 cumulative IPC: 0.132046 (Simulation time: 0 hr 44 min 13 sec) 
Heartbeat CPU 0 instructions: 515000003 cycles: 3927456386 heartbeat IPC: 0.144274 cumulative IPC: 0.132219 (Simulation time: 0 hr 44 min 18 sec) 
Heartbeat CPU 0 instructions: 516000000 cycles: 3934539090 heartbeat IPC: 0.141189 cumulative IPC: 0.132346 (Simulation time: 0 hr 44 min 21 sec) 
Heartbeat CPU 0 instructions: 517000000 cycles: 3941435287 heartbeat IPC: 0.145007 cumulative IPC: 0.132519 (Simulation time: 0 hr 44 min 25 sec) 
Heartbeat CPU 0 instructions: 518000000 cycles: 3950481866 heartbeat IPC: 0.110539 cumulative IPC: 0.132133 (Simulation time: 0 hr 44 min 31 sec) 
Heartbeat CPU 0 instructions: 519000000 cycles: 3957120104 heartbeat IPC: 0.150642 cumulative IPC: 0.132368 (Simulation time: 0 hr 44 min 34 sec) 
Heartbeat CPU 0 instructions: 520000001 cycles: 3964101075 heartbeat IPC: 0.143247 cumulative IPC: 0.132512 (Simulation time: 0 hr 44 min 38 sec) 
Heartbeat CPU 0 instructions: 521000000 cycles: 3971241106 heartbeat IPC: 0.140055 cumulative IPC: 0.132613 (Simulation time: 0 hr 44 min 41 sec) 
Heartbeat CPU 0 instructions: 522000001 cycles: 3980871859 heartbeat IPC: 0.103834 cumulative IPC: 0.132104 (Simulation time: 0 hr 44 min 47 sec) 
Heartbeat CPU 0 instructions: 523000001 cycles: 3986959761 heartbeat IPC: 0.16426 cumulative IPC: 0.132459 (Simulation time: 0 hr 44 min 50 sec) 
Heartbeat CPU 0 instructions: 524000000 cycles: 3993444909 heartbeat IPC: 0.154198 cumulative IPC: 0.132712 (Simulation time: 0 hr 44 min 54 sec) 
Heartbeat CPU 0 instructions: 525000001 cycles: 4002538653 heartbeat IPC: 0.109966 cumulative IPC: 0.132347 (Simulation time: 0 hr 45 min 0 sec) 
Heartbeat CPU 0 instructions: 526000003 cycles: 4008941399 heartbeat IPC: 0.156183 cumulative IPC: 0.132613 (Simulation time: 0 hr 45 min 4 sec) 
Heartbeat CPU 0 instructions: 527000000 cycles: 4015960903 heartbeat IPC: 0.14246 cumulative IPC: 0.132733 (Simulation time: 0 hr 45 min 7 sec) 
Heartbeat CPU 0 instructions: 528000000 cycles: 4023160340 heartbeat IPC: 0.1389 cumulative IPC: 0.132808 (Simulation time: 0 hr 45 min 11 sec) 
Heartbeat CPU 0 instructions: 529000000 cycles: 4030225218 heartbeat IPC: 0.141545 cumulative IPC: 0.132912 (Simulation time: 0 hr 45 min 14 sec) 
Heartbeat CPU 0 instructions: 530000002 cycles: 4039572363 heartbeat IPC: 0.106985 cumulative IPC: 0.132511 (Simulation time: 0 hr 45 min 20 sec) 
Heartbeat CPU 0 instructions: 531000001 cycles: 4045824747 heartbeat IPC: 0.159939 cumulative IPC: 0.132792 (Simulation time: 0 hr 45 min 23 sec) 
Heartbeat CPU 0 instructions: 532000001 cycles: 4053215950 heartbeat IPC: 0.135296 cumulative IPC: 0.132822 (Simulation time: 0 hr 45 min 27 sec) 
Heartbeat CPU 0 instructions: 533000000 cycles: 4061656416 heartbeat IPC: 0.118477 cumulative IPC: 0.132628 (Simulation time: 0 hr 45 min 32 sec) 
Heartbeat CPU 0 instructions: 534000001 cycles: 4070906689 heartbeat IPC: 0.108105 cumulative IPC: 0.132271 (Simulation time: 0 hr 45 min 38 sec) 
Heartbeat CPU 0 instructions: 535000000 cycles: 4077422416 heartbeat IPC: 0.153475 cumulative IPC: 0.132486 (Simulation time: 0 hr 45 min 42 sec) 
Heartbeat CPU 0 instructions: 536000001 cycles: 4084415379 heartbeat IPC: 0.143001 cumulative IPC: 0.1326 (Simulation time: 0 hr 45 min 45 sec) 
Heartbeat CPU 0 instructions: 537000000 cycles: 4093960455 heartbeat IPC: 0.104766 cumulative IPC: 0.132196 (Simulation time: 0 hr 45 min 51 sec) 
Heartbeat CPU 0 instructions: 538000000 cycles: 4100320584 heartbeat IPC: 0.15723 cumulative IPC: 0.132436 (Simulation time: 0 hr 45 min 55 sec) 
Heartbeat CPU 0 instructions: 539000000 cycles: 4107099439 heartbeat IPC: 0.147518 cumulative IPC: 0.132588 (Simulation time: 0 hr 45 min 58 sec) 
Heartbeat CPU 0 instructions: 540000003 cycles: 4115629076 heartbeat IPC: 0.117239 cumulative IPC: 0.132395 (Simulation time: 0 hr 46 min 3 sec) 
Heartbeat CPU 0 instructions: 541000000 cycles: 4122541159 heartbeat IPC: 0.144674 cumulative IPC: 0.132519 (Simulation time: 0 hr 46 min 8 sec) 
Heartbeat CPU 0 instructions: 542000000 cycles: 4129508999 heartbeat IPC: 0.143516 cumulative IPC: 0.132629 (Simulation time: 0 hr 46 min 11 sec) 
Heartbeat CPU 0 instructions: 543000000 cycles: 4138615995 heartbeat IPC: 0.109806 cumulative IPC: 0.132334 (Simulation time: 0 hr 46 min 17 sec) 
[...]
Heartbeat CPU 0 instructions: 834000003 cycles: 6319031391 heartbeat IPC: 0.108941 cumulative IPC: 0.133186 (Simulation time: 1 hr 9 min 50 sec) 
Heartbeat CPU 0 instructions: 835000001 cycles: 6327918271 heartbeat IPC: 0.112525 cumulative IPC: 0.133123 (Simulation time: 1 hr 10 min 0 sec) 
Heartbeat CPU 0 instructions: 836000000 cycles: 6334252079 heartbeat IPC: 0.157883 cumulative IPC: 0.133177 (Simulation time: 1 hr 10 min 6 sec) 
Heartbeat CPU 0 instructions: 837000002 cycles: 6340809671 heartbeat IPC: 0.152495 cumulative IPC: 0.13322 (Simulation time: 1 hr 10 min 13 sec) 
Heartbeat CPU 0 instructions: 838000001 cycles: 6347451341 heartbeat IPC: 0.150564 cumulative IPC: 0.13326 (Simulation time: 1 hr 10 min 19 sec) 
Heartbeat CPU 0 instructions: 839000002 cycles: 6355612543 heartbeat IPC: 0.122531 cumulative IPC: 0.13323 (Simulation time: 1 hr 10 min 26 sec) 
Heartbeat CPU 0 instructions: 840000001 cycles: 6362971274 heartbeat IPC: 0.135893 cumulative IPC: 0.133237 (Simulation time: 1 hr 10 min 35 sec) 
Heartbeat CPU 0 instructions: 841000000 cycles: 6371634308 heartbeat IPC: 0.115433 cumulative IPC: 0.133184 (Simulation time: 1 hr 10 min 45 sec) 
Heartbeat CPU 0 instructions: 842000000 cycles: 6377763316 heartbeat IPC: 0.163159 cumulative IPC: 0.133246 (Simulation time: 1 hr 10 min 52 sec) 
Heartbeat CPU 0 instructions: 843000001 cycles: 6384170634 heartbeat IPC: 0.156072 cumulative IPC: 0.133296 (Simulation time: 1 hr 10 min 58 sec) 
Heartbeat CPU 0 instructions: 844000001 cycles: 6390664054 heartbeat IPC: 0.154002 cumulative IPC: 0.133342 (Simulation time: 1 hr 11 min 5 sec) 
Heartbeat CPU 0 instructions: 845000000 cycles: 6399576363 heartbeat IPC: 0.112204 cumulative IPC: 0.133278 (Simulation time: 1 hr 11 min 15 sec) 
Heartbeat CPU 0 instructions: 846000000 cycles: 6405501634 heartbeat IPC: 0.168769 cumulative IPC: 0.133349 (Simulation time: 1 hr 11 min 22 sec) 
Heartbeat CPU 0 instructions: 847000000 cycles: 6411836173 heartbeat IPC: 0.157865 cumulative IPC: 0.133401 (Simulation time: 1 hr 11 min 28 sec) 
Heartbeat CPU 0 instructions: 848000000 cycles: 6418325997 heartbeat IPC: 0.154087 cumulative IPC: 0.133446 (Simulation time: 1 hr 11 min 35 sec) 
Heartbeat CPU 0 instructions: 849000002 cycles: 6424698526 heartbeat IPC: 0.156924 cumulative IPC: 0.133496 (Simulation time: 1 hr 11 min 41 sec) 
Heartbeat CPU 0 instructions: 850000000 cycles: 6431978775 heartbeat IPC: 0.137358 cumulative IPC: 0.133505 (Simulation time: 1 hr 11 min 49 sec) 
Heartbeat CPU 0 instructions: 851000003 cycles: 6439955160 heartbeat IPC: 0.12537 cumulative IPC: 0.133484 (Simulation time: 1 hr 11 min 58 sec) 
Heartbeat CPU 0 instructions: 852000000 cycles: 6447045030 heartbeat IPC: 0.141046 cumulative IPC: 0.133502 (Simulation time: 1 hr 12 min 4 sec) 
Heartbeat CPU 0 instructions: 853000000 cycles: 6456748736 heartbeat IPC: 0.103053 cumulative IPC: 0.133404 (Simulation time: 1 hr 12 min 14 sec) 
Heartbeat CPU 0 instructions: 854000000 cycles: 6463016500 heartbeat IPC: 0.159547 cumulative IPC: 0.133458 (Simulation time: 1 hr 12 min 20 sec) 
Heartbeat CPU 0 instructions: 855000002 cycles: 6470024072 heartbeat IPC: 0.142703 cumulative IPC: 0.133479 (Simulation time: 1 hr 12 min 26 sec) 
Heartbeat CPU 0 instructions: 856000000 cycles: 6477052222 heartbeat IPC: 0.142285 cumulative IPC: 0.1335 (Simulation time: 1 hr 12 min 32 sec) 
Heartbeat CPU 0 instructions: 857000001 cycles: 6484213724 heartbeat IPC: 0.139636 cumulative IPC: 0.133514 (Simulation time: 1 hr 12 min 39 sec) 
Heartbeat CPU 0 instructions: 858000000 cycles: 6493775666 heartbeat IPC: 0.104581 cumulative IPC: 0.133424 (Simulation time: 1 hr 12 min 49 sec) 
Heartbeat CPU 0 instructions: 859000003 cycles: 6502507246 heartbeat IPC: 0.114527 cumulative IPC: 0.13337 (Simulation time: 1 hr 12 min 59 sec) 
Heartbeat CPU 0 instructions: 860000003 cycles: 6509211845 heartbeat IPC: 0.149151 cumulative IPC: 0.133404 (Simulation time: 1 hr 13 min 6 sec) 
Heartbeat CPU 0 instructions: 861000000 cycles: 6518073116 heartbeat IPC: 0.11285 cumulative IPC: 0.133345 (Simulation time: 1 hr 13 min 16 sec) 
Heartbeat CPU 0 instructions: 862000003 cycles: 6524604224 heartbeat IPC: 0.153114 cumulative IPC: 0.133387 (Simulation time: 1 hr 13 min 23 sec) 
Heartbeat CPU 0 instructions: 863000001 cycles: 6531306373 heartbeat IPC: 0.149206 cumulative IPC: 0.133421 (Simulation time: 1 hr 13 min 30 sec) 
Heartbeat CPU 0 instructions: 864000000 cycles: 6538121503 heartbeat IPC: 0.146732 cumulative IPC: 0.13345 (Simulation time: 1 hr 13 min 36 sec) 
Heartbeat CPU 0 instructions: 865000001 cycles: 6546966403 heartbeat IPC: 0.11306 cumulative IPC: 0.133393 (Simulation time: 1 hr 13 min 42 sec) 
Heartbeat CPU 0 instructions: 866000003 cycles: 6553696669 heartbeat IPC: 0.148583 cumulative IPC: 0.133425 (Simulation time: 1 hr 13 min 46 sec) 
Heartbeat CPU 0 instructions: 867000003 cycles: 6560570245 heartbeat IPC: 0.145485 cumulative IPC: 0.133452 (Simulation time: 1 hr 13 min 50 sec) 
Heartbeat CPU 0 instructions: 868000002 cycles: 6567260663 heartbeat IPC: 0.149467 cumulative IPC: 0.133486 (Simulation time: 1 hr 13 min 53 sec) 
Heartbeat CPU 0 instructions: 869000000 cycles: 6576374798 heartbeat IPC: 0.109719 cumulative IPC: 0.133417 (Simulation time: 1 hr 13 min 59 sec) 
Heartbeat CPU 0 instructions: 870000000 cycles: 6583114432 heartbeat IPC: 0.148376 cumulative IPC: 0.133449 (Simulation time: 1 hr 14 min 3 sec) 
Heartbeat CPU 0 instructions: 871000001 cycles: 6590156274 heartbeat IPC: 0.142008 cumulative IPC: 0.133468 (Simulation time: 1 hr 14 min 7 sec) 
Heartbeat CPU 0 instructions: 872000001 cycles: 6597345301 heartbeat IPC: 0.139101 cumulative IPC: 0.133481 (Simulation time: 1 hr 14 min 10 sec) 
Heartbeat CPU 0 instructions: 873000000 cycles: 6604467794 heartbeat IPC: 0.1404 cumulative IPC: 0.133497 (Simulation time: 1 hr 14 min 14 sec) 
Heartbeat CPU 0 instructions: 874000003 cycles: 6613813503 heartbeat IPC: 0.107001 cumulative IPC: 0.133419 (Simulation time: 1 hr 14 min 19 sec) 
Heartbeat CPU 0 instructions: 875000000 cycles: 6620422636 heartbeat IPC: 0.151305 cumulative IPC: 0.133456 (Simulation time: 1 hr 14 min 23 sec) 
Heartbeat CPU 0 instructions: 876000001 cycles: 6628469284 heartbeat IPC: 0.124275 cumulative IPC: 0.133433 (Simulation time: 1 hr 14 min 27 sec) 
Heartbeat CPU 0 instructions: 877000000 cycles: 6636569573 heartbeat IPC: 0.123452 cumulative IPC: 0.133407 (Simulation time: 1 hr 14 min 35 sec) 
Heartbeat CPU 0 instructions: 878000001 cycles: 6645843840 heartbeat IPC: 0.107825 cumulative IPC: 0.133333 (Simulation time: 1 hr 14 min 44 sec) 
Heartbeat CPU 0 instructions: 879000000 cycles: 6652166021 heartbeat IPC: 0.158173 cumulative IPC: 0.133382 (Simulation time: 1 hr 14 min 47 sec) 
Heartbeat CPU 0 instructions: 880000000 cycles: 6659427381 heartbeat IPC: 0.137715 cumulative IPC: 0.133392 (Simulation time: 1 hr 14 min 51 sec) 
Heartbeat CPU 0 instructions: 881000003 cycles: 6668685718 heartbeat IPC: 0.108011 cumulative IPC: 0.133319 (Simulation time: 1 hr 14 min 57 sec) 
Heartbeat CPU 0 instructions: 882000000 cycles: 6675442859 heartbeat IPC: 0.147991 cumulative IPC: 0.13335 (Simulation time: 1 hr 15 min 0 sec) 
Heartbeat CPU 0 instructions: 883000000 cycles: 6684513063 heartbeat IPC: 0.110251 cumulative IPC: 0.133285 (Simulation time: 1 hr 15 min 6 sec) 
Heartbeat CPU 0 instructions: 884000003 cycles: 6691229389 heartbeat IPC: 0.148891 cumulative IPC: 0.133318 (Simulation time: 1 hr 15 min 9 sec) 
Heartbeat CPU 0 instructions: 885000001 cycles: 6697820193 heartbeat IPC: 0.151726 cumulative IPC: 0.133355 (Simulation time: 1 hr 15 min 13 sec) 
Heartbeat CPU 0 instructions: 886000002 cycles: 6704394764 heartbeat IPC: 0.152101 cumulative IPC: 0.133393 (Simulation time: 1 hr 15 min 17 sec) 
Heartbeat CPU 0 instructions: 887000001 cycles: 6711025815 heartbeat IPC: 0.150806 cumulative IPC: 0.133428 (Simulation time: 1 hr 15 min 20 sec) 
Heartbeat CPU 0 instructions: 888000002 cycles: 6719721349 heartbeat IPC: 0.115002 cumulative IPC: 0.133379 (Simulation time: 1 hr 15 min 26 sec) 
Heartbeat CPU 0 instructions: 889000000 cycles: 6725892824 heartbeat IPC: 0.162035 cumulative IPC: 0.133433 (Simulation time: 1 hr 15 min 30 sec) 
Heartbeat CPU 0 instructions: 890000000 cycles: 6734552919 heartbeat IPC: 0.115472 cumulative IPC: 0.133386 (Simulation time: 1 hr 15 min 35 sec) 
Heartbeat CPU 0 instructions: 891000000 cycles: 6741282917 heartbeat IPC: 0.148588 cumulative IPC: 0.133417 (Simulation time: 1 hr 15 min 39 sec) 
Heartbeat CPU 0 instructions: 892000002 cycles: 6748346262 heartbeat IPC: 0.141576 cumulative IPC: 0.133434 (Simulation time: 1 hr 15 min 42 sec) 
Heartbeat CPU 0 instructions: 893000001 cycles: 6757330565 heartbeat IPC: 0.111305 cumulative IPC: 0.133374 (Simulation time: 1 hr 15 min 47 sec) 
Heartbeat CPU 0 instructions: 894000000 cycles: 6764100172 heartbeat IPC: 0.147719 cumulative IPC: 0.133403 (Simulation time: 1 hr 15 min 51 sec) 
Heartbeat CPU 0 instructions: 895000003 cycles: 6770983419 heartbeat IPC: 0.145281 cumulative IPC: 0.133428 (Simulation time: 1 hr 15 min 55 sec) 
Heartbeat CPU 0 instructions: 896000000 cycles: 6778063233 heartbeat IPC: 0.141246 cumulative IPC: 0.133444 (Simulation time: 1 hr 15 min 58 sec) 
Heartbeat CPU 0 instructions: 897000003 cycles: 6785124889 heartbeat IPC: 0.14161 cumulative IPC: 0.133462 (Simulation time: 1 hr 16 min 2 sec) 
Heartbeat CPU 0 instructions: 898000001 cycles: 6794644574 heartbeat IPC: 0.105045 cumulative IPC: 0.133381 (Simulation time: 1 hr 16 min 7 sec) 
Heartbeat CPU 0 instructions: 899000000 cycles: 6800582042 heartbeat IPC: 0.168422 cumulative IPC: 0.133443 (Simulation time: 1 hr 16 min 11 sec) 
Heartbeat CPU 0 instructions: 900000000 cycles: 6806975697 heartbeat IPC: 0.156405 cumulative IPC: 0.133486 (Simulation time: 1 hr 16 min 15 sec) 
Heartbeat CPU 0 instructions: 901000002 cycles: 6813294319 heartbeat IPC: 0.158263 cumulative IPC: 0.133533 (Simulation time: 1 hr 16 min 19 sec) 
Heartbeat CPU 0 instructions: 902000000 cycles: 6819308763 heartbeat IPC: 0.166266 cumulative IPC: 0.133591 (Simulation time: 1 hr 16 min 22 sec) 
Heartbeat CPU 0 instructions: 903000000 cycles: 6828282076 heartbeat IPC: 0.111442 cumulative IPC: 0.133532 (Simulation time: 1 hr 16 min 30 sec) 
Heartbeat CPU 0 instructions: 904000001 cycles: 6835020654 heartbeat IPC: 0.148399 cumulative IPC: 0.133562 (Simulation time: 1 hr 16 min 37 sec) 
Heartbeat CPU 0 instructions: 905000002 cycles: 6842304425 heartbeat IPC: 0.137292 cumulative IPC: 0.13357 (Simulation time: 1 hr 16 min 43 sec) 
Heartbeat CPU 0 instructions: 906000002 cycles: 6849183837 heartbeat IPC: 0.145361 cumulative IPC: 0.133594 (Simulation time: 1 hr 16 min 50 sec) 
Heartbeat CPU 0 instructions: 907000001 cycles: 6860679844 heartbeat IPC: 0.0869866 cumulative IPC: 0.133437 (Simulation time: 1 hr 17 min 2 sec) 
Heartbeat CPU 0 instructions: 908000000 cycles: 6867294255 heartbeat IPC: 0.151185 cumulative IPC: 0.133471 (Simulation time: 1 hr 17 min 9 sec) 
Heartbeat CPU 0 instructions: 909000002 cycles: 6874038107 heartbeat IPC: 0.148283 cumulative IPC: 0.1335 (Simulation time: 1 hr 17 min 15 sec) 
Heartbeat CPU 0 instructions: 910000000 cycles: 6883063224 heartbeat IPC: 0.110802 cumulative IPC: 0.133441 (Simulation time: 1 hr 17 min 24 sec) 
Heartbeat CPU 0 instructions: 911000001 cycles: 6889528491 heartbeat IPC: 0.154673 cumulative IPC: 0.133481 (Simulation time: 1 hr 17 min 31 sec) 
Heartbeat CPU 0 instructions: 912000000 cycles: 6896594458 heartbeat IPC: 0.141523 cumulative IPC: 0.133497 (Simulation time: 1 hr 17 min 37 sec) 
Heartbeat CPU 0 instructions: 913000000 cycles: 6904225197 heartbeat IPC: 0.131049 cumulative IPC: 0.133492 (Simulation time: 1 hr 17 min 44 sec) 
Heartbeat CPU 0 instructions: 914000000 cycles: 6911940553 heartbeat IPC: 0.129612 cumulative IPC: 0.133483 (Simulation time: 1 hr 17 min 48 sec) 
Heartbeat CPU 0 instructions: 915000000 cycles: 6921462583 heartbeat IPC: 0.10502 cumulative IPC: 0.133405 (Simulation time: 1 hr 17 min 53 sec) 
Heartbeat CPU 0 instructions: 916000000 cycles: 6927869807 heartbeat IPC: 0.156074 cumulative IPC: 0.133447 (Simulation time: 1 hr 17 min 57 sec) 
Heartbeat CPU 0 instructions: 917000002 cycles: 6934824523 heartbeat IPC: 0.143788 cumulative IPC: 0.133468 (Simulation time: 1 hr 18 min 0 sec) 
Heartbeat CPU 0 instructions: 918000000 cycles: 6941914829 heartbeat IPC: 0.141037 cumulative IPC: 0.133483 (Simulation time: 1 hr 18 min 4 sec) 
Heartbeat CPU 0 instructions: 919000001 cycles: 6949013492 heartbeat IPC: 0.140872 cumulative IPC: 0.133498 (Simulation time: 1 hr 18 min 7 sec) 
Heartbeat CPU 0 instructions: 920000000 cycles: 6958107569 heartbeat IPC: 0.109962 cumulative IPC: 0.133437 (Simulation time: 1 hr 18 min 13 sec) 
Heartbeat CPU 0 instructions: 921000002 cycles: 6964729473 heartbeat IPC: 0.151014 cumulative IPC: 0.13347 (Simulation time: 1 hr 18 min 17 sec) 
Heartbeat CPU 0 instructions: 922000001 cycles: 6971705853 heartbeat IPC: 0.143341 cumulative IPC: 0.13349 (Simulation time: 1 hr 18 min 20 sec) 
Heartbeat CPU 0 instructions: 923000001 cycles: 6978834988 heartbeat IPC: 0.140269 cumulative IPC: 0.133503 (Simulation time: 1 hr 18 min 24 sec) 
Heartbeat CPU 0 instructions: 924000000 cycles: 6986016627 heartbeat IPC: 0.139244 cumulative IPC: 0.133515 (Simulation time: 1 hr 18 min 27 sec) 
Heartbeat CPU 0 instructions: 925000003 cycles: 6994877036 heartbeat IPC: 0.112862 cumulative IPC: 0.133463 (Simulation time: 1 hr 18 min 36 sec) 
Heartbeat CPU 0 instructions: 926000000 cycles: 7003928371 heartbeat IPC: 0.110481 cumulative IPC: 0.133405 (Simulation time: 1 hr 18 min 46 sec) 
Heartbeat CPU 0 instructions: 927000000 cycles: 7010652084 heartbeat IPC: 0.148727 cumulative IPC: 0.133434 (Simulation time: 1 hr 18 min 50 sec) 
Heartbeat CPU 0 instructions: 928000001 cycles: 7017597621 heartbeat IPC: 0.143977 cumulative IPC: 0.133454 (Simulation time: 1 hr 18 min 54 sec) 
Heartbeat CPU 0 instructions: 929000000 cycles: 7026599149 heartbeat IPC: 0.111092 cumulative IPC: 0.133398 (Simulation time: 1 hr 18 min 59 sec) 
Heartbeat CPU 0 instructions: 930000002 cycles: 7033430977 heartbeat IPC: 0.146374 cumulative IPC: 0.133423 (Simulation time: 1 hr 19 min 3 sec) 
Heartbeat CPU 0 instructions: 931000000 cycles: 7040947147 heartbeat IPC: 0.133046 cumulative IPC: 0.133422 (Simulation time: 1 hr 19 min 6 sec) 
Heartbeat CPU 0 instructions: 932000001 cycles: 7048719653 heartbeat IPC: 0.128659 cumulative IPC: 0.133412 (Simulation time: 1 hr 19 min 10 sec) 
Heartbeat CPU 0 instructions: 933000000 cycles: 7057165902 heartbeat IPC: 0.118396 cumulative IPC: 0.133377 (Simulation time: 1 hr 19 min 15 sec) 
Heartbeat CPU 0 instructions: 934000001 cycles: 7064919147 heartbeat IPC: 0.128978 cumulative IPC: 0.133367 (Simulation time: 1 hr 19 min 24 sec) 
Heartbeat CPU 0 instructions: 935000000 cycles: 7071701042 heartbeat IPC: 0.147451 cumulative IPC: 0.133394 (Simulation time: 1 hr 19 min 30 sec) 
Heartbeat CPU 0 instructions: 936000002 cycles: 7078607734 heartbeat IPC: 0.144787 cumulative IPC: 0.133415 (Simulation time: 1 hr 19 min 35 sec) 
Heartbeat CPU 0 instructions: 937000000 cycles: 7085581817 heartbeat IPC: 0.143388 cumulative IPC: 0.133434 (Simulation time: 1 hr 19 min 39 sec) 
Heartbeat CPU 0 instructions: 938000001 cycles: 7094514595 heartbeat IPC: 0.111947 cumulative IPC: 0.133382 (Simulation time: 1 hr 19 min 45 sec) 
Heartbeat CPU 0 instructions: 939000000 cycles: 7102029400 heartbeat IPC: 0.133071 cumulative IPC: 0.133381 (Simulation time: 1 hr 19 min 50 sec) 
Heartbeat CPU 0 instructions: 940000002 cycles: 7112745713 heartbeat IPC: 0.0933159 cumulative IPC: 0.133264 (Simulation time: 1 hr 20 min 0 sec) 
Heartbeat CPU 0 instructions: 941000003 cycles: 7118747150 heartbeat IPC: 0.166627 cumulative IPC: 0.133319 (Simulation time: 1 hr 20 min 6 sec) 
Heartbeat CPU 0 instructions: 942000003 cycles: 7127547714 heartbeat IPC: 0.113629 cumulative IPC: 0.133272 (Simulation time: 1 hr 20 min 14 sec) 
Heartbeat CPU 0 instructions: 943000000 cycles: 7134200690 heartbeat IPC: 0.150308 cumulative IPC: 0.133303 (Simulation time: 1 hr 20 min 20 sec) 
Heartbeat CPU 0 instructions: 944000000 cycles: 7141189504 heartbeat IPC: 0.143086 cumulative IPC: 0.133321 (Simulation time: 1 hr 20 min 25 sec) 
Heartbeat CPU 0 instructions: 945000000 cycles: 7148880664 heartbeat IPC: 0.130019 cumulative IPC: 0.133314 (Simulation time: 1 hr 20 min 31 sec) 
Heartbeat CPU 0 instructions: 946000000 cycles: 7157140465 heartbeat IPC: 0.121068 cumulative IPC: 0.133287 (Simulation time: 1 hr 20 min 39 sec) 
Heartbeat CPU 0 instructions: 947000000 cycles: 7163937630 heartbeat IPC: 0.14712 cumulative IPC: 0.133312 (Simulation time: 1 hr 20 min 45 sec) 
Heartbeat CPU 0 instructions: 948000001 cycles: 7170921006 heartbeat IPC: 0.143197 cumulative IPC: 0.133331 (Simulation time: 1 hr 20 min 51 sec) 
Heartbeat CPU 0 instructions: 949000003 cycles: 7178089032 heartbeat IPC: 0.139509 cumulative IPC: 0.133343 (Simulation time: 1 hr 20 min 55 sec) 
Heartbeat CPU 0 instructions: 950000000 cycles: 7186961179 heartbeat IPC: 0.112712 cumulative IPC: 0.133294 (Simulation time: 1 hr 21 min 0 sec) 
Finished CPU 0 instructions: 500000002 cycles: 3751113985 cumulative IPC: 0.133294 (Simulation time: 1 hr 21 min 0 sec) 

ChampSim completed all CPUs

Region of Interest Statistics

CPU 0 cumulative IPC: 0.133294 instructions: 500000002 cycles: 3751113985
L1D TOTAL     ACCESS:  177350649  HIT:  146934495  MISS:   30416154
L1D LOAD      ACCESS:  126032716  HIT:  106440367  MISS:   19592349
L1D RFO       ACCESS:   51317933  HIT:   40494128  MISS:   10823805
L1D PREFETCH  ACCESS:          0  HIT:          0  MISS:          0
L1D WRITEBACK ACCESS:          0  HIT:          0  MISS:          0
L1D PREFETCH  REQUESTED:          0  ISSUED:          0  USEFUL:          0  USELESS:          0
L1D AVERAGE MISS LATENCY: 356.174 cycles
L1I TOTAL     ACCESS:   81891393  HIT:   81891380  MISS:         13
L1I LOAD      ACCESS:   81891393  HIT:   81891380  MISS:         13
L1I RFO       ACCESS:          0  HIT:          0  MISS:          0
L1I PREFETCH  ACCESS:          0  HIT:          0  MISS:          0
L1I WRITEBACK ACCESS:          0  HIT:          0  MISS:          0
L1I PREFETCH  REQUESTED:          0  ISSUED:          0  USEFUL:          0  USELESS:          0
L1I AVERAGE MISS LATENCY: 228.308 cycles
L2C TOTAL     ACCESS:   45847018  HIT:   23633263  MISS:   22213755
L2C LOAD      ACCESS:   19592115  HIT:    7669190  MISS:   11922925
L2C RFO       ACCESS:   10823804  HIT:     534056  MISS:   10289748
L2C PREFETCH  ACCESS:          0  HIT:          0  MISS:          0
L2C WRITEBACK ACCESS:   15431099  HIT:   15430017  MISS:       1082
L2C PREFETCH  REQUESTED:          0  ISSUED:          0  USEFUL:          0  USELESS:          0
L2C AVERAGE MISS LATENCY: 400.157 cycles
LLC TOTAL     ACCESS:   41040342  HIT:   18357559  MISS:   22682783
LLC LOAD      ACCESS:   11922925  HIT:    1554079  MISS:   10368846
LLC RFO       ACCESS:   10289739  HIT:     590330  MISS:    9699409
LLC PREFETCH  ACCESS:    3962269  HIT:    1363647  MISS:    2598622
LLC WRITEBACK ACCESS:   14865409  HIT:   14849503  MISS:      15906
LLC PREFETCH  REQUESTED:    4235104  ISSUED:    4231283  USEFUL:    1335344  USELESS:    1254930
LLC AVERAGE MISS LATENCY: 317.573 cycles
Major fault: 0 Minor fault: 29901

DRAM Statistics
 CHANNEL 0
 RQ ROW_BUFFER_HIT:    1411707  ROW_BUFFER_MISS:   21254124
 DBUS_CONGESTED:   20401102
 WQ ROW_BUFFER_HIT:    2027214  ROW_BUFFER_MISS:   12160129  FULL:          0

 AVG_CONGESTED_CYCLE: 6

CPU 0 Branch Prediction Accuracy: 92.7448% MPKI: 15.2948 Average ROB Occupancy at Mispredict: 32.6259

Branch types
NOT_BRANCH: 394593523 78.9187%
BRANCH_DIRECT_JUMP: 4561055 0.912211%
BRANCH_INDIRECT: 0 0%
BRANCH_CONDITIONAL: 64869352 12.9739%
BRANCH_DIRECT_CALL: 21031 0.0042062%
BRANCH_INDIRECT_CALL: 17967024 3.5934%
BRANCH_RETURN: 17988055 3.59761%
BRANCH_OTHER: 0 0%


gzip: stdout: Broken pipe
