
*** ChampSim Multicore Out-of-Order Simulator ***

Warmup Instructions: 1000000
Prefetch Warmup Instructions: 450000000
Simulation Instructions: 500000000
Stat Printing Period: 1000000
Number of CPUs: 1
LLC sets: 2048
LLC ways: 16
Off-chip DRAM Size: 4096 MB Channels: 1 Width: 64-bit Data Rate: 3200 MT/s

CPU 0 runs /scratch/cluster/cmolder/ML-DPC/ChampSimTraces/spec17/602.gcc-s3.trace.xz
Read seed: 224
Heartbeat CPU 0 instructions: 1000000 cycles: 501189 heartbeat IPC: 1.99526 cumulative IPC: 1.99526 (Simulation time: 0 hr 0 min 4 sec) 

Warmup complete CPU 0 instructions: 1000004 cycles: 501190 (Simulation time: 0 hr 0 min 4 sec) 

Heartbeat CPU 0 instructions: 2000003 cycles: 2180891 heartbeat IPC: 0.595345 cumulative IPC: 0.595343 (Simulation time: 0 hr 0 min 11 sec) 
Heartbeat CPU 0 instructions: 3000000 cycles: 3856248 heartbeat IPC: 0.596886 cumulative IPC: 0.596114 (Simulation time: 0 hr 0 min 17 sec) 
Heartbeat CPU 0 instructions: 4000002 cycles: 5530503 heartbeat IPC: 0.597282 cumulative IPC: 0.596503 (Simulation time: 0 hr 0 min 23 sec) 
Heartbeat CPU 0 instructions: 5000003 cycles: 7221105 heartbeat IPC: 0.591506 cumulative IPC: 0.595245 (Simulation time: 0 hr 0 min 29 sec) 
Heartbeat CPU 0 instructions: 6000003 cycles: 8902006 heartbeat IPC: 0.594919 cumulative IPC: 0.59518 (Simulation time: 0 hr 0 min 36 sec) 
Heartbeat CPU 0 instructions: 7000000 cycles: 10578426 heartbeat IPC: 0.596507 cumulative IPC: 0.595401 (Simulation time: 0 hr 0 min 42 sec) 
Heartbeat CPU 0 instructions: 8000003 cycles: 12286624 heartbeat IPC: 0.585414 cumulative IPC: 0.593953 (Simulation time: 0 hr 0 min 48 sec) 
Heartbeat CPU 0 instructions: 9000000 cycles: 14001480 heartbeat IPC: 0.583138 cumulative IPC: 0.59258 (Simulation time: 0 hr 0 min 55 sec) 
Heartbeat CPU 0 instructions: 10000000 cycles: 15690804 heartbeat IPC: 0.591953 cumulative IPC: 0.59251 (Simulation time: 0 hr 1 min 1 sec) 
Heartbeat CPU 0 instructions: 11000000 cycles: 17366906 heartbeat IPC: 0.596622 cumulative IPC: 0.592919 (Simulation time: 0 hr 1 min 7 sec) 
Heartbeat CPU 0 instructions: 12000000 cycles: 19046891 heartbeat IPC: 0.595243 cumulative IPC: 0.593129 (Simulation time: 0 hr 1 min 13 sec) 
Heartbeat CPU 0 instructions: 13000003 cycles: 20771857 heartbeat IPC: 0.579723 cumulative IPC: 0.591988 (Simulation time: 0 hr 1 min 19 sec) 
Heartbeat CPU 0 instructions: 14000003 cycles: 22539129 heartbeat IPC: 0.565844 cumulative IPC: 0.589892 (Simulation time: 0 hr 1 min 26 sec) 
Heartbeat CPU 0 instructions: 15000002 cycles: 24442919 heartbeat IPC: 0.525267 cumulative IPC: 0.584753 (Simulation time: 0 hr 1 min 32 sec) 
Heartbeat CPU 0 instructions: 16000003 cycles: 26128912 heartbeat IPC: 0.593123 cumulative IPC: 0.585304 (Simulation time: 0 hr 1 min 39 sec) 
Heartbeat CPU 0 instructions: 17000001 cycles: 27803310 heartbeat IPC: 0.597228 cumulative IPC: 0.586035 (Simulation time: 0 hr 1 min 45 sec) 
Heartbeat CPU 0 instructions: 18000002 cycles: 29530926 heartbeat IPC: 0.578833 cumulative IPC: 0.585606 (Simulation time: 0 hr 1 min 52 sec) 
Heartbeat CPU 0 instructions: 19000001 cycles: 31240873 heartbeat IPC: 0.584813 cumulative IPC: 0.585562 (Simulation time: 0 hr 1 min 58 sec) 
Heartbeat CPU 0 instructions: 20000000 cycles: 32952488 heartbeat IPC: 0.584243 cumulative IPC: 0.585493 (Simulation time: 0 hr 2 min 5 sec) 
Heartbeat CPU 0 instructions: 21000000 cycles: 34630364 heartbeat IPC: 0.595992 cumulative IPC: 0.586009 (Simulation time: 0 hr 2 min 11 sec) 
Heartbeat CPU 0 instructions: 22000000 cycles: 36300880 heartbeat IPC: 0.598617 cumulative IPC: 0.586597 (Simulation time: 0 hr 2 min 18 sec) 
Heartbeat CPU 0 instructions: 23000001 cycles: 37990295 heartbeat IPC: 0.591921 cumulative IPC: 0.586837 (Simulation time: 0 hr 2 min 24 sec) 
Heartbeat CPU 0 instructions: 24000001 cycles: 39682640 heartbeat IPC: 0.590896 cumulative IPC: 0.587012 (Simulation time: 0 hr 2 min 31 sec) 
Heartbeat CPU 0 instructions: 25000001 cycles: 41371951 heartbeat IPC: 0.591957 cumulative IPC: 0.587217 (Simulation time: 0 hr 2 min 37 sec) 
Heartbeat CPU 0 instructions: 26000000 cycles: 43046983 heartbeat IPC: 0.597003 cumulative IPC: 0.587602 (Simulation time: 0 hr 2 min 43 sec) 
Heartbeat CPU 0 instructions: 27000003 cycles: 44715549 heartbeat IPC: 0.599319 cumulative IPC: 0.588044 (Simulation time: 0 hr 2 min 49 sec) 
Heartbeat CPU 0 instructions: 28000001 cycles: 46396414 heartbeat IPC: 0.594931 cumulative IPC: 0.588296 (Simulation time: 0 hr 2 min 55 sec) 
Heartbeat CPU 0 instructions: 29000001 cycles: 48081618 heartbeat IPC: 0.5934 cumulative IPC: 0.588477 (Simulation time: 0 hr 3 min 1 sec) 
Heartbeat CPU 0 instructions: 30000000 cycles: 49766564 heartbeat IPC: 0.59349 cumulative IPC: 0.588649 (Simulation time: 0 hr 3 min 8 sec) 
Heartbeat CPU 0 instructions: 31000000 cycles: 51462808 heartbeat IPC: 0.589538 cumulative IPC: 0.588678 (Simulation time: 0 hr 3 min 14 sec) 
Heartbeat CPU 0 instructions: 32000002 cycles: 53146008 heartbeat IPC: 0.594108 cumulative IPC: 0.588852 (Simulation time: 0 hr 3 min 20 sec) 
Heartbeat CPU 0 instructions: 33000000 cycles: 54820812 heartbeat IPC: 0.597084 cumulative IPC: 0.589106 (Simulation time: 0 hr 3 min 26 sec) 
Heartbeat CPU 0 instructions: 34000000 cycles: 56523918 heartbeat IPC: 0.587162 cumulative IPC: 0.589047 (Simulation time: 0 hr 3 min 33 sec) 
Heartbeat CPU 0 instructions: 35000002 cycles: 58207252 heartbeat IPC: 0.59406 cumulative IPC: 0.589193 (Simulation time: 0 hr 3 min 39 sec) 
Heartbeat CPU 0 instructions: 36000003 cycles: 59884987 heartbeat IPC: 0.596042 cumulative IPC: 0.589386 (Simulation time: 0 hr 3 min 45 sec) 
Heartbeat CPU 0 instructions: 37000001 cycles: 61697043 heartbeat IPC: 0.551858 cumulative IPC: 0.588275 (Simulation time: 0 hr 3 min 51 sec) 
Heartbeat CPU 0 instructions: 38000003 cycles: 63540125 heartbeat IPC: 0.542571 cumulative IPC: 0.586939 (Simulation time: 0 hr 3 min 57 sec) 
Heartbeat CPU 0 instructions: 39000000 cycles: 65415342 heartbeat IPC: 0.53327 cumulative IPC: 0.585388 (Simulation time: 0 hr 4 min 4 sec) 
Heartbeat CPU 0 instructions: 40000000 cycles: 67093974 heartbeat IPC: 0.595723 cumulative IPC: 0.585649 (Simulation time: 0 hr 4 min 10 sec) 
Heartbeat CPU 0 instructions: 41000001 cycles: 68765974 heartbeat IPC: 0.598087 cumulative IPC: 0.585954 (Simulation time: 0 hr 4 min 17 sec) 
Heartbeat CPU 0 instructions: 42000001 cycles: 70450383 heartbeat IPC: 0.59368 cumulative IPC: 0.58614 (Simulation time: 0 hr 4 min 24 sec) 
Heartbeat CPU 0 instructions: 43000001 cycles: 72148091 heartbeat IPC: 0.589029 cumulative IPC: 0.586208 (Simulation time: 0 hr 4 min 30 sec) 
Heartbeat CPU 0 instructions: 44000000 cycles: 73848343 heartbeat IPC: 0.588148 cumulative IPC: 0.586253 (Simulation time: 0 hr 4 min 36 sec) 
Heartbeat CPU 0 instructions: 45000003 cycles: 75531001 heartbeat IPC: 0.5943 cumulative IPC: 0.586434 (Simulation time: 0 hr 4 min 43 sec) 
Heartbeat CPU 0 instructions: 46000000 cycles: 77203654 heartbeat IPC: 0.597851 cumulative IPC: 0.586683 (Simulation time: 0 hr 4 min 49 sec) 
Heartbeat CPU 0 instructions: 47000000 cycles: 78887746 heartbeat IPC: 0.593792 cumulative IPC: 0.586835 (Simulation time: 0 hr 4 min 56 sec) 
Heartbeat CPU 0 instructions: 48000000 cycles: 80578425 heartbeat IPC: 0.591478 cumulative IPC: 0.586933 (Simulation time: 0 hr 5 min 2 sec) 
Heartbeat CPU 0 instructions: 49000003 cycles: 82267004 heartbeat IPC: 0.592216 cumulative IPC: 0.587042 (Simulation time: 0 hr 5 min 8 sec) 
Heartbeat CPU 0 instructions: 50000000 cycles: 83940057 heartbeat IPC: 0.597708 cumulative IPC: 0.587256 (Simulation time: 0 hr 5 min 14 sec) 
Heartbeat CPU 0 instructions: 51000002 cycles: 85607275 heartbeat IPC: 0.599803 cumulative IPC: 0.587502 (Simulation time: 0 hr 5 min 20 sec) 
Heartbeat CPU 0 instructions: 52000001 cycles: 87285632 heartbeat IPC: 0.59582 cumulative IPC: 0.587663 (Simulation time: 0 hr 5 min 26 sec) 
Heartbeat CPU 0 instructions: 53000000 cycles: 88976064 heartbeat IPC: 0.591564 cumulative IPC: 0.587737 (Simulation time: 0 hr 5 min 33 sec) 
Heartbeat CPU 0 instructions: 54000000 cycles: 90664146 heartbeat IPC: 0.592388 cumulative IPC: 0.587825 (Simulation time: 0 hr 5 min 39 sec) 
Heartbeat CPU 0 instructions: 55000000 cycles: 92351108 heartbeat IPC: 0.592782 cumulative IPC: 0.587916 (Simulation time: 0 hr 5 min 46 sec) 
Heartbeat CPU 0 instructions: 56000000 cycles: 94037081 heartbeat IPC: 0.593129 cumulative IPC: 0.58801 (Simulation time: 0 hr 5 min 52 sec) 
Heartbeat CPU 0 instructions: 57000003 cycles: 95711054 heartbeat IPC: 0.597383 cumulative IPC: 0.588174 (Simulation time: 0 hr 5 min 58 sec) 
Heartbeat CPU 0 instructions: 58000001 cycles: 97408213 heartbeat IPC: 0.589219 cumulative IPC: 0.588193 (Simulation time: 0 hr 6 min 5 sec) 
Heartbeat CPU 0 instructions: 59000003 cycles: 99089354 heartbeat IPC: 0.594835 cumulative IPC: 0.588306 (Simulation time: 0 hr 6 min 11 sec) 
Heartbeat CPU 0 instructions: 60000000 cycles: 100765142 heartbeat IPC: 0.596732 cumulative IPC: 0.588447 (Simulation time: 0 hr 6 min 17 sec) 
Heartbeat CPU 0 instructions: 61000001 cycles: 102584360 heartbeat IPC: 0.549687 cumulative IPC: 0.587756 (Simulation time: 0 hr 6 min 24 sec) 
Heartbeat CPU 0 instructions: 62000000 cycles: 104405170 heartbeat IPC: 0.549206 cumulative IPC: 0.58708 (Simulation time: 0 hr 6 min 30 sec) 
Heartbeat CPU 0 instructions: 63000001 cycles: 106587195 heartbeat IPC: 0.45829 cumulative IPC: 0.584431 (Simulation time: 0 hr 6 min 36 sec) 
Heartbeat CPU 0 instructions: 64000003 cycles: 108256575 heartbeat IPC: 0.599026 cumulative IPC: 0.584658 (Simulation time: 0 hr 6 min 42 sec) 
Heartbeat CPU 0 instructions: 65000001 cycles: 109921960 heartbeat IPC: 0.600461 cumulative IPC: 0.584898 (Simulation time: 0 hr 6 min 48 sec) 
Heartbeat CPU 0 instructions: 66000000 cycles: 111609566 heartbeat IPC: 0.592555 cumulative IPC: 0.585014 (Simulation time: 0 hr 6 min 54 sec) 
Heartbeat CPU 0 instructions: 67000000 cycles: 113334784 heartbeat IPC: 0.579637 cumulative IPC: 0.584932 (Simulation time: 0 hr 7 min 1 sec) 
Heartbeat CPU 0 instructions: 68000003 cycles: 115039329 heartbeat IPC: 0.586669 cumulative IPC: 0.584958 (Simulation time: 0 hr 7 min 7 sec) 
Heartbeat CPU 0 instructions: 69000000 cycles: 116727925 heartbeat IPC: 0.592206 cumulative IPC: 0.585063 (Simulation time: 0 hr 7 min 14 sec) 
Heartbeat CPU 0 instructions: 70000000 cycles: 118401770 heartbeat IPC: 0.597427 cumulative IPC: 0.585239 (Simulation time: 0 hr 7 min 20 sec) 
Heartbeat CPU 0 instructions: 71000002 cycles: 120085504 heartbeat IPC: 0.593919 cumulative IPC: 0.585361 (Simulation time: 0 hr 7 min 27 sec) 
Heartbeat CPU 0 instructions: 72000003 cycles: 121762802 heartbeat IPC: 0.596198 cumulative IPC: 0.585511 (Simulation time: 0 hr 7 min 33 sec) 
Heartbeat CPU 0 instructions: 73000000 cycles: 123453650 heartbeat IPC: 0.591417 cumulative IPC: 0.585592 (Simulation time: 0 hr 7 min 39 sec) 
Heartbeat CPU 0 instructions: 74000000 cycles: 125130141 heartbeat IPC: 0.596484 cumulative IPC: 0.585739 (Simulation time: 0 hr 7 min 45 sec) 
Heartbeat CPU 0 instructions: 75000002 cycles: 126792764 heartbeat IPC: 0.60146 cumulative IPC: 0.585946 (Simulation time: 0 hr 7 min 51 sec) 
Heartbeat CPU 0 instructions: 76000003 cycles: 128472124 heartbeat IPC: 0.595466 cumulative IPC: 0.586071 (Simulation time: 0 hr 7 min 58 sec) 
Heartbeat CPU 0 instructions: 77000000 cycles: 130147204 heartbeat IPC: 0.596985 cumulative IPC: 0.586212 (Simulation time: 0 hr 8 min 4 sec) 
Heartbeat CPU 0 instructions: 78000001 cycles: 131835124 heartbeat IPC: 0.592446 cumulative IPC: 0.586292 (Simulation time: 0 hr 8 min 11 sec) 
Heartbeat CPU 0 instructions: 79000000 cycles: 133524277 heartbeat IPC: 0.592012 cumulative IPC: 0.586364 (Simulation time: 0 hr 8 min 18 sec) 
Heartbeat CPU 0 instructions: 80000000 cycles: 135209953 heartbeat IPC: 0.593234 cumulative IPC: 0.58645 (Simulation time: 0 hr 8 min 24 sec) 
Heartbeat CPU 0 instructions: 81000000 cycles: 136889837 heartbeat IPC: 0.595279 cumulative IPC: 0.586559 (Simulation time: 0 hr 8 min 30 sec) 
Heartbeat CPU 0 instructions: 82000003 cycles: 138569029 heartbeat IPC: 0.595526 cumulative IPC: 0.586668 (Simulation time: 0 hr 8 min 36 sec) 
Heartbeat CPU 0 instructions: 83000001 cycles: 140262847 heartbeat IPC: 0.590381 cumulative IPC: 0.586713 (Simulation time: 0 hr 8 min 42 sec) 
Heartbeat CPU 0 instructions: 84000002 cycles: 141946370 heartbeat IPC: 0.593993 cumulative IPC: 0.5868 (Simulation time: 0 hr 8 min 47 sec) 
Heartbeat CPU 0 instructions: 85000001 cycles: 143628601 heartbeat IPC: 0.594448 cumulative IPC: 0.58689 (Simulation time: 0 hr 8 min 53 sec) 
Heartbeat CPU 0 instructions: 86000001 cycles: 145338954 heartbeat IPC: 0.584675 cumulative IPC: 0.586864 (Simulation time: 0 hr 9 min 0 sec) 
Heartbeat CPU 0 instructions: 87000000 cycles: 147052135 heartbeat IPC: 0.583709 cumulative IPC: 0.586827 (Simulation time: 0 hr 9 min 6 sec) 
Heartbeat CPU 0 instructions: 88000000 cycles: 148748632 heartbeat IPC: 0.58945 cumulative IPC: 0.586857 (Simulation time: 0 hr 9 min 12 sec) 
Heartbeat CPU 0 instructions: 89000000 cycles: 150431237 heartbeat IPC: 0.594317 cumulative IPC: 0.58694 (Simulation time: 0 hr 9 min 18 sec) 
Heartbeat CPU 0 instructions: 90000000 cycles: 152114895 heartbeat IPC: 0.593945 cumulative IPC: 0.587018 (Simulation time: 0 hr 9 min 25 sec) 
Heartbeat CPU 0 instructions: 91000003 cycles: 153835602 heartbeat IPC: 0.581158 cumulative IPC: 0.586952 (Simulation time: 0 hr 9 min 31 sec) 
Heartbeat CPU 0 instructions: 92000002 cycles: 155602042 heartbeat IPC: 0.56611 cumulative IPC: 0.586715 (Simulation time: 0 hr 9 min 37 sec) 
Heartbeat CPU 0 instructions: 93000003 cycles: 162604047 heartbeat IPC: 0.142816 cumulative IPC: 0.567541 (Simulation time: 0 hr 9 min 48 sec) 
Heartbeat CPU 0 instructions: 94000000 cycles: 171669883 heartbeat IPC: 0.110304 cumulative IPC: 0.543324 (Simulation time: 0 hr 10 min 1 sec) 
Heartbeat CPU 0 instructions: 95000001 cycles: 179011938 heartbeat IPC: 0.136202 cumulative IPC: 0.526579 (Simulation time: 0 hr 10 min 12 sec) 
Heartbeat CPU 0 instructions: 96000000 cycles: 182438346 heartbeat IPC: 0.291851 cumulative IPC: 0.522158 (Simulation time: 0 hr 10 min 17 sec) 
Heartbeat CPU 0 instructions: 97000002 cycles: 184068738 heartbeat IPC: 0.613351 cumulative IPC: 0.522968 (Simulation time: 0 hr 10 min 23 sec) 
Heartbeat CPU 0 instructions: 98000001 cycles: 185758026 heartbeat IPC: 0.591965 cumulative IPC: 0.523597 (Simulation time: 0 hr 10 min 29 sec) 
Heartbeat CPU 0 instructions: 99000000 cycles: 187493900 heartbeat IPC: 0.576078 cumulative IPC: 0.524085 (Simulation time: 0 hr 10 min 35 sec) 
Heartbeat CPU 0 instructions: 100000000 cycles: 189243249 heartbeat IPC: 0.571641 cumulative IPC: 0.524525 (Simulation time: 0 hr 10 min 41 sec) 
Heartbeat CPU 0 instructions: 101000000 cycles: 190974587 heartbeat IPC: 0.577588 cumulative IPC: 0.525008 (Simulation time: 0 hr 10 min 47 sec) 
Heartbeat CPU 0 instructions: 102000002 cycles: 192673579 heartbeat IPC: 0.588585 cumulative IPC: 0.52557 (Simulation time: 0 hr 10 min 53 sec) 
Heartbeat CPU 0 instructions: 103000002 cycles: 194354232 heartbeat IPC: 0.595007 cumulative IPC: 0.526172 (Simulation time: 0 hr 10 min 59 sec) 
Heartbeat CPU 0 instructions: 104000002 cycles: 196019153 heartbeat IPC: 0.600629 cumulative IPC: 0.526806 (Simulation time: 0 hr 11 min 5 sec) 
Heartbeat CPU 0 instructions: 105000002 cycles: 197699314 heartbeat IPC: 0.595181 cumulative IPC: 0.527388 (Simulation time: 0 hr 11 min 11 sec) 
Heartbeat CPU 0 instructions: 106000000 cycles: 199390782 heartbeat IPC: 0.591201 cumulative IPC: 0.527931 (Simulation time: 0 hr 11 min 18 sec) 
Heartbeat CPU 0 instructions: 107000003 cycles: 201067746 heartbeat IPC: 0.596318 cumulative IPC: 0.528503 (Simulation time: 0 hr 11 min 24 sec) 
Heartbeat CPU 0 instructions: 108000000 cycles: 202731065 heartbeat IPC: 0.601206 cumulative IPC: 0.529101 (Simulation time: 0 hr 11 min 31 sec) 
Heartbeat CPU 0 instructions: 109000000 cycles: 204403477 heartbeat IPC: 0.597939 cumulative IPC: 0.529665 (Simulation time: 0 hr 11 min 37 sec) 
Heartbeat CPU 0 instructions: 110000000 cycles: 206078079 heartbeat IPC: 0.597157 cumulative IPC: 0.530215 (Simulation time: 0 hr 11 min 44 sec) 
Heartbeat CPU 0 instructions: 111000000 cycles: 207762391 heartbeat IPC: 0.593714 cumulative IPC: 0.530731 (Simulation time: 0 hr 11 min 51 sec) 
Heartbeat CPU 0 instructions: 112000000 cycles: 209446407 heartbeat IPC: 0.593819 cumulative IPC: 0.53124 (Simulation time: 0 hr 11 min 56 sec) 
Heartbeat CPU 0 instructions: 113000000 cycles: 211130344 heartbeat IPC: 0.593846 cumulative IPC: 0.53174 (Simulation time: 0 hr 12 min 2 sec) 
Heartbeat CPU 0 instructions: 114000000 cycles: 212808977 heartbeat IPC: 0.595723 cumulative IPC: 0.532246 (Simulation time: 0 hr 12 min 8 sec) 
Heartbeat CPU 0 instructions: 115000001 cycles: 214485054 heartbeat IPC: 0.596632 cumulative IPC: 0.53275 (Simulation time: 0 hr 12 min 14 sec) 
Heartbeat CPU 0 instructions: 116000002 cycles: 216174921 heartbeat IPC: 0.591763 cumulative IPC: 0.533213 (Simulation time: 0 hr 12 min 21 sec) 
Heartbeat CPU 0 instructions: 117000002 cycles: 217855629 heartbeat IPC: 0.594987 cumulative IPC: 0.533691 (Simulation time: 0 hr 12 min 28 sec) 
Heartbeat CPU 0 instructions: 118000001 cycles: 219525499 heartbeat IPC: 0.598848 cumulative IPC: 0.534187 (Simulation time: 0 hr 12 min 34 sec) 
Heartbeat CPU 0 instructions: 119000001 cycles: 221230972 heartbeat IPC: 0.586348 cumulative IPC: 0.53459 (Simulation time: 0 hr 12 min 40 sec) 
Heartbeat CPU 0 instructions: 120000000 cycles: 222950483 heartbeat IPC: 0.58156 cumulative IPC: 0.534953 (Simulation time: 0 hr 12 min 46 sec) 
Heartbeat CPU 0 instructions: 121000000 cycles: 224647185 heartbeat IPC: 0.589379 cumulative IPC: 0.535365 (Simulation time: 0 hr 12 min 52 sec) 
Heartbeat CPU 0 instructions: 122000000 cycles: 226328286 heartbeat IPC: 0.594848 cumulative IPC: 0.535808 (Simulation time: 0 hr 12 min 58 sec) 
Heartbeat CPU 0 instructions: 123000000 cycles: 228001567 heartbeat IPC: 0.597628 cumulative IPC: 0.536263 (Simulation time: 0 hr 13 min 4 sec) 
Heartbeat CPU 0 instructions: 124000002 cycles: 229728118 heartbeat IPC: 0.579191 cumulative IPC: 0.536586 (Simulation time: 0 hr 13 min 10 sec) 
Heartbeat CPU 0 instructions: 125000000 cycles: 231455390 heartbeat IPC: 0.578946 cumulative IPC: 0.536903 (Simulation time: 0 hr 13 min 16 sec) 
Heartbeat CPU 0 instructions: 126000001 cycles: 233932640 heartbeat IPC: 0.403674 cumulative IPC: 0.535489 (Simulation time: 0 hr 13 min 22 sec) 
Heartbeat CPU 0 instructions: 127000003 cycles: 236364597 heartbeat IPC: 0.411192 cumulative IPC: 0.534207 (Simulation time: 0 hr 13 min 28 sec) 
Heartbeat CPU 0 instructions: 128000000 cycles: 238183645 heartbeat IPC: 0.549736 cumulative IPC: 0.534326 (Simulation time: 0 hr 13 min 34 sec) 
Heartbeat CPU 0 instructions: 129000000 cycles: 239905075 heartbeat IPC: 0.580912 cumulative IPC: 0.534661 (Simulation time: 0 hr 13 min 40 sec) 
Heartbeat CPU 0 instructions: 130000003 cycles: 241683974 heartbeat IPC: 0.562147 cumulative IPC: 0.534864 (Simulation time: 0 hr 13 min 45 sec) 
Heartbeat CPU 0 instructions: 131000000 cycles: 243510389 heartbeat IPC: 0.547519 cumulative IPC: 0.534959 (Simulation time: 0 hr 13 min 51 sec) 
Heartbeat CPU 0 instructions: 132000000 cycles: 245285219 heartbeat IPC: 0.563434 cumulative IPC: 0.535166 (Simulation time: 0 hr 13 min 57 sec) 
Heartbeat CPU 0 instructions: 133000003 cycles: 247035579 heartbeat IPC: 0.571313 cumulative IPC: 0.535422 (Simulation time: 0 hr 14 min 3 sec) 
Heartbeat CPU 0 instructions: 134000000 cycles: 248760720 heartbeat IPC: 0.579661 cumulative IPC: 0.53573 (Simulation time: 0 hr 14 min 8 sec) 
Heartbeat CPU 0 instructions: 135000003 cycles: 250490747 heartbeat IPC: 0.578027 cumulative IPC: 0.536022 (Simulation time: 0 hr 14 min 14 sec) 
Heartbeat CPU 0 instructions: 136000002 cycles: 252215558 heartbeat IPC: 0.579773 cumulative IPC: 0.536322 (Simulation time: 0 hr 14 min 20 sec) 
Heartbeat CPU 0 instructions: 137000002 cycles: 253962936 heartbeat IPC: 0.572286 cumulative IPC: 0.53657 (Simulation time: 0 hr 14 min 26 sec) 
Heartbeat CPU 0 instructions: 138000000 cycles: 255689970 heartbeat IPC: 0.579026 cumulative IPC: 0.536857 (Simulation time: 0 hr 14 min 31 sec) 
Heartbeat CPU 0 instructions: 139000001 cycles: 257404532 heartbeat IPC: 0.58324 cumulative IPC: 0.537167 (Simulation time: 0 hr 14 min 37 sec) 
Heartbeat CPU 0 instructions: 140000001 cycles: 259137959 heartbeat IPC: 0.576892 cumulative IPC: 0.537433 (Simulation time: 0 hr 14 min 43 sec) 
Heartbeat CPU 0 instructions: 141000003 cycles: 260870794 heartbeat IPC: 0.57709 cumulative IPC: 0.537697 (Simulation time: 0 hr 14 min 49 sec) 
Heartbeat CPU 0 instructions: 142000003 cycles: 262610750 heartbeat IPC: 0.574727 cumulative IPC: 0.537943 (Simulation time: 0 hr 14 min 54 sec) 
Heartbeat CPU 0 instructions: 143000000 cycles: 264354972 heartbeat IPC: 0.57332 cumulative IPC: 0.538177 (Simulation time: 0 hr 15 min 0 sec) 
Heartbeat CPU 0 instructions: 144000000 cycles: 266092765 heartbeat IPC: 0.575443 cumulative IPC: 0.538421 (Simulation time: 0 hr 15 min 6 sec) 
Heartbeat CPU 0 instructions: 145000001 cycles: 267824096 heartbeat IPC: 0.577591 cumulative IPC: 0.538674 (Simulation time: 0 hr 15 min 12 sec) 
Heartbeat CPU 0 instructions: 146000002 cycles: 269559286 heartbeat IPC: 0.576306 cumulative IPC: 0.538917 (Simulation time: 0 hr 15 min 19 sec) 
Heartbeat CPU 0 instructions: 147000002 cycles: 271307969 heartbeat IPC: 0.571859 cumulative IPC: 0.53913 (Simulation time: 0 hr 15 min 25 sec) 
Heartbeat CPU 0 instructions: 148000002 cycles: 273044479 heartbeat IPC: 0.575868 cumulative IPC: 0.539364 (Simulation time: 0 hr 15 min 31 sec) 
Heartbeat CPU 0 instructions: 149000003 cycles: 274783031 heartbeat IPC: 0.575192 cumulative IPC: 0.539591 (Simulation time: 0 hr 15 min 36 sec) 
Heartbeat CPU 0 instructions: 150000000 cycles: 276547126 heartbeat IPC: 0.566861 cumulative IPC: 0.539765 (Simulation time: 0 hr 15 min 43 sec) 
Heartbeat CPU 0 instructions: 151000000 cycles: 278322181 heartbeat IPC: 0.563363 cumulative IPC: 0.539916 (Simulation time: 0 hr 15 min 49 sec) 
Heartbeat CPU 0 instructions: 152000003 cycles: 280079740 heartbeat IPC: 0.568973 cumulative IPC: 0.540099 (Simulation time: 0 hr 15 min 56 sec) 
Heartbeat CPU 0 instructions: 153000000 cycles: 281814192 heartbeat IPC: 0.576549 cumulative IPC: 0.540323 (Simulation time: 0 hr 16 min 2 sec) 
Heartbeat CPU 0 instructions: 154000000 cycles: 283535457 heartbeat IPC: 0.580968 cumulative IPC: 0.540571 (Simulation time: 0 hr 16 min 8 sec) 
Heartbeat CPU 0 instructions: 155000002 cycles: 285328491 heartbeat IPC: 0.557715 cumulative IPC: 0.540679 (Simulation time: 0 hr 16 min 14 sec) 
Heartbeat CPU 0 instructions: 156000000 cycles: 287110476 heartbeat IPC: 0.561171 cumulative IPC: 0.540806 (Simulation time: 0 hr 16 min 20 sec) 
Heartbeat CPU 0 instructions: 157000000 cycles: 288973766 heartbeat IPC: 0.536685 cumulative IPC: 0.540779 (Simulation time: 0 hr 16 min 26 sec) 
Heartbeat CPU 0 instructions: 158000001 cycles: 290654760 heartbeat IPC: 0.594887 cumulative IPC: 0.541093 (Simulation time: 0 hr 16 min 32 sec) 
Heartbeat CPU 0 instructions: 159000001 cycles: 292329997 heartbeat IPC: 0.59693 cumulative IPC: 0.541413 (Simulation time: 0 hr 16 min 38 sec) 
Heartbeat CPU 0 instructions: 160000003 cycles: 294052916 heartbeat IPC: 0.580411 cumulative IPC: 0.541642 (Simulation time: 0 hr 16 min 44 sec) 
Heartbeat CPU 0 instructions: 161000002 cycles: 295752707 heartbeat IPC: 0.588307 cumulative IPC: 0.541911 (Simulation time: 0 hr 16 min 49 sec) 
Heartbeat CPU 0 instructions: 162000001 cycles: 297449953 heartbeat IPC: 0.589189 cumulative IPC: 0.542181 (Simulation time: 0 hr 16 min 56 sec) 
Heartbeat CPU 0 instructions: 163000000 cycles: 299131723 heartbeat IPC: 0.594611 cumulative IPC: 0.542476 (Simulation time: 0 hr 17 min 2 sec) 
Heartbeat CPU 0 instructions: 164000003 cycles: 300802170 heartbeat IPC: 0.598644 cumulative IPC: 0.542789 (Simulation time: 0 hr 17 min 9 sec) 
Heartbeat CPU 0 instructions: 165000000 cycles: 302478690 heartbeat IPC: 0.596472 cumulative IPC: 0.543087 (Simulation time: 0 hr 17 min 15 sec) 
Heartbeat CPU 0 instructions: 166000003 cycles: 304165234 heartbeat IPC: 0.59293 cumulative IPC: 0.543364 (Simulation time: 0 hr 17 min 21 sec) 
Heartbeat CPU 0 instructions: 167000001 cycles: 305851108 heartbeat IPC: 0.593163 cumulative IPC: 0.543639 (Simulation time: 0 hr 17 min 27 sec) 
Heartbeat CPU 0 instructions: 168000000 cycles: 307515988 heartbeat IPC: 0.600643 cumulative IPC: 0.543948 (Simulation time: 0 hr 17 min 33 sec) 
Heartbeat CPU 0 instructions: 169000002 cycles: 309186052 heartbeat IPC: 0.598781 cumulative IPC: 0.544244 (Simulation time: 0 hr 17 min 39 sec) 
Heartbeat CPU 0 instructions: 170000000 cycles: 310864643 heartbeat IPC: 0.595737 cumulative IPC: 0.544523 (Simulation time: 0 hr 17 min 45 sec) 
Heartbeat CPU 0 instructions: 171000002 cycles: 312544051 heartbeat IPC: 0.595449 cumulative IPC: 0.544797 (Simulation time: 0 hr 17 min 51 sec) 
Heartbeat CPU 0 instructions: 172000001 cycles: 314221914 heartbeat IPC: 0.595996 cumulative IPC: 0.545071 (Simulation time: 0 hr 17 min 57 sec) 
Heartbeat CPU 0 instructions: 173000003 cycles: 315920092 heartbeat IPC: 0.588868 cumulative IPC: 0.545307 (Simulation time: 0 hr 18 min 4 sec) 
Heartbeat CPU 0 instructions: 174000000 cycles: 317602403 heartbeat IPC: 0.594419 cumulative IPC: 0.545567 (Simulation time: 0 hr 18 min 10 sec) 
Heartbeat CPU 0 instructions: 175000001 cycles: 319272372 heartbeat IPC: 0.598814 cumulative IPC: 0.545846 (Simulation time: 0 hr 18 min 16 sec) 
Heartbeat CPU 0 instructions: 176000000 cycles: 320969956 heartbeat IPC: 0.589072 cumulative IPC: 0.546075 (Simulation time: 0 hr 18 min 22 sec) 
Heartbeat CPU 0 instructions: 177000003 cycles: 322651587 heartbeat IPC: 0.594663 cumulative IPC: 0.546329 (Simulation time: 0 hr 18 min 28 sec) 
Heartbeat CPU 0 instructions: 178000000 cycles: 324323019 heartbeat IPC: 0.598288 cumulative IPC: 0.546597 (Simulation time: 0 hr 18 min 34 sec) 
Heartbeat CPU 0 instructions: 179000000 cycles: 326116656 heartbeat IPC: 0.557526 cumulative IPC: 0.546657 (Simulation time: 0 hr 18 min 40 sec) 
Heartbeat CPU 0 instructions: 180000000 cycles: 327961432 heartbeat IPC: 0.542071 cumulative IPC: 0.546631 (Simulation time: 0 hr 18 min 46 sec) 
Heartbeat CPU 0 instructions: 181000000 cycles: 330270367 heartbeat IPC: 0.4331 cumulative IPC: 0.545836 (Simulation time: 0 hr 18 min 52 sec) 
Heartbeat CPU 0 instructions: 182000002 cycles: 333130153 heartbeat IPC: 0.349677 cumulative IPC: 0.54415 (Simulation time: 0 hr 19 min 0 sec) 
Heartbeat CPU 0 instructions: 183000001 cycles: 336050079 heartbeat IPC: 0.342474 cumulative IPC: 0.542395 (Simulation time: 0 hr 19 min 7 sec) 
Heartbeat CPU 0 instructions: 184000002 cycles: 338961914 heartbeat IPC: 0.343426 cumulative IPC: 0.540683 (Simulation time: 0 hr 19 min 14 sec) 
Heartbeat CPU 0 instructions: 185000000 cycles: 341875532 heartbeat IPC: 0.343215 cumulative IPC: 0.538998 (Simulation time: 0 hr 19 min 21 sec) 
Heartbeat CPU 0 instructions: 186000000 cycles: 344761113 heartbeat IPC: 0.346551 cumulative IPC: 0.537385 (Simulation time: 0 hr 19 min 28 sec) 
Heartbeat CPU 0 instructions: 187000000 cycles: 347666861 heartbeat IPC: 0.344145 cumulative IPC: 0.535767 (Simulation time: 0 hr 19 min 35 sec) 
Heartbeat CPU 0 instructions: 188000000 cycles: 350576447 heartbeat IPC: 0.343691 cumulative IPC: 0.534171 (Simulation time: 0 hr 19 min 42 sec) 
Heartbeat CPU 0 instructions: 189000003 cycles: 353475492 heartbeat IPC: 0.344942 cumulative IPC: 0.532617 (Simulation time: 0 hr 19 min 49 sec) 
Heartbeat CPU 0 instructions: 190000002 cycles: 356393871 heartbeat IPC: 0.342656 cumulative IPC: 0.531059 (Simulation time: 0 hr 19 min 56 sec) 
Heartbeat CPU 0 instructions: 191000003 cycles: 359279900 heartbeat IPC: 0.346497 cumulative IPC: 0.529574 (Simulation time: 0 hr 20 min 3 sec) 
Heartbeat CPU 0 instructions: 192000002 cycles: 362190886 heartbeat IPC: 0.343526 cumulative IPC: 0.528077 (Simulation time: 0 hr 20 min 10 sec) 
Heartbeat CPU 0 instructions: 193000001 cycles: 365093121 heartbeat IPC: 0.344562 cumulative IPC: 0.526616 (Simulation time: 0 hr 20 min 16 sec) 
Heartbeat CPU 0 instructions: 194000000 cycles: 367185206 heartbeat IPC: 0.477992 cumulative IPC: 0.526339 (Simulation time: 0 hr 20 min 22 sec) 
Heartbeat CPU 0 instructions: 195000001 cycles: 368866076 heartbeat IPC: 0.594931 cumulative IPC: 0.526652 (Simulation time: 0 hr 20 min 28 sec) 
Heartbeat CPU 0 instructions: 196000001 cycles: 370538520 heartbeat IPC: 0.597927 cumulative IPC: 0.526974 (Simulation time: 0 hr 20 min 34 sec) 
Heartbeat CPU 0 instructions: 197000003 cycles: 372249537 heartbeat IPC: 0.584449 cumulative IPC: 0.527238 (Simulation time: 0 hr 20 min 39 sec) 
Heartbeat CPU 0 instructions: 198000000 cycles: 373996104 heartbeat IPC: 0.57255 cumulative IPC: 0.52745 (Simulation time: 0 hr 20 min 45 sec) 
Heartbeat CPU 0 instructions: 199000003 cycles: 375720400 heartbeat IPC: 0.579949 cumulative IPC: 0.527692 (Simulation time: 0 hr 20 min 51 sec) 
Heartbeat CPU 0 instructions: 200000000 cycles: 377406940 heartbeat IPC: 0.592928 cumulative IPC: 0.527983 (Simulation time: 0 hr 20 min 58 sec) 
Heartbeat CPU 0 instructions: 201000000 cycles: 379076006 heartbeat IPC: 0.599137 cumulative IPC: 0.528297 (Simulation time: 0 hr 21 min 5 sec) 
Heartbeat CPU 0 instructions: 202000001 cycles: 380756725 heartbeat IPC: 0.594984 cumulative IPC: 0.528592 (Simulation time: 0 hr 21 min 11 sec) 
Heartbeat CPU 0 instructions: 203000000 cycles: 382443587 heartbeat IPC: 0.592816 cumulative IPC: 0.528876 (Simulation time: 0 hr 21 min 16 sec) 
Heartbeat CPU 0 instructions: 204000000 cycles: 384126465 heartbeat IPC: 0.59422 cumulative IPC: 0.529162 (Simulation time: 0 hr 21 min 23 sec) 
Heartbeat CPU 0 instructions: 205000000 cycles: 385803181 heartbeat IPC: 0.596404 cumulative IPC: 0.529455 (Simulation time: 0 hr 21 min 29 sec) 
Heartbeat CPU 0 instructions: 206000003 cycles: 387474489 heartbeat IPC: 0.598336 cumulative IPC: 0.529752 (Simulation time: 0 hr 21 min 35 sec) 
Heartbeat CPU 0 instructions: 207000002 cycles: 389155570 heartbeat IPC: 0.594855 cumulative IPC: 0.530034 (Simulation time: 0 hr 21 min 41 sec) 
Heartbeat CPU 0 instructions: 208000000 cycles: 390835451 heartbeat IPC: 0.595279 cumulative IPC: 0.530315 (Simulation time: 0 hr 21 min 46 sec) 
Heartbeat CPU 0 instructions: 209000000 cycles: 392516090 heartbeat IPC: 0.595012 cumulative IPC: 0.530592 (Simulation time: 0 hr 21 min 53 sec) 
Heartbeat CPU 0 instructions: 210000000 cycles: 394210103 heartbeat IPC: 0.590314 cumulative IPC: 0.530849 (Simulation time: 0 hr 21 min 59 sec) 
Heartbeat CPU 0 instructions: 211000003 cycles: 395892552 heartbeat IPC: 0.594373 cumulative IPC: 0.531119 (Simulation time: 0 hr 22 min 6 sec) 
Heartbeat CPU 0 instructions: 212000000 cycles: 397568030 heartbeat IPC: 0.596843 cumulative IPC: 0.531397 (Simulation time: 0 hr 22 min 12 sec) 
Heartbeat CPU 0 instructions: 213000000 cycles: 399258098 heartbeat IPC: 0.591692 cumulative IPC: 0.531652 (Simulation time: 0 hr 22 min 18 sec) 
Heartbeat CPU 0 instructions: 214000003 cycles: 400940779 heartbeat IPC: 0.594292 cumulative IPC: 0.531915 (Simulation time: 0 hr 22 min 25 sec) 
Heartbeat CPU 0 instructions: 215000000 cycles: 402619493 heartbeat IPC: 0.595692 cumulative IPC: 0.532182 (Simulation time: 0 hr 22 min 31 sec) 
Heartbeat CPU 0 instructions: 216000001 cycles: 404348345 heartbeat IPC: 0.578419 cumulative IPC: 0.53238 (Simulation time: 0 hr 22 min 36 sec) 
Heartbeat CPU 0 instructions: 217000001 cycles: 406216477 heartbeat IPC: 0.535294 cumulative IPC: 0.532393 (Simulation time: 0 hr 22 min 42 sec) 
Heartbeat CPU 0 instructions: 218000003 cycles: 408138499 heartbeat IPC: 0.520286 cumulative IPC: 0.532336 (Simulation time: 0 hr 22 min 48 sec) 
Heartbeat CPU 0 instructions: 219000000 cycles: 409817729 heartbeat IPC: 0.595509 cumulative IPC: 0.532595 (Simulation time: 0 hr 22 min 54 sec) 
Heartbeat CPU 0 instructions: 220000000 cycles: 411487812 heartbeat IPC: 0.598773 cumulative IPC: 0.532864 (Simulation time: 0 hr 22 min 59 sec) 
Heartbeat CPU 0 instructions: 221000001 cycles: 413184927 heartbeat IPC: 0.589236 cumulative IPC: 0.533096 (Simulation time: 0 hr 23 min 4 sec) 
Heartbeat CPU 0 instructions: 222000000 cycles: 414898034 heartbeat IPC: 0.583734 cumulative IPC: 0.533305 (Simulation time: 0 hr 23 min 10 sec) 
Heartbeat CPU 0 instructions: 223000000 cycles: 416603753 heartbeat IPC: 0.586263 cumulative IPC: 0.533522 (Simulation time: 0 hr 23 min 16 sec) 
Heartbeat CPU 0 instructions: 224000000 cycles: 418305417 heartbeat IPC: 0.58766 cumulative IPC: 0.533743 (Simulation time: 0 hr 23 min 22 sec) 
Heartbeat CPU 0 instructions: 225000000 cycles: 419979727 heartbeat IPC: 0.597261 cumulative IPC: 0.533996 (Simulation time: 0 hr 23 min 29 sec) 
Heartbeat CPU 0 instructions: 226000001 cycles: 421658080 heartbeat IPC: 0.595823 cumulative IPC: 0.534243 (Simulation time: 0 hr 23 min 34 sec) 
Heartbeat CPU 0 instructions: 227000003 cycles: 423342371 heartbeat IPC: 0.593723 cumulative IPC: 0.53448 (Simulation time: 0 hr 23 min 39 sec) 
Heartbeat CPU 0 instructions: 228000001 cycles: 425037647 heartbeat IPC: 0.589873 cumulative IPC: 0.534701 (Simulation time: 0 hr 23 min 44 sec) 
Heartbeat CPU 0 instructions: 229000000 cycles: 426708126 heartbeat IPC: 0.59863 cumulative IPC: 0.534951 (Simulation time: 0 hr 23 min 50 sec) 
Heartbeat CPU 0 instructions: 230000002 cycles: 428379338 heartbeat IPC: 0.598369 cumulative IPC: 0.535199 (Simulation time: 0 hr 23 min 55 sec) 
Heartbeat CPU 0 instructions: 231000000 cycles: 430055099 heartbeat IPC: 0.596743 cumulative IPC: 0.535439 (Simulation time: 0 hr 24 min 0 sec) 
Heartbeat CPU 0 instructions: 232000002 cycles: 431734312 heartbeat IPC: 0.595518 cumulative IPC: 0.535673 (Simulation time: 0 hr 24 min 5 sec) 
Heartbeat CPU 0 instructions: 233000000 cycles: 433417737 heartbeat IPC: 0.594026 cumulative IPC: 0.5359 (Simulation time: 0 hr 24 min 10 sec) 
Heartbeat CPU 0 instructions: 234000003 cycles: 435110827 heartbeat IPC: 0.590638 cumulative IPC: 0.536113 (Simulation time: 0 hr 24 min 15 sec) 
Heartbeat CPU 0 instructions: 235000002 cycles: 436801231 heartbeat IPC: 0.591574 cumulative IPC: 0.536328 (Simulation time: 0 hr 24 min 20 sec) 
Heartbeat CPU 0 instructions: 236000003 cycles: 438478298 heartbeat IPC: 0.59628 cumulative IPC: 0.536558 (Simulation time: 0 hr 24 min 25 sec) 
Heartbeat CPU 0 instructions: 237000001 cycles: 440172688 heartbeat IPC: 0.590182 cumulative IPC: 0.536764 (Simulation time: 0 hr 24 min 30 sec) 
Heartbeat CPU 0 instructions: 238000002 cycles: 441854872 heartbeat IPC: 0.594466 cumulative IPC: 0.536984 (Simulation time: 0 hr 24 min 35 sec) 
Heartbeat CPU 0 instructions: 239000003 cycles: 443536334 heartbeat IPC: 0.594721 cumulative IPC: 0.537203 (Simulation time: 0 hr 24 min 40 sec) 
Heartbeat CPU 0 instructions: 240000001 cycles: 445266055 heartbeat IPC: 0.578127 cumulative IPC: 0.537363 (Simulation time: 0 hr 24 min 45 sec) 
Heartbeat CPU 0 instructions: 241000000 cycles: 447128832 heartbeat IPC: 0.536832 cumulative IPC: 0.53736 (Simulation time: 0 hr 24 min 50 sec) 
Heartbeat CPU 0 instructions: 242000000 cycles: 449263094 heartbeat IPC: 0.468546 cumulative IPC: 0.537033 (Simulation time: 0 hr 24 min 55 sec) 
Heartbeat CPU 0 instructions: 243000000 cycles: 451061552 heartbeat IPC: 0.556032 cumulative IPC: 0.537109 (Simulation time: 0 hr 24 min 59 sec) 
Heartbeat CPU 0 instructions: 244000000 cycles: 452719654 heartbeat IPC: 0.603099 cumulative IPC: 0.537351 (Simulation time: 0 hr 25 min 5 sec) 
Heartbeat CPU 0 instructions: 245000001 cycles: 454385125 heartbeat IPC: 0.600431 cumulative IPC: 0.537582 (Simulation time: 0 hr 25 min 10 sec) 
Heartbeat CPU 0 instructions: 246000000 cycles: 456111605 heartbeat IPC: 0.579213 cumulative IPC: 0.53774 (Simulation time: 0 hr 25 min 15 sec) 
Heartbeat CPU 0 instructions: 247000003 cycles: 457839399 heartbeat IPC: 0.578774 cumulative IPC: 0.537895 (Simulation time: 0 hr 25 min 20 sec) 
Heartbeat CPU 0 instructions: 248000002 cycles: 459543698 heartbeat IPC: 0.586751 cumulative IPC: 0.538077 (Simulation time: 0 hr 25 min 25 sec) 
Heartbeat CPU 0 instructions: 249000001 cycles: 461225072 heartbeat IPC: 0.594751 cumulative IPC: 0.538283 (Simulation time: 0 hr 25 min 30 sec) 
Heartbeat CPU 0 instructions: 250000003 cycles: 462899340 heartbeat IPC: 0.597277 cumulative IPC: 0.538497 (Simulation time: 0 hr 25 min 35 sec) 
Heartbeat CPU 0 instructions: 251000000 cycles: 464576674 heartbeat IPC: 0.596182 cumulative IPC: 0.538705 (Simulation time: 0 hr 25 min 40 sec) 
Heartbeat CPU 0 instructions: 252000001 cycles: 466264144 heartbeat IPC: 0.592604 cumulative IPC: 0.538901 (Simulation time: 0 hr 25 min 45 sec) 
Heartbeat CPU 0 instructions: 253000000 cycles: 467950459 heartbeat IPC: 0.593008 cumulative IPC: 0.539096 (Simulation time: 0 hr 25 min 50 sec) 
Heartbeat CPU 0 instructions: 254000000 cycles: 469621694 heartbeat IPC: 0.59836 cumulative IPC: 0.539307 (Simulation time: 0 hr 25 min 55 sec) 
Heartbeat CPU 0 instructions: 255000000 cycles: 471284786 heartbeat IPC: 0.60129 cumulative IPC: 0.539526 (Simulation time: 0 hr 26 min 1 sec) 
Heartbeat CPU 0 instructions: 256000000 cycles: 472960593 heartbeat IPC: 0.596727 cumulative IPC: 0.539729 (Simulation time: 0 hr 26 min 6 sec) 
Heartbeat CPU 0 instructions: 257000002 cycles: 474651314 heartbeat IPC: 0.591465 cumulative IPC: 0.539913 (Simulation time: 0 hr 26 min 11 sec) 
Heartbeat CPU 0 instructions: 258000000 cycles: 476336165 heartbeat IPC: 0.593523 cumulative IPC: 0.540103 (Simulation time: 0 hr 26 min 16 sec) 
Heartbeat CPU 0 instructions: 259000001 cycles: 478023630 heartbeat IPC: 0.592605 cumulative IPC: 0.540289 (Simulation time: 0 hr 26 min 22 sec) 
Heartbeat CPU 0 instructions: 260000000 cycles: 479707439 heartbeat IPC: 0.593891 cumulative IPC: 0.540477 (Simulation time: 0 hr 26 min 27 sec) 
Heartbeat CPU 0 instructions: 261000002 cycles: 481389300 heartbeat IPC: 0.594581 cumulative IPC: 0.540666 (Simulation time: 0 hr 26 min 33 sec) 
Heartbeat CPU 0 instructions: 262000001 cycles: 483079649 heartbeat IPC: 0.591593 cumulative IPC: 0.540845 (Simulation time: 0 hr 26 min 38 sec) 
Heartbeat CPU 0 instructions: 263000000 cycles: 484760575 heartbeat IPC: 0.59491 cumulative IPC: 0.541032 (Simulation time: 0 hr 26 min 43 sec) 
Heartbeat CPU 0 instructions: 264000000 cycles: 486430036 heartbeat IPC: 0.598996 cumulative IPC: 0.541232 (Simulation time: 0 hr 26 min 48 sec) 
Heartbeat CPU 0 instructions: 265000003 cycles: 488249717 heartbeat IPC: 0.549549 cumulative IPC: 0.541263 (Simulation time: 0 hr 26 min 53 sec) 
Heartbeat CPU 0 instructions: 266000000 cycles: 490048741 heartbeat IPC: 0.555855 cumulative IPC: 0.541316 (Simulation time: 0 hr 26 min 58 sec) 
Heartbeat CPU 0 instructions: 267000001 cycles: 491864799 heartbeat IPC: 0.550644 cumulative IPC: 0.541351 (Simulation time: 0 hr 27 min 4 sec) 
Heartbeat CPU 0 instructions: 268000001 cycles: 493605967 heartbeat IPC: 0.574327 cumulative IPC: 0.541467 (Simulation time: 0 hr 27 min 8 sec) 
Heartbeat CPU 0 instructions: 269000003 cycles: 495288351 heartbeat IPC: 0.594396 cumulative IPC: 0.541647 (Simulation time: 0 hr 27 min 14 sec) 
Heartbeat CPU 0 instructions: 270000000 cycles: 497048386 heartbeat IPC: 0.568169 cumulative IPC: 0.541741 (Simulation time: 0 hr 27 min 19 sec) 
Heartbeat CPU 0 instructions: 271000000 cycles: 498871912 heartbeat IPC: 0.548388 cumulative IPC: 0.541765 (Simulation time: 0 hr 27 min 24 sec) 
Heartbeat CPU 0 instructions: 272000000 cycles: 500654558 heartbeat IPC: 0.560964 cumulative IPC: 0.541834 (Simulation time: 0 hr 27 min 30 sec) 
Heartbeat CPU 0 instructions: 273000003 cycles: 502357081 heartbeat IPC: 0.587365 cumulative IPC: 0.541988 (Simulation time: 0 hr 27 min 36 sec) 
Heartbeat CPU 0 instructions: 274000000 cycles: 504041631 heartbeat IPC: 0.593629 cumulative IPC: 0.542161 (Simulation time: 0 hr 27 min 41 sec) 
Heartbeat CPU 0 instructions: 275000000 cycles: 505716906 heartbeat IPC: 0.596917 cumulative IPC: 0.542343 (Simulation time: 0 hr 27 min 47 sec) 
Heartbeat CPU 0 instructions: 276000001 cycles: 507398910 heartbeat IPC: 0.59453 cumulative IPC: 0.542516 (Simulation time: 0 hr 27 min 53 sec) 
Heartbeat CPU 0 instructions: 277000003 cycles: 509088514 heartbeat IPC: 0.591856 cumulative IPC: 0.54268 (Simulation time: 0 hr 27 min 58 sec) 
Heartbeat CPU 0 instructions: 278000000 cycles: 510774725 heartbeat IPC: 0.593044 cumulative IPC: 0.542846 (Simulation time: 0 hr 28 min 4 sec) 
Heartbeat CPU 0 instructions: 279000000 cycles: 512448056 heartbeat IPC: 0.59761 cumulative IPC: 0.543025 (Simulation time: 0 hr 28 min 10 sec) 
Heartbeat CPU 0 instructions: 280000001 cycles: 514121294 heartbeat IPC: 0.597644 cumulative IPC: 0.543203 (Simulation time: 0 hr 28 min 16 sec) 
Heartbeat CPU 0 instructions: 281000001 cycles: 515798021 heartbeat IPC: 0.5964 cumulative IPC: 0.543376 (Simulation time: 0 hr 28 min 22 sec) 
Heartbeat CPU 0 instructions: 282000001 cycles: 517486074 heartbeat IPC: 0.592398 cumulative IPC: 0.543536 (Simulation time: 0 hr 28 min 29 sec) 
Heartbeat CPU 0 instructions: 283000000 cycles: 519176825 heartbeat IPC: 0.591453 cumulative IPC: 0.543692 (Simulation time: 0 hr 28 min 34 sec) 
Heartbeat CPU 0 instructions: 284000003 cycles: 520865186 heartbeat IPC: 0.592292 cumulative IPC: 0.54385 (Simulation time: 0 hr 28 min 41 sec) 
Heartbeat CPU 0 instructions: 285000001 cycles: 522554620 heartbeat IPC: 0.591913 cumulative IPC: 0.544006 (Simulation time: 0 hr 28 min 48 sec) 
Heartbeat CPU 0 instructions: 286000000 cycles: 524231524 heartbeat IPC: 0.596336 cumulative IPC: 0.544173 (Simulation time: 0 hr 28 min 54 sec) 
Heartbeat CPU 0 instructions: 287000002 cycles: 525925456 heartbeat IPC: 0.590344 cumulative IPC: 0.544322 (Simulation time: 0 hr 29 min 1 sec) 
Heartbeat CPU 0 instructions: 288000001 cycles: 527616022 heartbeat IPC: 0.591517 cumulative IPC: 0.544473 (Simulation time: 0 hr 29 min 7 sec) 
Heartbeat CPU 0 instructions: 289000003 cycles: 529285850 heartbeat IPC: 0.598865 cumulative IPC: 0.544645 (Simulation time: 0 hr 29 min 13 sec) 
Heartbeat CPU 0 instructions: 290000002 cycles: 530992617 heartbeat IPC: 0.585902 cumulative IPC: 0.544778 (Simulation time: 0 hr 29 min 20 sec) 
Heartbeat CPU 0 instructions: 291000003 cycles: 532720239 heartbeat IPC: 0.578831 cumulative IPC: 0.544888 (Simulation time: 0 hr 29 min 27 sec) 
Heartbeat CPU 0 instructions: 292000000 cycles: 534415195 heartbeat IPC: 0.589984 cumulative IPC: 0.545032 (Simulation time: 0 hr 29 min 34 sec) 
Heartbeat CPU 0 instructions: 293000000 cycles: 536110320 heartbeat IPC: 0.589927 cumulative IPC: 0.545174 (Simulation time: 0 hr 29 min 41 sec) 
Heartbeat CPU 0 instructions: 294000000 cycles: 537789213 heartbeat IPC: 0.595631 cumulative IPC: 0.545331 (Simulation time: 0 hr 29 min 46 sec) 
Heartbeat CPU 0 instructions: 295000001 cycles: 539522348 heartbeat IPC: 0.57699 cumulative IPC: 0.545433 (Simulation time: 0 hr 29 min 51 sec) 
Heartbeat CPU 0 instructions: 296000000 cycles: 541261150 heartbeat IPC: 0.575108 cumulative IPC: 0.545529 (Simulation time: 0 hr 29 min 57 sec) 
Heartbeat CPU 0 instructions: 297000000 cycles: 543131090 heartbeat IPC: 0.534777 cumulative IPC: 0.545492 (Simulation time: 0 hr 30 min 2 sec) 
Heartbeat CPU 0 instructions: 298000000 cycles: 544818590 heartbeat IPC: 0.592593 cumulative IPC: 0.545638 (Simulation time: 0 hr 30 min 7 sec) 
Heartbeat CPU 0 instructions: 299000001 cycles: 546495855 heartbeat IPC: 0.596209 cumulative IPC: 0.545793 (Simulation time: 0 hr 30 min 12 sec) 
Heartbeat CPU 0 instructions: 300000003 cycles: 548182165 heartbeat IPC: 0.593012 cumulative IPC: 0.545938 (Simulation time: 0 hr 30 min 17 sec) 
Heartbeat CPU 0 instructions: 301000001 cycles: 549886825 heartbeat IPC: 0.586626 cumulative IPC: 0.546064 (Simulation time: 0 hr 30 min 22 sec) 
Heartbeat CPU 0 instructions: 302000000 cycles: 551588628 heartbeat IPC: 0.587611 cumulative IPC: 0.546193 (Simulation time: 0 hr 30 min 27 sec) 
Heartbeat CPU 0 instructions: 303000002 cycles: 553273631 heartbeat IPC: 0.593472 cumulative IPC: 0.546337 (Simulation time: 0 hr 30 min 32 sec) 
Heartbeat CPU 0 instructions: 304000003 cycles: 554943973 heartbeat IPC: 0.59868 cumulative IPC: 0.546495 (Simulation time: 0 hr 30 min 38 sec) 
Heartbeat CPU 0 instructions: 305000000 cycles: 556623407 heartbeat IPC: 0.595437 cumulative IPC: 0.546642 (Simulation time: 0 hr 30 min 43 sec) 
Heartbeat CPU 0 instructions: 306000000 cycles: 558311469 heartbeat IPC: 0.592395 cumulative IPC: 0.546781 (Simulation time: 0 hr 30 min 48 sec) 
Heartbeat CPU 0 instructions: 307000002 cycles: 559996203 heartbeat IPC: 0.593567 cumulative IPC: 0.546922 (Simulation time: 0 hr 30 min 53 sec) 
Heartbeat CPU 0 instructions: 308000000 cycles: 561664058 heartbeat IPC: 0.599571 cumulative IPC: 0.547078 (Simulation time: 0 hr 30 min 59 sec) 
Heartbeat CPU 0 instructions: 309000001 cycles: 563332603 heartbeat IPC: 0.599325 cumulative IPC: 0.547233 (Simulation time: 0 hr 31 min 4 sec) 
Heartbeat CPU 0 instructions: 310000000 cycles: 565013762 heartbeat IPC: 0.594827 cumulative IPC: 0.547375 (Simulation time: 0 hr 31 min 9 sec) 
Heartbeat CPU 0 instructions: 311000001 cycles: 566693922 heartbeat IPC: 0.595182 cumulative IPC: 0.547517 (Simulation time: 0 hr 31 min 14 sec) 
Heartbeat CPU 0 instructions: 312000000 cycles: 568372754 heartbeat IPC: 0.595652 cumulative IPC: 0.547659 (Simulation time: 0 hr 31 min 19 sec) 
Heartbeat CPU 0 instructions: 313000000 cycles: 570071564 heartbeat IPC: 0.588647 cumulative IPC: 0.547781 (Simulation time: 0 hr 31 min 24 sec) 
Heartbeat CPU 0 instructions: 314000003 cycles: 571754602 heartbeat IPC: 0.594165 cumulative IPC: 0.547918 (Simulation time: 0 hr 31 min 29 sec) 
Heartbeat CPU 0 instructions: 315000001 cycles: 573427939 heartbeat IPC: 0.597607 cumulative IPC: 0.548063 (Simulation time: 0 hr 31 min 34 sec) 
Heartbeat CPU 0 instructions: 316000001 cycles: 575125570 heartbeat IPC: 0.589056 cumulative IPC: 0.548184 (Simulation time: 0 hr 31 min 40 sec) 
Heartbeat CPU 0 instructions: 317000000 cycles: 576810950 heartbeat IPC: 0.593337 cumulative IPC: 0.548316 (Simulation time: 0 hr 31 min 45 sec) 
Heartbeat CPU 0 instructions: 318000000 cycles: 578482703 heartbeat IPC: 0.598175 cumulative IPC: 0.54846 (Simulation time: 0 hr 31 min 50 sec) 
Heartbeat CPU 0 instructions: 319000000 cycles: 580198529 heartbeat IPC: 0.58281 cumulative IPC: 0.548562 (Simulation time: 0 hr 31 min 55 sec) 
Heartbeat CPU 0 instructions: 320000003 cycles: 581945948 heartbeat IPC: 0.572274 cumulative IPC: 0.548633 (Simulation time: 0 hr 32 min 1 sec) 
Heartbeat CPU 0 instructions: 321000000 cycles: 583668855 heartbeat IPC: 0.580413 cumulative IPC: 0.548727 (Simulation time: 0 hr 32 min 6 sec) 
Heartbeat CPU 0 instructions: 322000002 cycles: 585381862 heartbeat IPC: 0.58377 cumulative IPC: 0.54883 (Simulation time: 0 hr 32 min 11 sec) 
Heartbeat CPU 0 instructions: 323000000 cycles: 587132948 heartbeat IPC: 0.571073 cumulative IPC: 0.548896 (Simulation time: 0 hr 32 min 16 sec) 
Heartbeat CPU 0 instructions: 324000001 cycles: 588812624 heartbeat IPC: 0.595353 cumulative IPC: 0.549029 (Simulation time: 0 hr 32 min 22 sec) 
Heartbeat CPU 0 instructions: 325000001 cycles: 590480680 heartbeat IPC: 0.5995 cumulative IPC: 0.549172 (Simulation time: 0 hr 32 min 27 sec) 
Heartbeat CPU 0 instructions: 326000000 cycles: 592149945 heartbeat IPC: 0.599065 cumulative IPC: 0.549312 (Simulation time: 0 hr 32 min 33 sec) 
Heartbeat CPU 0 instructions: 327000000 cycles: 594038583 heartbeat IPC: 0.529482 cumulative IPC: 0.549249 (Simulation time: 0 hr 32 min 38 sec) 
Heartbeat CPU 0 instructions: 328000003 cycles: 595719250 heartbeat IPC: 0.595004 cumulative IPC: 0.549379 (Simulation time: 0 hr 32 min 43 sec) 
Heartbeat CPU 0 instructions: 329000003 cycles: 597390294 heartbeat IPC: 0.598428 cumulative IPC: 0.549516 (Simulation time: 0 hr 32 min 48 sec) 
Heartbeat CPU 0 instructions: 330000000 cycles: 599074834 heartbeat IPC: 0.593632 cumulative IPC: 0.54964 (Simulation time: 0 hr 32 min 53 sec) 
Heartbeat CPU 0 instructions: 331000000 cycles: 600777891 heartbeat IPC: 0.587179 cumulative IPC: 0.549746 (Simulation time: 0 hr 32 min 58 sec) 
Heartbeat CPU 0 instructions: 332000000 cycles: 602474581 heartbeat IPC: 0.589383 cumulative IPC: 0.549858 (Simulation time: 0 hr 33 min 3 sec) 
Heartbeat CPU 0 instructions: 333000000 cycles: 604172043 heartbeat IPC: 0.589115 cumulative IPC: 0.549969 (Simulation time: 0 hr 33 min 8 sec) 
Heartbeat CPU 0 instructions: 334000001 cycles: 605843678 heartbeat IPC: 0.598217 cumulative IPC: 0.550102 (Simulation time: 0 hr 33 min 14 sec) 
Heartbeat CPU 0 instructions: 335000002 cycles: 607527311 heartbeat IPC: 0.593954 cumulative IPC: 0.550223 (Simulation time: 0 hr 33 min 19 sec) 
Heartbeat CPU 0 instructions: 336000001 cycles: 609217957 heartbeat IPC: 0.591489 cumulative IPC: 0.550338 (Simulation time: 0 hr 33 min 24 sec) 
Heartbeat CPU 0 instructions: 337000000 cycles: 610906258 heartbeat IPC: 0.592311 cumulative IPC: 0.550454 (Simulation time: 0 hr 33 min 29 sec) 
Heartbeat CPU 0 instructions: 338000001 cycles: 612575961 heartbeat IPC: 0.598909 cumulative IPC: 0.550586 (Simulation time: 0 hr 33 min 35 sec) 
Heartbeat CPU 0 instructions: 339000002 cycles: 614245494 heartbeat IPC: 0.59897 cumulative IPC: 0.550718 (Simulation time: 0 hr 33 min 40 sec) 
Heartbeat CPU 0 instructions: 340000002 cycles: 615925929 heartbeat IPC: 0.595084 cumulative IPC: 0.550839 (Simulation time: 0 hr 33 min 45 sec) 
Heartbeat CPU 0 instructions: 341000000 cycles: 617617024 heartbeat IPC: 0.591332 cumulative IPC: 0.55095 (Simulation time: 0 hr 33 min 51 sec) 
Heartbeat CPU 0 instructions: 342000000 cycles: 619310016 heartbeat IPC: 0.59067 cumulative IPC: 0.551059 (Simulation time: 0 hr 33 min 56 sec) 
Heartbeat CPU 0 instructions: 343000000 cycles: 620994773 heartbeat IPC: 0.593557 cumulative IPC: 0.551174 (Simulation time: 0 hr 34 min 1 sec) 
Heartbeat CPU 0 instructions: 344000003 cycles: 622685808 heartbeat IPC: 0.591356 cumulative IPC: 0.551283 (Simulation time: 0 hr 34 min 6 sec) 
Heartbeat CPU 0 instructions: 345000003 cycles: 624362963 heartbeat IPC: 0.596248 cumulative IPC: 0.551404 (Simulation time: 0 hr 34 min 12 sec) 
Heartbeat CPU 0 instructions: 346000000 cycles: 626061302 heartbeat IPC: 0.588809 cumulative IPC: 0.551506 (Simulation time: 0 hr 34 min 17 sec) 
Heartbeat CPU 0 instructions: 347000000 cycles: 627747795 heartbeat IPC: 0.592946 cumulative IPC: 0.551617 (Simulation time: 0 hr 34 min 22 sec) 
Heartbeat CPU 0 instructions: 348000001 cycles: 629419236 heartbeat IPC: 0.598287 cumulative IPC: 0.551741 (Simulation time: 0 hr 34 min 28 sec) 
Heartbeat CPU 0 instructions: 349000000 cycles: 631150508 heartbeat IPC: 0.577609 cumulative IPC: 0.551812 (Simulation time: 0 hr 34 min 33 sec) 
Heartbeat CPU 0 instructions: 350000000 cycles: 632894862 heartbeat IPC: 0.573278 cumulative IPC: 0.551871 (Simulation time: 0 hr 34 min 38 sec) 
Heartbeat CPU 0 instructions: 351000000 cycles: 634605820 heartbeat IPC: 0.584468 cumulative IPC: 0.551959 (Simulation time: 0 hr 34 min 43 sec) 
Heartbeat CPU 0 instructions: 352000000 cycles: 636337876 heartbeat IPC: 0.577349 cumulative IPC: 0.552029 (Simulation time: 0 hr 34 min 48 sec) 
Heartbeat CPU 0 instructions: 353000001 cycles: 638072982 heartbeat IPC: 0.576334 cumulative IPC: 0.552095 (Simulation time: 0 hr 34 min 54 sec) 
Heartbeat CPU 0 instructions: 354000000 cycles: 639743170 heartbeat IPC: 0.598734 cumulative IPC: 0.552217 (Simulation time: 0 hr 34 min 59 sec) 
Heartbeat CPU 0 instructions: 355000001 cycles: 641412665 heartbeat IPC: 0.598984 cumulative IPC: 0.552338 (Simulation time: 0 hr 35 min 4 sec) 
Heartbeat CPU 0 instructions: 356000003 cycles: 643131762 heartbeat IPC: 0.581702 cumulative IPC: 0.552417 (Simulation time: 0 hr 35 min 9 sec) 
Heartbeat CPU 0 instructions: 357000002 cycles: 645005782 heartbeat IPC: 0.533612 cumulative IPC: 0.552362 (Simulation time: 0 hr 35 min 15 sec) 
Heartbeat CPU 0 instructions: 358000000 cycles: 646681913 heartbeat IPC: 0.596611 cumulative IPC: 0.552477 (Simulation time: 0 hr 35 min 20 sec) 
Heartbeat CPU 0 instructions: 359000000 cycles: 648352187 heartbeat IPC: 0.598704 cumulative IPC: 0.552596 (Simulation time: 0 hr 35 min 25 sec) 
Heartbeat CPU 0 instructions: 360000000 cycles: 650083593 heartbeat IPC: 0.577565 cumulative IPC: 0.552663 (Simulation time: 0 hr 35 min 30 sec) 
Heartbeat CPU 0 instructions: 361000001 cycles: 651813297 heartbeat IPC: 0.578134 cumulative IPC: 0.55273 (Simulation time: 0 hr 35 min 35 sec) 
Heartbeat CPU 0 instructions: 362000001 cycles: 653541883 heartbeat IPC: 0.578508 cumulative IPC: 0.552799 (Simulation time: 0 hr 35 min 40 sec) 
Heartbeat CPU 0 instructions: 363000000 cycles: 655236696 heartbeat IPC: 0.590035 cumulative IPC: 0.552895 (Simulation time: 0 hr 35 min 45 sec) 
Heartbeat CPU 0 instructions: 364000000 cycles: 656915039 heartbeat IPC: 0.595826 cumulative IPC: 0.553005 (Simulation time: 0 hr 35 min 50 sec) 
Heartbeat CPU 0 instructions: 365000003 cycles: 658596626 heartbeat IPC: 0.594678 cumulative IPC: 0.553111 (Simulation time: 0 hr 35 min 55 sec) 
Heartbeat CPU 0 instructions: 366000000 cycles: 660288061 heartbeat IPC: 0.591212 cumulative IPC: 0.553209 (Simulation time: 0 hr 36 min 1 sec) 
Heartbeat CPU 0 instructions: 367000003 cycles: 661976113 heartbeat IPC: 0.592401 cumulative IPC: 0.553309 (Simulation time: 0 hr 36 min 6 sec) 
Heartbeat CPU 0 instructions: 368000002 cycles: 663648681 heartbeat IPC: 0.597882 cumulative IPC: 0.553421 (Simulation time: 0 hr 36 min 11 sec) 
Heartbeat CPU 0 instructions: 369000002 cycles: 665320407 heartbeat IPC: 0.598184 cumulative IPC: 0.553534 (Simulation time: 0 hr 36 min 16 sec) 
Heartbeat CPU 0 instructions: 370000000 cycles: 667002460 heartbeat IPC: 0.59451 cumulative IPC: 0.553637 (Simulation time: 0 hr 36 min 22 sec) 
Heartbeat CPU 0 instructions: 371000000 cycles: 668695262 heartbeat IPC: 0.590737 cumulative IPC: 0.553731 (Simulation time: 0 hr 36 min 27 sec) 
Heartbeat CPU 0 instructions: 372000001 cycles: 670379232 heartbeat IPC: 0.593835 cumulative IPC: 0.553832 (Simulation time: 0 hr 36 min 32 sec) 
Heartbeat CPU 0 instructions: 373000000 cycles: 672066647 heartbeat IPC: 0.592622 cumulative IPC: 0.55393 (Simulation time: 0 hr 36 min 37 sec) 
Heartbeat CPU 0 instructions: 374000000 cycles: 673755184 heartbeat IPC: 0.592229 cumulative IPC: 0.554026 (Simulation time: 0 hr 36 min 43 sec) 
Heartbeat CPU 0 instructions: 375000001 cycles: 675434993 heartbeat IPC: 0.595306 cumulative IPC: 0.554128 (Simulation time: 0 hr 36 min 48 sec) 
Heartbeat CPU 0 instructions: 376000002 cycles: 677127777 heartbeat IPC: 0.590743 cumulative IPC: 0.55422 (Simulation time: 0 hr 36 min 53 sec) 
Heartbeat CPU 0 instructions: 377000002 cycles: 678815547 heartbeat IPC: 0.592498 cumulative IPC: 0.554315 (Simulation time: 0 hr 36 min 58 sec) 
Heartbeat CPU 0 instructions: 378000002 cycles: 680488162 heartbeat IPC: 0.597866 cumulative IPC: 0.554422 (Simulation time: 0 hr 37 min 3 sec) 
Heartbeat CPU 0 instructions: 379000000 cycles: 682226661 heartbeat IPC: 0.575208 cumulative IPC: 0.554475 (Simulation time: 0 hr 37 min 9 sec) 
Heartbeat CPU 0 instructions: 380000003 cycles: 683997513 heartbeat IPC: 0.564702 cumulative IPC: 0.554502 (Simulation time: 0 hr 37 min 14 sec) 
Heartbeat CPU 0 instructions: 381000001 cycles: 685740055 heartbeat IPC: 0.573873 cumulative IPC: 0.554551 (Simulation time: 0 hr 37 min 19 sec) 
Heartbeat CPU 0 instructions: 382000001 cycles: 687486984 heartbeat IPC: 0.572433 cumulative IPC: 0.554597 (Simulation time: 0 hr 37 min 24 sec) 
Heartbeat CPU 0 instructions: 383000000 cycles: 689187248 heartbeat IPC: 0.588143 cumulative IPC: 0.554679 (Simulation time: 0 hr 37 min 29 sec) 
Heartbeat CPU 0 instructions: 384000001 cycles: 690894764 heartbeat IPC: 0.585647 cumulative IPC: 0.554756 (Simulation time: 0 hr 37 min 34 sec) 
Heartbeat CPU 0 instructions: 385000000 cycles: 692773874 heartbeat IPC: 0.532166 cumulative IPC: 0.554695 (Simulation time: 0 hr 37 min 39 sec) 
Heartbeat CPU 0 instructions: 386000000 cycles: 694504458 heartbeat IPC: 0.57784 cumulative IPC: 0.554752 (Simulation time: 0 hr 37 min 44 sec) 
Heartbeat CPU 0 instructions: 387000000 cycles: 696136539 heartbeat IPC: 0.612715 cumulative IPC: 0.554888 (Simulation time: 0 hr 37 min 49 sec) 
Heartbeat CPU 0 instructions: 388000002 cycles: 697830784 heartbeat IPC: 0.590235 cumulative IPC: 0.554974 (Simulation time: 0 hr 37 min 55 sec) 
Heartbeat CPU 0 instructions: 389000002 cycles: 699612115 heartbeat IPC: 0.561378 cumulative IPC: 0.554991 (Simulation time: 0 hr 38 min 0 sec) 
Heartbeat CPU 0 instructions: 390000000 cycles: 701448166 heartbeat IPC: 0.544646 cumulative IPC: 0.554964 (Simulation time: 0 hr 38 min 5 sec) 
Heartbeat CPU 0 instructions: 391000001 cycles: 703227750 heartbeat IPC: 0.56193 cumulative IPC: 0.554981 (Simulation time: 0 hr 38 min 10 sec) 
Heartbeat CPU 0 instructions: 392000000 cycles: 704932386 heartbeat IPC: 0.586635 cumulative IPC: 0.555058 (Simulation time: 0 hr 38 min 16 sec) 
Heartbeat CPU 0 instructions: 393000001 cycles: 706608519 heartbeat IPC: 0.596612 cumulative IPC: 0.555156 (Simulation time: 0 hr 38 min 21 sec) 
Heartbeat CPU 0 instructions: 394000002 cycles: 708279361 heartbeat IPC: 0.598501 cumulative IPC: 0.555259 (Simulation time: 0 hr 38 min 26 sec) 
Heartbeat CPU 0 instructions: 395000002 cycles: 709958601 heartbeat IPC: 0.595508 cumulative IPC: 0.555354 (Simulation time: 0 hr 38 min 32 sec) 
Heartbeat CPU 0 instructions: 396000000 cycles: 711648516 heartbeat IPC: 0.591745 cumulative IPC: 0.55544 (Simulation time: 0 hr 38 min 37 sec) 
Heartbeat CPU 0 instructions: 397000000 cycles: 713328323 heartbeat IPC: 0.595306 cumulative IPC: 0.555534 (Simulation time: 0 hr 38 min 43 sec) 
Heartbeat CPU 0 instructions: 398000003 cycles: 714992666 heartbeat IPC: 0.600839 cumulative IPC: 0.55564 (Simulation time: 0 hr 38 min 48 sec) 
Heartbeat CPU 0 instructions: 399000002 cycles: 716664553 heartbeat IPC: 0.598126 cumulative IPC: 0.555739 (Simulation time: 0 hr 38 min 53 sec) 
Heartbeat CPU 0 instructions: 400000002 cycles: 718344832 heartbeat IPC: 0.595139 cumulative IPC: 0.555831 (Simulation time: 0 hr 38 min 59 sec) 
Heartbeat CPU 0 instructions: 401000001 cycles: 720029628 heartbeat IPC: 0.593543 cumulative IPC: 0.55592 (Simulation time: 0 hr 39 min 5 sec) 
Heartbeat CPU 0 instructions: 402000002 cycles: 721716767 heartbeat IPC: 0.59272 cumulative IPC: 0.556006 (Simulation time: 0 hr 39 min 11 sec) 
Heartbeat CPU 0 instructions: 403000001 cycles: 723396719 heartbeat IPC: 0.595254 cumulative IPC: 0.556097 (Simulation time: 0 hr 39 min 17 sec) 
Heartbeat CPU 0 instructions: 404000000 cycles: 725077835 heartbeat IPC: 0.594842 cumulative IPC: 0.556187 (Simulation time: 0 hr 39 min 23 sec) 
Heartbeat CPU 0 instructions: 405000000 cycles: 726757532 heartbeat IPC: 0.595345 cumulative IPC: 0.556277 (Simulation time: 0 hr 39 min 30 sec) 
Heartbeat CPU 0 instructions: 406000001 cycles: 728446297 heartbeat IPC: 0.592149 cumulative IPC: 0.556361 (Simulation time: 0 hr 39 min 36 sec) 
Heartbeat CPU 0 instructions: 407000000 cycles: 730128156 heartbeat IPC: 0.59458 cumulative IPC: 0.556449 (Simulation time: 0 hr 39 min 42 sec) 
Heartbeat CPU 0 instructions: 408000000 cycles: 731797358 heartbeat IPC: 0.599089 cumulative IPC: 0.556546 (Simulation time: 0 hr 39 min 48 sec) 
Heartbeat CPU 0 instructions: 409000001 cycles: 733500966 heartbeat IPC: 0.58699 cumulative IPC: 0.556617 (Simulation time: 0 hr 39 min 55 sec) 
Heartbeat CPU 0 instructions: 410000002 cycles: 735220059 heartbeat IPC: 0.581703 cumulative IPC: 0.556675 (Simulation time: 0 hr 40 min 1 sec) 
Heartbeat CPU 0 instructions: 411000000 cycles: 736914328 heartbeat IPC: 0.590224 cumulative IPC: 0.556753 (Simulation time: 0 hr 40 min 7 sec) 
Heartbeat CPU 0 instructions: 412000000 cycles: 738602145 heartbeat IPC: 0.592481 cumulative IPC: 0.556834 (Simulation time: 0 hr 40 min 14 sec) 
Heartbeat CPU 0 instructions: 413000000 cycles: 740277068 heartbeat IPC: 0.597042 cumulative IPC: 0.556925 (Simulation time: 0 hr 40 min 20 sec) 
Heartbeat CPU 0 instructions: 414000000 cycles: 742006373 heartbeat IPC: 0.578267 cumulative IPC: 0.556975 (Simulation time: 0 hr 40 min 26 sec) 
Heartbeat CPU 0 instructions: 415000000 cycles: 743737909 heartbeat IPC: 0.577522 cumulative IPC: 0.557023 (Simulation time: 0 hr 40 min 32 sec) 
Heartbeat CPU 0 instructions: 416000002 cycles: 747093192 heartbeat IPC: 0.298038 cumulative IPC: 0.555859 (Simulation time: 0 hr 40 min 38 sec) 
Heartbeat CPU 0 instructions: 417000003 cycles: 748909603 heartbeat IPC: 0.550537 cumulative IPC: 0.555846 (Simulation time: 0 hr 40 min 44 sec) 
Heartbeat CPU 0 instructions: 418000000 cycles: 750596129 heartbeat IPC: 0.592933 cumulative IPC: 0.55593 (Simulation time: 0 hr 40 min 51 sec) 
Heartbeat CPU 0 instructions: 419000000 cycles: 752321283 heartbeat IPC: 0.579658 cumulative IPC: 0.555984 (Simulation time: 0 hr 40 min 57 sec) 
Heartbeat CPU 0 instructions: 420000000 cycles: 754106219 heartbeat IPC: 0.560244 cumulative IPC: 0.555994 (Simulation time: 0 hr 41 min 2 sec) 
Heartbeat CPU 0 instructions: 421000000 cycles: 755856108 heartbeat IPC: 0.571465 cumulative IPC: 0.55603 (Simulation time: 0 hr 41 min 7 sec) 
Heartbeat CPU 0 instructions: 422000003 cycles: 757559647 heartbeat IPC: 0.587015 cumulative IPC: 0.5561 (Simulation time: 0 hr 41 min 12 sec) 
Heartbeat CPU 0 instructions: 423000000 cycles: 759235232 heartbeat IPC: 0.596805 cumulative IPC: 0.55619 (Simulation time: 0 hr 41 min 17 sec) 
Heartbeat CPU 0 instructions: 424000001 cycles: 760904626 heartbeat IPC: 0.59902 cumulative IPC: 0.556284 (Simulation time: 0 hr 41 min 22 sec) 
Heartbeat CPU 0 instructions: 425000002 cycles: 762588561 heartbeat IPC: 0.593848 cumulative IPC: 0.556367 (Simulation time: 0 hr 41 min 27 sec) 
Heartbeat CPU 0 instructions: 426000003 cycles: 764275503 heartbeat IPC: 0.592789 cumulative IPC: 0.556447 (Simulation time: 0 hr 41 min 32 sec) 
Heartbeat CPU 0 instructions: 427000002 cycles: 765962687 heartbeat IPC: 0.592703 cumulative IPC: 0.556527 (Simulation time: 0 hr 41 min 38 sec) 
Heartbeat CPU 0 instructions: 428000000 cycles: 767633929 heartbeat IPC: 0.598356 cumulative IPC: 0.556618 (Simulation time: 0 hr 41 min 42 sec) 
Heartbeat CPU 0 instructions: 429000000 cycles: 769302810 heartbeat IPC: 0.599204 cumulative IPC: 0.556711 (Simulation time: 0 hr 41 min 47 sec) 
Heartbeat CPU 0 instructions: 430000001 cycles: 770984253 heartbeat IPC: 0.594728 cumulative IPC: 0.556794 (Simulation time: 0 hr 41 min 53 sec) 
Heartbeat CPU 0 instructions: 431000003 cycles: 772671646 heartbeat IPC: 0.592631 cumulative IPC: 0.556872 (Simulation time: 0 hr 41 min 58 sec) 
Heartbeat CPU 0 instructions: 432000001 cycles: 774357673 heartbeat IPC: 0.593109 cumulative IPC: 0.556951 (Simulation time: 0 hr 42 min 3 sec) 
Heartbeat CPU 0 instructions: 433000003 cycles: 776044815 heartbeat IPC: 0.592719 cumulative IPC: 0.557029 (Simulation time: 0 hr 42 min 8 sec) 
Heartbeat CPU 0 instructions: 434000000 cycles: 777736211 heartbeat IPC: 0.591226 cumulative IPC: 0.557103 (Simulation time: 0 hr 42 min 13 sec) 
Heartbeat CPU 0 instructions: 435000000 cycles: 779409141 heartbeat IPC: 0.597754 cumulative IPC: 0.55719 (Simulation time: 0 hr 42 min 18 sec) 
Heartbeat CPU 0 instructions: 436000002 cycles: 781105945 heartbeat IPC: 0.589344 cumulative IPC: 0.55726 (Simulation time: 0 hr 42 min 23 sec) 
Heartbeat CPU 0 instructions: 437000000 cycles: 782787679 heartbeat IPC: 0.594623 cumulative IPC: 0.557341 (Simulation time: 0 hr 42 min 28 sec) 
Heartbeat CPU 0 instructions: 438000000 cycles: 784463778 heartbeat IPC: 0.596623 cumulative IPC: 0.557425 (Simulation time: 0 hr 42 min 33 sec) 
Heartbeat CPU 0 instructions: 439000000 cycles: 786185590 heartbeat IPC: 0.580783 cumulative IPC: 0.557476 (Simulation time: 0 hr 42 min 37 sec) 
Heartbeat CPU 0 instructions: 440000000 cycles: 787930651 heartbeat IPC: 0.573046 cumulative IPC: 0.55751 (Simulation time: 0 hr 42 min 42 sec) 
Heartbeat CPU 0 instructions: 441000000 cycles: 789645443 heartbeat IPC: 0.583161 cumulative IPC: 0.557566 (Simulation time: 0 hr 42 min 48 sec) 
Heartbeat CPU 0 instructions: 442000003 cycles: 791374677 heartbeat IPC: 0.578292 cumulative IPC: 0.557611 (Simulation time: 0 hr 42 min 53 sec) 
Heartbeat CPU 0 instructions: 443000003 cycles: 793109793 heartbeat IPC: 0.57633 cumulative IPC: 0.557652 (Simulation time: 0 hr 42 min 57 sec) 
Heartbeat CPU 0 instructions: 444000001 cycles: 794780062 heartbeat IPC: 0.598705 cumulative IPC: 0.557739 (Simulation time: 0 hr 43 min 3 sec) 
Heartbeat CPU 0 instructions: 445000002 cycles: 796448967 heartbeat IPC: 0.599196 cumulative IPC: 0.557826 (Simulation time: 0 hr 43 min 8 sec) 
Heartbeat CPU 0 instructions: 446000000 cycles: 798163968 heartbeat IPC: 0.583089 cumulative IPC: 0.55788 (Simulation time: 0 hr 43 min 13 sec) 
Heartbeat CPU 0 instructions: 447000002 cycles: 800062822 heartbeat IPC: 0.526635 cumulative IPC: 0.557806 (Simulation time: 0 hr 43 min 18 sec) 
Heartbeat CPU 0 instructions: 448000003 cycles: 801728881 heartbeat IPC: 0.600219 cumulative IPC: 0.557894 (Simulation time: 0 hr 43 min 23 sec) 
Heartbeat CPU 0 instructions: 449000002 cycles: 803398625 heartbeat IPC: 0.598894 cumulative IPC: 0.557979 (Simulation time: 0 hr 43 min 29 sec) 
Heartbeat CPU 0 instructions: 450000002 cycles: 805113423 heartbeat IPC: 0.583159 cumulative IPC: 0.558033 (Simulation time: 0 hr 43 min 34 sec) 

Warmup complete CPU 0 instructions: 450000002 cycles: 805113423 (Simulation time: 0 hr 43 min 34 sec) 

Heartbeat CPU 0 instructions: 451000000 cycles: 806328822 heartbeat IPC: 0.822773 cumulative IPC: 0.822773 (Simulation time: 0 hr 43 min 39 sec) 
Heartbeat CPU 0 instructions: 452000000 cycles: 807531878 heartbeat IPC: 0.831217 cumulative IPC: 0.826973 (Simulation time: 0 hr 43 min 44 sec) 
Heartbeat CPU 0 instructions: 453000001 cycles: 808739788 heartbeat IPC: 0.827877 cumulative IPC: 0.827274 (Simulation time: 0 hr 43 min 49 sec) 
Heartbeat CPU 0 instructions: 454000000 cycles: 809945856 heartbeat IPC: 0.82914 cumulative IPC: 0.82774 (Simulation time: 0 hr 43 min 53 sec) 
Heartbeat CPU 0 instructions: 455000002 cycles: 811157053 heartbeat IPC: 0.825631 cumulative IPC: 0.827317 (Simulation time: 0 hr 43 min 58 sec) 
Heartbeat CPU 0 instructions: 456000003 cycles: 812454790 heartbeat IPC: 0.770573 cumulative IPC: 0.817287 (Simulation time: 0 hr 44 min 3 sec) 
Heartbeat CPU 0 instructions: 457000000 cycles: 813659822 heartbeat IPC: 0.829851 cumulative IPC: 0.819058 (Simulation time: 0 hr 44 min 8 sec) 
Heartbeat CPU 0 instructions: 458000003 cycles: 814855460 heartbeat IPC: 0.836376 cumulative IPC: 0.821184 (Simulation time: 0 hr 44 min 13 sec) 
Heartbeat CPU 0 instructions: 459000001 cycles: 816055676 heartbeat IPC: 0.833182 cumulative IPC: 0.8225 (Simulation time: 0 hr 44 min 18 sec) 
Heartbeat CPU 0 instructions: 460000001 cycles: 817262863 heartbeat IPC: 0.828372 cumulative IPC: 0.823083 (Simulation time: 0 hr 44 min 23 sec) 
Heartbeat CPU 0 instructions: 461000000 cycles: 818475397 heartbeat IPC: 0.824718 cumulative IPC: 0.823232 (Simulation time: 0 hr 44 min 28 sec) 
Heartbeat CPU 0 instructions: 462000000 cycles: 819689474 heartbeat IPC: 0.823671 cumulative IPC: 0.823268 (Simulation time: 0 hr 44 min 33 sec) 
Heartbeat CPU 0 instructions: 463000000 cycles: 820908408 heartbeat IPC: 0.820389 cumulative IPC: 0.823046 (Simulation time: 0 hr 44 min 38 sec) 
Heartbeat CPU 0 instructions: 464000001 cycles: 822130052 heartbeat IPC: 0.81857 cumulative IPC: 0.822725 (Simulation time: 0 hr 44 min 43 sec) 
Heartbeat CPU 0 instructions: 465000000 cycles: 823337923 heartbeat IPC: 0.827902 cumulative IPC: 0.823068 (Simulation time: 0 hr 44 min 47 sec) 
Heartbeat CPU 0 instructions: 466000001 cycles: 824548897 heartbeat IPC: 0.825782 cumulative IPC: 0.823237 (Simulation time: 0 hr 44 min 52 sec) 
Heartbeat CPU 0 instructions: 467000000 cycles: 825756353 heartbeat IPC: 0.828187 cumulative IPC: 0.823526 (Simulation time: 0 hr 44 min 57 sec) 
Heartbeat CPU 0 instructions: 468000000 cycles: 826969038 heartbeat IPC: 0.824616 cumulative IPC: 0.823587 (Simulation time: 0 hr 45 min 2 sec) 
Heartbeat CPU 0 instructions: 469000003 cycles: 828299368 heartbeat IPC: 0.751695 cumulative IPC: 0.819462 (Simulation time: 0 hr 45 min 8 sec) 
Heartbeat CPU 0 instructions: 470000000 cycles: 829642009 heartbeat IPC: 0.744798 cumulative IPC: 0.815375 (Simulation time: 0 hr 45 min 13 sec) 
Heartbeat CPU 0 instructions: 471000003 cycles: 831902469 heartbeat IPC: 0.442389 cumulative IPC: 0.783903 (Simulation time: 0 hr 45 min 18 sec) 
Heartbeat CPU 0 instructions: 472000002 cycles: 833106590 heartbeat IPC: 0.830481 cumulative IPC: 0.785906 (Simulation time: 0 hr 45 min 23 sec) 
Heartbeat CPU 0 instructions: 473000000 cycles: 834307540 heartbeat IPC: 0.832672 cumulative IPC: 0.78783 (Simulation time: 0 hr 45 min 27 sec) 
Heartbeat CPU 0 instructions: 474000002 cycles: 835522088 heartbeat IPC: 0.823353 cumulative IPC: 0.789249 (Simulation time: 0 hr 45 min 32 sec) 
Heartbeat CPU 0 instructions: 475000000 cycles: 836733683 heartbeat IPC: 0.825357 cumulative IPC: 0.790632 (Simulation time: 0 hr 45 min 37 sec) 
Heartbeat CPU 0 instructions: 476000000 cycles: 837938431 heartbeat IPC: 0.830049 cumulative IPC: 0.792079 (Simulation time: 0 hr 45 min 42 sec) 
Heartbeat CPU 0 instructions: 477000000 cycles: 839146699 heartbeat IPC: 0.827631 cumulative IPC: 0.793341 (Simulation time: 0 hr 45 min 47 sec) 
Heartbeat CPU 0 instructions: 478000000 cycles: 840374301 heartbeat IPC: 0.814596 cumulative IPC: 0.794081 (Simulation time: 0 hr 45 min 52 sec) 
Heartbeat CPU 0 instructions: 479000002 cycles: 841648860 heartbeat IPC: 0.784587 cumulative IPC: 0.79375 (Simulation time: 0 hr 45 min 57 sec) 
Heartbeat CPU 0 instructions: 480000003 cycles: 842858504 heartbeat IPC: 0.82669 cumulative IPC: 0.794806 (Simulation time: 0 hr 46 min 2 sec) 
Heartbeat CPU 0 instructions: 481000000 cycles: 844079133 heartbeat IPC: 0.819247 cumulative IPC: 0.795571 (Simulation time: 0 hr 46 min 7 sec) 
Heartbeat CPU 0 instructions: 482000003 cycles: 845275391 heartbeat IPC: 0.835943 cumulative IPC: 0.796774 (Simulation time: 0 hr 46 min 11 sec) 
Heartbeat CPU 0 instructions: 483000000 cycles: 846474279 heartbeat IPC: 0.834104 cumulative IPC: 0.797856 (Simulation time: 0 hr 46 min 16 sec) 
Heartbeat CPU 0 instructions: 484000000 cycles: 847677112 heartbeat IPC: 0.831371 cumulative IPC: 0.798803 (Simulation time: 0 hr 46 min 21 sec) 
Heartbeat CPU 0 instructions: 485000003 cycles: 848885647 heartbeat IPC: 0.827451 cumulative IPC: 0.799594 (Simulation time: 0 hr 46 min 25 sec) 
Heartbeat CPU 0 instructions: 486000000 cycles: 850095811 heartbeat IPC: 0.826332 cumulative IPC: 0.800313 (Simulation time: 0 hr 46 min 30 sec) 
Heartbeat CPU 0 instructions: 487000003 cycles: 851326056 heartbeat IPC: 0.812849 cumulative IPC: 0.800647 (Simulation time: 0 hr 46 min 35 sec) 
Heartbeat CPU 0 instructions: 488000000 cycles: 852545263 heartbeat IPC: 0.820203 cumulative IPC: 0.80115 (Simulation time: 0 hr 46 min 40 sec) 
Heartbeat CPU 0 instructions: 489000003 cycles: 853758982 heartbeat IPC: 0.823916 cumulative IPC: 0.801718 (Simulation time: 0 hr 46 min 44 sec) 
Heartbeat CPU 0 instructions: 490000000 cycles: 855055056 heartbeat IPC: 0.771559 cumulative IPC: 0.800935 (Simulation time: 0 hr 46 min 49 sec) 
Heartbeat CPU 0 instructions: 491000002 cycles: 856267176 heartbeat IPC: 0.825002 cumulative IPC: 0.801505 (Simulation time: 0 hr 46 min 54 sec) 
Heartbeat CPU 0 instructions: 492000003 cycles: 857484554 heartbeat IPC: 0.821438 cumulative IPC: 0.801969 (Simulation time: 0 hr 46 min 59 sec) 
Heartbeat CPU 0 instructions: 493000002 cycles: 858749647 heartbeat IPC: 0.790455 cumulative IPC: 0.801697 (Simulation time: 0 hr 47 min 4 sec) 
Heartbeat CPU 0 instructions: 494000001 cycles: 860099327 heartbeat IPC: 0.740916 cumulative IPC: 0.800205 (Simulation time: 0 hr 47 min 9 sec) 
Heartbeat CPU 0 instructions: 495000000 cycles: 861444830 heartbeat IPC: 0.743216 cumulative IPC: 0.798844 (Simulation time: 0 hr 47 min 13 sec) 
Heartbeat CPU 0 instructions: 496000000 cycles: 862659216 heartbeat IPC: 0.823461 cumulative IPC: 0.799363 (Simulation time: 0 hr 47 min 18 sec) 
Heartbeat CPU 0 instructions: 497000001 cycles: 863872734 heartbeat IPC: 0.824051 cumulative IPC: 0.799873 (Simulation time: 0 hr 47 min 23 sec) 
Heartbeat CPU 0 instructions: 498000003 cycles: 865080307 heartbeat IPC: 0.828109 cumulative IPC: 0.800442 (Simulation time: 0 hr 47 min 27 sec) 
Heartbeat CPU 0 instructions: 499000003 cycles: 866302919 heartbeat IPC: 0.817921 cumulative IPC: 0.800791 (Simulation time: 0 hr 47 min 33 sec) 
Heartbeat CPU 0 instructions: 500000003 cycles: 867609515 heartbeat IPC: 0.765348 cumulative IPC: 0.80005 (Simulation time: 0 hr 47 min 38 sec) 
Heartbeat CPU 0 instructions: 501000003 cycles: 868890866 heartbeat IPC: 0.780426 cumulative IPC: 0.799656 (Simulation time: 0 hr 47 min 43 sec) 
Heartbeat CPU 0 instructions: 502000003 cycles: 870091380 heartbeat IPC: 0.832977 cumulative IPC: 0.800271 (Simulation time: 0 hr 47 min 48 sec) 
Heartbeat CPU 0 instructions: 503000000 cycles: 871393752 heartbeat IPC: 0.767827 cumulative IPC: 0.799634 (Simulation time: 0 hr 47 min 53 sec) 
Heartbeat CPU 0 instructions: 504000002 cycles: 872607713 heartbeat IPC: 0.823751 cumulative IPC: 0.800068 (Simulation time: 0 hr 47 min 58 sec) 
Heartbeat CPU 0 instructions: 505000002 cycles: 873817452 heartbeat IPC: 0.826625 cumulative IPC: 0.800535 (Simulation time: 0 hr 48 min 3 sec) 
Heartbeat CPU 0 instructions: 506000000 cycles: 875019958 heartbeat IPC: 0.831595 cumulative IPC: 0.80107 (Simulation time: 0 hr 48 min 7 sec) 
Heartbeat CPU 0 instructions: 507000000 cycles: 876225211 heartbeat IPC: 0.829701 cumulative IPC: 0.801555 (Simulation time: 0 hr 48 min 12 sec) 
Heartbeat CPU 0 instructions: 508000002 cycles: 877430026 heartbeat IPC: 0.830005 cumulative IPC: 0.802029 (Simulation time: 0 hr 48 min 17 sec) 
Heartbeat CPU 0 instructions: 509000001 cycles: 878629715 heartbeat IPC: 0.833549 cumulative IPC: 0.802543 (Simulation time: 0 hr 48 min 22 sec) 
Heartbeat CPU 0 instructions: 510000000 cycles: 879838452 heartbeat IPC: 0.827309 cumulative IPC: 0.802944 (Simulation time: 0 hr 48 min 27 sec) 
Heartbeat CPU 0 instructions: 511000002 cycles: 881064928 heartbeat IPC: 0.815346 cumulative IPC: 0.803144 (Simulation time: 0 hr 48 min 31 sec) 
Heartbeat CPU 0 instructions: 512000000 cycles: 882292875 heartbeat IPC: 0.814366 cumulative IPC: 0.803323 (Simulation time: 0 hr 48 min 36 sec) 
Heartbeat CPU 0 instructions: 513000002 cycles: 883503927 heartbeat IPC: 0.82573 cumulative IPC: 0.803669 (Simulation time: 0 hr 48 min 41 sec) 
Heartbeat CPU 0 instructions: 514000000 cycles: 884713505 heartbeat IPC: 0.826733 cumulative IPC: 0.804019 (Simulation time: 0 hr 48 min 46 sec) 
Heartbeat CPU 0 instructions: 515000001 cycles: 885926188 heartbeat IPC: 0.824619 cumulative IPC: 0.804328 (Simulation time: 0 hr 48 min 51 sec) 
Heartbeat CPU 0 instructions: 516000003 cycles: 887136992 heartbeat IPC: 0.825899 cumulative IPC: 0.804647 (Simulation time: 0 hr 48 min 56 sec) 
Heartbeat CPU 0 instructions: 517000000 cycles: 888385438 heartbeat IPC: 0.800993 cumulative IPC: 0.804592 (Simulation time: 0 hr 49 min 1 sec) 
Heartbeat CPU 0 instructions: 518000001 cycles: 889697614 heartbeat IPC: 0.762094 cumulative IPC: 0.803933 (Simulation time: 0 hr 49 min 6 sec) 
Heartbeat CPU 0 instructions: 519000002 cycles: 890940409 heartbeat IPC: 0.804639 cumulative IPC: 0.803943 (Simulation time: 0 hr 49 min 11 sec) 
Heartbeat CPU 0 instructions: 520000000 cycles: 892334688 heartbeat IPC: 0.717215 cumulative IPC: 0.802557 (Simulation time: 0 hr 49 min 16 sec) 
Heartbeat CPU 0 instructions: 521000000 cycles: 893544974 heartbeat IPC: 0.826251 cumulative IPC: 0.802881 (Simulation time: 0 hr 49 min 22 sec) 
Heartbeat CPU 0 instructions: 522000001 cycles: 894758121 heartbeat IPC: 0.824303 cumulative IPC: 0.803171 (Simulation time: 0 hr 49 min 29 sec) 
Heartbeat CPU 0 instructions: 523000000 cycles: 896014556 heartbeat IPC: 0.795902 cumulative IPC: 0.80307 (Simulation time: 0 hr 49 min 34 sec) 
Heartbeat CPU 0 instructions: 524000001 cycles: 897291097 heartbeat IPC: 0.783368 cumulative IPC: 0.802797 (Simulation time: 0 hr 49 min 40 sec) 
Heartbeat CPU 0 instructions: 525000001 cycles: 898503495 heartbeat IPC: 0.824812 cumulative IPC: 0.803083 (Simulation time: 0 hr 49 min 45 sec) 
Heartbeat CPU 0 instructions: 526000002 cycles: 899704292 heartbeat IPC: 0.832781 cumulative IPC: 0.80346 (Simulation time: 0 hr 49 min 51 sec) 
Heartbeat CPU 0 instructions: 527000002 cycles: 900918517 heartbeat IPC: 0.823571 cumulative IPC: 0.803715 (Simulation time: 0 hr 49 min 57 sec) 
Heartbeat CPU 0 instructions: 528000000 cycles: 902130352 heartbeat IPC: 0.825193 cumulative IPC: 0.803983 (Simulation time: 0 hr 50 min 2 sec) 
Heartbeat CPU 0 instructions: 529000001 cycles: 903341824 heartbeat IPC: 0.825443 cumulative IPC: 0.804248 (Simulation time: 0 hr 50 min 7 sec) 
Heartbeat CPU 0 instructions: 530000000 cycles: 904549236 heartbeat IPC: 0.828217 cumulative IPC: 0.804539 (Simulation time: 0 hr 50 min 12 sec) 
Heartbeat CPU 0 instructions: 531000000 cycles: 905753614 heartbeat IPC: 0.830304 cumulative IPC: 0.804847 (Simulation time: 0 hr 50 min 18 sec) 
Heartbeat CPU 0 instructions: 532000003 cycles: 906968469 heartbeat IPC: 0.823146 cumulative IPC: 0.805066 (Simulation time: 0 hr 50 min 23 sec) 
Heartbeat CPU 0 instructions: 533000000 cycles: 908177767 heartbeat IPC: 0.826924 cumulative IPC: 0.805322 (Simulation time: 0 hr 50 min 29 sec) 
Heartbeat CPU 0 instructions: 534000000 cycles: 909379768 heartbeat IPC: 0.831946 cumulative IPC: 0.805629 (Simulation time: 0 hr 50 min 35 sec) 
Heartbeat CPU 0 instructions: 535000000 cycles: 910571788 heartbeat IPC: 0.838912 cumulative IPC: 0.806005 (Simulation time: 0 hr 50 min 40 sec) 
Heartbeat CPU 0 instructions: 536000000 cycles: 911770709 heartbeat IPC: 0.834083 cumulative IPC: 0.806321 (Simulation time: 0 hr 50 min 45 sec) 
Heartbeat CPU 0 instructions: 537000001 cycles: 912968346 heartbeat IPC: 0.834978 cumulative IPC: 0.806639 (Simulation time: 0 hr 50 min 50 sec) 
Heartbeat CPU 0 instructions: 538000000 cycles: 914177097 heartbeat IPC: 0.827299 cumulative IPC: 0.806868 (Simulation time: 0 hr 50 min 56 sec) 
Heartbeat CPU 0 instructions: 539000000 cycles: 915391203 heartbeat IPC: 0.823651 cumulative IPC: 0.807053 (Simulation time: 0 hr 51 min 1 sec) 
Heartbeat CPU 0 instructions: 540000002 cycles: 916604291 heartbeat IPC: 0.824344 cumulative IPC: 0.807241 (Simulation time: 0 hr 51 min 6 sec) 
Heartbeat CPU 0 instructions: 541000000 cycles: 917816074 heartbeat IPC: 0.825229 cumulative IPC: 0.807434 (Simulation time: 0 hr 51 min 12 sec) 
Heartbeat CPU 0 instructions: 542000003 cycles: 919025367 heartbeat IPC: 0.826932 cumulative IPC: 0.807641 (Simulation time: 0 hr 51 min 18 sec) 
Heartbeat CPU 0 instructions: 543000003 cycles: 920247573 heartbeat IPC: 0.818193 cumulative IPC: 0.807753 (Simulation time: 0 hr 51 min 23 sec) 
Heartbeat CPU 0 instructions: 544000001 cycles: 921459004 heartbeat IPC: 0.825468 cumulative IPC: 0.807938 (Simulation time: 0 hr 51 min 28 sec) 
Heartbeat CPU 0 instructions: 545000000 cycles: 922741015 heartbeat IPC: 0.780024 cumulative IPC: 0.807634 (Simulation time: 0 hr 51 min 34 sec) 
Heartbeat CPU 0 instructions: 546000002 cycles: 923987269 heartbeat IPC: 0.802406 cumulative IPC: 0.807579 (Simulation time: 0 hr 51 min 40 sec) 
[...]
Heartbeat CPU 0 instructions: 834000003 cycles: 1289783492 heartbeat IPC: 0.803572 cumulative IPC: 0.792292 (Simulation time: 1 hr 12 min 34 sec) 
Heartbeat CPU 0 instructions: 835000000 cycles: 1291041183 heartbeat IPC: 0.795105 cumulative IPC: 0.792299 (Simulation time: 1 hr 12 min 40 sec) 
Heartbeat CPU 0 instructions: 836000000 cycles: 1292390963 heartbeat IPC: 0.740861 cumulative IPC: 0.792156 (Simulation time: 1 hr 12 min 45 sec) 
Heartbeat CPU 0 instructions: 837000002 cycles: 1293654160 heartbeat IPC: 0.791644 cumulative IPC: 0.792155 (Simulation time: 1 hr 12 min 51 sec) 
Heartbeat CPU 0 instructions: 838000000 cycles: 1294977774 heartbeat IPC: 0.755506 cumulative IPC: 0.792056 (Simulation time: 1 hr 12 min 55 sec) 
Heartbeat CPU 0 instructions: 839000000 cycles: 1296259487 heartbeat IPC: 0.780206 cumulative IPC: 0.792025 (Simulation time: 1 hr 12 min 59 sec) 
Heartbeat CPU 0 instructions: 840000003 cycles: 1297519334 heartbeat IPC: 0.79375 cumulative IPC: 0.79203 (Simulation time: 1 hr 13 min 2 sec) 
Heartbeat CPU 0 instructions: 841000001 cycles: 1298771583 heartbeat IPC: 0.798562 cumulative IPC: 0.792046 (Simulation time: 1 hr 13 min 6 sec) 
Heartbeat CPU 0 instructions: 842000001 cycles: 1300147857 heartbeat IPC: 0.7266 cumulative IPC: 0.791864 (Simulation time: 1 hr 13 min 9 sec) 
Heartbeat CPU 0 instructions: 843000003 cycles: 1301509457 heartbeat IPC: 0.734432 cumulative IPC: 0.791707 (Simulation time: 1 hr 13 min 13 sec) 
Heartbeat CPU 0 instructions: 844000002 cycles: 1302784437 heartbeat IPC: 0.784325 cumulative IPC: 0.791688 (Simulation time: 1 hr 13 min 16 sec) 
Heartbeat CPU 0 instructions: 845000000 cycles: 1303989466 heartbeat IPC: 0.829854 cumulative IPC: 0.79178 (Simulation time: 1 hr 13 min 19 sec) 
Heartbeat CPU 0 instructions: 846000002 cycles: 1305203194 heartbeat IPC: 0.823909 cumulative IPC: 0.791858 (Simulation time: 1 hr 13 min 23 sec) 
Heartbeat CPU 0 instructions: 847000000 cycles: 1306405785 heartbeat IPC: 0.831536 cumulative IPC: 0.791953 (Simulation time: 1 hr 13 min 26 sec) 
Heartbeat CPU 0 instructions: 848000002 cycles: 1307627929 heartbeat IPC: 0.818236 cumulative IPC: 0.792017 (Simulation time: 1 hr 13 min 30 sec) 
Heartbeat CPU 0 instructions: 849000000 cycles: 1308834190 heartbeat IPC: 0.829006 cumulative IPC: 0.792105 (Simulation time: 1 hr 13 min 33 sec) 
Heartbeat CPU 0 instructions: 850000003 cycles: 1310039382 heartbeat IPC: 0.829746 cumulative IPC: 0.792195 (Simulation time: 1 hr 13 min 36 sec) 
Heartbeat CPU 0 instructions: 851000000 cycles: 1311255463 heartbeat IPC: 0.822311 cumulative IPC: 0.792268 (Simulation time: 1 hr 13 min 40 sec) 
Heartbeat CPU 0 instructions: 852000000 cycles: 1312494870 heartbeat IPC: 0.806837 cumulative IPC: 0.792303 (Simulation time: 1 hr 13 min 43 sec) 
Heartbeat CPU 0 instructions: 853000000 cycles: 1313745071 heartbeat IPC: 0.799871 cumulative IPC: 0.792322 (Simulation time: 1 hr 13 min 47 sec) 
Heartbeat CPU 0 instructions: 854000003 cycles: 1314970930 heartbeat IPC: 0.815757 cumulative IPC: 0.792378 (Simulation time: 1 hr 13 min 50 sec) 
Heartbeat CPU 0 instructions: 855000001 cycles: 1316169493 heartbeat IPC: 0.834331 cumulative IPC: 0.792477 (Simulation time: 1 hr 13 min 54 sec) 
Heartbeat CPU 0 instructions: 856000000 cycles: 1317360515 heartbeat IPC: 0.839614 cumulative IPC: 0.792586 (Simulation time: 1 hr 13 min 57 sec) 
Heartbeat CPU 0 instructions: 857000002 cycles: 1318558556 heartbeat IPC: 0.834698 cumulative IPC: 0.792684 (Simulation time: 1 hr 14 min 1 sec) 
Heartbeat CPU 0 instructions: 858000000 cycles: 1319760656 heartbeat IPC: 0.831876 cumulative IPC: 0.792776 (Simulation time: 1 hr 14 min 4 sec) 
Heartbeat CPU 0 instructions: 859000000 cycles: 1320972661 heartbeat IPC: 0.825079 cumulative IPC: 0.792852 (Simulation time: 1 hr 14 min 8 sec) 
Heartbeat CPU 0 instructions: 860000002 cycles: 1322186468 heartbeat IPC: 0.823856 cumulative IPC: 0.792925 (Simulation time: 1 hr 14 min 12 sec) 
Heartbeat CPU 0 instructions: 861000000 cycles: 1323400188 heartbeat IPC: 0.823912 cumulative IPC: 0.792997 (Simulation time: 1 hr 14 min 18 sec) 
Heartbeat CPU 0 instructions: 862000000 cycles: 1324617041 heartbeat IPC: 0.821792 cumulative IPC: 0.793065 (Simulation time: 1 hr 14 min 23 sec) 
Heartbeat CPU 0 instructions: 863000000 cycles: 1325828030 heartbeat IPC: 0.825771 cumulative IPC: 0.793141 (Simulation time: 1 hr 14 min 28 sec) 
Heartbeat CPU 0 instructions: 864000000 cycles: 1327048470 heartbeat IPC: 0.819377 cumulative IPC: 0.793202 (Simulation time: 1 hr 14 min 31 sec) 
Heartbeat CPU 0 instructions: 865000000 cycles: 1328255717 heartbeat IPC: 0.828331 cumulative IPC: 0.793283 (Simulation time: 1 hr 14 min 35 sec) 
Heartbeat CPU 0 instructions: 866000003 cycles: 1329467364 heartbeat IPC: 0.825325 cumulative IPC: 0.793357 (Simulation time: 1 hr 14 min 38 sec) 
Heartbeat CPU 0 instructions: 867000002 cycles: 1330713085 heartbeat IPC: 0.802747 cumulative IPC: 0.793379 (Simulation time: 1 hr 14 min 42 sec) 
Heartbeat CPU 0 instructions: 868000000 cycles: 1331967813 heartbeat IPC: 0.796984 cumulative IPC: 0.793388 (Simulation time: 1 hr 14 min 45 sec) 
Heartbeat CPU 0 instructions: 869000000 cycles: 1333196261 heartbeat IPC: 0.814035 cumulative IPC: 0.793436 (Simulation time: 1 hr 14 min 49 sec) 
Heartbeat CPU 0 instructions: 870000000 cycles: 1334405093 heartbeat IPC: 0.827245 cumulative IPC: 0.793513 (Simulation time: 1 hr 14 min 52 sec) 
Heartbeat CPU 0 instructions: 871000002 cycles: 1335617525 heartbeat IPC: 0.82479 cumulative IPC: 0.793585 (Simulation time: 1 hr 14 min 56 sec) 
Heartbeat CPU 0 instructions: 872000000 cycles: 1336866492 heartbeat IPC: 0.80066 cumulative IPC: 0.793601 (Simulation time: 1 hr 15 min 0 sec) 
Heartbeat CPU 0 instructions: 873000002 cycles: 1338126031 heartbeat IPC: 0.793943 cumulative IPC: 0.793602 (Simulation time: 1 hr 15 min 3 sec) 
Heartbeat CPU 0 instructions: 874000003 cycles: 1339487316 heartbeat IPC: 0.734601 cumulative IPC: 0.793452 (Simulation time: 1 hr 15 min 7 sec) 
Heartbeat CPU 0 instructions: 875000001 cycles: 1340761942 heartbeat IPC: 0.784542 cumulative IPC: 0.793431 (Simulation time: 1 hr 15 min 10 sec) 
Heartbeat CPU 0 instructions: 876000000 cycles: 1341969599 heartbeat IPC: 0.828049 cumulative IPC: 0.793509 (Simulation time: 1 hr 15 min 14 sec) 
Heartbeat CPU 0 instructions: 877000001 cycles: 1343187836 heartbeat IPC: 0.820859 cumulative IPC: 0.793571 (Simulation time: 1 hr 15 min 20 sec) 
Heartbeat CPU 0 instructions: 878000001 cycles: 1344403008 heartbeat IPC: 0.822929 cumulative IPC: 0.793637 (Simulation time: 1 hr 15 min 25 sec) 
Heartbeat CPU 0 instructions: 879000000 cycles: 1345603262 heartbeat IPC: 0.833156 cumulative IPC: 0.793724 (Simulation time: 1 hr 15 min 31 sec) 
Heartbeat CPU 0 instructions: 880000000 cycles: 1346821731 heartbeat IPC: 0.820702 cumulative IPC: 0.793785 (Simulation time: 1 hr 15 min 36 sec) 
Heartbeat CPU 0 instructions: 881000000 cycles: 1348027690 heartbeat IPC: 0.829216 cumulative IPC: 0.793864 (Simulation time: 1 hr 15 min 40 sec) 
Heartbeat CPU 0 instructions: 882000000 cycles: 1349237530 heartbeat IPC: 0.826556 cumulative IPC: 0.793936 (Simulation time: 1 hr 15 min 44 sec) 
Heartbeat CPU 0 instructions: 883000000 cycles: 1350462351 heartbeat IPC: 0.816446 cumulative IPC: 0.793987 (Simulation time: 1 hr 15 min 47 sec) 
Heartbeat CPU 0 instructions: 884000000 cycles: 1351675223 heartbeat IPC: 0.824489 cumulative IPC: 0.794055 (Simulation time: 1 hr 15 min 52 sec) 
Heartbeat CPU 0 instructions: 885000002 cycles: 1352866184 heartbeat IPC: 0.83966 cumulative IPC: 0.794154 (Simulation time: 1 hr 15 min 57 sec) 
Heartbeat CPU 0 instructions: 886000003 cycles: 1354061813 heartbeat IPC: 0.836381 cumulative IPC: 0.794246 (Simulation time: 1 hr 16 min 2 sec) 
Heartbeat CPU 0 instructions: 887000000 cycles: 1355265214 heartbeat IPC: 0.830976 cumulative IPC: 0.794326 (Simulation time: 1 hr 16 min 6 sec) 
Heartbeat CPU 0 instructions: 888000001 cycles: 1356478505 heartbeat IPC: 0.824205 cumulative IPC: 0.794392 (Simulation time: 1 hr 16 min 9 sec) 
Heartbeat CPU 0 instructions: 889000002 cycles: 1357691627 heartbeat IPC: 0.82432 cumulative IPC: 0.794458 (Simulation time: 1 hr 16 min 12 sec) 
Heartbeat CPU 0 instructions: 890000001 cycles: 1358913642 heartbeat IPC: 0.81832 cumulative IPC: 0.79451 (Simulation time: 1 hr 16 min 16 sec) 
Heartbeat CPU 0 instructions: 891000000 cycles: 1360133187 heartbeat IPC: 0.819977 cumulative IPC: 0.794566 (Simulation time: 1 hr 16 min 19 sec) 
Heartbeat CPU 0 instructions: 892000000 cycles: 1361345961 heartbeat IPC: 0.824556 cumulative IPC: 0.794632 (Simulation time: 1 hr 16 min 23 sec) 
Heartbeat CPU 0 instructions: 893000000 cycles: 1362556802 heartbeat IPC: 0.825872 cumulative IPC: 0.7947 (Simulation time: 1 hr 16 min 26 sec) 
Heartbeat CPU 0 instructions: 894000000 cycles: 1363773739 heartbeat IPC: 0.821735 cumulative IPC: 0.794758 (Simulation time: 1 hr 16 min 30 sec) 
Heartbeat CPU 0 instructions: 895000003 cycles: 1364987430 heartbeat IPC: 0.823935 cumulative IPC: 0.794822 (Simulation time: 1 hr 16 min 33 sec) 
Heartbeat CPU 0 instructions: 896000000 cycles: 1366252357 heartbeat IPC: 0.790557 cumulative IPC: 0.794812 (Simulation time: 1 hr 16 min 36 sec) 
Heartbeat CPU 0 instructions: 897000003 cycles: 1367511980 heartbeat IPC: 0.793891 cumulative IPC: 0.79481 (Simulation time: 1 hr 16 min 40 sec) 
Heartbeat CPU 0 instructions: 898000001 cycles: 1368834111 heartbeat IPC: 0.756353 cumulative IPC: 0.79472 (Simulation time: 1 hr 16 min 44 sec) 
Heartbeat CPU 0 instructions: 899000000 cycles: 1370092670 heartbeat IPC: 0.794559 cumulative IPC: 0.794719 (Simulation time: 1 hr 16 min 47 sec) 
Heartbeat CPU 0 instructions: 900000003 cycles: 1371352763 heartbeat IPC: 0.793595 cumulative IPC: 0.794717 (Simulation time: 1 hr 16 min 51 sec) 
Heartbeat CPU 0 instructions: 901000000 cycles: 1372564444 heartbeat IPC: 0.825297 cumulative IPC: 0.794782 (Simulation time: 1 hr 16 min 56 sec) 
Heartbeat CPU 0 instructions: 902000000 cycles: 1373769447 heartbeat IPC: 0.829873 cumulative IPC: 0.794857 (Simulation time: 1 hr 17 min 2 sec) 
Heartbeat CPU 0 instructions: 903000001 cycles: 1375025612 heartbeat IPC: 0.796075 cumulative IPC: 0.794859 (Simulation time: 1 hr 17 min 6 sec) 
Heartbeat CPU 0 instructions: 904000000 cycles: 1376345726 heartbeat IPC: 0.75751 cumulative IPC: 0.794773 (Simulation time: 1 hr 17 min 9 sec) 
Heartbeat CPU 0 instructions: 905000002 cycles: 1377645646 heartbeat IPC: 0.76928 cumulative IPC: 0.794715 (Simulation time: 1 hr 17 min 13 sec) 
Heartbeat CPU 0 instructions: 906000002 cycles: 1378850048 heartbeat IPC: 0.830288 cumulative IPC: 0.79479 (Simulation time: 1 hr 17 min 16 sec) 
Heartbeat CPU 0 instructions: 907000003 cycles: 1380063144 heartbeat IPC: 0.824338 cumulative IPC: 0.794852 (Simulation time: 1 hr 17 min 19 sec) 
Heartbeat CPU 0 instructions: 908000000 cycles: 1381281722 heartbeat IPC: 0.820626 cumulative IPC: 0.794907 (Simulation time: 1 hr 17 min 23 sec) 
Heartbeat CPU 0 instructions: 909000000 cycles: 1382482991 heartbeat IPC: 0.832453 cumulative IPC: 0.794985 (Simulation time: 1 hr 17 min 27 sec) 
Heartbeat CPU 0 instructions: 910000000 cycles: 1383690713 heartbeat IPC: 0.828005 cumulative IPC: 0.795054 (Simulation time: 1 hr 17 min 30 sec) 
Heartbeat CPU 0 instructions: 911000003 cycles: 1384895380 heartbeat IPC: 0.830107 cumulative IPC: 0.795126 (Simulation time: 1 hr 17 min 33 sec) 
Heartbeat CPU 0 instructions: 912000003 cycles: 1386272257 heartbeat IPC: 0.726281 cumulative IPC: 0.794963 (Simulation time: 1 hr 17 min 37 sec) 
Heartbeat CPU 0 instructions: 913000000 cycles: 1387486223 heartbeat IPC: 0.823744 cumulative IPC: 0.795023 (Simulation time: 1 hr 17 min 40 sec) 
Heartbeat CPU 0 instructions: 914000002 cycles: 1388691685 heartbeat IPC: 0.829559 cumulative IPC: 0.795095 (Simulation time: 1 hr 17 min 44 sec) 
Heartbeat CPU 0 instructions: 915000001 cycles: 1389885226 heartbeat IPC: 0.837842 cumulative IPC: 0.795182 (Simulation time: 1 hr 17 min 47 sec) 
Heartbeat CPU 0 instructions: 916000000 cycles: 1391088430 heartbeat IPC: 0.831113 cumulative IPC: 0.795256 (Simulation time: 1 hr 17 min 51 sec) 
Heartbeat CPU 0 instructions: 917000001 cycles: 1392289808 heartbeat IPC: 0.832378 cumulative IPC: 0.795332 (Simulation time: 1 hr 17 min 54 sec) 
Heartbeat CPU 0 instructions: 918000003 cycles: 1393497500 heartbeat IPC: 0.828027 cumulative IPC: 0.795399 (Simulation time: 1 hr 17 min 58 sec) 
Heartbeat CPU 0 instructions: 919000003 cycles: 1394712819 heartbeat IPC: 0.822829 cumulative IPC: 0.795455 (Simulation time: 1 hr 18 min 1 sec) 
Heartbeat CPU 0 instructions: 920000000 cycles: 1395937569 heartbeat IPC: 0.816491 cumulative IPC: 0.795499 (Simulation time: 1 hr 18 min 5 sec) 
Heartbeat CPU 0 instructions: 921000001 cycles: 1397156442 heartbeat IPC: 0.820431 cumulative IPC: 0.79555 (Simulation time: 1 hr 18 min 8 sec) 
Heartbeat CPU 0 instructions: 922000000 cycles: 1398362870 heartbeat IPC: 0.828892 cumulative IPC: 0.795618 (Simulation time: 1 hr 18 min 11 sec) 
Heartbeat CPU 0 instructions: 923000002 cycles: 1399582561 heartbeat IPC: 0.819881 cumulative IPC: 0.795668 (Simulation time: 1 hr 18 min 15 sec) 
Heartbeat CPU 0 instructions: 924000000 cycles: 1400795441 heartbeat IPC: 0.824482 cumulative IPC: 0.795727 (Simulation time: 1 hr 18 min 18 sec) 
Heartbeat CPU 0 instructions: 925000002 cycles: 1402002412 heartbeat IPC: 0.828522 cumulative IPC: 0.795793 (Simulation time: 1 hr 18 min 22 sec) 
Heartbeat CPU 0 instructions: 926000000 cycles: 1403269408 heartbeat IPC: 0.789267 cumulative IPC: 0.795779 (Simulation time: 1 hr 18 min 25 sec) 
Heartbeat CPU 0 instructions: 927000001 cycles: 1404566306 heartbeat IPC: 0.771071 cumulative IPC: 0.795726 (Simulation time: 1 hr 18 min 28 sec) 
Heartbeat CPU 0 instructions: 928000003 cycles: 1405837659 heartbeat IPC: 0.786565 cumulative IPC: 0.795706 (Simulation time: 1 hr 18 min 32 sec) 
Heartbeat CPU 0 instructions: 929000000 cycles: 1407097904 heartbeat IPC: 0.793494 cumulative IPC: 0.795702 (Simulation time: 1 hr 18 min 35 sec) 
Heartbeat CPU 0 instructions: 930000001 cycles: 1408309017 heartbeat IPC: 0.825688 cumulative IPC: 0.795762 (Simulation time: 1 hr 18 min 38 sec) 
Heartbeat CPU 0 instructions: 931000000 cycles: 1409518486 heartbeat IPC: 0.826808 cumulative IPC: 0.795824 (Simulation time: 1 hr 18 min 42 sec) 
Heartbeat CPU 0 instructions: 932000000 cycles: 1410816687 heartbeat IPC: 0.770297 cumulative IPC: 0.795769 (Simulation time: 1 hr 18 min 45 sec) 
Heartbeat CPU 0 instructions: 933000003 cycles: 1412071470 heartbeat IPC: 0.796953 cumulative IPC: 0.795772 (Simulation time: 1 hr 18 min 49 sec) 
Heartbeat CPU 0 instructions: 934000000 cycles: 1413282382 heartbeat IPC: 0.825821 cumulative IPC: 0.795832 (Simulation time: 1 hr 18 min 52 sec) 
Heartbeat CPU 0 instructions: 935000000 cycles: 1414491678 heartbeat IPC: 0.826927 cumulative IPC: 0.795893 (Simulation time: 1 hr 18 min 55 sec) 
Heartbeat CPU 0 instructions: 936000002 cycles: 1415704059 heartbeat IPC: 0.824825 cumulative IPC: 0.795951 (Simulation time: 1 hr 18 min 59 sec) 
Heartbeat CPU 0 instructions: 937000001 cycles: 1416911039 heartbeat IPC: 0.828513 cumulative IPC: 0.796015 (Simulation time: 1 hr 19 min 2 sec) 
Heartbeat CPU 0 instructions: 938000000 cycles: 1418114276 heartbeat IPC: 0.831091 cumulative IPC: 0.796084 (Simulation time: 1 hr 19 min 6 sec) 
Heartbeat CPU 0 instructions: 939000002 cycles: 1419327651 heartbeat IPC: 0.824149 cumulative IPC: 0.796139 (Simulation time: 1 hr 19 min 9 sec) 
Heartbeat CPU 0 instructions: 940000001 cycles: 1420533331 heartbeat IPC: 0.829407 cumulative IPC: 0.796204 (Simulation time: 1 hr 19 min 13 sec) 
Heartbeat CPU 0 instructions: 941000000 cycles: 1421743180 heartbeat IPC: 0.826549 cumulative IPC: 0.796264 (Simulation time: 1 hr 19 min 16 sec) 
Heartbeat CPU 0 instructions: 942000003 cycles: 1422961853 heartbeat IPC: 0.820567 cumulative IPC: 0.796312 (Simulation time: 1 hr 19 min 20 sec) 
Heartbeat CPU 0 instructions: 943000001 cycles: 1424151537 heartbeat IPC: 0.840558 cumulative IPC: 0.796397 (Simulation time: 1 hr 19 min 23 sec) 
Heartbeat CPU 0 instructions: 944000000 cycles: 1425346588 heartbeat IPC: 0.836784 cumulative IPC: 0.796475 (Simulation time: 1 hr 19 min 27 sec) 
Heartbeat CPU 0 instructions: 945000003 cycles: 1426549071 heartbeat IPC: 0.831615 cumulative IPC: 0.796543 (Simulation time: 1 hr 19 min 30 sec) 
Heartbeat CPU 0 instructions: 946000000 cycles: 1427745418 heartbeat IPC: 0.835875 cumulative IPC: 0.796618 (Simulation time: 1 hr 19 min 33 sec) 
Heartbeat CPU 0 instructions: 947000001 cycles: 1428960065 heartbeat IPC: 0.823285 cumulative IPC: 0.79667 (Simulation time: 1 hr 19 min 37 sec) 
Heartbeat CPU 0 instructions: 948000002 cycles: 1430180222 heartbeat IPC: 0.819568 cumulative IPC: 0.796715 (Simulation time: 1 hr 19 min 40 sec) 
Heartbeat CPU 0 instructions: 949000002 cycles: 1431402056 heartbeat IPC: 0.818442 cumulative IPC: 0.796757 (Simulation time: 1 hr 19 min 44 sec) 
Heartbeat CPU 0 instructions: 950000000 cycles: 1432610327 heartbeat IPC: 0.827627 cumulative IPC: 0.796817 (Simulation time: 1 hr 19 min 47 sec) 
Finished CPU 0 instructions: 500000000 cycles: 627496905 cumulative IPC: 0.796817 (Simulation time: 1 hr 19 min 47 sec) 

ChampSim completed all CPUs

Region of Interest Statistics

CPU 0 cumulative IPC: 0.796817 instructions: 500000000 cycles: 627496905
L1D TOTAL     ACCESS:  145032613  HIT:  136635185  MISS:    8397428
L1D LOAD      ACCESS:   95131821  HIT:   86738954  MISS:    8392867
L1D RFO       ACCESS:   49900792  HIT:   49896231  MISS:       4561
L1D PREFETCH  ACCESS:          0  HIT:          0  MISS:          0
L1D WRITEBACK ACCESS:          0  HIT:          0  MISS:          0
L1D PREFETCH  REQUESTED:          0  ISSUED:          0  USEFUL:          0  USELESS:          0
L1D AVERAGE MISS LATENCY: 32.8312 cycles
L1I TOTAL     ACCESS:  113157293  HIT:  113157292  MISS:          1
L1I LOAD      ACCESS:  113157293  HIT:  113157292  MISS:          1
L1I RFO       ACCESS:          0  HIT:          0  MISS:          0
L1I PREFETCH  ACCESS:          0  HIT:          0  MISS:          0
L1I WRITEBACK ACCESS:          0  HIT:          0  MISS:          0
L1I PREFETCH  REQUESTED:          0  ISSUED:          0  USEFUL:          0  USELESS:          0
L1I AVERAGE MISS LATENCY: 215 cycles
L2C TOTAL     ACCESS:    8474323  HIT:    4290133  MISS:    4184190
L2C LOAD      ACCESS:    8392868  HIT:    4212575  MISS:    4180293
L2C RFO       ACCESS:       4561  HIT:        680  MISS:       3881
L2C PREFETCH  ACCESS:          0  HIT:          0  MISS:          0
L2C WRITEBACK ACCESS:      76894  HIT:      76878  MISS:         16
L2C PREFETCH  REQUESTED:          0  ISSUED:          0  USEFUL:          0  USELESS:          0
L2C AVERAGE MISS LATENCY: 35.6405 cycles
LLC TOTAL     ACCESS:   12298904  HIT:    7891274  MISS:    4407630
LLC LOAD      ACCESS:    4180293  HIT:    3966035  MISS:     214258
LLC RFO       ACCESS:       3881  HIT:        282  MISS:       3599
LLC PREFETCH  ACCESS:    8079386  HIT:    3897817  MISS:    4181569
LLC WRITEBACK ACCESS:      35344  HIT:      27140  MISS:       8204
LLC PREFETCH  REQUESTED:    8360584  ISSUED:    8191885  USEFUL:    3958063  USELESS:     222102
LLC AVERAGE MISS LATENCY: 81.9647 cycles
Major fault: 0 Minor fault: 11943

DRAM Statistics
 CHANNEL 0
 RQ ROW_BUFFER_HIT:    3949427  ROW_BUFFER_MISS:     449998
 DBUS_CONGESTED:     168216
 WQ ROW_BUFFER_HIT:      29224  ROW_BUFFER_MISS:       6521  FULL:          0

 AVG_CONGESTED_CYCLE: 6

CPU 0 Branch Prediction Accuracy: 99.9495% MPKI: 0.120038 Average ROB Occupancy at Mispredict: 131.032

Branch types
NOT_BRANCH: 381115530 76.2231%
BRANCH_DIRECT_JUMP: 12417654 2.48353%
BRANCH_INDIRECT: 0 0%
BRANCH_CONDITIONAL: 93975703 18.7951%
BRANCH_DIRECT_CALL: 6245511 1.2491%
BRANCH_INDIRECT_CALL: 40 8e-06%
BRANCH_RETURN: 6245551 1.24911%
BRANCH_OTHER: 0 0%

