
*** ChampSim Multicore Out-of-Order Simulator ***

Warmup Instructions: 1000000
Prefetch Warmup Instructions: 450000000
Simulation Instructions: 500000000
Stat Printing Period: 1000000
Number of CPUs: 1
LLC sets: 2048
LLC ways: 16
Off-chip DRAM Size: 4096 MB Channels: 1 Width: 64-bit Data Rate: 3200 MT/s

CPU 0 runs /scratch/cluster/cmolder/ML-DPC/ChampSimTraces/spec17/602.gcc-s1.trace.xz
Read seed: 270
Heartbeat CPU 0 instructions: 1000000 cycles: 486574 heartbeat IPC: 2.05519 cumulative IPC: 2.05519 (Simulation time: 0 hr 0 min 6 sec) 

Warmup complete CPU 0 instructions: 1000004 cycles: 486575 (Simulation time: 0 hr 0 min 6 sec) 

Heartbeat CPU 0 instructions: 2000003 cycles: 9734345 heartbeat IPC: 0.108134 cumulative IPC: 0.108134 (Simulation time: 0 hr 0 min 21 sec) 
Heartbeat CPU 0 instructions: 3000002 cycles: 18973965 heartbeat IPC: 0.108229 cumulative IPC: 0.108182 (Simulation time: 0 hr 0 min 37 sec) 
Heartbeat CPU 0 instructions: 4000000 cycles: 28192318 heartbeat IPC: 0.108479 cumulative IPC: 0.108281 (Simulation time: 0 hr 0 min 53 sec) 
Heartbeat CPU 0 instructions: 5000002 cycles: 37413943 heartbeat IPC: 0.108441 cumulative IPC: 0.108321 (Simulation time: 0 hr 1 min 9 sec) 
Heartbeat CPU 0 instructions: 6000000 cycles: 45886823 heartbeat IPC: 0.118023 cumulative IPC: 0.110131 (Simulation time: 0 hr 1 min 24 sec) 
Heartbeat CPU 0 instructions: 7000001 cycles: 55151446 heartbeat IPC: 0.107938 cumulative IPC: 0.10976 (Simulation time: 0 hr 1 min 40 sec) 
Heartbeat CPU 0 instructions: 8000000 cycles: 64383138 heartbeat IPC: 0.108322 cumulative IPC: 0.109552 (Simulation time: 0 hr 1 min 56 sec) 
Heartbeat CPU 0 instructions: 9000000 cycles: 73649016 heartbeat IPC: 0.107923 cumulative IPC: 0.109346 (Simulation time: 0 hr 2 min 12 sec) 
Heartbeat CPU 0 instructions: 10000002 cycles: 82940325 heartbeat IPC: 0.107628 cumulative IPC: 0.109152 (Simulation time: 0 hr 2 min 28 sec) 
Heartbeat CPU 0 instructions: 11000000 cycles: 92204435 heartbeat IPC: 0.107943 cumulative IPC: 0.10903 (Simulation time: 0 hr 2 min 43 sec) 
Heartbeat CPU 0 instructions: 12000001 cycles: 101463359 heartbeat IPC: 0.108004 cumulative IPC: 0.108936 (Simulation time: 0 hr 2 min 59 sec) 
Heartbeat CPU 0 instructions: 13000002 cycles: 110750381 heartbeat IPC: 0.107677 cumulative IPC: 0.10883 (Simulation time: 0 hr 3 min 15 sec) 
Heartbeat CPU 0 instructions: 14000001 cycles: 120022520 heartbeat IPC: 0.10785 cumulative IPC: 0.108754 (Simulation time: 0 hr 3 min 31 sec) 
Heartbeat CPU 0 instructions: 15000000 cycles: 129287719 heartbeat IPC: 0.107931 cumulative IPC: 0.108695 (Simulation time: 0 hr 3 min 47 sec) 
Heartbeat CPU 0 instructions: 16000001 cycles: 138540249 heartbeat IPC: 0.108079 cumulative IPC: 0.108653 (Simulation time: 0 hr 4 min 3 sec) 
Heartbeat CPU 0 instructions: 17000001 cycles: 147832663 heartbeat IPC: 0.107615 cumulative IPC: 0.108588 (Simulation time: 0 hr 4 min 19 sec) 
Heartbeat CPU 0 instructions: 18000000 cycles: 157100364 heartbeat IPC: 0.107902 cumulative IPC: 0.108547 (Simulation time: 0 hr 4 min 35 sec) 
Heartbeat CPU 0 instructions: 19000001 cycles: 166367831 heartbeat IPC: 0.107904 cumulative IPC: 0.108511 (Simulation time: 0 hr 4 min 52 sec) 
Heartbeat CPU 0 instructions: 20000000 cycles: 175619432 heartbeat IPC: 0.108089 cumulative IPC: 0.108489 (Simulation time: 0 hr 5 min 8 sec) 
Heartbeat CPU 0 instructions: 21000002 cycles: 184887548 heartbeat IPC: 0.107897 cumulative IPC: 0.108459 (Simulation time: 0 hr 5 min 24 sec) 
Heartbeat CPU 0 instructions: 22000000 cycles: 194173093 heartbeat IPC: 0.107694 cumulative IPC: 0.108423 (Simulation time: 0 hr 5 min 39 sec) 
Heartbeat CPU 0 instructions: 23000001 cycles: 203410880 heartbeat IPC: 0.108251 cumulative IPC: 0.108415 (Simulation time: 0 hr 5 min 54 sec) 
Heartbeat CPU 0 instructions: 24000003 cycles: 212675027 heartbeat IPC: 0.107943 cumulative IPC: 0.108394 (Simulation time: 0 hr 6 min 9 sec) 
Heartbeat CPU 0 instructions: 25000000 cycles: 221970673 heartbeat IPC: 0.107577 cumulative IPC: 0.10836 (Simulation time: 0 hr 6 min 25 sec) 
Heartbeat CPU 0 instructions: 26000000 cycles: 231283564 heartbeat IPC: 0.107378 cumulative IPC: 0.10832 (Simulation time: 0 hr 6 min 40 sec) 
Heartbeat CPU 0 instructions: 27000000 cycles: 240572714 heartbeat IPC: 0.107652 cumulative IPC: 0.108294 (Simulation time: 0 hr 6 min 55 sec) 
Heartbeat CPU 0 instructions: 28000000 cycles: 249869596 heartbeat IPC: 0.107563 cumulative IPC: 0.108267 (Simulation time: 0 hr 7 min 10 sec) 
Heartbeat CPU 0 instructions: 29000000 cycles: 259180354 heartbeat IPC: 0.107403 cumulative IPC: 0.108236 (Simulation time: 0 hr 7 min 26 sec) 
Heartbeat CPU 0 instructions: 30000001 cycles: 268444038 heartbeat IPC: 0.107949 cumulative IPC: 0.108226 (Simulation time: 0 hr 7 min 42 sec) 
Heartbeat CPU 0 instructions: 31000001 cycles: 277725862 heartbeat IPC: 0.107737 cumulative IPC: 0.10821 (Simulation time: 0 hr 7 min 58 sec) 
Heartbeat CPU 0 instructions: 32000001 cycles: 287016702 heartbeat IPC: 0.107633 cumulative IPC: 0.108191 (Simulation time: 0 hr 8 min 13 sec) 
Heartbeat CPU 0 instructions: 33000000 cycles: 296280794 heartbeat IPC: 0.107944 cumulative IPC: 0.108183 (Simulation time: 0 hr 8 min 28 sec) 
Heartbeat CPU 0 instructions: 34000003 cycles: 305577365 heartbeat IPC: 0.107567 cumulative IPC: 0.108165 (Simulation time: 0 hr 8 min 44 sec) 
Heartbeat CPU 0 instructions: 35000000 cycles: 314901547 heartbeat IPC: 0.107248 cumulative IPC: 0.108137 (Simulation time: 0 hr 8 min 59 sec) 
Heartbeat CPU 0 instructions: 36000003 cycles: 324203362 heartbeat IPC: 0.107506 cumulative IPC: 0.108119 (Simulation time: 0 hr 9 min 14 sec) 
Heartbeat CPU 0 instructions: 37000003 cycles: 333519186 heartbeat IPC: 0.107344 cumulative IPC: 0.108098 (Simulation time: 0 hr 9 min 30 sec) 
Heartbeat CPU 0 instructions: 38000000 cycles: 342794173 heartbeat IPC: 0.107817 cumulative IPC: 0.10809 (Simulation time: 0 hr 9 min 45 sec) 
Heartbeat CPU 0 instructions: 39000000 cycles: 352021478 heartbeat IPC: 0.108374 cumulative IPC: 0.108097 (Simulation time: 0 hr 10 min 0 sec) 
Heartbeat CPU 0 instructions: 40000002 cycles: 361262077 heartbeat IPC: 0.108218 cumulative IPC: 0.1081 (Simulation time: 0 hr 10 min 15 sec) 
Heartbeat CPU 0 instructions: 41000000 cycles: 370486249 heartbeat IPC: 0.108411 cumulative IPC: 0.108108 (Simulation time: 0 hr 10 min 31 sec) 
Heartbeat CPU 0 instructions: 42000002 cycles: 378960211 heartbeat IPC: 0.118009 cumulative IPC: 0.10833 (Simulation time: 0 hr 10 min 46 sec) 
Heartbeat CPU 0 instructions: 43000000 cycles: 388217999 heartbeat IPC: 0.108017 cumulative IPC: 0.108322 (Simulation time: 0 hr 11 min 3 sec) 
Heartbeat CPU 0 instructions: 44000000 cycles: 397455778 heartbeat IPC: 0.108251 cumulative IPC: 0.108321 (Simulation time: 0 hr 11 min 19 sec) 
Heartbeat CPU 0 instructions: 45000000 cycles: 406719813 heartbeat IPC: 0.107944 cumulative IPC: 0.108312 (Simulation time: 0 hr 11 min 34 sec) 
Heartbeat CPU 0 instructions: 46000003 cycles: 415991795 heartbeat IPC: 0.107852 cumulative IPC: 0.108302 (Simulation time: 0 hr 11 min 50 sec) 
Heartbeat CPU 0 instructions: 47000001 cycles: 425268186 heartbeat IPC: 0.1078 cumulative IPC: 0.108291 (Simulation time: 0 hr 12 min 6 sec) 
Heartbeat CPU 0 instructions: 48000000 cycles: 434516805 heartbeat IPC: 0.108124 cumulative IPC: 0.108287 (Simulation time: 0 hr 12 min 22 sec) 
Heartbeat CPU 0 instructions: 49000003 cycles: 443814155 heartbeat IPC: 0.107558 cumulative IPC: 0.108272 (Simulation time: 0 hr 12 min 38 sec) 
Heartbeat CPU 0 instructions: 50000000 cycles: 453085281 heartbeat IPC: 0.107861 cumulative IPC: 0.108264 (Simulation time: 0 hr 12 min 55 sec) 
Heartbeat CPU 0 instructions: 51000002 cycles: 462344847 heartbeat IPC: 0.107997 cumulative IPC: 0.108258 (Simulation time: 0 hr 13 min 11 sec) 
Heartbeat CPU 0 instructions: 52000000 cycles: 471601455 heartbeat IPC: 0.108031 cumulative IPC: 0.108254 (Simulation time: 0 hr 13 min 26 sec) 
Heartbeat CPU 0 instructions: 53000003 cycles: 480869585 heartbeat IPC: 0.107897 cumulative IPC: 0.108247 (Simulation time: 0 hr 13 min 42 sec) 
Heartbeat CPU 0 instructions: 54000000 cycles: 490179547 heartbeat IPC: 0.107412 cumulative IPC: 0.108231 (Simulation time: 0 hr 13 min 58 sec) 
Heartbeat CPU 0 instructions: 55000000 cycles: 499425481 heartbeat IPC: 0.108156 cumulative IPC: 0.10823 (Simulation time: 0 hr 14 min 15 sec) 
Heartbeat CPU 0 instructions: 56000002 cycles: 508672407 heartbeat IPC: 0.108144 cumulative IPC: 0.108228 (Simulation time: 0 hr 14 min 30 sec) 
Heartbeat CPU 0 instructions: 57000001 cycles: 517965206 heartbeat IPC: 0.10761 cumulative IPC: 0.108217 (Simulation time: 0 hr 14 min 46 sec) 
Heartbeat CPU 0 instructions: 58000000 cycles: 527219949 heartbeat IPC: 0.108053 cumulative IPC: 0.108214 (Simulation time: 0 hr 15 min 1 sec) 
Heartbeat CPU 0 instructions: 59000002 cycles: 536489710 heartbeat IPC: 0.107878 cumulative IPC: 0.108208 (Simulation time: 0 hr 15 min 15 sec) 
Heartbeat CPU 0 instructions: 60000002 cycles: 545714016 heartbeat IPC: 0.108409 cumulative IPC: 0.108212 (Simulation time: 0 hr 15 min 30 sec) 
Heartbeat CPU 0 instructions: 61000002 cycles: 555015551 heartbeat IPC: 0.107509 cumulative IPC: 0.1082 (Simulation time: 0 hr 15 min 45 sec) 
Heartbeat CPU 0 instructions: 62000002 cycles: 564326478 heartbeat IPC: 0.107401 cumulative IPC: 0.108187 (Simulation time: 0 hr 16 min 1 sec) 
Heartbeat CPU 0 instructions: 63000001 cycles: 573604786 heartbeat IPC: 0.107778 cumulative IPC: 0.10818 (Simulation time: 0 hr 16 min 17 sec) 
Heartbeat CPU 0 instructions: 64000000 cycles: 582918277 heartbeat IPC: 0.107371 cumulative IPC: 0.108167 (Simulation time: 0 hr 16 min 33 sec) 
Heartbeat CPU 0 instructions: 65000000 cycles: 592201634 heartbeat IPC: 0.10772 cumulative IPC: 0.10816 (Simulation time: 0 hr 16 min 49 sec) 
Heartbeat CPU 0 instructions: 66000000 cycles: 601508262 heartbeat IPC: 0.10745 cumulative IPC: 0.108149 (Simulation time: 0 hr 17 min 6 sec) 
Heartbeat CPU 0 instructions: 67000000 cycles: 610779446 heartbeat IPC: 0.107861 cumulative IPC: 0.108145 (Simulation time: 0 hr 17 min 22 sec) 
Heartbeat CPU 0 instructions: 68000000 cycles: 620075339 heartbeat IPC: 0.107574 cumulative IPC: 0.108136 (Simulation time: 0 hr 17 min 39 sec) 
Heartbeat CPU 0 instructions: 69000001 cycles: 629336741 heartbeat IPC: 0.107975 cumulative IPC: 0.108134 (Simulation time: 0 hr 17 min 55 sec) 
Heartbeat CPU 0 instructions: 70000000 cycles: 638616376 heartbeat IPC: 0.107763 cumulative IPC: 0.108128 (Simulation time: 0 hr 18 min 11 sec) 
Heartbeat CPU 0 instructions: 71000000 cycles: 647952876 heartbeat IPC: 0.107107 cumulative IPC: 0.108114 (Simulation time: 0 hr 18 min 26 sec) 
Heartbeat CPU 0 instructions: 72000000 cycles: 657241739 heartbeat IPC: 0.107656 cumulative IPC: 0.108107 (Simulation time: 0 hr 18 min 42 sec) 
Heartbeat CPU 0 instructions: 73000003 cycles: 666552831 heartbeat IPC: 0.107399 cumulative IPC: 0.108097 (Simulation time: 0 hr 18 min 57 sec) 
Heartbeat CPU 0 instructions: 74000000 cycles: 675860116 heartbeat IPC: 0.107442 cumulative IPC: 0.108088 (Simulation time: 0 hr 19 min 12 sec) 
Heartbeat CPU 0 instructions: 75000000 cycles: 685108006 heartbeat IPC: 0.108133 cumulative IPC: 0.108089 (Simulation time: 0 hr 19 min 28 sec) 
Heartbeat CPU 0 instructions: 76000001 cycles: 694344764 heartbeat IPC: 0.108263 cumulative IPC: 0.108091 (Simulation time: 0 hr 19 min 44 sec) 
Heartbeat CPU 0 instructions: 77000000 cycles: 703559673 heartbeat IPC: 0.10852 cumulative IPC: 0.108097 (Simulation time: 0 hr 19 min 59 sec) 
Heartbeat CPU 0 instructions: 78000001 cycles: 712780989 heartbeat IPC: 0.108444 cumulative IPC: 0.108101 (Simulation time: 0 hr 20 min 14 sec) 
Heartbeat CPU 0 instructions: 79000003 cycles: 721254287 heartbeat IPC: 0.118018 cumulative IPC: 0.108218 (Simulation time: 0 hr 20 min 29 sec) 
Heartbeat CPU 0 instructions: 80000000 cycles: 730514658 heartbeat IPC: 0.107987 cumulative IPC: 0.108215 (Simulation time: 0 hr 20 min 45 sec) 
Heartbeat CPU 0 instructions: 81000000 cycles: 739764324 heartbeat IPC: 0.108112 cumulative IPC: 0.108214 (Simulation time: 0 hr 21 min 0 sec) 
Heartbeat CPU 0 instructions: 82000002 cycles: 749016630 heartbeat IPC: 0.108081 cumulative IPC: 0.108212 (Simulation time: 0 hr 21 min 16 sec) 
Heartbeat CPU 0 instructions: 83000000 cycles: 758304770 heartbeat IPC: 0.107664 cumulative IPC: 0.108205 (Simulation time: 0 hr 21 min 32 sec) 
Heartbeat CPU 0 instructions: 84000000 cycles: 767564207 heartbeat IPC: 0.107998 cumulative IPC: 0.108203 (Simulation time: 0 hr 21 min 49 sec) 
Heartbeat CPU 0 instructions: 85000000 cycles: 776838756 heartbeat IPC: 0.107822 cumulative IPC: 0.108198 (Simulation time: 0 hr 22 min 5 sec) 
Heartbeat CPU 0 instructions: 86000002 cycles: 786134025 heartbeat IPC: 0.107582 cumulative IPC: 0.108191 (Simulation time: 0 hr 22 min 21 sec) 
Heartbeat CPU 0 instructions: 87000000 cycles: 795388074 heartbeat IPC: 0.108061 cumulative IPC: 0.10819 (Simulation time: 0 hr 22 min 37 sec) 
Heartbeat CPU 0 instructions: 88000000 cycles: 804658818 heartbeat IPC: 0.107866 cumulative IPC: 0.108186 (Simulation time: 0 hr 22 min 54 sec) 
Heartbeat CPU 0 instructions: 89000003 cycles: 813907211 heartbeat IPC: 0.108127 cumulative IPC: 0.108185 (Simulation time: 0 hr 23 min 10 sec) 
Heartbeat CPU 0 instructions: 90000001 cycles: 823205207 heartbeat IPC: 0.10755 cumulative IPC: 0.108178 (Simulation time: 0 hr 23 min 26 sec) 
Heartbeat CPU 0 instructions: 91000000 cycles: 832463057 heartbeat IPC: 0.108016 cumulative IPC: 0.108176 (Simulation time: 0 hr 23 min 43 sec) 
Heartbeat CPU 0 instructions: 92000002 cycles: 841724298 heartbeat IPC: 0.107977 cumulative IPC: 0.108174 (Simulation time: 0 hr 23 min 59 sec) 
Heartbeat CPU 0 instructions: 93000002 cycles: 850983446 heartbeat IPC: 0.108001 cumulative IPC: 0.108172 (Simulation time: 0 hr 24 min 15 sec) 
Heartbeat CPU 0 instructions: 94000001 cycles: 860245161 heartbeat IPC: 0.107971 cumulative IPC: 0.10817 (Simulation time: 0 hr 24 min 32 sec) 
Heartbeat CPU 0 instructions: 95000002 cycles: 869537069 heartbeat IPC: 0.107621 cumulative IPC: 0.108164 (Simulation time: 0 hr 24 min 48 sec) 
Heartbeat CPU 0 instructions: 96000001 cycles: 878768200 heartbeat IPC: 0.108329 cumulative IPC: 0.108166 (Simulation time: 0 hr 25 min 5 sec) 
Heartbeat CPU 0 instructions: 97000001 cycles: 888056010 heartbeat IPC: 0.107668 cumulative IPC: 0.108161 (Simulation time: 0 hr 25 min 21 sec) 
Heartbeat CPU 0 instructions: 98000003 cycles: 897354413 heartbeat IPC: 0.107546 cumulative IPC: 0.108154 (Simulation time: 0 hr 25 min 37 sec) 
Heartbeat CPU 0 instructions: 99000000 cycles: 906656510 heartbeat IPC: 0.107502 cumulative IPC: 0.108147 (Simulation time: 0 hr 25 min 53 sec) 
Heartbeat CPU 0 instructions: 100000001 cycles: 915941887 heartbeat IPC: 0.107696 cumulative IPC: 0.108143 (Simulation time: 0 hr 26 min 8 sec) 
Heartbeat CPU 0 instructions: 101000001 cycles: 925247482 heartbeat IPC: 0.107462 cumulative IPC: 0.108136 (Simulation time: 0 hr 26 min 24 sec) 
Heartbeat CPU 0 instructions: 102000002 cycles: 934542599 heartbeat IPC: 0.107583 cumulative IPC: 0.108131 (Simulation time: 0 hr 26 min 39 sec) 
Heartbeat CPU 0 instructions: 103000001 cycles: 943807484 heartbeat IPC: 0.107934 cumulative IPC: 0.108129 (Simulation time: 0 hr 26 min 56 sec) 
Heartbeat CPU 0 instructions: 104000000 cycles: 953101527 heartbeat IPC: 0.107596 cumulative IPC: 0.108123 (Simulation time: 0 hr 27 min 12 sec) 
Heartbeat CPU 0 instructions: 105000003 cycles: 962376602 heartbeat IPC: 0.107816 cumulative IPC: 0.10812 (Simulation time: 0 hr 27 min 28 sec) 
Heartbeat CPU 0 instructions: 106000000 cycles: 971642673 heartbeat IPC: 0.10792 cumulative IPC: 0.108119 (Simulation time: 0 hr 27 min 45 sec) 
Heartbeat CPU 0 instructions: 107000000 cycles: 980959023 heartbeat IPC: 0.107338 cumulative IPC: 0.108111 (Simulation time: 0 hr 28 min 1 sec) 
Heartbeat CPU 0 instructions: 108000001 cycles: 990275898 heartbeat IPC: 0.107332 cumulative IPC: 0.108104 (Simulation time: 0 hr 28 min 17 sec) 
Heartbeat CPU 0 instructions: 109000002 cycles: 999570186 heartbeat IPC: 0.107593 cumulative IPC: 0.108099 (Simulation time: 0 hr 28 min 33 sec) 
Heartbeat CPU 0 instructions: 110000000 cycles: 1008890695 heartbeat IPC: 0.10729 cumulative IPC: 0.108092 (Simulation time: 0 hr 28 min 49 sec) 
Heartbeat CPU 0 instructions: 111000001 cycles: 1018159491 heartbeat IPC: 0.107889 cumulative IPC: 0.10809 (Simulation time: 0 hr 29 min 4 sec) 
Heartbeat CPU 0 instructions: 112000000 cycles: 1027389167 heartbeat IPC: 0.108346 cumulative IPC: 0.108092 (Simulation time: 0 hr 29 min 19 sec) 
Heartbeat CPU 0 instructions: 113000000 cycles: 1036613860 heartbeat IPC: 0.108405 cumulative IPC: 0.108095 (Simulation time: 0 hr 29 min 33 sec) 
Heartbeat CPU 0 instructions: 114000000 cycles: 1045845534 heartbeat IPC: 0.108323 cumulative IPC: 0.108097 (Simulation time: 0 hr 29 min 48 sec) 
Heartbeat CPU 0 instructions: 115000000 cycles: 1053119676 heartbeat IPC: 0.137473 cumulative IPC: 0.1083 (Simulation time: 0 hr 30 min 1 sec) 
Heartbeat CPU 0 instructions: 116000000 cycles: 1062387608 heartbeat IPC: 0.107899 cumulative IPC: 0.108296 (Simulation time: 0 hr 30 min 16 sec) 
Heartbeat CPU 0 instructions: 117000001 cycles: 1071625965 heartbeat IPC: 0.108244 cumulative IPC: 0.108296 (Simulation time: 0 hr 30 min 30 sec) 
Heartbeat CPU 0 instructions: 118000000 cycles: 1080884656 heartbeat IPC: 0.108007 cumulative IPC: 0.108293 (Simulation time: 0 hr 30 min 45 sec) 
Heartbeat CPU 0 instructions: 119000001 cycles: 1090155928 heartbeat IPC: 0.10786 cumulative IPC: 0.10829 (Simulation time: 0 hr 31 min 0 sec) 
Heartbeat CPU 0 instructions: 120000000 cycles: 1099435497 heartbeat IPC: 0.107764 cumulative IPC: 0.108285 (Simulation time: 0 hr 31 min 15 sec) 
Heartbeat CPU 0 instructions: 121000000 cycles: 1108683784 heartbeat IPC: 0.108128 cumulative IPC: 0.108284 (Simulation time: 0 hr 31 min 30 sec) 
Heartbeat CPU 0 instructions: 122000000 cycles: 1117983972 heartbeat IPC: 0.107525 cumulative IPC: 0.108278 (Simulation time: 0 hr 31 min 45 sec) 
Heartbeat CPU 0 instructions: 123000001 cycles: 1127258216 heartbeat IPC: 0.107826 cumulative IPC: 0.108274 (Simulation time: 0 hr 31 min 59 sec) 
Heartbeat CPU 0 instructions: 124000001 cycles: 1136513550 heartbeat IPC: 0.108046 cumulative IPC: 0.108272 (Simulation time: 0 hr 32 min 14 sec) 
Heartbeat CPU 0 instructions: 125000001 cycles: 1145774461 heartbeat IPC: 0.107981 cumulative IPC: 0.10827 (Simulation time: 0 hr 32 min 28 sec) 
Heartbeat CPU 0 instructions: 126000003 cycles: 1155035556 heartbeat IPC: 0.107979 cumulative IPC: 0.108267 (Simulation time: 0 hr 32 min 43 sec) 
Heartbeat CPU 0 instructions: 127000001 cycles: 1164349745 heartbeat IPC: 0.107363 cumulative IPC: 0.10826 (Simulation time: 0 hr 32 min 57 sec) 
Heartbeat CPU 0 instructions: 128000001 cycles: 1173596641 heartbeat IPC: 0.108144 cumulative IPC: 0.108259 (Simulation time: 0 hr 33 min 12 sec) 
Heartbeat CPU 0 instructions: 129000000 cycles: 1182842420 heartbeat IPC: 0.108157 cumulative IPC: 0.108258 (Simulation time: 0 hr 33 min 27 sec) 
Heartbeat CPU 0 instructions: 130000001 cycles: 1192127059 heartbeat IPC: 0.107705 cumulative IPC: 0.108254 (Simulation time: 0 hr 33 min 42 sec) 
Heartbeat CPU 0 instructions: 131000000 cycles: 1201382281 heartbeat IPC: 0.108047 cumulative IPC: 0.108253 (Simulation time: 0 hr 33 min 56 sec) 
Heartbeat CPU 0 instructions: 132000000 cycles: 1210656008 heartbeat IPC: 0.107832 cumulative IPC: 0.108249 (Simulation time: 0 hr 34 min 11 sec) 
Heartbeat CPU 0 instructions: 133000001 cycles: 1219875202 heartbeat IPC: 0.108469 cumulative IPC: 0.108251 (Simulation time: 0 hr 34 min 27 sec) 
Heartbeat CPU 0 instructions: 134000001 cycles: 1229185818 heartbeat IPC: 0.107404 cumulative IPC: 0.108245 (Simulation time: 0 hr 34 min 42 sec) 
Heartbeat CPU 0 instructions: 135000000 cycles: 1238494111 heartbeat IPC: 0.107431 cumulative IPC: 0.108238 (Simulation time: 0 hr 34 min 57 sec) 
Heartbeat CPU 0 instructions: 136000000 cycles: 1247775063 heartbeat IPC: 0.107748 cumulative IPC: 0.108235 (Simulation time: 0 hr 35 min 12 sec) 
Heartbeat CPU 0 instructions: 137000002 cycles: 1257082338 heartbeat IPC: 0.107443 cumulative IPC: 0.108229 (Simulation time: 0 hr 35 min 26 sec) 
Heartbeat CPU 0 instructions: 138000000 cycles: 1266363855 heartbeat IPC: 0.107741 cumulative IPC: 0.108225 (Simulation time: 0 hr 35 min 41 sec) 
Heartbeat CPU 0 instructions: 139000001 cycles: 1275674423 heartbeat IPC: 0.107405 cumulative IPC: 0.108219 (Simulation time: 0 hr 35 min 57 sec) 
Heartbeat CPU 0 instructions: 140000000 cycles: 1284946683 heartbeat IPC: 0.107848 cumulative IPC: 0.108217 (Simulation time: 0 hr 36 min 12 sec) 
Heartbeat CPU 0 instructions: 141000001 cycles: 1294236992 heartbeat IPC: 0.107639 cumulative IPC: 0.108213 (Simulation time: 0 hr 36 min 26 sec) 
Heartbeat CPU 0 instructions: 142000000 cycles: 1303500373 heartbeat IPC: 0.107952 cumulative IPC: 0.108211 (Simulation time: 0 hr 36 min 42 sec) 
Heartbeat CPU 0 instructions: 143000000 cycles: 1312772278 heartbeat IPC: 0.107853 cumulative IPC: 0.108208 (Simulation time: 0 hr 36 min 57 sec) 
Heartbeat CPU 0 instructions: 144000003 cycles: 1322106671 heartbeat IPC: 0.107131 cumulative IPC: 0.108201 (Simulation time: 0 hr 37 min 12 sec) 
Heartbeat CPU 0 instructions: 145000001 cycles: 1331399518 heartbeat IPC: 0.107609 cumulative IPC: 0.108196 (Simulation time: 0 hr 37 min 28 sec) 
Heartbeat CPU 0 instructions: 146000000 cycles: 1340706133 heartbeat IPC: 0.10745 cumulative IPC: 0.108191 (Simulation time: 0 hr 37 min 43 sec) 
Heartbeat CPU 0 instructions: 147000000 cycles: 1350012550 heartbeat IPC: 0.107453 cumulative IPC: 0.108186 (Simulation time: 0 hr 37 min 59 sec) 
Heartbeat CPU 0 instructions: 148000000 cycles: 1359266274 heartbeat IPC: 0.108065 cumulative IPC: 0.108185 (Simulation time: 0 hr 38 min 13 sec) 
Heartbeat CPU 0 instructions: 149000000 cycles: 1368493283 heartbeat IPC: 0.108377 cumulative IPC: 0.108187 (Simulation time: 0 hr 38 min 28 sec) 
Heartbeat CPU 0 instructions: 150000001 cycles: 1377710627 heartbeat IPC: 0.108491 cumulative IPC: 0.108189 (Simulation time: 0 hr 38 min 43 sec) 
Heartbeat CPU 0 instructions: 151000000 cycles: 1386939776 heartbeat IPC: 0.108352 cumulative IPC: 0.10819 (Simulation time: 0 hr 38 min 57 sec) 
Heartbeat CPU 0 instructions: 152000001 cycles: 1395425796 heartbeat IPC: 0.117841 cumulative IPC: 0.108248 (Simulation time: 0 hr 39 min 11 sec) 
Heartbeat CPU 0 instructions: 153000002 cycles: 1404681901 heartbeat IPC: 0.108037 cumulative IPC: 0.108247 (Simulation time: 0 hr 39 min 26 sec) 
Heartbeat CPU 0 instructions: 154000000 cycles: 1413938671 heartbeat IPC: 0.108029 cumulative IPC: 0.108246 (Simulation time: 0 hr 39 min 42 sec) 
Heartbeat CPU 0 instructions: 155000000 cycles: 1423194931 heartbeat IPC: 0.108035 cumulative IPC: 0.108244 (Simulation time: 0 hr 39 min 58 sec) 
Heartbeat CPU 0 instructions: 156000000 cycles: 1432487904 heartbeat IPC: 0.107608 cumulative IPC: 0.10824 (Simulation time: 0 hr 40 min 14 sec) 
Heartbeat CPU 0 instructions: 157000000 cycles: 1441741648 heartbeat IPC: 0.108064 cumulative IPC: 0.108239 (Simulation time: 0 hr 40 min 28 sec) 
Heartbeat CPU 0 instructions: 158000001 cycles: 1451017373 heartbeat IPC: 0.107808 cumulative IPC: 0.108236 (Simulation time: 0 hr 40 min 43 sec) 
Heartbeat CPU 0 instructions: 159000000 cycles: 1460308015 heartbeat IPC: 0.107635 cumulative IPC: 0.108232 (Simulation time: 0 hr 40 min 58 sec) 
Heartbeat CPU 0 instructions: 160000002 cycles: 1469573146 heartbeat IPC: 0.107932 cumulative IPC: 0.108231 (Simulation time: 0 hr 41 min 12 sec) 
Heartbeat CPU 0 instructions: 161000001 cycles: 1478833575 heartbeat IPC: 0.107986 cumulative IPC: 0.108229 (Simulation time: 0 hr 41 min 28 sec) 
Heartbeat CPU 0 instructions: 162000000 cycles: 1488080524 heartbeat IPC: 0.108144 cumulative IPC: 0.108228 (Simulation time: 0 hr 41 min 45 sec) 
Heartbeat CPU 0 instructions: 163000003 cycles: 1497374476 heartbeat IPC: 0.107597 cumulative IPC: 0.108225 (Simulation time: 0 hr 42 min 1 sec) 
Heartbeat CPU 0 instructions: 164000001 cycles: 1506632919 heartbeat IPC: 0.108009 cumulative IPC: 0.108223 (Simulation time: 0 hr 42 min 16 sec) 
Heartbeat CPU 0 instructions: 165000000 cycles: 1515906378 heartbeat IPC: 0.107835 cumulative IPC: 0.108221 (Simulation time: 0 hr 42 min 31 sec) 
Heartbeat CPU 0 instructions: 166000000 cycles: 1525164549 heartbeat IPC: 0.108013 cumulative IPC: 0.10822 (Simulation time: 0 hr 42 min 45 sec) 
Heartbeat CPU 0 instructions: 167000001 cycles: 1534430018 heartbeat IPC: 0.107928 cumulative IPC: 0.108218 (Simulation time: 0 hr 43 min 0 sec) 
Heartbeat CPU 0 instructions: 168000001 cycles: 1543710972 heartbeat IPC: 0.107748 cumulative IPC: 0.108215 (Simulation time: 0 hr 43 min 15 sec) 
Heartbeat CPU 0 instructions: 169000001 cycles: 1552949658 heartbeat IPC: 0.108241 cumulative IPC: 0.108215 (Simulation time: 0 hr 43 min 30 sec) 
Heartbeat CPU 0 instructions: 170000001 cycles: 1562237014 heartbeat IPC: 0.107673 cumulative IPC: 0.108212 (Simulation time: 0 hr 43 min 44 sec) 
Heartbeat CPU 0 instructions: 171000000 cycles: 1571528180 heartbeat IPC: 0.107629 cumulative IPC: 0.108208 (Simulation time: 0 hr 43 min 59 sec) 
Heartbeat CPU 0 instructions: 172000002 cycles: 1580833645 heartbeat IPC: 0.107464 cumulative IPC: 0.108204 (Simulation time: 0 hr 44 min 13 sec) 
Heartbeat CPU 0 instructions: 173000001 cycles: 1590113547 heartbeat IPC: 0.10776 cumulative IPC: 0.108201 (Simulation time: 0 hr 44 min 28 sec) 
Heartbeat CPU 0 instructions: 174000003 cycles: 1599420594 heartbeat IPC: 0.107446 cumulative IPC: 0.108197 (Simulation time: 0 hr 44 min 42 sec) 
Heartbeat CPU 0 instructions: 175000000 cycles: 1608719082 heartbeat IPC: 0.107544 cumulative IPC: 0.108193 (Simulation time: 0 hr 44 min 57 sec) 
Heartbeat CPU 0 instructions: 176000000 cycles: 1617982808 heartbeat IPC: 0.107948 cumulative IPC: 0.108192 (Simulation time: 0 hr 45 min 11 sec) 
Heartbeat CPU 0 instructions: 177000001 cycles: 1627269483 heartbeat IPC: 0.107681 cumulative IPC: 0.108189 (Simulation time: 0 hr 45 min 26 sec) 
Heartbeat CPU 0 instructions: 178000000 cycles: 1636545003 heartbeat IPC: 0.107811 cumulative IPC: 0.108187 (Simulation time: 0 hr 45 min 41 sec) 
Heartbeat CPU 0 instructions: 179000001 cycles: 1645809207 heartbeat IPC: 0.107942 cumulative IPC: 0.108185 (Simulation time: 0 hr 45 min 57 sec) 
Heartbeat CPU 0 instructions: 180000000 cycles: 1655123691 heartbeat IPC: 0.10736 cumulative IPC: 0.108181 (Simulation time: 0 hr 46 min 12 sec) 
Heartbeat CPU 0 instructions: 181000002 cycles: 1664443948 heartbeat IPC: 0.107293 cumulative IPC: 0.108176 (Simulation time: 0 hr 46 min 27 sec) 
Heartbeat CPU 0 instructions: 182000000 cycles: 1673727596 heartbeat IPC: 0.107716 cumulative IPC: 0.108173 (Simulation time: 0 hr 46 min 43 sec) 
Heartbeat CPU 0 instructions: 183000000 cycles: 1683047285 heartbeat IPC: 0.1073 cumulative IPC: 0.108168 (Simulation time: 0 hr 46 min 59 sec) 
Heartbeat CPU 0 instructions: 184000000 cycles: 1692318087 heartbeat IPC: 0.107866 cumulative IPC: 0.108167 (Simulation time: 0 hr 47 min 15 sec) 
Heartbeat CPU 0 instructions: 185000000 cycles: 1701548252 heartbeat IPC: 0.10834 cumulative IPC: 0.108168 (Simulation time: 0 hr 47 min 31 sec) 
Heartbeat CPU 0 instructions: 186000002 cycles: 1710781219 heartbeat IPC: 0.108308 cumulative IPC: 0.108168 (Simulation time: 0 hr 47 min 46 sec) 
Heartbeat CPU 0 instructions: 187000000 cycles: 1720011734 heartbeat IPC: 0.108336 cumulative IPC: 0.108169 (Simulation time: 0 hr 48 min 2 sec) 
Heartbeat CPU 0 instructions: 188000000 cycles: 1727345059 heartbeat IPC: 0.136364 cumulative IPC: 0.108289 (Simulation time: 0 hr 48 min 15 sec) 
Heartbeat CPU 0 instructions: 189000000 cycles: 1736616759 heartbeat IPC: 0.107855 cumulative IPC: 0.108287 (Simulation time: 0 hr 48 min 30 sec) 
Heartbeat CPU 0 instructions: 190000002 cycles: 1745845987 heartbeat IPC: 0.108352 cumulative IPC: 0.108287 (Simulation time: 0 hr 48 min 45 sec) 
Heartbeat CPU 0 instructions: 191000000 cycles: 1755111558 heartbeat IPC: 0.107926 cumulative IPC: 0.108285 (Simulation time: 0 hr 49 min 0 sec) 
Heartbeat CPU 0 instructions: 192000001 cycles: 1764386602 heartbeat IPC: 0.107816 cumulative IPC: 0.108283 (Simulation time: 0 hr 49 min 15 sec) 
Heartbeat CPU 0 instructions: 193000001 cycles: 1773666890 heartbeat IPC: 0.107755 cumulative IPC: 0.10828 (Simulation time: 0 hr 49 min 29 sec) 
Heartbeat CPU 0 instructions: 194000003 cycles: 1782910186 heartbeat IPC: 0.108187 cumulative IPC: 0.10828 (Simulation time: 0 hr 49 min 43 sec) 
Heartbeat CPU 0 instructions: 195000001 cycles: 1792213542 heartbeat IPC: 0.107488 cumulative IPC: 0.108275 (Simulation time: 0 hr 49 min 59 sec) 
Heartbeat CPU 0 instructions: 196000000 cycles: 1801491684 heartbeat IPC: 0.10778 cumulative IPC: 0.108273 (Simulation time: 0 hr 50 min 14 sec) 
Heartbeat CPU 0 instructions: 197000000 cycles: 1810739552 heartbeat IPC: 0.108133 cumulative IPC: 0.108272 (Simulation time: 0 hr 50 min 29 sec) 
Heartbeat CPU 0 instructions: 198000000 cycles: 1820008574 heartbeat IPC: 0.107886 cumulative IPC: 0.10827 (Simulation time: 0 hr 50 min 44 sec) 
Heartbeat CPU 0 instructions: 199000000 cycles: 1829266192 heartbeat IPC: 0.108019 cumulative IPC: 0.108269 (Simulation time: 0 hr 50 min 59 sec) 
Heartbeat CPU 0 instructions: 200000000 cycles: 1838573321 heartbeat IPC: 0.107445 cumulative IPC: 0.108265 (Simulation time: 0 hr 51 min 13 sec) 
Heartbeat CPU 0 instructions: 201000000 cycles: 1847825662 heartbeat IPC: 0.108081 cumulative IPC: 0.108264 (Simulation time: 0 hr 51 min 27 sec) 
Heartbeat CPU 0 instructions: 202000000 cycles: 1857073493 heartbeat IPC: 0.108133 cumulative IPC: 0.108263 (Simulation time: 0 hr 51 min 41 sec) 
Heartbeat CPU 0 instructions: 203000000 cycles: 1866350992 heartbeat IPC: 0.107788 cumulative IPC: 0.108261 (Simulation time: 0 hr 51 min 54 sec) 
Heartbeat CPU 0 instructions: 204000003 cycles: 1875606419 heartbeat IPC: 0.108045 cumulative IPC: 0.10826 (Simulation time: 0 hr 52 min 7 sec) 
Heartbeat CPU 0 instructions: 205000000 cycles: 1884882072 heartbeat IPC: 0.107809 cumulative IPC: 0.108258 (Simulation time: 0 hr 52 min 21 sec) 
Heartbeat CPU 0 instructions: 206000000 cycles: 1894104467 heartbeat IPC: 0.108432 cumulative IPC: 0.108258 (Simulation time: 0 hr 52 min 36 sec) 
Heartbeat CPU 0 instructions: 207000000 cycles: 1903411680 heartbeat IPC: 0.107444 cumulative IPC: 0.108254 (Simulation time: 0 hr 52 min 50 sec) 
Heartbeat CPU 0 instructions: 208000000 cycles: 1912723011 heartbeat IPC: 0.107396 cumulative IPC: 0.10825 (Simulation time: 0 hr 53 min 3 sec) 
Heartbeat CPU 0 instructions: 209000000 cycles: 1921994672 heartbeat IPC: 0.107856 cumulative IPC: 0.108248 (Simulation time: 0 hr 53 min 16 sec) 
Heartbeat CPU 0 instructions: 210000003 cycles: 1931313398 heartbeat IPC: 0.107311 cumulative IPC: 0.108244 (Simulation time: 0 hr 53 min 29 sec) 
Heartbeat CPU 0 instructions: 211000001 cycles: 1940594718 heartbeat IPC: 0.107743 cumulative IPC: 0.108241 (Simulation time: 0 hr 53 min 43 sec) 
Heartbeat CPU 0 instructions: 212000000 cycles: 1949895418 heartbeat IPC: 0.107519 cumulative IPC: 0.108238 (Simulation time: 0 hr 53 min 57 sec) 
Heartbeat CPU 0 instructions: 213000003 cycles: 1959168598 heartbeat IPC: 0.107838 cumulative IPC: 0.108236 (Simulation time: 0 hr 54 min 10 sec) 
Heartbeat CPU 0 instructions: 214000001 cycles: 1968463404 heartbeat IPC: 0.107587 cumulative IPC: 0.108233 (Simulation time: 0 hr 54 min 24 sec) 
Heartbeat CPU 0 instructions: 215000001 cycles: 1977729272 heartbeat IPC: 0.107923 cumulative IPC: 0.108232 (Simulation time: 0 hr 54 min 37 sec) 
Heartbeat CPU 0 instructions: 216000000 cycles: 1987001061 heartbeat IPC: 0.107854 cumulative IPC: 0.10823 (Simulation time: 0 hr 54 min 53 sec) 
Heartbeat CPU 0 instructions: 217000001 cycles: 1996334675 heartbeat IPC: 0.10714 cumulative IPC: 0.108225 (Simulation time: 0 hr 55 min 9 sec) 
Heartbeat CPU 0 instructions: 218000002 cycles: 2005637254 heartbeat IPC: 0.107497 cumulative IPC: 0.108221 (Simulation time: 0 hr 55 min 22 sec) 
Heartbeat CPU 0 instructions: 219000001 cycles: 2014931637 heartbeat IPC: 0.107592 cumulative IPC: 0.108218 (Simulation time: 0 hr 55 min 35 sec) 
Heartbeat CPU 0 instructions: 220000000 cycles: 2024247412 heartbeat IPC: 0.107345 cumulative IPC: 0.108214 (Simulation time: 0 hr 55 min 49 sec) 
Heartbeat CPU 0 instructions: 221000000 cycles: 2033494222 heartbeat IPC: 0.108145 cumulative IPC: 0.108214 (Simulation time: 0 hr 56 min 2 sec) 
Heartbeat CPU 0 instructions: 222000000 cycles: 2042730451 heartbeat IPC: 0.108269 cumulative IPC: 0.108214 (Simulation time: 0 hr 56 min 15 sec) 
Heartbeat CPU 0 instructions: 223000000 cycles: 2051953357 heartbeat IPC: 0.108426 cumulative IPC: 0.108215 (Simulation time: 0 hr 56 min 27 sec) 
Heartbeat CPU 0 instructions: 224000000 cycles: 2061177342 heartbeat IPC: 0.108413 cumulative IPC: 0.108216 (Simulation time: 0 hr 56 min 39 sec) 
Heartbeat CPU 0 instructions: 225000000 cycles: 2069662992 heartbeat IPC: 0.117846 cumulative IPC: 0.108256 (Simulation time: 0 hr 56 min 51 sec) 
Heartbeat CPU 0 instructions: 226000000 cycles: 2078919028 heartbeat IPC: 0.108038 cumulative IPC: 0.108255 (Simulation time: 0 hr 57 min 4 sec) 
Heartbeat CPU 0 instructions: 227000003 cycles: 2088165149 heartbeat IPC: 0.108154 cumulative IPC: 0.108254 (Simulation time: 0 hr 57 min 20 sec) 
Heartbeat CPU 0 instructions: 228000000 cycles: 2097426688 heartbeat IPC: 0.107973 cumulative IPC: 0.108253 (Simulation time: 0 hr 57 min 35 sec) 
Heartbeat CPU 0 instructions: 229000001 cycles: 2106722243 heartbeat IPC: 0.107578 cumulative IPC: 0.10825 (Simulation time: 0 hr 57 min 47 sec) 
Heartbeat CPU 0 instructions: 230000001 cycles: 2115973826 heartbeat IPC: 0.10809 cumulative IPC: 0.108249 (Simulation time: 0 hr 58 min 2 sec) 
Heartbeat CPU 0 instructions: 231000000 cycles: 2125243022 heartbeat IPC: 0.107884 cumulative IPC: 0.108248 (Simulation time: 0 hr 58 min 18 sec) 
Heartbeat CPU 0 instructions: 232000000 cycles: 2134535656 heartbeat IPC: 0.107612 cumulative IPC: 0.108245 (Simulation time: 0 hr 58 min 35 sec) 
Heartbeat CPU 0 instructions: 233000003 cycles: 2143803061 heartbeat IPC: 0.107905 cumulative IPC: 0.108243 (Simulation time: 0 hr 58 min 47 sec) 
Heartbeat CPU 0 instructions: 234000001 cycles: 2153062112 heartbeat IPC: 0.108002 cumulative IPC: 0.108242 (Simulation time: 0 hr 58 min 59 sec) 
Heartbeat CPU 0 instructions: 235000001 cycles: 2162308071 heartbeat IPC: 0.108155 cumulative IPC: 0.108242 (Simulation time: 0 hr 59 min 12 sec) 
Heartbeat CPU 0 instructions: 236000001 cycles: 2171601217 heartbeat IPC: 0.107606 cumulative IPC: 0.108239 (Simulation time: 0 hr 59 min 28 sec) 
Heartbeat CPU 0 instructions: 237000002 cycles: 2180863990 heartbeat IPC: 0.107959 cumulative IPC: 0.108238 (Simulation time: 0 hr 59 min 45 sec) 
Heartbeat CPU 0 instructions: 238000001 cycles: 2190131662 heartbeat IPC: 0.107902 cumulative IPC: 0.108237 (Simulation time: 1 hr 0 min 1 sec) 
Heartbeat CPU 0 instructions: 239000000 cycles: 2199390356 heartbeat IPC: 0.108006 cumulative IPC: 0.108236 (Simulation time: 1 hr 0 min 13 sec) 
Heartbeat CPU 0 instructions: 240000001 cycles: 2208652422 heartbeat IPC: 0.107967 cumulative IPC: 0.108235 (Simulation time: 1 hr 0 min 27 sec) 
Heartbeat CPU 0 instructions: 241000000 cycles: 2217939603 heartbeat IPC: 0.107675 cumulative IPC: 0.108232 (Simulation time: 1 hr 0 min 43 sec) 
Heartbeat CPU 0 instructions: 242000000 cycles: 2227176447 heartbeat IPC: 0.108262 cumulative IPC: 0.108232 (Simulation time: 1 hr 0 min 55 sec) 
Heartbeat CPU 0 instructions: 243000002 cycles: 2236448617 heartbeat IPC: 0.10785 cumulative IPC: 0.108231 (Simulation time: 1 hr 1 min 8 sec) 
Heartbeat CPU 0 instructions: 244000003 cycles: 2245742573 heartbeat IPC: 0.107597 cumulative IPC: 0.108228 (Simulation time: 1 hr 1 min 21 sec) 
Heartbeat CPU 0 instructions: 245000000 cycles: 2255055058 heartbeat IPC: 0.107382 cumulative IPC: 0.108225 (Simulation time: 1 hr 1 min 34 sec) 
Heartbeat CPU 0 instructions: 246000001 cycles: 2264344909 heartbeat IPC: 0.107644 cumulative IPC: 0.108222 (Simulation time: 1 hr 1 min 46 sec) 
Heartbeat CPU 0 instructions: 247000001 cycles: 2273642075 heartbeat IPC: 0.10756 cumulative IPC: 0.10822 (Simulation time: 1 hr 1 min 59 sec) 
Heartbeat CPU 0 instructions: 248000001 cycles: 2282951081 heartbeat IPC: 0.107423 cumulative IPC: 0.108216 (Simulation time: 1 hr 2 min 11 sec) 
Heartbeat CPU 0 instructions: 249000001 cycles: 2292207629 heartbeat IPC: 0.108032 cumulative IPC: 0.108216 (Simulation time: 1 hr 2 min 23 sec) 
Heartbeat CPU 0 instructions: 250000000 cycles: 2301501479 heartbeat IPC: 0.107598 cumulative IPC: 0.108213 (Simulation time: 1 hr 2 min 34 sec) 
Heartbeat CPU 0 instructions: 251000002 cycles: 2310779113 heartbeat IPC: 0.107786 cumulative IPC: 0.108211 (Simulation time: 1 hr 2 min 46 sec) 
Heartbeat CPU 0 instructions: 252000003 cycles: 2320051052 heartbeat IPC: 0.107852 cumulative IPC: 0.10821 (Simulation time: 1 hr 2 min 58 sec) 
Heartbeat CPU 0 instructions: 253000000 cycles: 2329355183 heartbeat IPC: 0.107479 cumulative IPC: 0.108207 (Simulation time: 1 hr 3 min 11 sec) 
Heartbeat CPU 0 instructions: 254000000 cycles: 2338675368 heartbeat IPC: 0.107294 cumulative IPC: 0.108203 (Simulation time: 1 hr 3 min 23 sec) 
Heartbeat CPU 0 instructions: 255000002 cycles: 2347969447 heartbeat IPC: 0.107596 cumulative IPC: 0.108201 (Simulation time: 1 hr 3 min 35 sec) 
Heartbeat CPU 0 instructions: 256000000 cycles: 2357289044 heartbeat IPC: 0.107301 cumulative IPC: 0.108197 (Simulation time: 1 hr 3 min 48 sec) 
Heartbeat CPU 0 instructions: 257000000 cycles: 2366563312 heartbeat IPC: 0.107825 cumulative IPC: 0.108196 (Simulation time: 1 hr 4 min 0 sec) 
Heartbeat CPU 0 instructions: 258000002 cycles: 2375786888 heartbeat IPC: 0.108418 cumulative IPC: 0.108197 (Simulation time: 1 hr 4 min 12 sec) 
Heartbeat CPU 0 instructions: 259000003 cycles: 2385017027 heartbeat IPC: 0.108341 cumulative IPC: 0.108197 (Simulation time: 1 hr 4 min 25 sec) 
Heartbeat CPU 0 instructions: 260000000 cycles: 2394254986 heartbeat IPC: 0.108249 cumulative IPC: 0.108198 (Simulation time: 1 hr 4 min 37 sec) 
Heartbeat CPU 0 instructions: 261000002 cycles: 2402719210 heartbeat IPC: 0.118145 cumulative IPC: 0.108233 (Simulation time: 1 hr 4 min 52 sec) 
Heartbeat CPU 0 instructions: 262000000 cycles: 2411972608 heartbeat IPC: 0.108068 cumulative IPC: 0.108232 (Simulation time: 1 hr 5 min 7 sec) 
Heartbeat CPU 0 instructions: 263000000 cycles: 2421216099 heartbeat IPC: 0.108184 cumulative IPC: 0.108232 (Simulation time: 1 hr 5 min 20 sec) 
Heartbeat CPU 0 instructions: 264000000 cycles: 2430471475 heartbeat IPC: 0.108045 cumulative IPC: 0.108231 (Simulation time: 1 hr 5 min 33 sec) 
Heartbeat CPU 0 instructions: 265000000 cycles: 2439748171 heartbeat IPC: 0.107797 cumulative IPC: 0.108229 (Simulation time: 1 hr 5 min 46 sec) 
Heartbeat CPU 0 instructions: 266000003 cycles: 2449023616 heartbeat IPC: 0.107812 cumulative IPC: 0.108228 (Simulation time: 1 hr 6 min 0 sec) 
Heartbeat CPU 0 instructions: 267000003 cycles: 2458267313 heartbeat IPC: 0.108182 cumulative IPC: 0.108228 (Simulation time: 1 hr 6 min 12 sec) 
Heartbeat CPU 0 instructions: 268000002 cycles: 2467570264 heartbeat IPC: 0.107493 cumulative IPC: 0.108225 (Simulation time: 1 hr 6 min 28 sec) 
Heartbeat CPU 0 instructions: 269000002 cycles: 2476845998 heartbeat IPC: 0.107808 cumulative IPC: 0.108223 (Simulation time: 1 hr 6 min 44 sec) 
Heartbeat CPU 0 instructions: 270000000 cycles: 2486107967 heartbeat IPC: 0.107968 cumulative IPC: 0.108222 (Simulation time: 1 hr 6 min 59 sec) 
Heartbeat CPU 0 instructions: 271000001 cycles: 2495353668 heartbeat IPC: 0.108158 cumulative IPC: 0.108222 (Simulation time: 1 hr 7 min 14 sec) 
Heartbeat CPU 0 instructions: 272000003 cycles: 2504625726 heartbeat IPC: 0.107851 cumulative IPC: 0.108221 (Simulation time: 1 hr 7 min 26 sec) 
Heartbeat CPU 0 instructions: 273000001 cycles: 2513931688 heartbeat IPC: 0.107458 cumulative IPC: 0.108218 (Simulation time: 1 hr 7 min 38 sec) 
Heartbeat CPU 0 instructions: 274000002 cycles: 2523176373 heartbeat IPC: 0.10817 cumulative IPC: 0.108218 (Simulation time: 1 hr 7 min 51 sec) 
Heartbeat CPU 0 instructions: 275000000 cycles: 2532421715 heartbeat IPC: 0.108162 cumulative IPC: 0.108218 (Simulation time: 1 hr 8 min 2 sec) 
Heartbeat CPU 0 instructions: 276000001 cycles: 2541716803 heartbeat IPC: 0.107584 cumulative IPC: 0.108215 (Simulation time: 1 hr 8 min 15 sec) 
Heartbeat CPU 0 instructions: 277000000 cycles: 2550978778 heartbeat IPC: 0.107968 cumulative IPC: 0.108214 (Simulation time: 1 hr 8 min 27 sec) 
Heartbeat CPU 0 instructions: 278000000 cycles: 2560245092 heartbeat IPC: 0.107918 cumulative IPC: 0.108213 (Simulation time: 1 hr 8 min 39 sec) 
Heartbeat CPU 0 instructions: 279000003 cycles: 2569474730 heartbeat IPC: 0.108347 cumulative IPC: 0.108214 (Simulation time: 1 hr 8 min 51 sec) 
Heartbeat CPU 0 instructions: 280000003 cycles: 2578777397 heartbeat IPC: 0.107496 cumulative IPC: 0.108211 (Simulation time: 1 hr 9 min 4 sec) 
Heartbeat CPU 0 instructions: 281000001 cycles: 2588089062 heartbeat IPC: 0.107392 cumulative IPC: 0.108208 (Simulation time: 1 hr 9 min 17 sec) 
Heartbeat CPU 0 instructions: 282000000 cycles: 2597362469 heartbeat IPC: 0.107835 cumulative IPC: 0.108207 (Simulation time: 1 hr 9 min 31 sec) 
Heartbeat CPU 0 instructions: 283000000 cycles: 2606680767 heartbeat IPC: 0.107316 cumulative IPC: 0.108204 (Simulation time: 1 hr 9 min 48 sec) 
Heartbeat CPU 0 instructions: 284000003 cycles: 2615967305 heartbeat IPC: 0.107683 cumulative IPC: 0.108202 (Simulation time: 1 hr 10 min 1 sec) 
Heartbeat CPU 0 instructions: 285000000 cycles: 2625266043 heartbeat IPC: 0.107541 cumulative IPC: 0.1082 (Simulation time: 1 hr 10 min 12 sec) 
Heartbeat CPU 0 instructions: 286000000 cycles: 2634542460 heartbeat IPC: 0.1078 cumulative IPC: 0.108198 (Simulation time: 1 hr 10 min 24 sec) 
Heartbeat CPU 0 instructions: 287000001 cycles: 2643840277 heartbeat IPC: 0.107552 cumulative IPC: 0.108196 (Simulation time: 1 hr 10 min 36 sec) 
Heartbeat CPU 0 instructions: 288000000 cycles: 2653103504 heartbeat IPC: 0.107954 cumulative IPC: 0.108195 (Simulation time: 1 hr 10 min 47 sec) 
Heartbeat CPU 0 instructions: 289000000 cycles: 2662380190 heartbeat IPC: 0.107797 cumulative IPC: 0.108194 (Simulation time: 1 hr 10 min 58 sec) 
Heartbeat CPU 0 instructions: 290000003 cycles: 2671710328 heartbeat IPC: 0.10718 cumulative IPC: 0.10819 (Simulation time: 1 hr 11 min 10 sec) 
Heartbeat CPU 0 instructions: 291000000 cycles: 2680991001 heartbeat IPC: 0.10775 cumulative IPC: 0.108189 (Simulation time: 1 hr 11 min 26 sec) 
Heartbeat CPU 0 instructions: 292000003 cycles: 2690317908 heartbeat IPC: 0.107217 cumulative IPC: 0.108185 (Simulation time: 1 hr 11 min 42 sec) 
Heartbeat CPU 0 instructions: 293000001 cycles: 2699615993 heartbeat IPC: 0.107549 cumulative IPC: 0.108183 (Simulation time: 1 hr 11 min 55 sec) 
Heartbeat CPU 0 instructions: 294000002 cycles: 2708855598 heartbeat IPC: 0.10823 cumulative IPC: 0.108183 (Simulation time: 1 hr 12 min 3 sec) 
Heartbeat CPU 0 instructions: 295000003 cycles: 2718097028 heartbeat IPC: 0.108208 cumulative IPC: 0.108183 (Simulation time: 1 hr 12 min 11 sec) 
Heartbeat CPU 0 instructions: 296000001 cycles: 2727301503 heartbeat IPC: 0.108643 cumulative IPC: 0.108185 (Simulation time: 1 hr 12 min 18 sec) 
Heartbeat CPU 0 instructions: 297000000 cycles: 2736523821 heartbeat IPC: 0.108433 cumulative IPC: 0.108186 (Simulation time: 1 hr 12 min 26 sec) 
Heartbeat CPU 0 instructions: 298000002 cycles: 2745066846 heartbeat IPC: 0.117055 cumulative IPC: 0.108213 (Simulation time: 1 hr 12 min 34 sec) 
Heartbeat CPU 0 instructions: 299000003 cycles: 2754333077 heartbeat IPC: 0.107919 cumulative IPC: 0.108212 (Simulation time: 1 hr 12 min 42 sec) 
Heartbeat CPU 0 instructions: 300000000 cycles: 2763575582 heartbeat IPC: 0.108195 cumulative IPC: 0.108212 (Simulation time: 1 hr 12 min 49 sec) 
Heartbeat CPU 0 instructions: 301000000 cycles: 2772831864 heartbeat IPC: 0.108035 cumulative IPC: 0.108212 (Simulation time: 1 hr 12 min 57 sec) 
Heartbeat CPU 0 instructions: 302000001 cycles: 2782130053 heartbeat IPC: 0.107548 cumulative IPC: 0.108209 (Simulation time: 1 hr 13 min 5 sec) 
Heartbeat CPU 0 instructions: 303000000 cycles: 2791384958 heartbeat IPC: 0.108051 cumulative IPC: 0.108209 (Simulation time: 1 hr 13 min 13 sec) 
Heartbeat CPU 0 instructions: 304000003 cycles: 2800660089 heartbeat IPC: 0.107816 cumulative IPC: 0.108208 (Simulation time: 1 hr 13 min 21 sec) 
Heartbeat CPU 0 instructions: 305000000 cycles: 2809956927 heartbeat IPC: 0.107563 cumulative IPC: 0.108205 (Simulation time: 1 hr 13 min 29 sec) 
Heartbeat CPU 0 instructions: 306000000 cycles: 2819207915 heartbeat IPC: 0.108097 cumulative IPC: 0.108205 (Simulation time: 1 hr 13 min 36 sec) 
Heartbeat CPU 0 instructions: 307000000 cycles: 2828484834 heartbeat IPC: 0.107794 cumulative IPC: 0.108204 (Simulation time: 1 hr 13 min 44 sec) 
Heartbeat CPU 0 instructions: 308000000 cycles: 2837728081 heartbeat IPC: 0.108187 cumulative IPC: 0.108204 (Simulation time: 1 hr 13 min 52 sec) 
Heartbeat CPU 0 instructions: 309000001 cycles: 2847033501 heartbeat IPC: 0.107464 cumulative IPC: 0.108201 (Simulation time: 1 hr 14 min 0 sec) 
Heartbeat CPU 0 instructions: 310000000 cycles: 2856293811 heartbeat IPC: 0.107988 cumulative IPC: 0.108201 (Simulation time: 1 hr 14 min 8 sec) 
Heartbeat CPU 0 instructions: 311000000 cycles: 2865548328 heartbeat IPC: 0.108055 cumulative IPC: 0.1082 (Simulation time: 1 hr 14 min 15 sec) 
Heartbeat CPU 0 instructions: 312000000 cycles: 2874808082 heartbeat IPC: 0.107994 cumulative IPC: 0.108199 (Simulation time: 1 hr 14 min 23 sec) 
Heartbeat CPU 0 instructions: 313000003 cycles: 2884078587 heartbeat IPC: 0.107869 cumulative IPC: 0.108198 (Simulation time: 1 hr 14 min 31 sec) 
Heartbeat CPU 0 instructions: 314000002 cycles: 2893367509 heartbeat IPC: 0.107655 cumulative IPC: 0.108197 (Simulation time: 1 hr 14 min 39 sec) 
Heartbeat CPU 0 instructions: 315000000 cycles: 2902594180 heartbeat IPC: 0.108381 cumulative IPC: 0.108197 (Simulation time: 1 hr 14 min 46 sec) 
Heartbeat CPU 0 instructions: 316000002 cycles: 2911881805 heartbeat IPC: 0.10767 cumulative IPC: 0.108196 (Simulation time: 1 hr 14 min 54 sec) 
Heartbeat CPU 0 instructions: 317000000 cycles: 2921189133 heartbeat IPC: 0.107442 cumulative IPC: 0.108193 (Simulation time: 1 hr 15 min 2 sec) 
Heartbeat CPU 0 instructions: 318000000 cycles: 2930482087 heartbeat IPC: 0.107608 cumulative IPC: 0.108191 (Simulation time: 1 hr 15 min 10 sec) 
Heartbeat CPU 0 instructions: 319000000 cycles: 2939767405 heartbeat IPC: 0.107697 cumulative IPC: 0.10819 (Simulation time: 1 hr 15 min 18 sec) 
Heartbeat CPU 0 instructions: 320000003 cycles: 2949072714 heartbeat IPC: 0.107466 cumulative IPC: 0.108187 (Simulation time: 1 hr 15 min 25 sec) 
Heartbeat CPU 0 instructions: 321000000 cycles: 2958372533 heartbeat IPC: 0.107529 cumulative IPC: 0.108185 (Simulation time: 1 hr 15 min 33 sec) 
Heartbeat CPU 0 instructions: 322000002 cycles: 2967631870 heartbeat IPC: 0.107999 cumulative IPC: 0.108185 (Simulation time: 1 hr 15 min 45 sec) 
Heartbeat CPU 0 instructions: 323000002 cycles: 2976929514 heartbeat IPC: 0.107554 cumulative IPC: 0.108183 (Simulation time: 1 hr 15 min 53 sec) 
Heartbeat CPU 0 instructions: 324000001 cycles: 2986199206 heartbeat IPC: 0.107878 cumulative IPC: 0.108182 (Simulation time: 1 hr 16 min 1 sec) 
Heartbeat CPU 0 instructions: 325000000 cycles: 2995461088 heartbeat IPC: 0.107969 cumulative IPC: 0.108181 (Simulation time: 1 hr 16 min 9 sec) 
Heartbeat CPU 0 instructions: 326000000 cycles: 3004771829 heartbeat IPC: 0.107403 cumulative IPC: 0.108179 (Simulation time: 1 hr 16 min 19 sec) 
Heartbeat CPU 0 instructions: 327000000 cycles: 3014096624 heartbeat IPC: 0.107241 cumulative IPC: 0.108176 (Simulation time: 1 hr 16 min 27 sec) 
Heartbeat CPU 0 instructions: 328000000 cycles: 3023379459 heartbeat IPC: 0.107726 cumulative IPC: 0.108175 (Simulation time: 1 hr 16 min 35 sec) 
Heartbeat CPU 0 instructions: 329000000 cycles: 3032709552 heartbeat IPC: 0.10718 cumulative IPC: 0.108171 (Simulation time: 1 hr 16 min 42 sec) 
Heartbeat CPU 0 instructions: 330000000 cycles: 3041973949 heartbeat IPC: 0.10794 cumulative IPC: 0.108171 (Simulation time: 1 hr 16 min 50 sec) 
Heartbeat CPU 0 instructions: 331000001 cycles: 3051194134 heartbeat IPC: 0.108458 cumulative IPC: 0.108172 (Simulation time: 1 hr 16 min 58 sec) 
Heartbeat CPU 0 instructions: 332000002 cycles: 3060422685 heartbeat IPC: 0.108359 cumulative IPC: 0.108172 (Simulation time: 1 hr 17 min 6 sec) 
Heartbeat CPU 0 instructions: 333000001 cycles: 3069656236 heartbeat IPC: 0.108301 cumulative IPC: 0.108173 (Simulation time: 1 hr 17 min 13 sec) 
Heartbeat CPU 0 instructions: 334000000 cycles: 3078127390 heartbeat IPC: 0.118048 cumulative IPC: 0.1082 (Simulation time: 1 hr 17 min 21 sec) 
Heartbeat CPU 0 instructions: 335000002 cycles: 3087384841 heartbeat IPC: 0.108021 cumulative IPC: 0.108199 (Simulation time: 1 hr 17 min 29 sec) 
Heartbeat CPU 0 instructions: 336000003 cycles: 3096619973 heartbeat IPC: 0.108282 cumulative IPC: 0.108199 (Simulation time: 1 hr 17 min 37 sec) 
Heartbeat CPU 0 instructions: 337000003 cycles: 3105882906 heartbeat IPC: 0.107957 cumulative IPC: 0.108199 (Simulation time: 1 hr 17 min 44 sec) 
Heartbeat CPU 0 instructions: 338000000 cycles: 3115163437 heartbeat IPC: 0.107752 cumulative IPC: 0.108197 (Simulation time: 1 hr 17 min 52 sec) 
Heartbeat CPU 0 instructions: 339000001 cycles: 3124425882 heartbeat IPC: 0.107963 cumulative IPC: 0.108197 (Simulation time: 1 hr 18 min 0 sec) 
Heartbeat CPU 0 instructions: 340000002 cycles: 3133681272 heartbeat IPC: 0.108045 cumulative IPC: 0.108196 (Simulation time: 1 hr 18 min 8 sec) 
Heartbeat CPU 0 instructions: 341000000 cycles: 3142980985 heartbeat IPC: 0.10753 cumulative IPC: 0.108194 (Simulation time: 1 hr 18 min 15 sec) 
Heartbeat CPU 0 instructions: 342000003 cycles: 3152272921 heartbeat IPC: 0.107621 cumulative IPC: 0.108193 (Simulation time: 1 hr 18 min 23 sec) 
Heartbeat CPU 0 instructions: 343000001 cycles: 3161519862 heartbeat IPC: 0.108144 cumulative IPC: 0.108192 (Simulation time: 1 hr 18 min 31 sec) 
Heartbeat CPU 0 instructions: 344000000 cycles: 3170767229 heartbeat IPC: 0.108139 cumulative IPC: 0.108192 (Simulation time: 1 hr 18 min 39 sec) 
Heartbeat CPU 0 instructions: 345000001 cycles: 3180045684 heartbeat IPC: 0.107777 cumulative IPC: 0.108191 (Simulation time: 1 hr 18 min 46 sec) 
Heartbeat CPU 0 instructions: 346000001 cycles: 3189337668 heartbeat IPC: 0.10762 cumulative IPC: 0.108189 (Simulation time: 1 hr 18 min 54 sec) 
Heartbeat CPU 0 instructions: 347000002 cycles: 3198588785 heartbeat IPC: 0.108095 cumulative IPC: 0.108189 (Simulation time: 1 hr 19 min 2 sec) 
Heartbeat CPU 0 instructions: 348000002 cycles: 3207822224 heartbeat IPC: 0.108302 cumulative IPC: 0.108189 (Simulation time: 1 hr 19 min 10 sec) 
Heartbeat CPU 0 instructions: 349000000 cycles: 3217116667 heartbeat IPC: 0.107591 cumulative IPC: 0.108188 (Simulation time: 1 hr 19 min 18 sec) 
Heartbeat CPU 0 instructions: 350000000 cycles: 3226393928 heartbeat IPC: 0.10779 cumulative IPC: 0.108187 (Simulation time: 1 hr 19 min 26 sec) 
Heartbeat CPU 0 instructions: 351000000 cycles: 3235636206 heartbeat IPC: 0.108198 cumulative IPC: 0.108187 (Simulation time: 1 hr 19 min 33 sec) 
Heartbeat CPU 0 instructions: 352000000 cycles: 3244886396 heartbeat IPC: 0.108106 cumulative IPC: 0.108186 (Simulation time: 1 hr 19 min 41 sec) 
Heartbeat CPU 0 instructions: 353000000 cycles: 3254174796 heartbeat IPC: 0.107661 cumulative IPC: 0.108185 (Simulation time: 1 hr 19 min 49 sec) 
Heartbeat CPU 0 instructions: 354000001 cycles: 3263495761 heartbeat IPC: 0.107285 cumulative IPC: 0.108182 (Simulation time: 1 hr 19 min 57 sec) 
Heartbeat CPU 0 instructions: 355000000 cycles: 3272786039 heartbeat IPC: 0.107639 cumulative IPC: 0.108181 (Simulation time: 1 hr 20 min 4 sec) 
Heartbeat CPU 0 instructions: 356000001 cycles: 3282097726 heartbeat IPC: 0.107392 cumulative IPC: 0.108179 (Simulation time: 1 hr 20 min 12 sec) 
Heartbeat CPU 0 instructions: 357000000 cycles: 3291390794 heartbeat IPC: 0.107607 cumulative IPC: 0.108177 (Simulation time: 1 hr 20 min 20 sec) 
Heartbeat CPU 0 instructions: 358000000 cycles: 3300668424 heartbeat IPC: 0.107786 cumulative IPC: 0.108176 (Simulation time: 1 hr 20 min 28 sec) 
Heartbeat CPU 0 instructions: 359000002 cycles: 3309951476 heartbeat IPC: 0.107723 cumulative IPC: 0.108175 (Simulation time: 1 hr 20 min 36 sec) 
Heartbeat CPU 0 instructions: 360000002 cycles: 3319245251 heartbeat IPC: 0.107599 cumulative IPC: 0.108173 (Simulation time: 1 hr 20 min 44 sec) 
Heartbeat CPU 0 instructions: 361000003 cycles: 3328506975 heartbeat IPC: 0.107971 cumulative IPC: 0.108172 (Simulation time: 1 hr 20 min 52 sec) 
Heartbeat CPU 0 instructions: 362000001 cycles: 3337794308 heartbeat IPC: 0.107673 cumulative IPC: 0.108171 (Simulation time: 1 hr 21 min 0 sec) 
Heartbeat CPU 0 instructions: 363000000 cycles: 3347113283 heartbeat IPC: 0.107308 cumulative IPC: 0.108169 (Simulation time: 1 hr 21 min 8 sec) 
Heartbeat CPU 0 instructions: 364000002 cycles: 3356389497 heartbeat IPC: 0.107803 cumulative IPC: 0.108168 (Simulation time: 1 hr 21 min 16 sec) 
Heartbeat CPU 0 instructions: 365000000 cycles: 3365727479 heartbeat IPC: 0.107089 cumulative IPC: 0.108165 (Simulation time: 1 hr 21 min 24 sec) 
Heartbeat CPU 0 instructions: 366000002 cycles: 3375014104 heartbeat IPC: 0.107682 cumulative IPC: 0.108163 (Simulation time: 1 hr 21 min 32 sec) 
Heartbeat CPU 0 instructions: 367000001 cycles: 3384240632 heartbeat IPC: 0.108383 cumulative IPC: 0.108164 (Simulation time: 1 hr 21 min 40 sec) 
Heartbeat CPU 0 instructions: 368000000 cycles: 3393495633 heartbeat IPC: 0.10805 cumulative IPC: 0.108164 (Simulation time: 1 hr 21 min 48 sec) 
Heartbeat CPU 0 instructions: 369000001 cycles: 3402703124 heartbeat IPC: 0.108607 cumulative IPC: 0.108165 (Simulation time: 1 hr 21 min 55 sec) 
Heartbeat CPU 0 instructions: 370000000 cycles: 3411176860 heartbeat IPC: 0.118012 cumulative IPC: 0.108189 (Simulation time: 1 hr 22 min 3 sec) 
Heartbeat CPU 0 instructions: 371000003 cycles: 3420434953 heartbeat IPC: 0.108014 cumulative IPC: 0.108189 (Simulation time: 1 hr 22 min 11 sec) 
Heartbeat CPU 0 instructions: 372000000 cycles: 3429681298 heartbeat IPC: 0.108151 cumulative IPC: 0.108189 (Simulation time: 1 hr 22 min 19 sec) 
Heartbeat CPU 0 instructions: 373000000 cycles: 3438938284 heartbeat IPC: 0.108027 cumulative IPC: 0.108188 (Simulation time: 1 hr 22 min 27 sec) 
Heartbeat CPU 0 instructions: 374000000 cycles: 3448196155 heartbeat IPC: 0.108016 cumulative IPC: 0.108188 (Simulation time: 1 hr 22 min 35 sec) 
Heartbeat CPU 0 instructions: 375000001 cycles: 3457492518 heartbeat IPC: 0.107569 cumulative IPC: 0.108186 (Simulation time: 1 hr 22 min 43 sec) 
Heartbeat CPU 0 instructions: 376000000 cycles: 3466731440 heartbeat IPC: 0.108238 cumulative IPC: 0.108186 (Simulation time: 1 hr 22 min 51 sec) 
Heartbeat CPU 0 instructions: 377000000 cycles: 3476020789 heartbeat IPC: 0.10765 cumulative IPC: 0.108185 (Simulation time: 1 hr 22 min 59 sec) 
Heartbeat CPU 0 instructions: 378000001 cycles: 3485309575 heartbeat IPC: 0.107657 cumulative IPC: 0.108183 (Simulation time: 1 hr 23 min 7 sec) 
Heartbeat CPU 0 instructions: 379000000 cycles: 3494556384 heartbeat IPC: 0.108145 cumulative IPC: 0.108183 (Simulation time: 1 hr 23 min 14 sec) 
Heartbeat CPU 0 instructions: 380000002 cycles: 3503823709 heartbeat IPC: 0.107906 cumulative IPC: 0.108183 (Simulation time: 1 hr 23 min 22 sec) 
Heartbeat CPU 0 instructions: 381000002 cycles: 3513077189 heartbeat IPC: 0.108067 cumulative IPC: 0.108182 (Simulation time: 1 hr 23 min 30 sec) 
Heartbeat CPU 0 instructions: 382000003 cycles: 3522391921 heartbeat IPC: 0.107357 cumulative IPC: 0.10818 (Simulation time: 1 hr 23 min 38 sec) 
Heartbeat CPU 0 instructions: 383000001 cycles: 3531644352 heartbeat IPC: 0.108079 cumulative IPC: 0.10818 (Simulation time: 1 hr 23 min 46 sec) 
Heartbeat CPU 0 instructions: 384000000 cycles: 3540891640 heartbeat IPC: 0.10814 cumulative IPC: 0.10818 (Simulation time: 1 hr 23 min 54 sec) 
Heartbeat CPU 0 instructions: 385000000 cycles: 3550166955 heartbeat IPC: 0.107813 cumulative IPC: 0.108179 (Simulation time: 1 hr 24 min 1 sec) 
Heartbeat CPU 0 instructions: 386000000 cycles: 3559431387 heartbeat IPC: 0.10794 cumulative IPC: 0.108178 (Simulation time: 1 hr 24 min 9 sec) 
Heartbeat CPU 0 instructions: 387000002 cycles: 3568718191 heartbeat IPC: 0.10768 cumulative IPC: 0.108177 (Simulation time: 1 hr 24 min 17 sec) 
Heartbeat CPU 0 instructions: 388000000 cycles: 3577924459 heartbeat IPC: 0.108621 cumulative IPC: 0.108178 (Simulation time: 1 hr 24 min 26 sec) 
Heartbeat CPU 0 instructions: 389000000 cycles: 3587234134 heartbeat IPC: 0.107415 cumulative IPC: 0.108176 (Simulation time: 1 hr 24 min 37 sec) 
Heartbeat CPU 0 instructions: 390000002 cycles: 3596535627 heartbeat IPC: 0.10751 cumulative IPC: 0.108174 (Simulation time: 1 hr 24 min 45 sec) 
Heartbeat CPU 0 instructions: 391000001 cycles: 3605828023 heartbeat IPC: 0.107615 cumulative IPC: 0.108173 (Simulation time: 1 hr 24 min 53 sec) 
Heartbeat CPU 0 instructions: 392000000 cycles: 3615119052 heartbeat IPC: 0.107631 cumulative IPC: 0.108171 (Simulation time: 1 hr 25 min 1 sec) 
Heartbeat CPU 0 instructions: 393000000 cycles: 3624416115 heartbeat IPC: 0.107561 cumulative IPC: 0.10817 (Simulation time: 1 hr 25 min 9 sec) 
Heartbeat CPU 0 instructions: 394000001 cycles: 3633706785 heartbeat IPC: 0.107635 cumulative IPC: 0.108169 (Simulation time: 1 hr 25 min 16 sec) 
Heartbeat CPU 0 instructions: 395000002 cycles: 3642976309 heartbeat IPC: 0.107881 cumulative IPC: 0.108168 (Simulation time: 1 hr 25 min 24 sec) 
Heartbeat CPU 0 instructions: 396000000 cycles: 3652282910 heartbeat IPC: 0.10745 cumulative IPC: 0.108166 (Simulation time: 1 hr 25 min 34 sec) 
Heartbeat CPU 0 instructions: 397000002 cycles: 3661553088 heartbeat IPC: 0.107873 cumulative IPC: 0.108165 (Simulation time: 1 hr 25 min 42 sec) 
Heartbeat CPU 0 instructions: 398000003 cycles: 3670825004 heartbeat IPC: 0.107853 cumulative IPC: 0.108164 (Simulation time: 1 hr 25 min 50 sec) 
Heartbeat CPU 0 instructions: 399000000 cycles: 3680141907 heartbeat IPC: 0.107331 cumulative IPC: 0.108162 (Simulation time: 1 hr 25 min 58 sec) 
Heartbeat CPU 0 instructions: 400000003 cycles: 3689456712 heartbeat IPC: 0.107356 cumulative IPC: 0.10816 (Simulation time: 1 hr 26 min 5 sec) 
Heartbeat CPU 0 instructions: 401000000 cycles: 3698750957 heartbeat IPC: 0.107593 cumulative IPC: 0.108159 (Simulation time: 1 hr 26 min 13 sec) 
Heartbeat CPU 0 instructions: 402000003 cycles: 3708081084 heartbeat IPC: 0.10718 cumulative IPC: 0.108156 (Simulation time: 1 hr 26 min 21 sec) 
Heartbeat CPU 0 instructions: 403000003 cycles: 3717332136 heartbeat IPC: 0.108096 cumulative IPC: 0.108156 (Simulation time: 1 hr 26 min 29 sec) 
Heartbeat CPU 0 instructions: 404000003 cycles: 3726572264 heartbeat IPC: 0.108224 cumulative IPC: 0.108156 (Simulation time: 1 hr 26 min 36 sec) 
Heartbeat CPU 0 instructions: 405000000 cycles: 3735795627 heartbeat IPC: 0.10842 cumulative IPC: 0.108157 (Simulation time: 1 hr 26 min 44 sec) 
Heartbeat CPU 0 instructions: 406000001 cycles: 3745019598 heartbeat IPC: 0.108413 cumulative IPC: 0.108158 (Simulation time: 1 hr 26 min 52 sec) 
Heartbeat CPU 0 instructions: 407000000 cycles: 3753480643 heartbeat IPC: 0.118189 cumulative IPC: 0.10818 (Simulation time: 1 hr 26 min 59 sec) 
Heartbeat CPU 0 instructions: 408000000 cycles: 3762741305 heartbeat IPC: 0.107984 cumulative IPC: 0.10818 (Simulation time: 1 hr 27 min 7 sec) 
Heartbeat CPU 0 instructions: 409000001 cycles: 3771985617 heartbeat IPC: 0.108175 cumulative IPC: 0.10818 (Simulation time: 1 hr 27 min 14 sec) 
Heartbeat CPU 0 instructions: 410000002 cycles: 3781246343 heartbeat IPC: 0.107983 cumulative IPC: 0.108179 (Simulation time: 1 hr 27 min 22 sec) 
Heartbeat CPU 0 instructions: 411000000 cycles: 3790524074 heartbeat IPC: 0.107785 cumulative IPC: 0.108178 (Simulation time: 1 hr 27 min 30 sec) 
Heartbeat CPU 0 instructions: 412000000 cycles: 3799795834 heartbeat IPC: 0.107854 cumulative IPC: 0.108178 (Simulation time: 1 hr 27 min 37 sec) 
Heartbeat CPU 0 instructions: 413000002 cycles: 3809045878 heartbeat IPC: 0.108108 cumulative IPC: 0.108177 (Simulation time: 1 hr 27 min 45 sec) 
Heartbeat CPU 0 instructions: 414000000 cycles: 3818342381 heartbeat IPC: 0.107567 cumulative IPC: 0.108176 (Simulation time: 1 hr 27 min 53 sec) 
Heartbeat CPU 0 instructions: 415000003 cycles: 3827624761 heartbeat IPC: 0.107731 cumulative IPC: 0.108175 (Simulation time: 1 hr 28 min 0 sec) 
Heartbeat CPU 0 instructions: 416000003 cycles: 3836866954 heartbeat IPC: 0.108199 cumulative IPC: 0.108175 (Simulation time: 1 hr 28 min 8 sec) 
Heartbeat CPU 0 instructions: 417000003 cycles: 3846126942 heartbeat IPC: 0.107992 cumulative IPC: 0.108174 (Simulation time: 1 hr 28 min 16 sec) 
Heartbeat CPU 0 instructions: 418000000 cycles: 3855404892 heartbeat IPC: 0.107782 cumulative IPC: 0.108173 (Simulation time: 1 hr 28 min 23 sec) 
Heartbeat CPU 0 instructions: 419000001 cycles: 3864688627 heartbeat IPC: 0.107715 cumulative IPC: 0.108172 (Simulation time: 1 hr 28 min 31 sec) 
Heartbeat CPU 0 instructions: 420000002 cycles: 3873951852 heartbeat IPC: 0.107954 cumulative IPC: 0.108172 (Simulation time: 1 hr 28 min 39 sec) 
Heartbeat CPU 0 instructions: 421000002 cycles: 3883193125 heartbeat IPC: 0.10821 cumulative IPC: 0.108172 (Simulation time: 1 hr 28 min 47 sec) 
Heartbeat CPU 0 instructions: 422000003 cycles: 3892470066 heartbeat IPC: 0.107794 cumulative IPC: 0.108171 (Simulation time: 1 hr 28 min 55 sec) 
Heartbeat CPU 0 instructions: 423000000 cycles: 3901752906 heartbeat IPC: 0.107725 cumulative IPC: 0.10817 (Simulation time: 1 hr 29 min 3 sec) 
Heartbeat CPU 0 instructions: 424000000 cycles: 3911001448 heartbeat IPC: 0.108125 cumulative IPC: 0.10817 (Simulation time: 1 hr 29 min 10 sec) 
Heartbeat CPU 0 instructions: 425000002 cycles: 3920245317 heartbeat IPC: 0.10818 cumulative IPC: 0.10817 (Simulation time: 1 hr 29 min 18 sec) 
Heartbeat CPU 0 instructions: 426000001 cycles: 3929544688 heartbeat IPC: 0.107534 cumulative IPC: 0.108168 (Simulation time: 1 hr 29 min 26 sec) 
Heartbeat CPU 0 instructions: 427000000 cycles: 3938859478 heartbeat IPC: 0.107356 cumulative IPC: 0.108166 (Simulation time: 1 hr 29 min 34 sec) 
Heartbeat CPU 0 instructions: 428000000 cycles: 3948141631 heartbeat IPC: 0.107734 cumulative IPC: 0.108165 (Simulation time: 1 hr 29 min 42 sec) 
Heartbeat CPU 0 instructions: 429000000 cycles: 3957457541 heartbeat IPC: 0.107343 cumulative IPC: 0.108164 (Simulation time: 1 hr 29 min 50 sec) 
Heartbeat CPU 0 instructions: 430000001 cycles: 3966744702 heartbeat IPC: 0.107676 cumulative IPC: 0.108162 (Simulation time: 1 hr 29 min 57 sec) 
Heartbeat CPU 0 instructions: 431000003 cycles: 3976027023 heartbeat IPC: 0.107732 cumulative IPC: 0.108161 (Simulation time: 1 hr 30 min 5 sec) 
Heartbeat CPU 0 instructions: 432000001 cycles: 3985309479 heartbeat IPC: 0.10773 cumulative IPC: 0.10816 (Simulation time: 1 hr 30 min 13 sec) 
Heartbeat CPU 0 instructions: 433000001 cycles: 3994603342 heartbeat IPC: 0.107598 cumulative IPC: 0.108159 (Simulation time: 1 hr 30 min 21 sec) 
Heartbeat CPU 0 instructions: 434000000 cycles: 4003861914 heartbeat IPC: 0.108008 cumulative IPC: 0.108159 (Simulation time: 1 hr 30 min 28 sec) 
Heartbeat CPU 0 instructions: 435000002 cycles: 4013154934 heartbeat IPC: 0.107608 cumulative IPC: 0.108157 (Simulation time: 1 hr 30 min 36 sec) 
Heartbeat CPU 0 instructions: 436000001 cycles: 4022475040 heartbeat IPC: 0.107295 cumulative IPC: 0.108155 (Simulation time: 1 hr 30 min 44 sec) 
Heartbeat CPU 0 instructions: 437000000 cycles: 4031766893 heartbeat IPC: 0.107621 cumulative IPC: 0.108154 (Simulation time: 1 hr 30 min 52 sec) 
Heartbeat CPU 0 instructions: 438000003 cycles: 4041097624 heartbeat IPC: 0.107173 cumulative IPC: 0.108152 (Simulation time: 1 hr 30 min 59 sec) 
Heartbeat CPU 0 instructions: 439000002 cycles: 4050376374 heartbeat IPC: 0.107773 cumulative IPC: 0.108151 (Simulation time: 1 hr 31 min 7 sec) 
Heartbeat CPU 0 instructions: 440000000 cycles: 4059599735 heartbeat IPC: 0.10842 cumulative IPC: 0.108152 (Simulation time: 1 hr 31 min 15 sec) 
Heartbeat CPU 0 instructions: 441000000 cycles: 4068846557 heartbeat IPC: 0.108145 cumulative IPC: 0.108152 (Simulation time: 1 hr 31 min 23 sec) 
Heartbeat CPU 0 instructions: 442000000 cycles: 4078058863 heartbeat IPC: 0.10855 cumulative IPC: 0.108153 (Simulation time: 1 hr 31 min 31 sec) 
Heartbeat CPU 0 instructions: 443000000 cycles: 4085652945 heartbeat IPC: 0.131681 cumulative IPC: 0.108196 (Simulation time: 1 hr 31 min 38 sec) 
Heartbeat CPU 0 instructions: 444000003 cycles: 4090679465 heartbeat IPC: 0.198945 cumulative IPC: 0.108308 (Simulation time: 1 hr 31 min 42 sec) 
Heartbeat CPU 0 instructions: 445000000 cycles: 4100240864 heartbeat IPC: 0.104587 cumulative IPC: 0.108299 (Simulation time: 1 hr 31 min 50 sec) 
Heartbeat CPU 0 instructions: 446000000 cycles: 4109484612 heartbeat IPC: 0.108181 cumulative IPC: 0.108299 (Simulation time: 1 hr 31 min 58 sec) 
Heartbeat CPU 0 instructions: 447000001 cycles: 4118727611 heartbeat IPC: 0.10819 cumulative IPC: 0.108299 (Simulation time: 1 hr 32 min 6 sec) 
Heartbeat CPU 0 instructions: 448000003 cycles: 4127990279 heartbeat IPC: 0.10796 cumulative IPC: 0.108298 (Simulation time: 1 hr 32 min 13 sec) 
Heartbeat CPU 0 instructions: 449000000 cycles: 4137289817 heartbeat IPC: 0.107532 cumulative IPC: 0.108296 (Simulation time: 1 hr 32 min 21 sec) 
Heartbeat CPU 0 instructions: 450000000 cycles: 4146559422 heartbeat IPC: 0.107879 cumulative IPC: 0.108295 (Simulation time: 1 hr 32 min 29 sec) 

Warmup complete CPU 0 instructions: 450000004 cycles: 4146559423 (Simulation time: 1 hr 32 min 29 sec) 

Heartbeat CPU 0 instructions: 451000000 cycles: 4150812030 heartbeat IPC: 0.23515 cumulative IPC: 0.235149 (Simulation time: 1 hr 32 min 34 sec) 
Heartbeat CPU 0 instructions: 452000003 cycles: 4155111323 heartbeat IPC: 0.232597 cumulative IPC: 0.233866 (Simulation time: 1 hr 32 min 39 sec) 
Heartbeat CPU 0 instructions: 453000000 cycles: 4159356071 heartbeat IPC: 0.235585 cumulative IPC: 0.234436 (Simulation time: 1 hr 32 min 44 sec) 
Heartbeat CPU 0 instructions: 454000000 cycles: 4163628621 heartbeat IPC: 0.234052 cumulative IPC: 0.23434 (Simulation time: 1 hr 32 min 49 sec) 
Heartbeat CPU 0 instructions: 455000000 cycles: 4167943772 heartbeat IPC: 0.231742 cumulative IPC: 0.233816 (Simulation time: 1 hr 32 min 55 sec) 
Heartbeat CPU 0 instructions: 456000003 cycles: 4172248558 heartbeat IPC: 0.2323 cumulative IPC: 0.233562 (Simulation time: 1 hr 33 min 0 sec) 
Heartbeat CPU 0 instructions: 457000003 cycles: 4176535560 heartbeat IPC: 0.233263 cumulative IPC: 0.233519 (Simulation time: 1 hr 33 min 5 sec) 
Heartbeat CPU 0 instructions: 458000000 cycles: 4180844602 heartbeat IPC: 0.232069 cumulative IPC: 0.233337 (Simulation time: 1 hr 33 min 10 sec) 
Heartbeat CPU 0 instructions: 459000002 cycles: 4185122271 heartbeat IPC: 0.233773 cumulative IPC: 0.233385 (Simulation time: 1 hr 33 min 15 sec) 
Heartbeat CPU 0 instructions: 460000000 cycles: 4189389496 heartbeat IPC: 0.234344 cumulative IPC: 0.233481 (Simulation time: 1 hr 33 min 20 sec) 
Heartbeat CPU 0 instructions: 461000000 cycles: 4193633181 heartbeat IPC: 0.235644 cumulative IPC: 0.233676 (Simulation time: 1 hr 33 min 25 sec) 
Heartbeat CPU 0 instructions: 462000000 cycles: 4197871606 heartbeat IPC: 0.235937 cumulative IPC: 0.233863 (Simulation time: 1 hr 33 min 30 sec) 
Heartbeat CPU 0 instructions: 463000001 cycles: 4202139507 heartbeat IPC: 0.234307 cumulative IPC: 0.233897 (Simulation time: 1 hr 33 min 35 sec) 
Heartbeat CPU 0 instructions: 464000000 cycles: 4206386674 heartbeat IPC: 0.235451 cumulative IPC: 0.234007 (Simulation time: 1 hr 33 min 40 sec) 
Heartbeat CPU 0 instructions: 465000001 cycles: 4210662235 heartbeat IPC: 0.233888 cumulative IPC: 0.233999 (Simulation time: 1 hr 33 min 45 sec) 
Heartbeat CPU 0 instructions: 466000000 cycles: 4214886802 heartbeat IPC: 0.23671 cumulative IPC: 0.234167 (Simulation time: 1 hr 33 min 50 sec) 
Heartbeat CPU 0 instructions: 467000001 cycles: 4219129546 heartbeat IPC: 0.235697 cumulative IPC: 0.234256 (Simulation time: 1 hr 33 min 55 sec) 
Heartbeat CPU 0 instructions: 468000000 cycles: 4223371983 heartbeat IPC: 0.235713 cumulative IPC: 0.234337 (Simulation time: 1 hr 34 min 0 sec) 
Heartbeat CPU 0 instructions: 469000001 cycles: 4227563219 heartbeat IPC: 0.238593 cumulative IPC: 0.234557 (Simulation time: 1 hr 34 min 5 sec) 
Heartbeat CPU 0 instructions: 470000000 cycles: 4231792479 heartbeat IPC: 0.236448 cumulative IPC: 0.234651 (Simulation time: 1 hr 34 min 10 sec) 
Heartbeat CPU 0 instructions: 471000001 cycles: 4236025076 heartbeat IPC: 0.236262 cumulative IPC: 0.234727 (Simulation time: 1 hr 34 min 15 sec) 
Heartbeat CPU 0 instructions: 472000002 cycles: 4240297735 heartbeat IPC: 0.234047 cumulative IPC: 0.234696 (Simulation time: 1 hr 34 min 20 sec) 
Heartbeat CPU 0 instructions: 473000000 cycles: 4244519982 heartbeat IPC: 0.23684 cumulative IPC: 0.234788 (Simulation time: 1 hr 34 min 25 sec) 
Heartbeat CPU 0 instructions: 474000001 cycles: 4248752943 heartbeat IPC: 0.236241 cumulative IPC: 0.234849 (Simulation time: 1 hr 34 min 30 sec) 
Heartbeat CPU 0 instructions: 475000000 cycles: 4252986888 heartbeat IPC: 0.236186 cumulative IPC: 0.234902 (Simulation time: 1 hr 34 min 35 sec) 
Heartbeat CPU 0 instructions: 476000002 cycles: 4257231243 heartbeat IPC: 0.235608 cumulative IPC: 0.234929 (Simulation time: 1 hr 34 min 40 sec) 
Heartbeat CPU 0 instructions: 477000000 cycles: 4261533554 heartbeat IPC: 0.232433 cumulative IPC: 0.234835 (Simulation time: 1 hr 34 min 45 sec) 
Heartbeat CPU 0 instructions: 478000000 cycles: 4265780154 heartbeat IPC: 0.235482 cumulative IPC: 0.234858 (Simulation time: 1 hr 34 min 50 sec) 
Heartbeat CPU 0 instructions: 479000003 cycles: 4270069170 heartbeat IPC: 0.233154 cumulative IPC: 0.234799 (Simulation time: 1 hr 34 min 55 sec) 
Heartbeat CPU 0 instructions: 480000000 cycles: 4274330000 heartbeat IPC: 0.234695 cumulative IPC: 0.234796 (Simulation time: 1 hr 35 min 0 sec) 
Heartbeat CPU 0 instructions: 481000002 cycles: 4278561807 heartbeat IPC: 0.236306 cumulative IPC: 0.234844 (Simulation time: 1 hr 35 min 5 sec) 
Heartbeat CPU 0 instructions: 482000002 cycles: 4282849290 heartbeat IPC: 0.233237 cumulative IPC: 0.234794 (Simulation time: 1 hr 35 min 10 sec) 
Heartbeat CPU 0 instructions: 483000001 cycles: 4287165843 heartbeat IPC: 0.231666 cumulative IPC: 0.234698 (Simulation time: 1 hr 35 min 15 sec) 
Heartbeat CPU 0 instructions: 484000000 cycles: 4290703959 heartbeat IPC: 0.282636 cumulative IPC: 0.235874 (Simulation time: 1 hr 35 min 19 sec) 
Heartbeat CPU 0 instructions: 485000000 cycles: 4294967333 heartbeat IPC: 0.234556 cumulative IPC: 0.235836 (Simulation time: 1 hr 35 min 24 sec) 
Heartbeat CPU 0 instructions: 486000000 cycles: 4299196369 heartbeat IPC: 0.236461 cumulative IPC: 0.235854 (Simulation time: 1 hr 35 min 29 sec) 
Heartbeat CPU 0 instructions: 487000000 cycles: 4303440033 heartbeat IPC: 0.235645 cumulative IPC: 0.235848 (Simulation time: 1 hr 35 min 34 sec) 
Heartbeat CPU 0 instructions: 488000000 cycles: 4307679336 heartbeat IPC: 0.235888 cumulative IPC: 0.235849 (Simulation time: 1 hr 35 min 39 sec) 
Heartbeat CPU 0 instructions: 489000002 cycles: 4311903594 heartbeat IPC: 0.236728 cumulative IPC: 0.235872 (Simulation time: 1 hr 35 min 44 sec) 
Heartbeat CPU 0 instructions: 490000000 cycles: 4316186948 heartbeat IPC: 0.233461 cumulative IPC: 0.235811 (Simulation time: 1 hr 35 min 49 sec) 
Heartbeat CPU 0 instructions: 491000002 cycles: 4320454403 heartbeat IPC: 0.234332 cumulative IPC: 0.235774 (Simulation time: 1 hr 35 min 54 sec) 
Heartbeat CPU 0 instructions: 492000000 cycles: 4324689788 heartbeat IPC: 0.236106 cumulative IPC: 0.235782 (Simulation time: 1 hr 35 min 59 sec) 
Heartbeat CPU 0 instructions: 493000001 cycles: 4328921841 heartbeat IPC: 0.236292 cumulative IPC: 0.235794 (Simulation time: 1 hr 36 min 4 sec) 
Heartbeat CPU 0 instructions: 494000000 cycles: 4333168940 heartbeat IPC: 0.235455 cumulative IPC: 0.235786 (Simulation time: 1 hr 36 min 9 sec) 
Heartbeat CPU 0 instructions: 495000000 cycles: 4337395351 heartbeat IPC: 0.236607 cumulative IPC: 0.235805 (Simulation time: 1 hr 36 min 14 sec) 
Heartbeat CPU 0 instructions: 496000001 cycles: 4341609747 heartbeat IPC: 0.237282 cumulative IPC: 0.235837 (Simulation time: 1 hr 36 min 19 sec) 
Heartbeat CPU 0 instructions: 497000001 cycles: 4345916942 heartbeat IPC: 0.23217 cumulative IPC: 0.235757 (Simulation time: 1 hr 36 min 24 sec) 
Heartbeat CPU 0 instructions: 498000000 cycles: 4350204351 heartbeat IPC: 0.233241 cumulative IPC: 0.235704 (Simulation time: 1 hr 36 min 29 sec) 
Heartbeat CPU 0 instructions: 499000003 cycles: 4354519058 heartbeat IPC: 0.231766 cumulative IPC: 0.235623 (Simulation time: 1 hr 36 min 34 sec) 
Heartbeat CPU 0 instructions: 500000000 cycles: 4358791370 heartbeat IPC: 0.234065 cumulative IPC: 0.235591 (Simulation time: 1 hr 36 min 40 sec) 
Heartbeat CPU 0 instructions: 501000002 cycles: 4363054474 heartbeat IPC: 0.234571 cumulative IPC: 0.235571 (Simulation time: 1 hr 36 min 45 sec) 
Heartbeat CPU 0 instructions: 502000000 cycles: 4367283525 heartbeat IPC: 0.236459 cumulative IPC: 0.235588 (Simulation time: 1 hr 36 min 50 sec) 
Heartbeat CPU 0 instructions: 503000000 cycles: 4371483254 heartbeat IPC: 0.238111 cumulative IPC: 0.235635 (Simulation time: 1 hr 36 min 55 sec) 
Heartbeat CPU 0 instructions: 504000001 cycles: 4375748910 heartbeat IPC: 0.234431 cumulative IPC: 0.235613 (Simulation time: 1 hr 37 min 0 sec) 
Heartbeat CPU 0 instructions: 505000001 cycles: 4379936630 heartbeat IPC: 0.238793 cumulative IPC: 0.23567 (Simulation time: 1 hr 37 min 5 sec) 
Heartbeat CPU 0 instructions: 506000000 cycles: 4384153595 heartbeat IPC: 0.237137 cumulative IPC: 0.235696 (Simulation time: 1 hr 37 min 10 sec) 
Heartbeat CPU 0 instructions: 507000000 cycles: 4388417313 heartbeat IPC: 0.234537 cumulative IPC: 0.235676 (Simulation time: 1 hr 37 min 15 sec) 
Heartbeat CPU 0 instructions: 508000002 cycles: 4392637931 heartbeat IPC: 0.236933 cumulative IPC: 0.235697 (Simulation time: 1 hr 37 min 20 sec) 
Heartbeat CPU 0 instructions: 509000002 cycles: 4396961657 heartbeat IPC: 0.231282 cumulative IPC: 0.235621 (Simulation time: 1 hr 37 min 26 sec) 
Heartbeat CPU 0 instructions: 510000001 cycles: 4401194804 heartbeat IPC: 0.236231 cumulative IPC: 0.235631 (Simulation time: 1 hr 37 min 31 sec) 
Heartbeat CPU 0 instructions: 511000000 cycles: 4405391219 heartbeat IPC: 0.238298 cumulative IPC: 0.235674 (Simulation time: 1 hr 37 min 36 sec) 
Heartbeat CPU 0 instructions: 512000000 cycles: 4409656986 heartbeat IPC: 0.234424 cumulative IPC: 0.235654 (Simulation time: 1 hr 37 min 41 sec) 
Heartbeat CPU 0 instructions: 513000000 cycles: 4413912725 heartbeat IPC: 0.234977 cumulative IPC: 0.235643 (Simulation time: 1 hr 37 min 46 sec) 
Heartbeat CPU 0 instructions: 514000003 cycles: 4418130550 heartbeat IPC: 0.23709 cumulative IPC: 0.235666 (Simulation time: 1 hr 37 min 52 sec) 
Heartbeat CPU 0 instructions: 515000003 cycles: 4422394477 heartbeat IPC: 0.234526 cumulative IPC: 0.235648 (Simulation time: 1 hr 37 min 57 sec) 
Heartbeat CPU 0 instructions: 516000001 cycles: 4426631373 heartbeat IPC: 0.236021 cumulative IPC: 0.235654 (Simulation time: 1 hr 38 min 2 sec) 
Heartbeat CPU 0 instructions: 517000000 cycles: 4430831438 heartbeat IPC: 0.238091 cumulative IPC: 0.23569 (Simulation time: 1 hr 38 min 7 sec) 
Heartbeat CPU 0 instructions: 518000000 cycles: 4435133794 heartbeat IPC: 0.232431 cumulative IPC: 0.235641 (Simulation time: 1 hr 38 min 12 sec) 
Heartbeat CPU 0 instructions: 519000001 cycles: 4439392580 heartbeat IPC: 0.234809 cumulative IPC: 0.235629 (Simulation time: 1 hr 38 min 17 sec) 
Heartbeat CPU 0 instructions: 520000001 cycles: 4443350863 heartbeat IPC: 0.252635 cumulative IPC: 0.235856 (Simulation time: 1 hr 38 min 21 sec) 
Heartbeat CPU 0 instructions: 521000003 cycles: 4447182786 heartbeat IPC: 0.260966 cumulative IPC: 0.236176 (Simulation time: 1 hr 38 min 26 sec) 
Heartbeat CPU 0 instructions: 522000001 cycles: 4451420980 heartbeat IPC: 0.235949 cumulative IPC: 0.236173 (Simulation time: 1 hr 38 min 31 sec) 
Heartbeat CPU 0 instructions: 523000000 cycles: 4455635193 heartbeat IPC: 0.237292 cumulative IPC: 0.236188 (Simulation time: 1 hr 38 min 36 sec) 
Heartbeat CPU 0 instructions: 524000002 cycles: 4459875910 heartbeat IPC: 0.23581 cumulative IPC: 0.236183 (Simulation time: 1 hr 38 min 41 sec) 
Heartbeat CPU 0 instructions: 525000000 cycles: 4464107323 heartbeat IPC: 0.236327 cumulative IPC: 0.236185 (Simulation time: 1 hr 38 min 46 sec) 
Heartbeat CPU 0 instructions: 526000000 cycles: 4468332402 heartbeat IPC: 0.236682 cumulative IPC: 0.236191 (Simulation time: 1 hr 38 min 51 sec) 
Heartbeat CPU 0 instructions: 527000002 cycles: 4472577966 heartbeat IPC: 0.23554 cumulative IPC: 0.236183 (Simulation time: 1 hr 38 min 56 sec) 
Heartbeat CPU 0 instructions: 528000000 cycles: 4476812639 heartbeat IPC: 0.236145 cumulative IPC: 0.236182 (Simulation time: 1 hr 39 min 1 sec) 
Heartbeat CPU 0 instructions: 529000001 cycles: 4481031880 heartbeat IPC: 0.23701 cumulative IPC: 0.236193 (Simulation time: 1 hr 39 min 6 sec) 
Heartbeat CPU 0 instructions: 530000001 cycles: 4485272314 heartbeat IPC: 0.235825 cumulative IPC: 0.236188 (Simulation time: 1 hr 39 min 11 sec) 
Heartbeat CPU 0 instructions: 531000001 cycles: 4489472840 heartbeat IPC: 0.238065 cumulative IPC: 0.236211 (Simulation time: 1 hr 39 min 15 sec) 
Heartbeat CPU 0 instructions: 532000001 cycles: 4493750641 heartbeat IPC: 0.233765 cumulative IPC: 0.236181 (Simulation time: 1 hr 39 min 20 sec) 
Heartbeat CPU 0 instructions: 533000000 cycles: 4497995287 heartbeat IPC: 0.235591 cumulative IPC: 0.236174 (Simulation time: 1 hr 39 min 25 sec) 
Heartbeat CPU 0 instructions: 534000000 cycles: 4502265388 heartbeat IPC: 0.234187 cumulative IPC: 0.23615 (Simulation time: 1 hr 39 min 30 sec) 
Heartbeat CPU 0 instructions: 535000000 cycles: 4506487188 heartbeat IPC: 0.236866 cumulative IPC: 0.236158 (Simulation time: 1 hr 39 min 35 sec) 
Heartbeat CPU 0 instructions: 536000000 cycles: 4510746551 heartbeat IPC: 0.234777 cumulative IPC: 0.236142 (Simulation time: 1 hr 39 min 40 sec) 
Heartbeat CPU 0 instructions: 537000002 cycles: 4514993059 heartbeat IPC: 0.235488 cumulative IPC: 0.236135 (Simulation time: 1 hr 39 min 45 sec) 
Heartbeat CPU 0 instructions: 538000001 cycles: 4519268728 heartbeat IPC: 0.233881 cumulative IPC: 0.236109 (Simulation time: 1 hr 39 min 50 sec) 
Heartbeat CPU 0 instructions: 539000000 cycles: 4523555571 heartbeat IPC: 0.233272 cumulative IPC: 0.236077 (Simulation time: 1 hr 39 min 55 sec) 
Heartbeat CPU 0 instructions: 540000001 cycles: 4527768593 heartbeat IPC: 0.23736 cumulative IPC: 0.236091 (Simulation time: 1 hr 40 min 0 sec) 
Heartbeat CPU 0 instructions: 541000000 cycles: 4532009266 heartbeat IPC: 0.235811 cumulative IPC: 0.236088 (Simulation time: 1 hr 40 min 5 sec) 
Heartbeat CPU 0 instructions: 542000002 cycles: 4536236976 heartbeat IPC: 0.236535 cumulative IPC: 0.236093 (Simulation time: 1 hr 40 min 10 sec) 
Heartbeat CPU 0 instructions: 543000001 cycles: 4540477516 heartbeat IPC: 0.235819 cumulative IPC: 0.23609 (Simulation time: 1 hr 40 min 15 sec) 
[...]
Heartbeat CPU 0 instructions: 834000000 cycles: 5757326036 heartbeat IPC: 0.234975 cumulative IPC: 0.238396 (Simulation time: 2 hr 8 min 35 sec) 
Heartbeat CPU 0 instructions: 835000000 cycles: 5761597245 heartbeat IPC: 0.234126 cumulative IPC: 0.238385 (Simulation time: 2 hr 8 min 44 sec) 
Heartbeat CPU 0 instructions: 836000000 cycles: 5765884443 heartbeat IPC: 0.233253 cumulative IPC: 0.238371 (Simulation time: 2 hr 8 min 54 sec) 
Heartbeat CPU 0 instructions: 837000000 cycles: 5770121761 heartbeat IPC: 0.235998 cumulative IPC: 0.238365 (Simulation time: 2 hr 9 min 2 sec) 
Heartbeat CPU 0 instructions: 838000001 cycles: 5774347684 heartbeat IPC: 0.236635 cumulative IPC: 0.23836 (Simulation time: 2 hr 9 min 12 sec) 
Heartbeat CPU 0 instructions: 839000001 cycles: 5778586816 heartbeat IPC: 0.235897 cumulative IPC: 0.238354 (Simulation time: 2 hr 9 min 21 sec) 
Heartbeat CPU 0 instructions: 840000000 cycles: 5782870108 heartbeat IPC: 0.233465 cumulative IPC: 0.238341 (Simulation time: 2 hr 9 min 31 sec) 
Heartbeat CPU 0 instructions: 841000001 cycles: 5787101995 heartbeat IPC: 0.236301 cumulative IPC: 0.238336 (Simulation time: 2 hr 9 min 40 sec) 
Heartbeat CPU 0 instructions: 842000001 cycles: 5791300767 heartbeat IPC: 0.238165 cumulative IPC: 0.238335 (Simulation time: 2 hr 9 min 50 sec) 
Heartbeat CPU 0 instructions: 843000003 cycles: 5795477003 heartbeat IPC: 0.239451 cumulative IPC: 0.238338 (Simulation time: 2 hr 9 min 57 sec) 
Heartbeat CPU 0 instructions: 844000000 cycles: 5799682965 heartbeat IPC: 0.237757 cumulative IPC: 0.238337 (Simulation time: 2 hr 10 min 3 sec) 
Heartbeat CPU 0 instructions: 845000001 cycles: 5803929951 heartbeat IPC: 0.235461 cumulative IPC: 0.238329 (Simulation time: 2 hr 10 min 10 sec) 
Heartbeat CPU 0 instructions: 846000000 cycles: 5808181590 heartbeat IPC: 0.235203 cumulative IPC: 0.238321 (Simulation time: 2 hr 10 min 16 sec) 
Heartbeat CPU 0 instructions: 847000000 cycles: 5812431164 heartbeat IPC: 0.235318 cumulative IPC: 0.238314 (Simulation time: 2 hr 10 min 22 sec) 
Heartbeat CPU 0 instructions: 848000001 cycles: 5816667170 heartbeat IPC: 0.236072 cumulative IPC: 0.238308 (Simulation time: 2 hr 10 min 30 sec) 
Heartbeat CPU 0 instructions: 849000003 cycles: 5820872217 heartbeat IPC: 0.23781 cumulative IPC: 0.238307 (Simulation time: 2 hr 10 min 40 sec) 
Heartbeat CPU 0 instructions: 850000000 cycles: 5825135440 heartbeat IPC: 0.234564 cumulative IPC: 0.238297 (Simulation time: 2 hr 10 min 49 sec) 
Heartbeat CPU 0 instructions: 851000000 cycles: 5829387822 heartbeat IPC: 0.235162 cumulative IPC: 0.238289 (Simulation time: 2 hr 10 min 59 sec) 
Heartbeat CPU 0 instructions: 852000003 cycles: 5833636026 heartbeat IPC: 0.235394 cumulative IPC: 0.238282 (Simulation time: 2 hr 11 min 8 sec) 
Heartbeat CPU 0 instructions: 853000000 cycles: 5837880037 heartbeat IPC: 0.235625 cumulative IPC: 0.238275 (Simulation time: 2 hr 11 min 17 sec) 
Heartbeat CPU 0 instructions: 854000001 cycles: 5842118824 heartbeat IPC: 0.235917 cumulative IPC: 0.238269 (Simulation time: 2 hr 11 min 27 sec) 
Heartbeat CPU 0 instructions: 855000001 cycles: 5846345567 heartbeat IPC: 0.236589 cumulative IPC: 0.238265 (Simulation time: 2 hr 11 min 36 sec) 
Heartbeat CPU 0 instructions: 856000000 cycles: 5850559150 heartbeat IPC: 0.237327 cumulative IPC: 0.238263 (Simulation time: 2 hr 11 min 46 sec) 
Heartbeat CPU 0 instructions: 857000003 cycles: 5854778557 heartbeat IPC: 0.237001 cumulative IPC: 0.23826 (Simulation time: 2 hr 11 min 53 sec) 
Heartbeat CPU 0 instructions: 858000000 cycles: 5859014765 heartbeat IPC: 0.236059 cumulative IPC: 0.238254 (Simulation time: 2 hr 11 min 59 sec) 
Heartbeat CPU 0 instructions: 859000001 cycles: 5862448243 heartbeat IPC: 0.29125 cumulative IPC: 0.23836 (Simulation time: 2 hr 12 min 6 sec) 
Heartbeat CPU 0 instructions: 860000001 cycles: 5866785808 heartbeat IPC: 0.230544 cumulative IPC: 0.238341 (Simulation time: 2 hr 12 min 14 sec) 
Heartbeat CPU 0 instructions: 861000001 cycles: 5871026121 heartbeat IPC: 0.235832 cumulative IPC: 0.238335 (Simulation time: 2 hr 12 min 23 sec) 
Heartbeat CPU 0 instructions: 862000002 cycles: 5875273327 heartbeat IPC: 0.235449 cumulative IPC: 0.238327 (Simulation time: 2 hr 12 min 32 sec) 
Heartbeat CPU 0 instructions: 863000001 cycles: 5879511677 heartbeat IPC: 0.235941 cumulative IPC: 0.238322 (Simulation time: 2 hr 12 min 42 sec) 
Heartbeat CPU 0 instructions: 864000003 cycles: 5883746679 heartbeat IPC: 0.236128 cumulative IPC: 0.238316 (Simulation time: 2 hr 12 min 51 sec) 
Heartbeat CPU 0 instructions: 865000000 cycles: 5887980968 heartbeat IPC: 0.236166 cumulative IPC: 0.238311 (Simulation time: 2 hr 13 min 1 sec) 
Heartbeat CPU 0 instructions: 866000000 cycles: 5892245366 heartbeat IPC: 0.2345 cumulative IPC: 0.238302 (Simulation time: 2 hr 13 min 11 sec) 
Heartbeat CPU 0 instructions: 867000000 cycles: 5896489980 heartbeat IPC: 0.235593 cumulative IPC: 0.238295 (Simulation time: 2 hr 13 min 20 sec) 
Heartbeat CPU 0 instructions: 868000002 cycles: 5900711173 heartbeat IPC: 0.2369 cumulative IPC: 0.238292 (Simulation time: 2 hr 13 min 30 sec) 
Heartbeat CPU 0 instructions: 869000000 cycles: 5904942367 heartbeat IPC: 0.236339 cumulative IPC: 0.238287 (Simulation time: 2 hr 13 min 39 sec) 
Heartbeat CPU 0 instructions: 870000002 cycles: 5909141226 heartbeat IPC: 0.23816 cumulative IPC: 0.238287 (Simulation time: 2 hr 13 min 49 sec) 
Heartbeat CPU 0 instructions: 871000000 cycles: 5913409058 heartbeat IPC: 0.234311 cumulative IPC: 0.238277 (Simulation time: 2 hr 13 min 59 sec) 
Heartbeat CPU 0 instructions: 872000001 cycles: 5917681619 heartbeat IPC: 0.234052 cumulative IPC: 0.238267 (Simulation time: 2 hr 14 min 9 sec) 
Heartbeat CPU 0 instructions: 873000001 cycles: 5921995288 heartbeat IPC: 0.231821 cumulative IPC: 0.238251 (Simulation time: 2 hr 14 min 18 sec) 
Heartbeat CPU 0 instructions: 874000000 cycles: 5926239471 heartbeat IPC: 0.235616 cumulative IPC: 0.238245 (Simulation time: 2 hr 14 min 28 sec) 
Heartbeat CPU 0 instructions: 875000000 cycles: 5930503595 heartbeat IPC: 0.234515 cumulative IPC: 0.238236 (Simulation time: 2 hr 14 min 37 sec) 
Heartbeat CPU 0 instructions: 876000000 cycles: 5934797377 heartbeat IPC: 0.232895 cumulative IPC: 0.238223 (Simulation time: 2 hr 14 min 47 sec) 
Heartbeat CPU 0 instructions: 877000001 cycles: 5939043331 heartbeat IPC: 0.235519 cumulative IPC: 0.238217 (Simulation time: 2 hr 14 min 56 sec) 
Heartbeat CPU 0 instructions: 878000003 cycles: 5943244343 heartbeat IPC: 0.238038 cumulative IPC: 0.238217 (Simulation time: 2 hr 15 min 6 sec) 
Heartbeat CPU 0 instructions: 879000001 cycles: 5947483121 heartbeat IPC: 0.235917 cumulative IPC: 0.238211 (Simulation time: 2 hr 15 min 15 sec) 
Heartbeat CPU 0 instructions: 880000000 cycles: 5951631766 heartbeat IPC: 0.241042 cumulative IPC: 0.238218 (Simulation time: 2 hr 15 min 25 sec) 
Heartbeat CPU 0 instructions: 881000000 cycles: 5955841876 heartbeat IPC: 0.237523 cumulative IPC: 0.238216 (Simulation time: 2 hr 15 min 35 sec) 
Heartbeat CPU 0 instructions: 882000002 cycles: 5960112007 heartbeat IPC: 0.234185 cumulative IPC: 0.238206 (Simulation time: 2 hr 15 min 44 sec) 
Heartbeat CPU 0 instructions: 883000000 cycles: 5964333113 heartbeat IPC: 0.236904 cumulative IPC: 0.238203 (Simulation time: 2 hr 15 min 54 sec) 
Heartbeat CPU 0 instructions: 884000001 cycles: 5968582878 heartbeat IPC: 0.235307 cumulative IPC: 0.238197 (Simulation time: 2 hr 16 min 4 sec) 
Heartbeat CPU 0 instructions: 885000000 cycles: 5972821848 heartbeat IPC: 0.235906 cumulative IPC: 0.238191 (Simulation time: 2 hr 16 min 14 sec) 
Heartbeat CPU 0 instructions: 886000002 cycles: 5977040990 heartbeat IPC: 0.237015 cumulative IPC: 0.238189 (Simulation time: 2 hr 16 min 23 sec) 
Heartbeat CPU 0 instructions: 887000000 cycles: 5981273620 heartbeat IPC: 0.236259 cumulative IPC: 0.238184 (Simulation time: 2 hr 16 min 31 sec) 
Heartbeat CPU 0 instructions: 888000000 cycles: 5985475951 heartbeat IPC: 0.237963 cumulative IPC: 0.238184 (Simulation time: 2 hr 16 min 37 sec) 
Heartbeat CPU 0 instructions: 889000003 cycles: 5989692643 heartbeat IPC: 0.237153 cumulative IPC: 0.238181 (Simulation time: 2 hr 16 min 43 sec) 
Heartbeat CPU 0 instructions: 890000003 cycles: 5993953337 heartbeat IPC: 0.234704 cumulative IPC: 0.238173 (Simulation time: 2 hr 16 min 50 sec) 
Heartbeat CPU 0 instructions: 891000000 cycles: 5998166892 heartbeat IPC: 0.237329 cumulative IPC: 0.238171 (Simulation time: 2 hr 16 min 57 sec) 
Heartbeat CPU 0 instructions: 892000000 cycles: 6002405454 heartbeat IPC: 0.235929 cumulative IPC: 0.238166 (Simulation time: 2 hr 17 min 2 sec) 
Heartbeat CPU 0 instructions: 893000000 cycles: 6006615872 heartbeat IPC: 0.237506 cumulative IPC: 0.238165 (Simulation time: 2 hr 17 min 7 sec) 
Heartbeat CPU 0 instructions: 894000000 cycles: 6010860634 heartbeat IPC: 0.235584 cumulative IPC: 0.238159 (Simulation time: 2 hr 17 min 13 sec) 
Heartbeat CPU 0 instructions: 895000000 cycles: 6015127225 heartbeat IPC: 0.234379 cumulative IPC: 0.23815 (Simulation time: 2 hr 17 min 19 sec) 
Heartbeat CPU 0 instructions: 896000000 cycles: 6019125923 heartbeat IPC: 0.250081 cumulative IPC: 0.238176 (Simulation time: 2 hr 17 min 26 sec) 
Heartbeat CPU 0 instructions: 897000000 cycles: 6023371701 heartbeat IPC: 0.235528 cumulative IPC: 0.23817 (Simulation time: 2 hr 17 min 36 sec) 
Heartbeat CPU 0 instructions: 898000000 cycles: 6027608730 heartbeat IPC: 0.236014 cumulative IPC: 0.238165 (Simulation time: 2 hr 17 min 46 sec) 
Heartbeat CPU 0 instructions: 899000002 cycles: 6031875353 heartbeat IPC: 0.234378 cumulative IPC: 0.238156 (Simulation time: 2 hr 17 min 55 sec) 
Heartbeat CPU 0 instructions: 900000000 cycles: 6036184213 heartbeat IPC: 0.232079 cumulative IPC: 0.238143 (Simulation time: 2 hr 18 min 5 sec) 
Heartbeat CPU 0 instructions: 901000000 cycles: 6040462983 heartbeat IPC: 0.233712 cumulative IPC: 0.238133 (Simulation time: 2 hr 18 min 14 sec) 
Heartbeat CPU 0 instructions: 902000000 cycles: 6044673037 heartbeat IPC: 0.237527 cumulative IPC: 0.238131 (Simulation time: 2 hr 18 min 24 sec) 
Heartbeat CPU 0 instructions: 903000000 cycles: 6048920743 heartbeat IPC: 0.235421 cumulative IPC: 0.238125 (Simulation time: 2 hr 18 min 33 sec) 
Heartbeat CPU 0 instructions: 904000000 cycles: 6053145969 heartbeat IPC: 0.236674 cumulative IPC: 0.238122 (Simulation time: 2 hr 18 min 42 sec) 
Heartbeat CPU 0 instructions: 905000001 cycles: 6057365048 heartbeat IPC: 0.237019 cumulative IPC: 0.238119 (Simulation time: 2 hr 18 min 47 sec) 
Heartbeat CPU 0 instructions: 906000000 cycles: 6061582685 heartbeat IPC: 0.237099 cumulative IPC: 0.238117 (Simulation time: 2 hr 18 min 53 sec) 
Heartbeat CPU 0 instructions: 907000002 cycles: 6065829247 heartbeat IPC: 0.235485 cumulative IPC: 0.238111 (Simulation time: 2 hr 19 min 2 sec) 
Heartbeat CPU 0 instructions: 908000000 cycles: 6070083308 heartbeat IPC: 0.235069 cumulative IPC: 0.238105 (Simulation time: 2 hr 19 min 9 sec) 
Heartbeat CPU 0 instructions: 909000003 cycles: 6074335361 heartbeat IPC: 0.235181 cumulative IPC: 0.238098 (Simulation time: 2 hr 19 min 14 sec) 
Heartbeat CPU 0 instructions: 910000003 cycles: 6078571935 heartbeat IPC: 0.23604 cumulative IPC: 0.238094 (Simulation time: 2 hr 19 min 21 sec) 
Heartbeat CPU 0 instructions: 911000000 cycles: 6082828824 heartbeat IPC: 0.234913 cumulative IPC: 0.238087 (Simulation time: 2 hr 19 min 26 sec) 
Heartbeat CPU 0 instructions: 912000000 cycles: 6087096368 heartbeat IPC: 0.234327 cumulative IPC: 0.238078 (Simulation time: 2 hr 19 min 32 sec) 
Heartbeat CPU 0 instructions: 913000000 cycles: 6091368538 heartbeat IPC: 0.234073 cumulative IPC: 0.23807 (Simulation time: 2 hr 19 min 37 sec) 
Heartbeat CPU 0 instructions: 914000001 cycles: 6095602678 heartbeat IPC: 0.236176 cumulative IPC: 0.238066 (Simulation time: 2 hr 19 min 44 sec) 
Heartbeat CPU 0 instructions: 915000001 cycles: 6099887154 heartbeat IPC: 0.233401 cumulative IPC: 0.238055 (Simulation time: 2 hr 19 min 50 sec) 
Heartbeat CPU 0 instructions: 916000001 cycles: 6104110330 heartbeat IPC: 0.236789 cumulative IPC: 0.238053 (Simulation time: 2 hr 19 min 59 sec) 
Heartbeat CPU 0 instructions: 917000002 cycles: 6108294492 heartbeat IPC: 0.238997 cumulative IPC: 0.238055 (Simulation time: 2 hr 20 min 9 sec) 
Heartbeat CPU 0 instructions: 918000000 cycles: 6112525263 heartbeat IPC: 0.236363 cumulative IPC: 0.238051 (Simulation time: 2 hr 20 min 18 sec) 
Heartbeat CPU 0 instructions: 919000001 cycles: 6116704060 heartbeat IPC: 0.239304 cumulative IPC: 0.238054 (Simulation time: 2 hr 20 min 28 sec) 
Heartbeat CPU 0 instructions: 920000000 cycles: 6120881931 heartbeat IPC: 0.239356 cumulative IPC: 0.238056 (Simulation time: 2 hr 20 min 37 sec) 
Heartbeat CPU 0 instructions: 921000002 cycles: 6125156401 heartbeat IPC: 0.233948 cumulative IPC: 0.238047 (Simulation time: 2 hr 20 min 47 sec) 
Heartbeat CPU 0 instructions: 922000000 cycles: 6129436183 heartbeat IPC: 0.233656 cumulative IPC: 0.238038 (Simulation time: 2 hr 20 min 57 sec) 
Heartbeat CPU 0 instructions: 923000001 cycles: 6133660412 heartbeat IPC: 0.23673 cumulative IPC: 0.238035 (Simulation time: 2 hr 21 min 6 sec) 
Heartbeat CPU 0 instructions: 924000000 cycles: 6137882521 heartbeat IPC: 0.236848 cumulative IPC: 0.238033 (Simulation time: 2 hr 21 min 16 sec) 
Heartbeat CPU 0 instructions: 925000001 cycles: 6142090965 heartbeat IPC: 0.237618 cumulative IPC: 0.238032 (Simulation time: 2 hr 21 min 25 sec) 
Heartbeat CPU 0 instructions: 926000000 cycles: 6146296868 heartbeat IPC: 0.237761 cumulative IPC: 0.238031 (Simulation time: 2 hr 21 min 35 sec) 
Heartbeat CPU 0 instructions: 927000002 cycles: 6150504648 heartbeat IPC: 0.237655 cumulative IPC: 0.23803 (Simulation time: 2 hr 21 min 45 sec) 
Heartbeat CPU 0 instructions: 928000001 cycles: 6154777146 heartbeat IPC: 0.234055 cumulative IPC: 0.238022 (Simulation time: 2 hr 21 min 54 sec) 
Heartbeat CPU 0 instructions: 929000002 cycles: 6159095933 heartbeat IPC: 0.231547 cumulative IPC: 0.238008 (Simulation time: 2 hr 22 min 4 sec) 
Heartbeat CPU 0 instructions: 930000001 cycles: 6163368349 heartbeat IPC: 0.234059 cumulative IPC: 0.238 (Simulation time: 2 hr 22 min 12 sec) 
Heartbeat CPU 0 instructions: 931000002 cycles: 6167629621 heartbeat IPC: 0.234672 cumulative IPC: 0.237993 (Simulation time: 2 hr 22 min 17 sec) 
Heartbeat CPU 0 instructions: 932000001 cycles: 6171905007 heartbeat IPC: 0.233897 cumulative IPC: 0.237984 (Simulation time: 2 hr 22 min 25 sec) 
Heartbeat CPU 0 instructions: 933000003 cycles: 6176161747 heartbeat IPC: 0.234922 cumulative IPC: 0.237978 (Simulation time: 2 hr 22 min 31 sec) 
Heartbeat CPU 0 instructions: 934000003 cycles: 6180368338 heartbeat IPC: 0.237722 cumulative IPC: 0.237977 (Simulation time: 2 hr 22 min 36 sec) 
Heartbeat CPU 0 instructions: 935000000 cycles: 6182977867 heartbeat IPC: 0.38321 cumulative IPC: 0.238163 (Simulation time: 2 hr 22 min 40 sec) 
Heartbeat CPU 0 instructions: 936000000 cycles: 6184725934 heartbeat IPC: 0.57206 cumulative IPC: 0.23845 (Simulation time: 2 hr 22 min 45 sec) 
Heartbeat CPU 0 instructions: 937000001 cycles: 6188262950 heartbeat IPC: 0.282724 cumulative IPC: 0.238526 (Simulation time: 2 hr 22 min 54 sec) 
Heartbeat CPU 0 instructions: 938000002 cycles: 6192506263 heartbeat IPC: 0.235665 cumulative IPC: 0.23852 (Simulation time: 2 hr 23 min 3 sec) 
Heartbeat CPU 0 instructions: 939000001 cycles: 6196727805 heartbeat IPC: 0.23688 cumulative IPC: 0.238517 (Simulation time: 2 hr 23 min 10 sec) 
Heartbeat CPU 0 instructions: 940000001 cycles: 6200946697 heartbeat IPC: 0.237029 cumulative IPC: 0.238514 (Simulation time: 2 hr 23 min 19 sec) 
Heartbeat CPU 0 instructions: 941000000 cycles: 6205188318 heartbeat IPC: 0.235759 cumulative IPC: 0.238508 (Simulation time: 2 hr 23 min 27 sec) 
Heartbeat CPU 0 instructions: 942000000 cycles: 6209426711 heartbeat IPC: 0.235938 cumulative IPC: 0.238503 (Simulation time: 2 hr 23 min 32 sec) 
Heartbeat CPU 0 instructions: 943000000 cycles: 6213665029 heartbeat IPC: 0.235943 cumulative IPC: 0.238498 (Simulation time: 2 hr 23 min 40 sec) 
Heartbeat CPU 0 instructions: 944000003 cycles: 6217884990 heartbeat IPC: 0.23697 cumulative IPC: 0.238495 (Simulation time: 2 hr 23 min 49 sec) 
Heartbeat CPU 0 instructions: 945000000 cycles: 6222142849 heartbeat IPC: 0.234859 cumulative IPC: 0.238487 (Simulation time: 2 hr 23 min 57 sec) 
Heartbeat CPU 0 instructions: 946000000 cycles: 6226388272 heartbeat IPC: 0.235548 cumulative IPC: 0.238481 (Simulation time: 2 hr 24 min 4 sec) 
Heartbeat CPU 0 instructions: 947000001 cycles: 6230682841 heartbeat IPC: 0.232852 cumulative IPC: 0.23847 (Simulation time: 2 hr 24 min 10 sec) 
Heartbeat CPU 0 instructions: 948000002 cycles: 6234936981 heartbeat IPC: 0.235065 cumulative IPC: 0.238463 (Simulation time: 2 hr 24 min 20 sec) 
Heartbeat CPU 0 instructions: 949000000 cycles: 6239168682 heartbeat IPC: 0.236311 cumulative IPC: 0.238458 (Simulation time: 2 hr 24 min 29 sec) 
Heartbeat CPU 0 instructions: 950000000 cycles: 6243449166 heartbeat IPC: 0.233618 cumulative IPC: 0.238448 (Simulation time: 2 hr 24 min 39 sec) 
Finished CPU 0 instructions: 500000000 cycles: 2096889795 cumulative IPC: 0.238448 (Simulation time: 2 hr 24 min 39 sec) 

ChampSim completed all CPUs

Region of Interest Statistics

CPU 0 cumulative IPC: 0.238448 instructions: 500000000 cycles: 2096889795
L1D TOTAL     ACCESS:   77930744  HIT:   43428818  MISS:   34501926
L1D LOAD      ACCESS:   70553593  HIT:   36081576  MISS:   34472017
L1D RFO       ACCESS:    7377151  HIT:    7347242  MISS:      29909
L1D PREFETCH  ACCESS:          0  HIT:          0  MISS:          0
L1D WRITEBACK ACCESS:          0  HIT:          0  MISS:          0
L1D PREFETCH  REQUESTED:          0  ISSUED:          0  USEFUL:          0  USELESS:          0
L1D AVERAGE MISS LATENCY: 47.9321 cycles
L1I TOTAL     ACCESS:  115581677  HIT:  115581662  MISS:         15
L1I LOAD      ACCESS:  115581677  HIT:  115581662  MISS:         15
L1I RFO       ACCESS:          0  HIT:          0  MISS:          0
L1I PREFETCH  ACCESS:          0  HIT:          0  MISS:          0
L1I WRITEBACK ACCESS:          0  HIT:          0  MISS:          0
L1I PREFETCH  REQUESTED:          0  ISSUED:          0  USEFUL:          0  USELESS:          0
L1I AVERAGE MISS LATENCY: 204.067 cycles
L2C TOTAL     ACCESS:   34574178  HIT:     127731  MISS:   34446447
L2C LOAD      ACCESS:   34472024  HIT:      46388  MISS:   34425636
L2C RFO       ACCESS:      29909  HIT:       9253  MISS:      20656
L2C PREFETCH  ACCESS:          0  HIT:          0  MISS:          0
L2C WRITEBACK ACCESS:      72245  HIT:      72090  MISS:        155
L2C PREFETCH  REQUESTED:          0  ISSUED:          0  USEFUL:          0  USELESS:          0
L2C AVERAGE MISS LATENCY: 32.9729 cycles
LLC TOTAL     ACCESS:   88990547  HIT:   54057649  MISS:   34932898
LLC LOAD      ACCESS:   34425636  HIT:   32483989  MISS:    1941647
LLC RFO       ACCESS:      20656  HIT:       5284  MISS:      15372
LLC PREFETCH  ACCESS:   54479850  HIT:   21504298  MISS:   32975552
LLC WRITEBACK ACCESS:      64405  HIT:      64078  MISS:        327
LLC PREFETCH  REQUESTED:   68662756  ISSUED:   68635466  USEFUL:   32431976  USELESS:     543025
LLC AVERAGE MISS LATENCY: 81.6196 cycles
Major fault: 0 Minor fault: 55995
performance stats:
mapping cache size: 2842516
divergence: 58415

DRAM Statistics
 CHANNEL 0
 RQ ROW_BUFFER_HIT:   30143027  ROW_BUFFER_MISS:    4789544
 DBUS_CONGESTED:    3823095
 WQ ROW_BUFFER_HIT:      19597  ROW_BUFFER_MISS:      40252  FULL:          0

 AVG_CONGESTED_CYCLE: 8

CPU 0 Branch Prediction Accuracy: 99.6802% MPKI: 1.13185 Average ROB Occupancy at Mispredict: 249.079

Branch types
NOT_BRANCH: 323063470 64.6127%
BRANCH_DIRECT_JUMP: 1925294 0.385059%
BRANCH_INDIRECT: 0 0%
BRANCH_CONDITIONAL: 173147419 34.6295%
BRANCH_DIRECT_CALL: 931949 0.18639%
BRANCH_INDIRECT_CALL: 0 0%
BRANCH_RETURN: 931949 0.18639%
BRANCH_OTHER: 0 0%

