
*** ChampSim Multicore Out-of-Order Simulator ***

Warmup Instructions: 1000000
Prefetch Warmup Instructions: 450000000
Simulation Instructions: 500000000
Stat Printing Period: 1000000
Number of CPUs: 1
LLC sets: 2048
LLC ways: 16
Off-chip DRAM Size: 4096 MB Channels: 1 Width: 64-bit Data Rate: 3200 MT/s

CPU 0 runs /scratch/cluster/cmolder/ML-DPC/ChampSimTraces/spec17/602.gcc-s0.trace.xz
Read seed: 272
Heartbeat CPU 0 instructions: 1000001 cycles: 487879 heartbeat IPC: 2.04969 cumulative IPC: 2.04969 (Simulation time: 0 hr 0 min 3 sec) 

Warmup complete CPU 0 instructions: 1000001 cycles: 487879 (Simulation time: 0 hr 0 min 3 sec) 

Heartbeat CPU 0 instructions: 2000003 cycles: 3358859 heartbeat IPC: 0.348314 cumulative IPC: 0.348314 (Simulation time: 0 hr 0 min 7 sec) 
Heartbeat CPU 0 instructions: 3000000 cycles: 6236591 heartbeat IPC: 0.347495 cumulative IPC: 0.347904 (Simulation time: 0 hr 0 min 12 sec) 
Heartbeat CPU 0 instructions: 4000001 cycles: 9106559 heartbeat IPC: 0.348436 cumulative IPC: 0.348081 (Simulation time: 0 hr 0 min 16 sec) 
Heartbeat CPU 0 instructions: 5000001 cycles: 11988487 heartbeat IPC: 0.34699 cumulative IPC: 0.347808 (Simulation time: 0 hr 0 min 21 sec) 
Heartbeat CPU 0 instructions: 6000000 cycles: 14881999 heartbeat IPC: 0.3456 cumulative IPC: 0.347364 (Simulation time: 0 hr 0 min 25 sec) 
Heartbeat CPU 0 instructions: 7000003 cycles: 17748213 heartbeat IPC: 0.348893 cumulative IPC: 0.347618 (Simulation time: 0 hr 0 min 30 sec) 
Heartbeat CPU 0 instructions: 8000000 cycles: 20616365 heartbeat IPC: 0.348656 cumulative IPC: 0.347766 (Simulation time: 0 hr 0 min 34 sec) 
Heartbeat CPU 0 instructions: 9000000 cycles: 23506027 heartbeat IPC: 0.346061 cumulative IPC: 0.347552 (Simulation time: 0 hr 0 min 38 sec) 
Heartbeat CPU 0 instructions: 10000002 cycles: 26392321 heartbeat IPC: 0.346466 cumulative IPC: 0.347431 (Simulation time: 0 hr 0 min 43 sec) 
Heartbeat CPU 0 instructions: 11000000 cycles: 29263775 heartbeat IPC: 0.348255 cumulative IPC: 0.347513 (Simulation time: 0 hr 0 min 48 sec) 
Heartbeat CPU 0 instructions: 12000002 cycles: 32139325 heartbeat IPC: 0.34776 cumulative IPC: 0.347535 (Simulation time: 0 hr 0 min 52 sec) 
Heartbeat CPU 0 instructions: 13000000 cycles: 35030530 heartbeat IPC: 0.345876 cumulative IPC: 0.347397 (Simulation time: 0 hr 0 min 57 sec) 
Heartbeat CPU 0 instructions: 14000001 cycles: 37922262 heartbeat IPC: 0.345814 cumulative IPC: 0.347274 (Simulation time: 0 hr 1 min 2 sec) 
Heartbeat CPU 0 instructions: 15000001 cycles: 40809587 heartbeat IPC: 0.346341 cumulative IPC: 0.347208 (Simulation time: 0 hr 1 min 7 sec) 
Heartbeat CPU 0 instructions: 16000003 cycles: 43707581 heartbeat IPC: 0.345067 cumulative IPC: 0.347064 (Simulation time: 0 hr 1 min 11 sec) 
Heartbeat CPU 0 instructions: 17000001 cycles: 46598847 heartbeat IPC: 0.345869 cumulative IPC: 0.346989 (Simulation time: 0 hr 1 min 16 sec) 
Heartbeat CPU 0 instructions: 18000000 cycles: 49477657 heartbeat IPC: 0.347365 cumulative IPC: 0.347011 (Simulation time: 0 hr 1 min 20 sec) 
Heartbeat CPU 0 instructions: 19000001 cycles: 52352345 heartbeat IPC: 0.347864 cumulative IPC: 0.347058 (Simulation time: 0 hr 1 min 25 sec) 
Heartbeat CPU 0 instructions: 20000000 cycles: 55228729 heartbeat IPC: 0.347658 cumulative IPC: 0.34709 (Simulation time: 0 hr 1 min 30 sec) 
Heartbeat CPU 0 instructions: 21000000 cycles: 58117534 heartbeat IPC: 0.346164 cumulative IPC: 0.347044 (Simulation time: 0 hr 1 min 34 sec) 
Heartbeat CPU 0 instructions: 22000000 cycles: 61004407 heartbeat IPC: 0.346396 cumulative IPC: 0.347013 (Simulation time: 0 hr 1 min 39 sec) 
Heartbeat CPU 0 instructions: 23000000 cycles: 63878594 heartbeat IPC: 0.347924 cumulative IPC: 0.347054 (Simulation time: 0 hr 1 min 44 sec) 
Heartbeat CPU 0 instructions: 24000002 cycles: 66765112 heartbeat IPC: 0.346439 cumulative IPC: 0.347027 (Simulation time: 0 hr 1 min 48 sec) 
Heartbeat CPU 0 instructions: 25000003 cycles: 69655239 heartbeat IPC: 0.346006 cumulative IPC: 0.346985 (Simulation time: 0 hr 1 min 53 sec) 
Heartbeat CPU 0 instructions: 26000003 cycles: 72541909 heartbeat IPC: 0.34642 cumulative IPC: 0.346962 (Simulation time: 0 hr 1 min 58 sec) 
Heartbeat CPU 0 instructions: 27000000 cycles: 75410793 heartbeat IPC: 0.348567 cumulative IPC: 0.347023 (Simulation time: 0 hr 2 min 3 sec) 
Heartbeat CPU 0 instructions: 28000003 cycles: 78258016 heartbeat IPC: 0.35122 cumulative IPC: 0.347177 (Simulation time: 0 hr 2 min 7 sec) 
Heartbeat CPU 0 instructions: 29000000 cycles: 81148941 heartbeat IPC: 0.345909 cumulative IPC: 0.347132 (Simulation time: 0 hr 2 min 12 sec) 
Heartbeat CPU 0 instructions: 30000000 cycles: 84031432 heartbeat IPC: 0.346922 cumulative IPC: 0.347124 (Simulation time: 0 hr 2 min 17 sec) 
Heartbeat CPU 0 instructions: 31000000 cycles: 86885992 heartbeat IPC: 0.350317 cumulative IPC: 0.34723 (Simulation time: 0 hr 2 min 21 sec) 
Heartbeat CPU 0 instructions: 32000001 cycles: 89790244 heartbeat IPC: 0.344323 cumulative IPC: 0.347135 (Simulation time: 0 hr 2 min 26 sec) 
Heartbeat CPU 0 instructions: 33000000 cycles: 92671321 heartbeat IPC: 0.347092 cumulative IPC: 0.347134 (Simulation time: 0 hr 2 min 31 sec) 
Heartbeat CPU 0 instructions: 34000000 cycles: 95550808 heartbeat IPC: 0.347284 cumulative IPC: 0.347138 (Simulation time: 0 hr 2 min 35 sec) 
Heartbeat CPU 0 instructions: 35000000 cycles: 98435508 heartbeat IPC: 0.346657 cumulative IPC: 0.347124 (Simulation time: 0 hr 2 min 40 sec) 
Heartbeat CPU 0 instructions: 36000002 cycles: 101313701 heartbeat IPC: 0.347441 cumulative IPC: 0.347133 (Simulation time: 0 hr 2 min 45 sec) 
Heartbeat CPU 0 instructions: 37000000 cycles: 104187472 heartbeat IPC: 0.347974 cumulative IPC: 0.347157 (Simulation time: 0 hr 2 min 49 sec) 
Heartbeat CPU 0 instructions: 38000000 cycles: 107077826 heartbeat IPC: 0.345978 cumulative IPC: 0.347125 (Simulation time: 0 hr 2 min 54 sec) 
Heartbeat CPU 0 instructions: 39000000 cycles: 109963123 heartbeat IPC: 0.346585 cumulative IPC: 0.34711 (Simulation time: 0 hr 2 min 59 sec) 
Heartbeat CPU 0 instructions: 40000000 cycles: 112840797 heartbeat IPC: 0.347503 cumulative IPC: 0.34712 (Simulation time: 0 hr 3 min 3 sec) 
Heartbeat CPU 0 instructions: 41000002 cycles: 115732523 heartbeat IPC: 0.345815 cumulative IPC: 0.347088 (Simulation time: 0 hr 3 min 8 sec) 
Heartbeat CPU 0 instructions: 42000000 cycles: 118616251 heartbeat IPC: 0.346773 cumulative IPC: 0.34708 (Simulation time: 0 hr 3 min 12 sec) 
Heartbeat CPU 0 instructions: 43000000 cycles: 121506041 heartbeat IPC: 0.346046 cumulative IPC: 0.347055 (Simulation time: 0 hr 3 min 17 sec) 
Heartbeat CPU 0 instructions: 44000000 cycles: 124382016 heartbeat IPC: 0.347708 cumulative IPC: 0.34707 (Simulation time: 0 hr 3 min 22 sec) 
Heartbeat CPU 0 instructions: 45000001 cycles: 127256197 heartbeat IPC: 0.347926 cumulative IPC: 0.34709 (Simulation time: 0 hr 3 min 26 sec) 
Heartbeat CPU 0 instructions: 46000003 cycles: 130145866 heartbeat IPC: 0.346061 cumulative IPC: 0.347067 (Simulation time: 0 hr 3 min 31 sec) 
Heartbeat CPU 0 instructions: 47000002 cycles: 133043664 heartbeat IPC: 0.345089 cumulative IPC: 0.347024 (Simulation time: 0 hr 3 min 36 sec) 
Heartbeat CPU 0 instructions: 48000001 cycles: 135915485 heartbeat IPC: 0.348211 cumulative IPC: 0.347049 (Simulation time: 0 hr 3 min 40 sec) 
Heartbeat CPU 0 instructions: 49000002 cycles: 138795811 heartbeat IPC: 0.347183 cumulative IPC: 0.347052 (Simulation time: 0 hr 3 min 44 sec) 
Heartbeat CPU 0 instructions: 50000000 cycles: 141673789 heartbeat IPC: 0.347465 cumulative IPC: 0.34706 (Simulation time: 0 hr 3 min 49 sec) 
Heartbeat CPU 0 instructions: 51000001 cycles: 144558848 heartbeat IPC: 0.346614 cumulative IPC: 0.347051 (Simulation time: 0 hr 3 min 53 sec) 
Heartbeat CPU 0 instructions: 52000001 cycles: 147431506 heartbeat IPC: 0.34811 cumulative IPC: 0.347072 (Simulation time: 0 hr 3 min 58 sec) 
Heartbeat CPU 0 instructions: 53000003 cycles: 150309262 heartbeat IPC: 0.347494 cumulative IPC: 0.34708 (Simulation time: 0 hr 4 min 2 sec) 
Heartbeat CPU 0 instructions: 54000000 cycles: 153191345 heartbeat IPC: 0.34697 cumulative IPC: 0.347078 (Simulation time: 0 hr 4 min 7 sec) 
Heartbeat CPU 0 instructions: 55000000 cycles: 156083150 heartbeat IPC: 0.345805 cumulative IPC: 0.347054 (Simulation time: 0 hr 4 min 11 sec) 
Heartbeat CPU 0 instructions: 56000000 cycles: 158952505 heartbeat IPC: 0.34851 cumulative IPC: 0.347081 (Simulation time: 0 hr 4 min 15 sec) 
Heartbeat CPU 0 instructions: 57000000 cycles: 161834057 heartbeat IPC: 0.347035 cumulative IPC: 0.34708 (Simulation time: 0 hr 4 min 20 sec) 
Heartbeat CPU 0 instructions: 58000000 cycles: 164727335 heartbeat IPC: 0.345629 cumulative IPC: 0.347054 (Simulation time: 0 hr 4 min 24 sec) 
Heartbeat CPU 0 instructions: 59000001 cycles: 167615692 heartbeat IPC: 0.346218 cumulative IPC: 0.34704 (Simulation time: 0 hr 4 min 29 sec) 
Heartbeat CPU 0 instructions: 60000003 cycles: 170496392 heartbeat IPC: 0.347139 cumulative IPC: 0.347041 (Simulation time: 0 hr 4 min 33 sec) 
Heartbeat CPU 0 instructions: 61000000 cycles: 173365198 heartbeat IPC: 0.348576 cumulative IPC: 0.347067 (Simulation time: 0 hr 4 min 37 sec) 
Heartbeat CPU 0 instructions: 62000000 cycles: 176247209 heartbeat IPC: 0.34698 cumulative IPC: 0.347066 (Simulation time: 0 hr 4 min 42 sec) 
Heartbeat CPU 0 instructions: 63000000 cycles: 179135083 heartbeat IPC: 0.346276 cumulative IPC: 0.347053 (Simulation time: 0 hr 4 min 46 sec) 
Heartbeat CPU 0 instructions: 64000001 cycles: 182010961 heartbeat IPC: 0.34772 cumulative IPC: 0.347063 (Simulation time: 0 hr 4 min 51 sec) 
Heartbeat CPU 0 instructions: 65000001 cycles: 184893043 heartbeat IPC: 0.346971 cumulative IPC: 0.347062 (Simulation time: 0 hr 4 min 55 sec) 
Heartbeat CPU 0 instructions: 66000000 cycles: 187765884 heartbeat IPC: 0.348087 cumulative IPC: 0.347078 (Simulation time: 0 hr 4 min 59 sec) 
Heartbeat CPU 0 instructions: 67000002 cycles: 190643917 heartbeat IPC: 0.34746 cumulative IPC: 0.347083 (Simulation time: 0 hr 5 min 4 sec) 
Heartbeat CPU 0 instructions: 68000000 cycles: 193530300 heartbeat IPC: 0.346454 cumulative IPC: 0.347074 (Simulation time: 0 hr 5 min 8 sec) 
Heartbeat CPU 0 instructions: 69000003 cycles: 196401681 heartbeat IPC: 0.348266 cumulative IPC: 0.347091 (Simulation time: 0 hr 5 min 13 sec) 
Heartbeat CPU 0 instructions: 70000002 cycles: 199280476 heartbeat IPC: 0.347367 cumulative IPC: 0.347095 (Simulation time: 0 hr 5 min 17 sec) 
Heartbeat CPU 0 instructions: 71000000 cycles: 202171030 heartbeat IPC: 0.345954 cumulative IPC: 0.347079 (Simulation time: 0 hr 5 min 22 sec) 
Heartbeat CPU 0 instructions: 72000002 cycles: 205038186 heartbeat IPC: 0.348778 cumulative IPC: 0.347103 (Simulation time: 0 hr 5 min 26 sec) 
Heartbeat CPU 0 instructions: 73000000 cycles: 207921025 heartbeat IPC: 0.34688 cumulative IPC: 0.3471 (Simulation time: 0 hr 5 min 30 sec) 
Heartbeat CPU 0 instructions: 74000002 cycles: 210800095 heartbeat IPC: 0.347335 cumulative IPC: 0.347103 (Simulation time: 0 hr 5 min 35 sec) 
Heartbeat CPU 0 instructions: 75000003 cycles: 213687114 heartbeat IPC: 0.346378 cumulative IPC: 0.347093 (Simulation time: 0 hr 5 min 39 sec) 
Heartbeat CPU 0 instructions: 76000000 cycles: 216574259 heartbeat IPC: 0.346362 cumulative IPC: 0.347083 (Simulation time: 0 hr 5 min 44 sec) 
Heartbeat CPU 0 instructions: 77000000 cycles: 219450757 heartbeat IPC: 0.347645 cumulative IPC: 0.347091 (Simulation time: 0 hr 5 min 48 sec) 
Heartbeat CPU 0 instructions: 78000000 cycles: 222337238 heartbeat IPC: 0.346443 cumulative IPC: 0.347082 (Simulation time: 0 hr 5 min 52 sec) 
Heartbeat CPU 0 instructions: 79000001 cycles: 225211392 heartbeat IPC: 0.347929 cumulative IPC: 0.347093 (Simulation time: 0 hr 5 min 57 sec) 
Heartbeat CPU 0 instructions: 80000003 cycles: 228087239 heartbeat IPC: 0.347724 cumulative IPC: 0.347101 (Simulation time: 0 hr 6 min 1 sec) 
Heartbeat CPU 0 instructions: 81000001 cycles: 230956469 heartbeat IPC: 0.348525 cumulative IPC: 0.347119 (Simulation time: 0 hr 6 min 6 sec) 
Heartbeat CPU 0 instructions: 82000001 cycles: 233830634 heartbeat IPC: 0.347927 cumulative IPC: 0.347129 (Simulation time: 0 hr 6 min 10 sec) 
Heartbeat CPU 0 instructions: 83000000 cycles: 236708203 heartbeat IPC: 0.347515 cumulative IPC: 0.347134 (Simulation time: 0 hr 6 min 15 sec) 
Heartbeat CPU 0 instructions: 84000000 cycles: 239594304 heartbeat IPC: 0.346488 cumulative IPC: 0.347126 (Simulation time: 0 hr 6 min 19 sec) 
Heartbeat CPU 0 instructions: 85000001 cycles: 242479831 heartbeat IPC: 0.346557 cumulative IPC: 0.347119 (Simulation time: 0 hr 6 min 23 sec) 
Heartbeat CPU 0 instructions: 86000001 cycles: 245369799 heartbeat IPC: 0.346025 cumulative IPC: 0.347106 (Simulation time: 0 hr 6 min 28 sec) 
Heartbeat CPU 0 instructions: 87000003 cycles: 248253517 heartbeat IPC: 0.346775 cumulative IPC: 0.347102 (Simulation time: 0 hr 6 min 33 sec) 
Heartbeat CPU 0 instructions: 88000000 cycles: 251146424 heartbeat IPC: 0.345672 cumulative IPC: 0.347086 (Simulation time: 0 hr 6 min 37 sec) 
Heartbeat CPU 0 instructions: 89000000 cycles: 254032074 heartbeat IPC: 0.346542 cumulative IPC: 0.34708 (Simulation time: 0 hr 6 min 42 sec) 
Heartbeat CPU 0 instructions: 90000001 cycles: 256918258 heartbeat IPC: 0.346479 cumulative IPC: 0.347073 (Simulation time: 0 hr 6 min 46 sec) 
Heartbeat CPU 0 instructions: 91000003 cycles: 259811059 heartbeat IPC: 0.345686 cumulative IPC: 0.347057 (Simulation time: 0 hr 6 min 50 sec) 
Heartbeat CPU 0 instructions: 92000003 cycles: 262699028 heartbeat IPC: 0.346264 cumulative IPC: 0.347049 (Simulation time: 0 hr 6 min 55 sec) 
Heartbeat CPU 0 instructions: 93000003 cycles: 265576673 heartbeat IPC: 0.347506 cumulative IPC: 0.347054 (Simulation time: 0 hr 6 min 59 sec) 
Heartbeat CPU 0 instructions: 94000000 cycles: 268445787 heartbeat IPC: 0.348539 cumulative IPC: 0.347069 (Simulation time: 0 hr 7 min 4 sec) 
Heartbeat CPU 0 instructions: 95000000 cycles: 271333638 heartbeat IPC: 0.346278 cumulative IPC: 0.347061 (Simulation time: 0 hr 7 min 8 sec) 
Heartbeat CPU 0 instructions: 96000000 cycles: 274220425 heartbeat IPC: 0.346406 cumulative IPC: 0.347054 (Simulation time: 0 hr 7 min 13 sec) 
Heartbeat CPU 0 instructions: 97000002 cycles: 277101041 heartbeat IPC: 0.347149 cumulative IPC: 0.347055 (Simulation time: 0 hr 7 min 17 sec) 
Heartbeat CPU 0 instructions: 98000001 cycles: 279977334 heartbeat IPC: 0.347669 cumulative IPC: 0.347061 (Simulation time: 0 hr 7 min 22 sec) 
Heartbeat CPU 0 instructions: 99000000 cycles: 282864267 heartbeat IPC: 0.346388 cumulative IPC: 0.347055 (Simulation time: 0 hr 7 min 26 sec) 
Heartbeat CPU 0 instructions: 100000002 cycles: 285749338 heartbeat IPC: 0.346613 cumulative IPC: 0.34705 (Simulation time: 0 hr 7 min 30 sec) 
Heartbeat CPU 0 instructions: 101000001 cycles: 288626661 heartbeat IPC: 0.347545 cumulative IPC: 0.347055 (Simulation time: 0 hr 7 min 35 sec) 
Heartbeat CPU 0 instructions: 102000000 cycles: 291529996 heartbeat IPC: 0.344431 cumulative IPC: 0.347029 (Simulation time: 0 hr 7 min 39 sec) 
Heartbeat CPU 0 instructions: 103000003 cycles: 294414068 heartbeat IPC: 0.346733 cumulative IPC: 0.347026 (Simulation time: 0 hr 7 min 44 sec) 
Heartbeat CPU 0 instructions: 104000003 cycles: 297301209 heartbeat IPC: 0.346363 cumulative IPC: 0.347019 (Simulation time: 0 hr 7 min 48 sec) 
Heartbeat CPU 0 instructions: 105000002 cycles: 300173533 heartbeat IPC: 0.34815 cumulative IPC: 0.34703 (Simulation time: 0 hr 7 min 53 sec) 
Heartbeat CPU 0 instructions: 106000002 cycles: 303056246 heartbeat IPC: 0.346895 cumulative IPC: 0.347029 (Simulation time: 0 hr 7 min 57 sec) 
Heartbeat CPU 0 instructions: 107000003 cycles: 305945964 heartbeat IPC: 0.346055 cumulative IPC: 0.34702 (Simulation time: 0 hr 8 min 2 sec) 
Heartbeat CPU 0 instructions: 108000002 cycles: 308833643 heartbeat IPC: 0.346299 cumulative IPC: 0.347013 (Simulation time: 0 hr 8 min 6 sec) 
Heartbeat CPU 0 instructions: 109000000 cycles: 311710918 heartbeat IPC: 0.34755 cumulative IPC: 0.347018 (Simulation time: 0 hr 8 min 11 sec) 
Heartbeat CPU 0 instructions: 110000000 cycles: 314579513 heartbeat IPC: 0.348603 cumulative IPC: 0.347032 (Simulation time: 0 hr 8 min 15 sec) 
Heartbeat CPU 0 instructions: 111000002 cycles: 317449061 heartbeat IPC: 0.348488 cumulative IPC: 0.347046 (Simulation time: 0 hr 8 min 20 sec) 
Heartbeat CPU 0 instructions: 112000003 cycles: 320337043 heartbeat IPC: 0.346263 cumulative IPC: 0.347039 (Simulation time: 0 hr 8 min 24 sec) 
Heartbeat CPU 0 instructions: 113000000 cycles: 323214821 heartbeat IPC: 0.347489 cumulative IPC: 0.347043 (Simulation time: 0 hr 8 min 28 sec) 
Heartbeat CPU 0 instructions: 114000000 cycles: 326087096 heartbeat IPC: 0.348156 cumulative IPC: 0.347052 (Simulation time: 0 hr 8 min 33 sec) 
Heartbeat CPU 0 instructions: 115000003 cycles: 328965975 heartbeat IPC: 0.347358 cumulative IPC: 0.347055 (Simulation time: 0 hr 8 min 37 sec) 
Heartbeat CPU 0 instructions: 116000000 cycles: 331850061 heartbeat IPC: 0.346729 cumulative IPC: 0.347052 (Simulation time: 0 hr 8 min 42 sec) 
Heartbeat CPU 0 instructions: 117000000 cycles: 334739098 heartbeat IPC: 0.346136 cumulative IPC: 0.347044 (Simulation time: 0 hr 8 min 46 sec) 
Heartbeat CPU 0 instructions: 118000000 cycles: 337635515 heartbeat IPC: 0.345254 cumulative IPC: 0.347029 (Simulation time: 0 hr 8 min 51 sec) 
Heartbeat CPU 0 instructions: 119000003 cycles: 340503350 heartbeat IPC: 0.348696 cumulative IPC: 0.347043 (Simulation time: 0 hr 8 min 55 sec) 
Heartbeat CPU 0 instructions: 120000003 cycles: 343366685 heartbeat IPC: 0.349243 cumulative IPC: 0.347061 (Simulation time: 0 hr 9 min 0 sec) 
Heartbeat CPU 0 instructions: 121000000 cycles: 346250904 heartbeat IPC: 0.346713 cumulative IPC: 0.347059 (Simulation time: 0 hr 9 min 4 sec) 
Heartbeat CPU 0 instructions: 122000000 cycles: 349133766 heartbeat IPC: 0.346878 cumulative IPC: 0.347057 (Simulation time: 0 hr 9 min 9 sec) 
Heartbeat CPU 0 instructions: 123000001 cycles: 352008216 heartbeat IPC: 0.347893 cumulative IPC: 0.347064 (Simulation time: 0 hr 9 min 13 sec) 
Heartbeat CPU 0 instructions: 124000002 cycles: 354888984 heartbeat IPC: 0.34713 cumulative IPC: 0.347064 (Simulation time: 0 hr 9 min 18 sec) 
Heartbeat CPU 0 instructions: 125000001 cycles: 357767847 heartbeat IPC: 0.347359 cumulative IPC: 0.347067 (Simulation time: 0 hr 9 min 22 sec) 
Heartbeat CPU 0 instructions: 126000001 cycles: 360655586 heartbeat IPC: 0.346292 cumulative IPC: 0.347061 (Simulation time: 0 hr 9 min 27 sec) 
Heartbeat CPU 0 instructions: 127000002 cycles: 363532313 heartbeat IPC: 0.347618 cumulative IPC: 0.347065 (Simulation time: 0 hr 9 min 31 sec) 
Heartbeat CPU 0 instructions: 128000001 cycles: 366408729 heartbeat IPC: 0.347655 cumulative IPC: 0.34707 (Simulation time: 0 hr 9 min 36 sec) 
Heartbeat CPU 0 instructions: 129000000 cycles: 369294987 heartbeat IPC: 0.346469 cumulative IPC: 0.347065 (Simulation time: 0 hr 9 min 41 sec) 
Heartbeat CPU 0 instructions: 130000003 cycles: 372170959 heartbeat IPC: 0.34771 cumulative IPC: 0.34707 (Simulation time: 0 hr 9 min 45 sec) 
Heartbeat CPU 0 instructions: 131000000 cycles: 375045741 heartbeat IPC: 0.347851 cumulative IPC: 0.347076 (Simulation time: 0 hr 9 min 50 sec) 
Heartbeat CPU 0 instructions: 132000000 cycles: 377937019 heartbeat IPC: 0.345868 cumulative IPC: 0.347067 (Simulation time: 0 hr 9 min 55 sec) 
Heartbeat CPU 0 instructions: 133000000 cycles: 380825823 heartbeat IPC: 0.346164 cumulative IPC: 0.34706 (Simulation time: 0 hr 9 min 59 sec) 
Heartbeat CPU 0 instructions: 134000003 cycles: 383700235 heartbeat IPC: 0.347898 cumulative IPC: 0.347066 (Simulation time: 0 hr 10 min 4 sec) 
Heartbeat CPU 0 instructions: 135000001 cycles: 386568219 heartbeat IPC: 0.348676 cumulative IPC: 0.347078 (Simulation time: 0 hr 10 min 9 sec) 
Heartbeat CPU 0 instructions: 136000002 cycles: 389460549 heartbeat IPC: 0.345742 cumulative IPC: 0.347068 (Simulation time: 0 hr 10 min 14 sec) 
Heartbeat CPU 0 instructions: 137000002 cycles: 392344843 heartbeat IPC: 0.346705 cumulative IPC: 0.347065 (Simulation time: 0 hr 10 min 19 sec) 
Heartbeat CPU 0 instructions: 138000003 cycles: 395229628 heartbeat IPC: 0.346647 cumulative IPC: 0.347062 (Simulation time: 0 hr 10 min 23 sec) 
Heartbeat CPU 0 instructions: 139000000 cycles: 398089009 heartbeat IPC: 0.349725 cumulative IPC: 0.347082 (Simulation time: 0 hr 10 min 28 sec) 
Heartbeat CPU 0 instructions: 140000000 cycles: 400965799 heartbeat IPC: 0.34761 cumulative IPC: 0.347085 (Simulation time: 0 hr 10 min 33 sec) 
Heartbeat CPU 0 instructions: 141000002 cycles: 403856344 heartbeat IPC: 0.345956 cumulative IPC: 0.347077 (Simulation time: 0 hr 10 min 38 sec) 
Heartbeat CPU 0 instructions: 142000001 cycles: 406726109 heartbeat IPC: 0.34846 cumulative IPC: 0.347087 (Simulation time: 0 hr 10 min 42 sec) 
Heartbeat CPU 0 instructions: 143000000 cycles: 409596716 heartbeat IPC: 0.348358 cumulative IPC: 0.347096 (Simulation time: 0 hr 10 min 47 sec) 
Heartbeat CPU 0 instructions: 144000001 cycles: 412498863 heartbeat IPC: 0.344573 cumulative IPC: 0.347078 (Simulation time: 0 hr 10 min 51 sec) 
Heartbeat CPU 0 instructions: 145000000 cycles: 415379786 heartbeat IPC: 0.347111 cumulative IPC: 0.347078 (Simulation time: 0 hr 10 min 56 sec) 
Heartbeat CPU 0 instructions: 146000002 cycles: 418260829 heartbeat IPC: 0.347097 cumulative IPC: 0.347078 (Simulation time: 0 hr 11 min 1 sec) 
Heartbeat CPU 0 instructions: 147000000 cycles: 421116811 heartbeat IPC: 0.350142 cumulative IPC: 0.347099 (Simulation time: 0 hr 11 min 5 sec) 
Heartbeat CPU 0 instructions: 148000000 cycles: 423996979 heartbeat IPC: 0.347202 cumulative IPC: 0.3471 (Simulation time: 0 hr 11 min 10 sec) 
Heartbeat CPU 0 instructions: 149000001 cycles: 426879663 heartbeat IPC: 0.346899 cumulative IPC: 0.347099 (Simulation time: 0 hr 11 min 15 sec) 
Heartbeat CPU 0 instructions: 150000000 cycles: 429748119 heartbeat IPC: 0.348619 cumulative IPC: 0.347109 (Simulation time: 0 hr 11 min 20 sec) 
Heartbeat CPU 0 instructions: 151000002 cycles: 432640819 heartbeat IPC: 0.345698 cumulative IPC: 0.347099 (Simulation time: 0 hr 11 min 24 sec) 
Heartbeat CPU 0 instructions: 152000001 cycles: 435522042 heartbeat IPC: 0.347074 cumulative IPC: 0.347099 (Simulation time: 0 hr 11 min 29 sec) 
Heartbeat CPU 0 instructions: 153000001 cycles: 438431448 heartbeat IPC: 0.343713 cumulative IPC: 0.347077 (Simulation time: 0 hr 11 min 34 sec) 
Heartbeat CPU 0 instructions: 154000000 cycles: 441312743 heartbeat IPC: 0.347066 cumulative IPC: 0.347077 (Simulation time: 0 hr 11 min 38 sec) 
Heartbeat CPU 0 instructions: 155000002 cycles: 444185537 heartbeat IPC: 0.348094 cumulative IPC: 0.347083 (Simulation time: 0 hr 11 min 43 sec) 
Heartbeat CPU 0 instructions: 156000000 cycles: 447068982 heartbeat IPC: 0.346807 cumulative IPC: 0.347081 (Simulation time: 0 hr 11 min 47 sec) 
Heartbeat CPU 0 instructions: 157000003 cycles: 449948435 heartbeat IPC: 0.347289 cumulative IPC: 0.347083 (Simulation time: 0 hr 11 min 52 sec) 
Heartbeat CPU 0 instructions: 158000002 cycles: 452829331 heartbeat IPC: 0.347114 cumulative IPC: 0.347083 (Simulation time: 0 hr 11 min 56 sec) 
Heartbeat CPU 0 instructions: 159000001 cycles: 455696651 heartbeat IPC: 0.348757 cumulative IPC: 0.347093 (Simulation time: 0 hr 12 min 1 sec) 
Heartbeat CPU 0 instructions: 160000000 cycles: 458572059 heartbeat IPC: 0.347776 cumulative IPC: 0.347098 (Simulation time: 0 hr 12 min 5 sec) 
Heartbeat CPU 0 instructions: 161000000 cycles: 461467879 heartbeat IPC: 0.345325 cumulative IPC: 0.347087 (Simulation time: 0 hr 12 min 10 sec) 
Heartbeat CPU 0 instructions: 162000000 cycles: 464354546 heartbeat IPC: 0.34642 cumulative IPC: 0.347082 (Simulation time: 0 hr 12 min 14 sec) 
Heartbeat CPU 0 instructions: 163000002 cycles: 467229371 heartbeat IPC: 0.347848 cumulative IPC: 0.347087 (Simulation time: 0 hr 12 min 19 sec) 
Heartbeat CPU 0 instructions: 164000003 cycles: 470106221 heartbeat IPC: 0.347603 cumulative IPC: 0.34709 (Simulation time: 0 hr 12 min 23 sec) 
Heartbeat CPU 0 instructions: 165000000 cycles: 472999483 heartbeat IPC: 0.34563 cumulative IPC: 0.347081 (Simulation time: 0 hr 12 min 28 sec) 
Heartbeat CPU 0 instructions: 166000003 cycles: 475888286 heartbeat IPC: 0.346165 cumulative IPC: 0.347076 (Simulation time: 0 hr 12 min 33 sec) 
Heartbeat CPU 0 instructions: 167000000 cycles: 478763072 heartbeat IPC: 0.347851 cumulative IPC: 0.34708 (Simulation time: 0 hr 12 min 37 sec) 
Heartbeat CPU 0 instructions: 168000000 cycles: 481633427 heartbeat IPC: 0.348389 cumulative IPC: 0.347088 (Simulation time: 0 hr 12 min 42 sec) 
Heartbeat CPU 0 instructions: 169000000 cycles: 484516016 heartbeat IPC: 0.34691 cumulative IPC: 0.347087 (Simulation time: 0 hr 12 min 46 sec) 
Heartbeat CPU 0 instructions: 170000003 cycles: 487408931 heartbeat IPC: 0.345673 cumulative IPC: 0.347079 (Simulation time: 0 hr 12 min 51 sec) 
Heartbeat CPU 0 instructions: 171000003 cycles: 490284941 heartbeat IPC: 0.347704 cumulative IPC: 0.347083 (Simulation time: 0 hr 12 min 55 sec) 
Heartbeat CPU 0 instructions: 172000003 cycles: 493162368 heartbeat IPC: 0.347533 cumulative IPC: 0.347085 (Simulation time: 0 hr 12 min 59 sec) 
Heartbeat CPU 0 instructions: 173000001 cycles: 496048453 heartbeat IPC: 0.346489 cumulative IPC: 0.347082 (Simulation time: 0 hr 13 min 4 sec) 
Heartbeat CPU 0 instructions: 174000001 cycles: 498944168 heartbeat IPC: 0.345338 cumulative IPC: 0.347072 (Simulation time: 0 hr 13 min 8 sec) 
Heartbeat CPU 0 instructions: 175000000 cycles: 501815533 heartbeat IPC: 0.348266 cumulative IPC: 0.347078 (Simulation time: 0 hr 13 min 13 sec) 
Heartbeat CPU 0 instructions: 176000000 cycles: 504676655 heartbeat IPC: 0.349513 cumulative IPC: 0.347092 (Simulation time: 0 hr 13 min 17 sec) 
Heartbeat CPU 0 instructions: 177000000 cycles: 507555984 heartbeat IPC: 0.347303 cumulative IPC: 0.347093 (Simulation time: 0 hr 13 min 22 sec) 
Heartbeat CPU 0 instructions: 178000003 cycles: 510436853 heartbeat IPC: 0.347119 cumulative IPC: 0.347094 (Simulation time: 0 hr 13 min 26 sec) 
Heartbeat CPU 0 instructions: 179000000 cycles: 513309860 heartbeat IPC: 0.348066 cumulative IPC: 0.347099 (Simulation time: 0 hr 13 min 31 sec) 
Heartbeat CPU 0 instructions: 180000000 cycles: 516182565 heartbeat IPC: 0.348104 cumulative IPC: 0.347105 (Simulation time: 0 hr 13 min 35 sec) 
Heartbeat CPU 0 instructions: 181000000 cycles: 519069544 heartbeat IPC: 0.346383 cumulative IPC: 0.347101 (Simulation time: 0 hr 13 min 40 sec) 
Heartbeat CPU 0 instructions: 182000002 cycles: 521953901 heartbeat IPC: 0.346698 cumulative IPC: 0.347098 (Simulation time: 0 hr 13 min 44 sec) 
Heartbeat CPU 0 instructions: 183000003 cycles: 524826360 heartbeat IPC: 0.348134 cumulative IPC: 0.347104 (Simulation time: 0 hr 13 min 49 sec) 
Heartbeat CPU 0 instructions: 184000001 cycles: 527701892 heartbeat IPC: 0.347761 cumulative IPC: 0.347108 (Simulation time: 0 hr 13 min 53 sec) 
Heartbeat CPU 0 instructions: 185000002 cycles: 530585524 heartbeat IPC: 0.346785 cumulative IPC: 0.347106 (Simulation time: 0 hr 13 min 58 sec) 
Heartbeat CPU 0 instructions: 186000001 cycles: 533479643 heartbeat IPC: 0.345528 cumulative IPC: 0.347097 (Simulation time: 0 hr 14 min 2 sec) 
Heartbeat CPU 0 instructions: 187000000 cycles: 536365003 heartbeat IPC: 0.346577 cumulative IPC: 0.347095 (Simulation time: 0 hr 14 min 7 sec) 
Heartbeat CPU 0 instructions: 188000000 cycles: 539256431 heartbeat IPC: 0.34585 cumulative IPC: 0.347088 (Simulation time: 0 hr 14 min 11 sec) 
Heartbeat CPU 0 instructions: 189000001 cycles: 542186691 heartbeat IPC: 0.341267 cumulative IPC: 0.347056 (Simulation time: 0 hr 14 min 16 sec) 
Heartbeat CPU 0 instructions: 190000002 cycles: 545077935 heartbeat IPC: 0.345872 cumulative IPC: 0.34705 (Simulation time: 0 hr 14 min 21 sec) 
Heartbeat CPU 0 instructions: 191000000 cycles: 547952680 heartbeat IPC: 0.347856 cumulative IPC: 0.347054 (Simulation time: 0 hr 14 min 25 sec) 
Heartbeat CPU 0 instructions: 192000000 cycles: 550832136 heartbeat IPC: 0.347288 cumulative IPC: 0.347055 (Simulation time: 0 hr 14 min 30 sec) 
Heartbeat CPU 0 instructions: 193000002 cycles: 553712208 heartbeat IPC: 0.347214 cumulative IPC: 0.347056 (Simulation time: 0 hr 14 min 35 sec) 
Heartbeat CPU 0 instructions: 194000000 cycles: 556602632 heartbeat IPC: 0.345969 cumulative IPC: 0.347051 (Simulation time: 0 hr 14 min 39 sec) 
Heartbeat CPU 0 instructions: 195000000 cycles: 559486148 heartbeat IPC: 0.346799 cumulative IPC: 0.347049 (Simulation time: 0 hr 14 min 44 sec) 
Heartbeat CPU 0 instructions: 196000002 cycles: 562360236 heartbeat IPC: 0.347937 cumulative IPC: 0.347054 (Simulation time: 0 hr 14 min 49 sec) 
Heartbeat CPU 0 instructions: 197000001 cycles: 565247046 heartbeat IPC: 0.346403 cumulative IPC: 0.347051 (Simulation time: 0 hr 14 min 53 sec) 
Heartbeat CPU 0 instructions: 198000000 cycles: 568130626 heartbeat IPC: 0.346791 cumulative IPC: 0.347049 (Simulation time: 0 hr 14 min 58 sec) 
Heartbeat CPU 0 instructions: 199000003 cycles: 571016703 heartbeat IPC: 0.346492 cumulative IPC: 0.347046 (Simulation time: 0 hr 15 min 3 sec) 
Heartbeat CPU 0 instructions: 200000000 cycles: 573891419 heartbeat IPC: 0.347859 cumulative IPC: 0.347051 (Simulation time: 0 hr 15 min 7 sec) 
Heartbeat CPU 0 instructions: 201000000 cycles: 576781014 heartbeat IPC: 0.346069 cumulative IPC: 0.347046 (Simulation time: 0 hr 15 min 12 sec) 
Heartbeat CPU 0 instructions: 202000000 cycles: 579665553 heartbeat IPC: 0.346676 cumulative IPC: 0.347044 (Simulation time: 0 hr 15 min 17 sec) 
Heartbeat CPU 0 instructions: 203000000 cycles: 582551945 heartbeat IPC: 0.346453 cumulative IPC: 0.347041 (Simulation time: 0 hr 15 min 21 sec) 
Heartbeat CPU 0 instructions: 204000001 cycles: 585420864 heartbeat IPC: 0.348564 cumulative IPC: 0.347048 (Simulation time: 0 hr 15 min 25 sec) 
Heartbeat CPU 0 instructions: 205000001 cycles: 588306202 heartbeat IPC: 0.34658 cumulative IPC: 0.347046 (Simulation time: 0 hr 15 min 30 sec) 
Heartbeat CPU 0 instructions: 206000000 cycles: 591184367 heartbeat IPC: 0.347443 cumulative IPC: 0.347048 (Simulation time: 0 hr 15 min 34 sec) 
Heartbeat CPU 0 instructions: 207000000 cycles: 594069661 heartbeat IPC: 0.346585 cumulative IPC: 0.347046 (Simulation time: 0 hr 15 min 39 sec) 
Heartbeat CPU 0 instructions: 208000003 cycles: 596946988 heartbeat IPC: 0.347546 cumulative IPC: 0.347048 (Simulation time: 0 hr 15 min 43 sec) 
Heartbeat CPU 0 instructions: 209000000 cycles: 599829189 heartbeat IPC: 0.346956 cumulative IPC: 0.347048 (Simulation time: 0 hr 15 min 48 sec) 
Heartbeat CPU 0 instructions: 210000002 cycles: 602710300 heartbeat IPC: 0.347089 cumulative IPC: 0.347048 (Simulation time: 0 hr 15 min 52 sec) 
Heartbeat CPU 0 instructions: 211000002 cycles: 605596325 heartbeat IPC: 0.346497 cumulative IPC: 0.347045 (Simulation time: 0 hr 15 min 57 sec) 
Heartbeat CPU 0 instructions: 212000002 cycles: 608478360 heartbeat IPC: 0.346977 cumulative IPC: 0.347045 (Simulation time: 0 hr 16 min 1 sec) 
Heartbeat CPU 0 instructions: 213000000 cycles: 611349337 heartbeat IPC: 0.348313 cumulative IPC: 0.347051 (Simulation time: 0 hr 16 min 6 sec) 
Heartbeat CPU 0 instructions: 214000003 cycles: 614224552 heartbeat IPC: 0.347801 cumulative IPC: 0.347054 (Simulation time: 0 hr 16 min 10 sec) 
Heartbeat CPU 0 instructions: 215000000 cycles: 617118099 heartbeat IPC: 0.345596 cumulative IPC: 0.347048 (Simulation time: 0 hr 16 min 15 sec) 
Heartbeat CPU 0 instructions: 216000002 cycles: 620029482 heartbeat IPC: 0.34348 cumulative IPC: 0.347031 (Simulation time: 0 hr 16 min 19 sec) 
Heartbeat CPU 0 instructions: 217000002 cycles: 622911954 heartbeat IPC: 0.346924 cumulative IPC: 0.34703 (Simulation time: 0 hr 16 min 24 sec) 
Heartbeat CPU 0 instructions: 218000000 cycles: 625783203 heartbeat IPC: 0.34828 cumulative IPC: 0.347036 (Simulation time: 0 hr 16 min 29 sec) 
Heartbeat CPU 0 instructions: 219000003 cycles: 628664363 heartbeat IPC: 0.347083 cumulative IPC: 0.347036 (Simulation time: 0 hr 16 min 34 sec) 
Heartbeat CPU 0 instructions: 220000000 cycles: 631551756 heartbeat IPC: 0.346332 cumulative IPC: 0.347033 (Simulation time: 0 hr 16 min 39 sec) 
Heartbeat CPU 0 instructions: 221000003 cycles: 634443657 heartbeat IPC: 0.345794 cumulative IPC: 0.347027 (Simulation time: 0 hr 16 min 43 sec) 
Heartbeat CPU 0 instructions: 222000000 cycles: 637352952 heartbeat IPC: 0.343725 cumulative IPC: 0.347012 (Simulation time: 0 hr 16 min 48 sec) 
Heartbeat CPU 0 instructions: 223000001 cycles: 640237755 heartbeat IPC: 0.346644 cumulative IPC: 0.347011 (Simulation time: 0 hr 16 min 53 sec) 
Heartbeat CPU 0 instructions: 224000001 cycles: 643133189 heartbeat IPC: 0.345371 cumulative IPC: 0.347003 (Simulation time: 0 hr 16 min 58 sec) 
Heartbeat CPU 0 instructions: 225000000 cycles: 646015403 heartbeat IPC: 0.346955 cumulative IPC: 0.347003 (Simulation time: 0 hr 17 min 2 sec) 
Heartbeat CPU 0 instructions: 226000001 cycles: 648895231 heartbeat IPC: 0.347243 cumulative IPC: 0.347004 (Simulation time: 0 hr 17 min 7 sec) 
Heartbeat CPU 0 instructions: 227000001 cycles: 651787452 heartbeat IPC: 0.345755 cumulative IPC: 0.346999 (Simulation time: 0 hr 17 min 12 sec) 
Heartbeat CPU 0 instructions: 228000002 cycles: 654673037 heartbeat IPC: 0.346551 cumulative IPC: 0.346997 (Simulation time: 0 hr 17 min 16 sec) 
Heartbeat CPU 0 instructions: 229000003 cycles: 657537279 heartbeat IPC: 0.349133 cumulative IPC: 0.347006 (Simulation time: 0 hr 17 min 21 sec) 
Heartbeat CPU 0 instructions: 230000003 cycles: 660415861 heartbeat IPC: 0.347393 cumulative IPC: 0.347008 (Simulation time: 0 hr 17 min 25 sec) 
Heartbeat CPU 0 instructions: 231000000 cycles: 663301927 heartbeat IPC: 0.346491 cumulative IPC: 0.347005 (Simulation time: 0 hr 17 min 30 sec) 
Heartbeat CPU 0 instructions: 232000003 cycles: 666188781 heartbeat IPC: 0.346399 cumulative IPC: 0.347003 (Simulation time: 0 hr 17 min 34 sec) 
Heartbeat CPU 0 instructions: 233000000 cycles: 669079683 heartbeat IPC: 0.345912 cumulative IPC: 0.346998 (Simulation time: 0 hr 17 min 38 sec) 
Heartbeat CPU 0 instructions: 234000003 cycles: 671974702 heartbeat IPC: 0.345422 cumulative IPC: 0.346991 (Simulation time: 0 hr 17 min 43 sec) 
Heartbeat CPU 0 instructions: 235000001 cycles: 674868585 heartbeat IPC: 0.345556 cumulative IPC: 0.346985 (Simulation time: 0 hr 17 min 47 sec) 
Heartbeat CPU 0 instructions: 236000000 cycles: 677769471 heartbeat IPC: 0.344722 cumulative IPC: 0.346975 (Simulation time: 0 hr 17 min 52 sec) 
Heartbeat CPU 0 instructions: 237000003 cycles: 680632122 heartbeat IPC: 0.349328 cumulative IPC: 0.346985 (Simulation time: 0 hr 17 min 57 sec) 
Heartbeat CPU 0 instructions: 238000001 cycles: 683515912 heartbeat IPC: 0.346765 cumulative IPC: 0.346984 (Simulation time: 0 hr 18 min 2 sec) 
Heartbeat CPU 0 instructions: 239000002 cycles: 686400807 heartbeat IPC: 0.346633 cumulative IPC: 0.346983 (Simulation time: 0 hr 18 min 6 sec) 
Heartbeat CPU 0 instructions: 240000000 cycles: 689288239 heartbeat IPC: 0.346328 cumulative IPC: 0.34698 (Simulation time: 0 hr 18 min 11 sec) 
Heartbeat CPU 0 instructions: 241000003 cycles: 692160531 heartbeat IPC: 0.348155 cumulative IPC: 0.346985 (Simulation time: 0 hr 18 min 15 sec) 
Heartbeat CPU 0 instructions: 242000000 cycles: 695068919 heartbeat IPC: 0.343832 cumulative IPC: 0.346972 (Simulation time: 0 hr 18 min 20 sec) 
Heartbeat CPU 0 instructions: 243000000 cycles: 697954679 heartbeat IPC: 0.346529 cumulative IPC: 0.34697 (Simulation time: 0 hr 18 min 24 sec) 
Heartbeat CPU 0 instructions: 244000000 cycles: 700840121 heartbeat IPC: 0.346567 cumulative IPC: 0.346968 (Simulation time: 0 hr 18 min 29 sec) 
Heartbeat CPU 0 instructions: 245000001 cycles: 703706209 heartbeat IPC: 0.348908 cumulative IPC: 0.346976 (Simulation time: 0 hr 18 min 34 sec) 
Heartbeat CPU 0 instructions: 246000000 cycles: 706618839 heartbeat IPC: 0.343332 cumulative IPC: 0.346961 (Simulation time: 0 hr 18 min 39 sec) 
Heartbeat CPU 0 instructions: 247000001 cycles: 709495341 heartbeat IPC: 0.347645 cumulative IPC: 0.346964 (Simulation time: 0 hr 18 min 43 sec) 
Heartbeat CPU 0 instructions: 248000001 cycles: 712387417 heartbeat IPC: 0.345772 cumulative IPC: 0.346959 (Simulation time: 0 hr 18 min 48 sec) 
Heartbeat CPU 0 instructions: 249000000 cycles: 715258985 heartbeat IPC: 0.348241 cumulative IPC: 0.346964 (Simulation time: 0 hr 18 min 52 sec) 
Heartbeat CPU 0 instructions: 250000000 cycles: 718138984 heartbeat IPC: 0.347222 cumulative IPC: 0.346965 (Simulation time: 0 hr 18 min 57 sec) 
Heartbeat CPU 0 instructions: 251000001 cycles: 721021075 heartbeat IPC: 0.346971 cumulative IPC: 0.346965 (Simulation time: 0 hr 19 min 1 sec) 
Heartbeat CPU 0 instructions: 252000000 cycles: 723898484 heartbeat IPC: 0.347535 cumulative IPC: 0.346968 (Simulation time: 0 hr 19 min 6 sec) 
Heartbeat CPU 0 instructions: 253000000 cycles: 726807021 heartbeat IPC: 0.343815 cumulative IPC: 0.346955 (Simulation time: 0 hr 19 min 10 sec) 
Heartbeat CPU 0 instructions: 254000001 cycles: 729673040 heartbeat IPC: 0.348916 cumulative IPC: 0.346963 (Simulation time: 0 hr 19 min 15 sec) 
Heartbeat CPU 0 instructions: 255000002 cycles: 732553234 heartbeat IPC: 0.347199 cumulative IPC: 0.346964 (Simulation time: 0 hr 19 min 20 sec) 
Heartbeat CPU 0 instructions: 256000003 cycles: 735432700 heartbeat IPC: 0.347287 cumulative IPC: 0.346965 (Simulation time: 0 hr 19 min 24 sec) 
Heartbeat CPU 0 instructions: 257000003 cycles: 738310384 heartbeat IPC: 0.347502 cumulative IPC: 0.346967 (Simulation time: 0 hr 19 min 29 sec) 
Heartbeat CPU 0 instructions: 258000003 cycles: 741198783 heartbeat IPC: 0.346213 cumulative IPC: 0.346964 (Simulation time: 0 hr 19 min 34 sec) 
Heartbeat CPU 0 instructions: 259000000 cycles: 744073424 heartbeat IPC: 0.347868 cumulative IPC: 0.346967 (Simulation time: 0 hr 19 min 38 sec) 
Heartbeat CPU 0 instructions: 260000000 cycles: 746995496 heartbeat IPC: 0.342223 cumulative IPC: 0.346949 (Simulation time: 0 hr 19 min 43 sec) 
Heartbeat CPU 0 instructions: 261000003 cycles: 749875021 heartbeat IPC: 0.347281 cumulative IPC: 0.34695 (Simulation time: 0 hr 19 min 48 sec) 
Heartbeat CPU 0 instructions: 262000003 cycles: 752756728 heartbeat IPC: 0.347017 cumulative IPC: 0.34695 (Simulation time: 0 hr 19 min 52 sec) 
Heartbeat CPU 0 instructions: 263000001 cycles: 755671590 heartbeat IPC: 0.343069 cumulative IPC: 0.346935 (Simulation time: 0 hr 19 min 57 sec) 
Heartbeat CPU 0 instructions: 264000000 cycles: 758576509 heartbeat IPC: 0.344243 cumulative IPC: 0.346925 (Simulation time: 0 hr 20 min 2 sec) 
Heartbeat CPU 0 instructions: 265000003 cycles: 761440986 heartbeat IPC: 0.349105 cumulative IPC: 0.346933 (Simulation time: 0 hr 20 min 6 sec) 
Heartbeat CPU 0 instructions: 266000000 cycles: 764322399 heartbeat IPC: 0.347051 cumulative IPC: 0.346934 (Simulation time: 0 hr 20 min 11 sec) 
Heartbeat CPU 0 instructions: 267000000 cycles: 767210662 heartbeat IPC: 0.346229 cumulative IPC: 0.346931 (Simulation time: 0 hr 20 min 18 sec) 
Heartbeat CPU 0 instructions: 268000002 cycles: 770100455 heartbeat IPC: 0.346046 cumulative IPC: 0.346928 (Simulation time: 0 hr 20 min 26 sec) 
Heartbeat CPU 0 instructions: 269000001 cycles: 772975069 heartbeat IPC: 0.347872 cumulative IPC: 0.346931 (Simulation time: 0 hr 20 min 34 sec) 
Heartbeat CPU 0 instructions: 270000002 cycles: 775877503 heartbeat IPC: 0.344539 cumulative IPC: 0.346922 (Simulation time: 0 hr 20 min 42 sec) 
Heartbeat CPU 0 instructions: 271000001 cycles: 778774568 heartbeat IPC: 0.345177 cumulative IPC: 0.346916 (Simulation time: 0 hr 20 min 50 sec) 
Heartbeat CPU 0 instructions: 272000002 cycles: 781655152 heartbeat IPC: 0.347152 cumulative IPC: 0.346917 (Simulation time: 0 hr 20 min 58 sec) 
Heartbeat CPU 0 instructions: 273000000 cycles: 784544548 heartbeat IPC: 0.346092 cumulative IPC: 0.346914 (Simulation time: 0 hr 21 min 6 sec) 
Heartbeat CPU 0 instructions: 274000000 cycles: 787423549 heartbeat IPC: 0.347343 cumulative IPC: 0.346915 (Simulation time: 0 hr 21 min 14 sec) 
Heartbeat CPU 0 instructions: 275000000 cycles: 790316910 heartbeat IPC: 0.345619 cumulative IPC: 0.346911 (Simulation time: 0 hr 21 min 22 sec) 
Heartbeat CPU 0 instructions: 276000000 cycles: 793195214 heartbeat IPC: 0.347427 cumulative IPC: 0.346912 (Simulation time: 0 hr 21 min 30 sec) 
Heartbeat CPU 0 instructions: 277000002 cycles: 796062097 heartbeat IPC: 0.348812 cumulative IPC: 0.346919 (Simulation time: 0 hr 21 min 38 sec) 
Heartbeat CPU 0 instructions: 278000003 cycles: 798941459 heartbeat IPC: 0.3473 cumulative IPC: 0.346921 (Simulation time: 0 hr 21 min 45 sec) 
Heartbeat CPU 0 instructions: 279000000 cycles: 801824637 heartbeat IPC: 0.346838 cumulative IPC: 0.34692 (Simulation time: 0 hr 21 min 53 sec) 
Heartbeat CPU 0 instructions: 280000001 cycles: 804712084 heartbeat IPC: 0.346327 cumulative IPC: 0.346918 (Simulation time: 0 hr 22 min 0 sec) 
Heartbeat CPU 0 instructions: 281000001 cycles: 807584814 heartbeat IPC: 0.348101 cumulative IPC: 0.346922 (Simulation time: 0 hr 22 min 5 sec) 
Heartbeat CPU 0 instructions: 282000002 cycles: 810466656 heartbeat IPC: 0.347001 cumulative IPC: 0.346923 (Simulation time: 0 hr 22 min 10 sec) 
Heartbeat CPU 0 instructions: 283000000 cycles: 813367257 heartbeat IPC: 0.344755 cumulative IPC: 0.346915 (Simulation time: 0 hr 22 min 14 sec) 
Heartbeat CPU 0 instructions: 284000001 cycles: 816274559 heartbeat IPC: 0.343962 cumulative IPC: 0.346904 (Simulation time: 0 hr 22 min 19 sec) 
Heartbeat CPU 0 instructions: 285000001 cycles: 819151632 heartbeat IPC: 0.347575 cumulative IPC: 0.346907 (Simulation time: 0 hr 22 min 24 sec) 
Heartbeat CPU 0 instructions: 286000000 cycles: 822032138 heartbeat IPC: 0.347161 cumulative IPC: 0.346908 (Simulation time: 0 hr 22 min 29 sec) 
Heartbeat CPU 0 instructions: 287000002 cycles: 824916268 heartbeat IPC: 0.346726 cumulative IPC: 0.346907 (Simulation time: 0 hr 22 min 34 sec) 
Heartbeat CPU 0 instructions: 288000000 cycles: 827794355 heartbeat IPC: 0.347452 cumulative IPC: 0.346909 (Simulation time: 0 hr 22 min 38 sec) 
Heartbeat CPU 0 instructions: 289000001 cycles: 830676029 heartbeat IPC: 0.347021 cumulative IPC: 0.346909 (Simulation time: 0 hr 22 min 43 sec) 
Heartbeat CPU 0 instructions: 290000002 cycles: 833535168 heartbeat IPC: 0.349756 cumulative IPC: 0.346919 (Simulation time: 0 hr 22 min 48 sec) 
Heartbeat CPU 0 instructions: 291000003 cycles: 836423017 heartbeat IPC: 0.346279 cumulative IPC: 0.346917 (Simulation time: 0 hr 22 min 53 sec) 
Heartbeat CPU 0 instructions: 292000003 cycles: 839319412 heartbeat IPC: 0.345257 cumulative IPC: 0.346911 (Simulation time: 0 hr 22 min 57 sec) 
Heartbeat CPU 0 instructions: 293000002 cycles: 842202067 heartbeat IPC: 0.346902 cumulative IPC: 0.346911 (Simulation time: 0 hr 23 min 2 sec) 
Heartbeat CPU 0 instructions: 294000000 cycles: 845077842 heartbeat IPC: 0.347732 cumulative IPC: 0.346914 (Simulation time: 0 hr 23 min 7 sec) 
Heartbeat CPU 0 instructions: 295000003 cycles: 847955294 heartbeat IPC: 0.347531 cumulative IPC: 0.346916 (Simulation time: 0 hr 23 min 11 sec) 
Heartbeat CPU 0 instructions: 296000000 cycles: 850845265 heartbeat IPC: 0.346023 cumulative IPC: 0.346913 (Simulation time: 0 hr 23 min 16 sec) 
Heartbeat CPU 0 instructions: 297000000 cycles: 853728768 heartbeat IPC: 0.3468 cumulative IPC: 0.346913 (Simulation time: 0 hr 23 min 21 sec) 
Heartbeat CPU 0 instructions: 298000001 cycles: 856590821 heartbeat IPC: 0.3494 cumulative IPC: 0.346921 (Simulation time: 0 hr 23 min 25 sec) 
Heartbeat CPU 0 instructions: 299000000 cycles: 859480349 heartbeat IPC: 0.346077 cumulative IPC: 0.346918 (Simulation time: 0 hr 23 min 30 sec) 
Heartbeat CPU 0 instructions: 300000000 cycles: 862360975 heartbeat IPC: 0.347147 cumulative IPC: 0.346919 (Simulation time: 0 hr 23 min 37 sec) 
Heartbeat CPU 0 instructions: 301000003 cycles: 865238997 heartbeat IPC: 0.347462 cumulative IPC: 0.346921 (Simulation time: 0 hr 23 min 45 sec) 
Heartbeat CPU 0 instructions: 302000000 cycles: 868102201 heartbeat IPC: 0.349258 cumulative IPC: 0.346928 (Simulation time: 0 hr 23 min 53 sec) 
Heartbeat CPU 0 instructions: 303000003 cycles: 870981114 heartbeat IPC: 0.347354 cumulative IPC: 0.34693 (Simulation time: 0 hr 24 min 1 sec) 
Heartbeat CPU 0 instructions: 304000001 cycles: 873895532 heartbeat IPC: 0.343121 cumulative IPC: 0.346917 (Simulation time: 0 hr 24 min 9 sec) 
Heartbeat CPU 0 instructions: 305000001 cycles: 876780144 heartbeat IPC: 0.346667 cumulative IPC: 0.346916 (Simulation time: 0 hr 24 min 17 sec) 
Heartbeat CPU 0 instructions: 306000000 cycles: 879651377 heartbeat IPC: 0.348282 cumulative IPC: 0.346921 (Simulation time: 0 hr 24 min 26 sec) 
Heartbeat CPU 0 instructions: 307000001 cycles: 882532111 heartbeat IPC: 0.347134 cumulative IPC: 0.346921 (Simulation time: 0 hr 24 min 34 sec) 
Heartbeat CPU 0 instructions: 308000000 cycles: 885418719 heartbeat IPC: 0.346427 cumulative IPC: 0.34692 (Simulation time: 0 hr 24 min 42 sec) 
Heartbeat CPU 0 instructions: 309000000 cycles: 888311579 heartbeat IPC: 0.345679 cumulative IPC: 0.346916 (Simulation time: 0 hr 24 min 50 sec) 
Heartbeat CPU 0 instructions: 310000000 cycles: 891198639 heartbeat IPC: 0.346373 cumulative IPC: 0.346914 (Simulation time: 0 hr 24 min 59 sec) 
Heartbeat CPU 0 instructions: 311000003 cycles: 894062004 heartbeat IPC: 0.34924 cumulative IPC: 0.346921 (Simulation time: 0 hr 25 min 7 sec) 
Heartbeat CPU 0 instructions: 312000001 cycles: 896934823 heartbeat IPC: 0.348089 cumulative IPC: 0.346925 (Simulation time: 0 hr 25 min 15 sec) 
Heartbeat CPU 0 instructions: 313000003 cycles: 899821532 heartbeat IPC: 0.346416 cumulative IPC: 0.346924 (Simulation time: 0 hr 25 min 24 sec) 
Heartbeat CPU 0 instructions: 314000002 cycles: 902702758 heartbeat IPC: 0.347074 cumulative IPC: 0.346924 (Simulation time: 0 hr 25 min 32 sec) 
Heartbeat CPU 0 instructions: 315000000 cycles: 905580591 heartbeat IPC: 0.347483 cumulative IPC: 0.346926 (Simulation time: 0 hr 25 min 40 sec) 
Heartbeat CPU 0 instructions: 316000000 cycles: 908466441 heartbeat IPC: 0.346518 cumulative IPC: 0.346924 (Simulation time: 0 hr 25 min 48 sec) 
Heartbeat CPU 0 instructions: 317000000 cycles: 911345397 heartbeat IPC: 0.347348 cumulative IPC: 0.346926 (Simulation time: 0 hr 25 min 57 sec) 
Heartbeat CPU 0 instructions: 318000003 cycles: 914243803 heartbeat IPC: 0.345018 cumulative IPC: 0.34692 (Simulation time: 0 hr 26 min 5 sec) 
Heartbeat CPU 0 instructions: 319000000 cycles: 917118773 heartbeat IPC: 0.347829 cumulative IPC: 0.346923 (Simulation time: 0 hr 26 min 14 sec) 
Heartbeat CPU 0 instructions: 320000001 cycles: 920008389 heartbeat IPC: 0.346067 cumulative IPC: 0.34692 (Simulation time: 0 hr 26 min 22 sec) 
Heartbeat CPU 0 instructions: 321000000 cycles: 922896525 heartbeat IPC: 0.346244 cumulative IPC: 0.346918 (Simulation time: 0 hr 26 min 31 sec) 
Heartbeat CPU 0 instructions: 322000001 cycles: 925785574 heartbeat IPC: 0.346135 cumulative IPC: 0.346915 (Simulation time: 0 hr 26 min 39 sec) 
Heartbeat CPU 0 instructions: 323000002 cycles: 928658374 heartbeat IPC: 0.348093 cumulative IPC: 0.346919 (Simulation time: 0 hr 26 min 48 sec) 
Heartbeat CPU 0 instructions: 324000000 cycles: 931527067 heartbeat IPC: 0.34859 cumulative IPC: 0.346924 (Simulation time: 0 hr 26 min 56 sec) 
Heartbeat CPU 0 instructions: 325000000 cycles: 934420409 heartbeat IPC: 0.345621 cumulative IPC: 0.34692 (Simulation time: 0 hr 27 min 4 sec) 
Heartbeat CPU 0 instructions: 326000002 cycles: 937294303 heartbeat IPC: 0.347961 cumulative IPC: 0.346923 (Simulation time: 0 hr 27 min 13 sec) 
Heartbeat CPU 0 instructions: 327000001 cycles: 940168857 heartbeat IPC: 0.34788 cumulative IPC: 0.346926 (Simulation time: 0 hr 27 min 21 sec) 
Heartbeat CPU 0 instructions: 328000003 cycles: 943055872 heartbeat IPC: 0.346379 cumulative IPC: 0.346925 (Simulation time: 0 hr 27 min 30 sec) 
Heartbeat CPU 0 instructions: 329000000 cycles: 945938912 heartbeat IPC: 0.346855 cumulative IPC: 0.346924 (Simulation time: 0 hr 27 min 38 sec) 
Heartbeat CPU 0 instructions: 330000000 cycles: 948812694 heartbeat IPC: 0.347973 cumulative IPC: 0.346928 (Simulation time: 0 hr 27 min 46 sec) 
Heartbeat CPU 0 instructions: 331000000 cycles: 951683130 heartbeat IPC: 0.348379 cumulative IPC: 0.346932 (Simulation time: 0 hr 27 min 55 sec) 
Heartbeat CPU 0 instructions: 332000000 cycles: 954574733 heartbeat IPC: 0.345829 cumulative IPC: 0.346929 (Simulation time: 0 hr 28 min 3 sec) 
Heartbeat CPU 0 instructions: 333000001 cycles: 957466206 heartbeat IPC: 0.345845 cumulative IPC: 0.346925 (Simulation time: 0 hr 28 min 11 sec) 
Heartbeat CPU 0 instructions: 334000003 cycles: 960341677 heartbeat IPC: 0.34777 cumulative IPC: 0.346928 (Simulation time: 0 hr 28 min 20 sec) 
Heartbeat CPU 0 instructions: 335000000 cycles: 963215320 heartbeat IPC: 0.347989 cumulative IPC: 0.346931 (Simulation time: 0 hr 28 min 28 sec) 
Heartbeat CPU 0 instructions: 336000002 cycles: 966103534 heartbeat IPC: 0.346235 cumulative IPC: 0.346929 (Simulation time: 0 hr 28 min 37 sec) 
Heartbeat CPU 0 instructions: 337000000 cycles: 968986099 heartbeat IPC: 0.346913 cumulative IPC: 0.346929 (Simulation time: 0 hr 28 min 45 sec) 
Heartbeat CPU 0 instructions: 338000003 cycles: 971874402 heartbeat IPC: 0.346225 cumulative IPC: 0.346927 (Simulation time: 0 hr 28 min 53 sec) 
Heartbeat CPU 0 instructions: 339000000 cycles: 974744402 heartbeat IPC: 0.348431 cumulative IPC: 0.346931 (Simulation time: 0 hr 29 min 2 sec) 
Heartbeat CPU 0 instructions: 340000000 cycles: 977629100 heartbeat IPC: 0.346657 cumulative IPC: 0.34693 (Simulation time: 0 hr 29 min 10 sec) 
Heartbeat CPU 0 instructions: 341000000 cycles: 980518947 heartbeat IPC: 0.346039 cumulative IPC: 0.346928 (Simulation time: 0 hr 29 min 19 sec) 
Heartbeat CPU 0 instructions: 342000003 cycles: 983418612 heartbeat IPC: 0.344868 cumulative IPC: 0.346922 (Simulation time: 0 hr 29 min 27 sec) 
Heartbeat CPU 0 instructions: 343000001 cycles: 986298117 heartbeat IPC: 0.347281 cumulative IPC: 0.346923 (Simulation time: 0 hr 29 min 35 sec) 
Heartbeat CPU 0 instructions: 344000000 cycles: 989185724 heartbeat IPC: 0.346307 cumulative IPC: 0.346921 (Simulation time: 0 hr 29 min 44 sec) 
Heartbeat CPU 0 instructions: 345000000 cycles: 992083622 heartbeat IPC: 0.345078 cumulative IPC: 0.346916 (Simulation time: 0 hr 29 min 52 sec) 
Heartbeat CPU 0 instructions: 346000002 cycles: 994970478 heartbeat IPC: 0.346398 cumulative IPC: 0.346914 (Simulation time: 0 hr 30 min 1 sec) 
Heartbeat CPU 0 instructions: 347000000 cycles: 997832434 heartbeat IPC: 0.349411 cumulative IPC: 0.346921 (Simulation time: 0 hr 30 min 9 sec) 
Heartbeat CPU 0 instructions: 348000000 cycles: 1000704898 heartbeat IPC: 0.348133 cumulative IPC: 0.346925 (Simulation time: 0 hr 30 min 17 sec) 
Heartbeat CPU 0 instructions: 349000003 cycles: 1003579110 heartbeat IPC: 0.347923 cumulative IPC: 0.346928 (Simulation time: 0 hr 30 min 26 sec) 
Heartbeat CPU 0 instructions: 350000000 cycles: 1006463900 heartbeat IPC: 0.346645 cumulative IPC: 0.346927 (Simulation time: 0 hr 30 min 34 sec) 
Heartbeat CPU 0 instructions: 351000002 cycles: 1009348498 heartbeat IPC: 0.346669 cumulative IPC: 0.346926 (Simulation time: 0 hr 30 min 43 sec) 
Heartbeat CPU 0 instructions: 352000000 cycles: 1012233664 heartbeat IPC: 0.3466 cumulative IPC: 0.346925 (Simulation time: 0 hr 30 min 51 sec) 
Heartbeat CPU 0 instructions: 353000003 cycles: 1015111033 heartbeat IPC: 0.347541 cumulative IPC: 0.346927 (Simulation time: 0 hr 30 min 56 sec) 
Heartbeat CPU 0 instructions: 354000001 cycles: 1017996204 heartbeat IPC: 0.346599 cumulative IPC: 0.346926 (Simulation time: 0 hr 31 min 1 sec) 
Heartbeat CPU 0 instructions: 355000003 cycles: 1020868652 heartbeat IPC: 0.348136 cumulative IPC: 0.346929 (Simulation time: 0 hr 31 min 6 sec) 
Heartbeat CPU 0 instructions: 356000003 cycles: 1023747346 heartbeat IPC: 0.34738 cumulative IPC: 0.346931 (Simulation time: 0 hr 31 min 10 sec) 
Heartbeat CPU 0 instructions: 357000003 cycles: 1026631774 heartbeat IPC: 0.346689 cumulative IPC: 0.34693 (Simulation time: 0 hr 31 min 15 sec) 
Heartbeat CPU 0 instructions: 358000002 cycles: 1029523993 heartbeat IPC: 0.345755 cumulative IPC: 0.346927 (Simulation time: 0 hr 31 min 22 sec) 
Heartbeat CPU 0 instructions: 359000002 cycles: 1032405483 heartbeat IPC: 0.347043 cumulative IPC: 0.346927 (Simulation time: 0 hr 31 min 29 sec) 
Heartbeat CPU 0 instructions: 360000000 cycles: 1035284256 heartbeat IPC: 0.34737 cumulative IPC: 0.346928 (Simulation time: 0 hr 31 min 37 sec) 
Heartbeat CPU 0 instructions: 361000001 cycles: 1038163236 heartbeat IPC: 0.347346 cumulative IPC: 0.346929 (Simulation time: 0 hr 31 min 45 sec) 
Heartbeat CPU 0 instructions: 362000002 cycles: 1041068588 heartbeat IPC: 0.344193 cumulative IPC: 0.346922 (Simulation time: 0 hr 31 min 51 sec) 
Heartbeat CPU 0 instructions: 363000000 cycles: 1043933710 heartbeat IPC: 0.349025 cumulative IPC: 0.346927 (Simulation time: 0 hr 31 min 57 sec) 
Heartbeat CPU 0 instructions: 364000003 cycles: 1046822042 heartbeat IPC: 0.346222 cumulative IPC: 0.346925 (Simulation time: 0 hr 32 min 5 sec) 
Heartbeat CPU 0 instructions: 365000000 cycles: 1049701057 heartbeat IPC: 0.34734 cumulative IPC: 0.346927 (Simulation time: 0 hr 32 min 10 sec) 
Heartbeat CPU 0 instructions: 366000002 cycles: 1052572428 heartbeat IPC: 0.348266 cumulative IPC: 0.34693 (Simulation time: 0 hr 32 min 15 sec) 
Heartbeat CPU 0 instructions: 367000003 cycles: 1055456155 heartbeat IPC: 0.346774 cumulative IPC: 0.34693 (Simulation time: 0 hr 32 min 20 sec) 
Heartbeat CPU 0 instructions: 368000000 cycles: 1058336425 heartbeat IPC: 0.347189 cumulative IPC: 0.346931 (Simulation time: 0 hr 32 min 27 sec) 
Heartbeat CPU 0 instructions: 369000003 cycles: 1061215011 heartbeat IPC: 0.347394 cumulative IPC: 0.346932 (Simulation time: 0 hr 32 min 35 sec) 
Heartbeat CPU 0 instructions: 370000002 cycles: 1064108653 heartbeat IPC: 0.345585 cumulative IPC: 0.346928 (Simulation time: 0 hr 32 min 44 sec) 
Heartbeat CPU 0 instructions: 371000000 cycles: 1066990562 heartbeat IPC: 0.346992 cumulative IPC: 0.346928 (Simulation time: 0 hr 32 min 49 sec) 
Heartbeat CPU 0 instructions: 372000003 cycles: 1069869500 heartbeat IPC: 0.347351 cumulative IPC: 0.346929 (Simulation time: 0 hr 32 min 54 sec) 
Heartbeat CPU 0 instructions: 373000003 cycles: 1072764545 heartbeat IPC: 0.345418 cumulative IPC: 0.346925 (Simulation time: 0 hr 32 min 58 sec) 
Heartbeat CPU 0 instructions: 374000000 cycles: 1075657255 heartbeat IPC: 0.345696 cumulative IPC: 0.346922 (Simulation time: 0 hr 33 min 3 sec) 
Heartbeat CPU 0 instructions: 375000000 cycles: 1078522245 heartbeat IPC: 0.349041 cumulative IPC: 0.346928 (Simulation time: 0 hr 33 min 8 sec) 
Heartbeat CPU 0 instructions: 376000002 cycles: 1081394235 heartbeat IPC: 0.348191 cumulative IPC: 0.346931 (Simulation time: 0 hr 33 min 13 sec) 
Heartbeat CPU 0 instructions: 377000002 cycles: 1084278916 heartbeat IPC: 0.346659 cumulative IPC: 0.34693 (Simulation time: 0 hr 33 min 17 sec) 
Heartbeat CPU 0 instructions: 378000000 cycles: 1087159460 heartbeat IPC: 0.347156 cumulative IPC: 0.346931 (Simulation time: 0 hr 33 min 23 sec) 
Heartbeat CPU 0 instructions: 379000002 cycles: 1090023198 heartbeat IPC: 0.349195 cumulative IPC: 0.346937 (Simulation time: 0 hr 33 min 27 sec) 
Heartbeat CPU 0 instructions: 380000003 cycles: 1092897945 heartbeat IPC: 0.347857 cumulative IPC: 0.346939 (Simulation time: 0 hr 33 min 32 sec) 
Heartbeat CPU 0 instructions: 381000003 cycles: 1095771602 heartbeat IPC: 0.347989 cumulative IPC: 0.346942 (Simulation time: 0 hr 33 min 37 sec) 
Heartbeat CPU 0 instructions: 382000000 cycles: 1098661970 heartbeat IPC: 0.345976 cumulative IPC: 0.34694 (Simulation time: 0 hr 33 min 42 sec) 
Heartbeat CPU 0 instructions: 383000000 cycles: 1101546122 heartbeat IPC: 0.346722 cumulative IPC: 0.346939 (Simulation time: 0 hr 33 min 46 sec) 
Heartbeat CPU 0 instructions: 384000001 cycles: 1104417975 heartbeat IPC: 0.348208 cumulative IPC: 0.346942 (Simulation time: 0 hr 33 min 51 sec) 
Heartbeat CPU 0 instructions: 385000000 cycles: 1107303466 heartbeat IPC: 0.346561 cumulative IPC: 0.346941 (Simulation time: 0 hr 33 min 56 sec) 
Heartbeat CPU 0 instructions: 386000000 cycles: 1110197077 heartbeat IPC: 0.345589 cumulative IPC: 0.346938 (Simulation time: 0 hr 34 min 0 sec) 
Heartbeat CPU 0 instructions: 387000003 cycles: 1113081364 heartbeat IPC: 0.346707 cumulative IPC: 0.346937 (Simulation time: 0 hr 34 min 5 sec) 
Heartbeat CPU 0 instructions: 388000000 cycles: 1115950780 heartbeat IPC: 0.348502 cumulative IPC: 0.346941 (Simulation time: 0 hr 34 min 10 sec) 
Heartbeat CPU 0 instructions: 389000000 cycles: 1118825143 heartbeat IPC: 0.347903 cumulative IPC: 0.346944 (Simulation time: 0 hr 34 min 15 sec) 
Heartbeat CPU 0 instructions: 390000002 cycles: 1121730037 heartbeat IPC: 0.344247 cumulative IPC: 0.346937 (Simulation time: 0 hr 34 min 19 sec) 
Heartbeat CPU 0 instructions: 391000001 cycles: 1124610798 heartbeat IPC: 0.34713 cumulative IPC: 0.346937 (Simulation time: 0 hr 34 min 24 sec) 
Heartbeat CPU 0 instructions: 392000002 cycles: 1127492813 heartbeat IPC: 0.34698 cumulative IPC: 0.346937 (Simulation time: 0 hr 34 min 29 sec) 
Heartbeat CPU 0 instructions: 393000003 cycles: 1130379635 heartbeat IPC: 0.346402 cumulative IPC: 0.346936 (Simulation time: 0 hr 34 min 33 sec) 
Heartbeat CPU 0 instructions: 394000000 cycles: 1133256234 heartbeat IPC: 0.347632 cumulative IPC: 0.346938 (Simulation time: 0 hr 34 min 38 sec) 
Heartbeat CPU 0 instructions: 395000003 cycles: 1136152899 heartbeat IPC: 0.345226 cumulative IPC: 0.346933 (Simulation time: 0 hr 34 min 43 sec) 
Heartbeat CPU 0 instructions: 396000000 cycles: 1139028354 heartbeat IPC: 0.34777 cumulative IPC: 0.346935 (Simulation time: 0 hr 34 min 48 sec) 
Heartbeat CPU 0 instructions: 397000000 cycles: 1141907396 heartbeat IPC: 0.347338 cumulative IPC: 0.346936 (Simulation time: 0 hr 34 min 53 sec) 
Heartbeat CPU 0 instructions: 398000002 cycles: 1144787808 heartbeat IPC: 0.347173 cumulative IPC: 0.346937 (Simulation time: 0 hr 35 min 2 sec) 
Heartbeat CPU 0 instructions: 399000003 cycles: 1147674871 heartbeat IPC: 0.346373 cumulative IPC: 0.346936 (Simulation time: 0 hr 35 min 10 sec) 
Heartbeat CPU 0 instructions: 400000000 cycles: 1150531925 heartbeat IPC: 0.35001 cumulative IPC: 0.346943 (Simulation time: 0 hr 35 min 18 sec) 
Heartbeat CPU 0 instructions: 401000000 cycles: 1153413346 heartbeat IPC: 0.347051 cumulative IPC: 0.346943 (Simulation time: 0 hr 35 min 26 sec) 
Heartbeat CPU 0 instructions: 402000001 cycles: 1156298344 heartbeat IPC: 0.346621 cumulative IPC: 0.346943 (Simulation time: 0 hr 35 min 34 sec) 
Heartbeat CPU 0 instructions: 403000001 cycles: 1159174418 heartbeat IPC: 0.347696 cumulative IPC: 0.346945 (Simulation time: 0 hr 35 min 41 sec) 
Heartbeat CPU 0 instructions: 404000003 cycles: 1162043044 heartbeat IPC: 0.3486 cumulative IPC: 0.346949 (Simulation time: 0 hr 35 min 46 sec) 
Heartbeat CPU 0 instructions: 405000002 cycles: 1164914371 heartbeat IPC: 0.348271 cumulative IPC: 0.346952 (Simulation time: 0 hr 35 min 51 sec) 
Heartbeat CPU 0 instructions: 406000003 cycles: 1167794565 heartbeat IPC: 0.347199 cumulative IPC: 0.346953 (Simulation time: 0 hr 35 min 55 sec) 
Heartbeat CPU 0 instructions: 407000000 cycles: 1170689191 heartbeat IPC: 0.345467 cumulative IPC: 0.346949 (Simulation time: 0 hr 36 min 0 sec) 
Heartbeat CPU 0 instructions: 408000000 cycles: 1173570412 heartbeat IPC: 0.347075 cumulative IPC: 0.346949 (Simulation time: 0 hr 36 min 5 sec) 
Heartbeat CPU 0 instructions: 409000001 cycles: 1176441572 heartbeat IPC: 0.348292 cumulative IPC: 0.346952 (Simulation time: 0 hr 36 min 11 sec) 
Heartbeat CPU 0 instructions: 410000003 cycles: 1179325214 heartbeat IPC: 0.346784 cumulative IPC: 0.346952 (Simulation time: 0 hr 36 min 15 sec) 
Heartbeat CPU 0 instructions: 411000003 cycles: 1182196996 heartbeat IPC: 0.348216 cumulative IPC: 0.346955 (Simulation time: 0 hr 36 min 23 sec) 
Heartbeat CPU 0 instructions: 412000000 cycles: 1185066893 heartbeat IPC: 0.348444 cumulative IPC: 0.346959 (Simulation time: 0 hr 36 min 31 sec) 
Heartbeat CPU 0 instructions: 413000001 cycles: 1187925149 heartbeat IPC: 0.349864 cumulative IPC: 0.346966 (Simulation time: 0 hr 36 min 40 sec) 
Heartbeat CPU 0 instructions: 414000002 cycles: 1190815299 heartbeat IPC: 0.346003 cumulative IPC: 0.346963 (Simulation time: 0 hr 36 min 48 sec) 
Heartbeat CPU 0 instructions: 415000002 cycles: 1193706981 heartbeat IPC: 0.34582 cumulative IPC: 0.346961 (Simulation time: 0 hr 36 min 56 sec) 
Heartbeat CPU 0 instructions: 416000001 cycles: 1196598545 heartbeat IPC: 0.345833 cumulative IPC: 0.346958 (Simulation time: 0 hr 37 min 4 sec) 
Heartbeat CPU 0 instructions: 417000001 cycles: 1199472774 heartbeat IPC: 0.347919 cumulative IPC: 0.34696 (Simulation time: 0 hr 37 min 12 sec) 
Heartbeat CPU 0 instructions: 418000000 cycles: 1202365663 heartbeat IPC: 0.345675 cumulative IPC: 0.346957 (Simulation time: 0 hr 37 min 20 sec) 
Heartbeat CPU 0 instructions: 419000001 cycles: 1205248791 heartbeat IPC: 0.346846 cumulative IPC: 0.346957 (Simulation time: 0 hr 37 min 27 sec) 
Heartbeat CPU 0 instructions: 420000000 cycles: 1208127904 heartbeat IPC: 0.347329 cumulative IPC: 0.346958 (Simulation time: 0 hr 37 min 35 sec) 
Heartbeat CPU 0 instructions: 421000001 cycles: 1211013784 heartbeat IPC: 0.346515 cumulative IPC: 0.346957 (Simulation time: 0 hr 37 min 43 sec) 
Heartbeat CPU 0 instructions: 422000000 cycles: 1213903295 heartbeat IPC: 0.346079 cumulative IPC: 0.346955 (Simulation time: 0 hr 37 min 51 sec) 
Heartbeat CPU 0 instructions: 423000000 cycles: 1216777719 heartbeat IPC: 0.347896 cumulative IPC: 0.346957 (Simulation time: 0 hr 37 min 59 sec) 
Heartbeat CPU 0 instructions: 424000001 cycles: 1219660385 heartbeat IPC: 0.346901 cumulative IPC: 0.346957 (Simulation time: 0 hr 38 min 6 sec) 
Heartbeat CPU 0 instructions: 425000000 cycles: 1222541378 heartbeat IPC: 0.347102 cumulative IPC: 0.346957 (Simulation time: 0 hr 38 min 14 sec) 
Heartbeat CPU 0 instructions: 426000001 cycles: 1225423163 heartbeat IPC: 0.347007 cumulative IPC: 0.346957 (Simulation time: 0 hr 38 min 22 sec) 
Heartbeat CPU 0 instructions: 427000003 cycles: 1228301169 heartbeat IPC: 0.347463 cumulative IPC: 0.346958 (Simulation time: 0 hr 38 min 30 sec) 
Heartbeat CPU 0 instructions: 428000003 cycles: 1231188897 heartbeat IPC: 0.346293 cumulative IPC: 0.346957 (Simulation time: 0 hr 38 min 38 sec) 
Heartbeat CPU 0 instructions: 429000000 cycles: 1234058633 heartbeat IPC: 0.348463 cumulative IPC: 0.34696 (Simulation time: 0 hr 38 min 46 sec) 
Heartbeat CPU 0 instructions: 430000002 cycles: 1236937298 heartbeat IPC: 0.347384 cumulative IPC: 0.346961 (Simulation time: 0 hr 38 min 54 sec) 
Heartbeat CPU 0 instructions: 431000002 cycles: 1239811684 heartbeat IPC: 0.3479 cumulative IPC: 0.346963 (Simulation time: 0 hr 39 min 2 sec) 
Heartbeat CPU 0 instructions: 432000003 cycles: 1242697003 heartbeat IPC: 0.346582 cumulative IPC: 0.346963 (Simulation time: 0 hr 39 min 9 sec) 
Heartbeat CPU 0 instructions: 433000002 cycles: 1245557146 heartbeat IPC: 0.349633 cumulative IPC: 0.346969 (Simulation time: 0 hr 39 min 17 sec) 
Heartbeat CPU 0 instructions: 434000001 cycles: 1248438167 heartbeat IPC: 0.347099 cumulative IPC: 0.346969 (Simulation time: 0 hr 39 min 25 sec) 
Heartbeat CPU 0 instructions: 435000003 cycles: 1251310553 heartbeat IPC: 0.348143 cumulative IPC: 0.346972 (Simulation time: 0 hr 39 min 33 sec) 
Heartbeat CPU 0 instructions: 436000001 cycles: 1254194823 heartbeat IPC: 0.346707 cumulative IPC: 0.346971 (Simulation time: 0 hr 39 min 41 sec) 
Heartbeat CPU 0 instructions: 437000002 cycles: 1257068168 heartbeat IPC: 0.348027 cumulative IPC: 0.346973 (Simulation time: 0 hr 39 min 48 sec) 
Heartbeat CPU 0 instructions: 438000001 cycles: 1259945892 heartbeat IPC: 0.347496 cumulative IPC: 0.346975 (Simulation time: 0 hr 39 min 56 sec) 
Heartbeat CPU 0 instructions: 439000002 cycles: 1262822165 heartbeat IPC: 0.347672 cumulative IPC: 0.346976 (Simulation time: 0 hr 40 min 4 sec) 
Heartbeat CPU 0 instructions: 440000000 cycles: 1265744266 heartbeat IPC: 0.342219 cumulative IPC: 0.346965 (Simulation time: 0 hr 40 min 12 sec) 
Heartbeat CPU 0 instructions: 441000000 cycles: 1268623221 heartbeat IPC: 0.347348 cumulative IPC: 0.346966 (Simulation time: 0 hr 40 min 20 sec) 
Heartbeat CPU 0 instructions: 442000000 cycles: 1271519066 heartbeat IPC: 0.345322 cumulative IPC: 0.346962 (Simulation time: 0 hr 40 min 27 sec) 
Heartbeat CPU 0 instructions: 443000001 cycles: 1274397139 heartbeat IPC: 0.347455 cumulative IPC: 0.346963 (Simulation time: 0 hr 40 min 35 sec) 
Heartbeat CPU 0 instructions: 444000002 cycles: 1277275303 heartbeat IPC: 0.347444 cumulative IPC: 0.346965 (Simulation time: 0 hr 40 min 43 sec) 
Heartbeat CPU 0 instructions: 445000003 cycles: 1280153367 heartbeat IPC: 0.347456 cumulative IPC: 0.346966 (Simulation time: 0 hr 40 min 51 sec) 
Heartbeat CPU 0 instructions: 446000001 cycles: 1283040021 heartbeat IPC: 0.346421 cumulative IPC: 0.346964 (Simulation time: 0 hr 40 min 59 sec) 
Heartbeat CPU 0 instructions: 447000001 cycles: 1285924806 heartbeat IPC: 0.346646 cumulative IPC: 0.346964 (Simulation time: 0 hr 41 min 6 sec) 
Heartbeat CPU 0 instructions: 448000001 cycles: 1288806682 heartbeat IPC: 0.346996 cumulative IPC: 0.346964 (Simulation time: 0 hr 41 min 14 sec) 
Heartbeat CPU 0 instructions: 449000001 cycles: 1291666778 heartbeat IPC: 0.349639 cumulative IPC: 0.34697 (Simulation time: 0 hr 41 min 22 sec) 
Heartbeat CPU 0 instructions: 450000000 cycles: 1294536332 heartbeat IPC: 0.348486 cumulative IPC: 0.346973 (Simulation time: 0 hr 41 min 30 sec) 

Warmup complete CPU 0 instructions: 450000001 cycles: 1294536333 (Simulation time: 0 hr 41 min 30 sec) 

Heartbeat CPU 0 instructions: 451000000 cycles: 1296286441 heartbeat IPC: 0.571393 cumulative IPC: 0.571393 (Simulation time: 0 hr 41 min 36 sec) 
Heartbeat CPU 0 instructions: 452000000 cycles: 1298008638 heartbeat IPC: 0.580654 cumulative IPC: 0.575986 (Simulation time: 0 hr 41 min 43 sec) 
Heartbeat CPU 0 instructions: 453000002 cycles: 1299736924 heartbeat IPC: 0.578609 cumulative IPC: 0.576858 (Simulation time: 0 hr 41 min 49 sec) 
Heartbeat CPU 0 instructions: 454000002 cycles: 1301466623 heartbeat IPC: 0.578135 cumulative IPC: 0.577177 (Simulation time: 0 hr 41 min 56 sec) 
Heartbeat CPU 0 instructions: 455000000 cycles: 1303206458 heartbeat IPC: 0.574766 cumulative IPC: 0.576693 (Simulation time: 0 hr 42 min 3 sec) 
Heartbeat CPU 0 instructions: 456000000 cycles: 1304925665 heartbeat IPC: 0.581664 cumulative IPC: 0.577515 (Simulation time: 0 hr 42 min 9 sec) 
Heartbeat CPU 0 instructions: 457000000 cycles: 1306644540 heartbeat IPC: 0.581776 cumulative IPC: 0.57812 (Simulation time: 0 hr 42 min 16 sec) 
Heartbeat CPU 0 instructions: 458000003 cycles: 1308371389 heartbeat IPC: 0.579091 cumulative IPC: 0.578241 (Simulation time: 0 hr 42 min 22 sec) 
Heartbeat CPU 0 instructions: 459000000 cycles: 1310110711 heartbeat IPC: 0.574935 cumulative IPC: 0.577872 (Simulation time: 0 hr 42 min 29 sec) 
Heartbeat CPU 0 instructions: 460000003 cycles: 1311852227 heartbeat IPC: 0.574214 cumulative IPC: 0.577504 (Simulation time: 0 hr 42 min 35 sec) 
Heartbeat CPU 0 instructions: 461000001 cycles: 1313577185 heartbeat IPC: 0.579723 cumulative IPC: 0.577705 (Simulation time: 0 hr 42 min 42 sec) 
Heartbeat CPU 0 instructions: 462000000 cycles: 1315299445 heartbeat IPC: 0.580632 cumulative IPC: 0.577948 (Simulation time: 0 hr 42 min 48 sec) 
Heartbeat CPU 0 instructions: 463000000 cycles: 1317015818 heartbeat IPC: 0.582624 cumulative IPC: 0.578305 (Simulation time: 0 hr 42 min 54 sec) 
Heartbeat CPU 0 instructions: 464000001 cycles: 1318732176 heartbeat IPC: 0.58263 cumulative IPC: 0.578612 (Simulation time: 0 hr 42 min 58 sec) 
Heartbeat CPU 0 instructions: 465000000 cycles: 1320464382 heartbeat IPC: 0.577298 cumulative IPC: 0.578524 (Simulation time: 0 hr 43 min 2 sec) 
Heartbeat CPU 0 instructions: 466000003 cycles: 1322191962 heartbeat IPC: 0.578846 cumulative IPC: 0.578544 (Simulation time: 0 hr 43 min 6 sec) 
Heartbeat CPU 0 instructions: 467000000 cycles: 1323908255 heartbeat IPC: 0.582649 cumulative IPC: 0.578784 (Simulation time: 0 hr 43 min 10 sec) 
Heartbeat CPU 0 instructions: 468000002 cycles: 1325640918 heartbeat IPC: 0.577147 cumulative IPC: 0.578693 (Simulation time: 0 hr 43 min 14 sec) 
Heartbeat CPU 0 instructions: 469000000 cycles: 1327371334 heartbeat IPC: 0.577895 cumulative IPC: 0.578651 (Simulation time: 0 hr 43 min 18 sec) 
Heartbeat CPU 0 instructions: 470000002 cycles: 1329094466 heartbeat IPC: 0.58034 cumulative IPC: 0.578735 (Simulation time: 0 hr 43 min 22 sec) 
Heartbeat CPU 0 instructions: 471000000 cycles: 1330816470 heartbeat IPC: 0.580718 cumulative IPC: 0.578829 (Simulation time: 0 hr 43 min 26 sec) 
Heartbeat CPU 0 instructions: 472000000 cycles: 1332545805 heartbeat IPC: 0.578257 cumulative IPC: 0.578803 (Simulation time: 0 hr 43 min 30 sec) 
Heartbeat CPU 0 instructions: 473000000 cycles: 1334260124 heartbeat IPC: 0.583322 cumulative IPC: 0.578998 (Simulation time: 0 hr 43 min 34 sec) 
Heartbeat CPU 0 instructions: 474000001 cycles: 1335977918 heartbeat IPC: 0.582143 cumulative IPC: 0.579128 (Simulation time: 0 hr 43 min 38 sec) 
Heartbeat CPU 0 instructions: 475000000 cycles: 1337700029 heartbeat IPC: 0.580682 cumulative IPC: 0.57919 (Simulation time: 0 hr 43 min 42 sec) 
Heartbeat CPU 0 instructions: 476000003 cycles: 1339431653 heartbeat IPC: 0.577494 cumulative IPC: 0.579125 (Simulation time: 0 hr 43 min 46 sec) 
Heartbeat CPU 0 instructions: 477000002 cycles: 1341161665 heartbeat IPC: 0.57803 cumulative IPC: 0.579084 (Simulation time: 0 hr 43 min 50 sec) 
Heartbeat CPU 0 instructions: 478000002 cycles: 1342899609 heartbeat IPC: 0.575393 cumulative IPC: 0.578952 (Simulation time: 0 hr 43 min 54 sec) 
Heartbeat CPU 0 instructions: 479000003 cycles: 1344672211 heartbeat IPC: 0.564143 cumulative IPC: 0.578428 (Simulation time: 0 hr 44 min 1 sec) 
Heartbeat CPU 0 instructions: 480000000 cycles: 1346388213 heartbeat IPC: 0.582748 cumulative IPC: 0.578571 (Simulation time: 0 hr 44 min 8 sec) 
Heartbeat CPU 0 instructions: 481000002 cycles: 1348114099 heartbeat IPC: 0.579414 cumulative IPC: 0.578598 (Simulation time: 0 hr 44 min 15 sec) 
Heartbeat CPU 0 instructions: 482000003 cycles: 1349830159 heartbeat IPC: 0.582731 cumulative IPC: 0.578726 (Simulation time: 0 hr 44 min 21 sec) 
Heartbeat CPU 0 instructions: 483000000 cycles: 1351564791 heartbeat IPC: 0.576489 cumulative IPC: 0.578658 (Simulation time: 0 hr 44 min 28 sec) 
Heartbeat CPU 0 instructions: 484000000 cycles: 1353286899 heartbeat IPC: 0.580684 cumulative IPC: 0.578718 (Simulation time: 0 hr 44 min 35 sec) 
Heartbeat CPU 0 instructions: 485000002 cycles: 1355000403 heartbeat IPC: 0.583601 cumulative IPC: 0.578856 (Simulation time: 0 hr 44 min 41 sec) 
Heartbeat CPU 0 instructions: 486000002 cycles: 1356727771 heartbeat IPC: 0.578915 cumulative IPC: 0.578858 (Simulation time: 0 hr 44 min 48 sec) 
Heartbeat CPU 0 instructions: 487000002 cycles: 1358449260 heartbeat IPC: 0.580892 cumulative IPC: 0.578913 (Simulation time: 0 hr 44 min 55 sec) 
Heartbeat CPU 0 instructions: 488000003 cycles: 1360180092 heartbeat IPC: 0.577757 cumulative IPC: 0.578882 (Simulation time: 0 hr 45 min 2 sec) 
Heartbeat CPU 0 instructions: 489000000 cycles: 1361906864 heartbeat IPC: 0.579114 cumulative IPC: 0.578888 (Simulation time: 0 hr 45 min 8 sec) 
Heartbeat CPU 0 instructions: 490000000 cycles: 1363634508 heartbeat IPC: 0.578823 cumulative IPC: 0.578886 (Simulation time: 0 hr 45 min 15 sec) 
Heartbeat CPU 0 instructions: 491000000 cycles: 1365341838 heartbeat IPC: 0.58571 cumulative IPC: 0.579051 (Simulation time: 0 hr 45 min 22 sec) 
Heartbeat CPU 0 instructions: 492000000 cycles: 1367073580 heartbeat IPC: 0.577453 cumulative IPC: 0.579013 (Simulation time: 0 hr 45 min 29 sec) 
Heartbeat CPU 0 instructions: 493000003 cycles: 1368796366 heartbeat IPC: 0.580457 cumulative IPC: 0.579046 (Simulation time: 0 hr 45 min 35 sec) 
Heartbeat CPU 0 instructions: 494000000 cycles: 1370520570 heartbeat IPC: 0.579976 cumulative IPC: 0.579067 (Simulation time: 0 hr 45 min 42 sec) 
Heartbeat CPU 0 instructions: 495000000 cycles: 1372246057 heartbeat IPC: 0.579547 cumulative IPC: 0.579078 (Simulation time: 0 hr 45 min 49 sec) 
Heartbeat CPU 0 instructions: 496000002 cycles: 1373977531 heartbeat IPC: 0.577544 cumulative IPC: 0.579045 (Simulation time: 0 hr 45 min 55 sec) 
Heartbeat CPU 0 instructions: 497000000 cycles: 1375731221 heartbeat IPC: 0.570225 cumulative IPC: 0.578854 (Simulation time: 0 hr 46 min 2 sec) 
Heartbeat CPU 0 instructions: 498000001 cycles: 1377459268 heartbeat IPC: 0.578689 cumulative IPC: 0.578851 (Simulation time: 0 hr 46 min 7 sec) 
Heartbeat CPU 0 instructions: 499000003 cycles: 1379178718 heartbeat IPC: 0.581582 cumulative IPC: 0.578906 (Simulation time: 0 hr 46 min 11 sec) 
Heartbeat CPU 0 instructions: 500000000 cycles: 1380918579 heartbeat IPC: 0.574757 cumulative IPC: 0.578823 (Simulation time: 0 hr 46 min 14 sec) 
Heartbeat CPU 0 instructions: 501000000 cycles: 1382663697 heartbeat IPC: 0.573027 cumulative IPC: 0.578708 (Simulation time: 0 hr 46 min 18 sec) 
Heartbeat CPU 0 instructions: 502000002 cycles: 1384415032 heartbeat IPC: 0.570994 cumulative IPC: 0.578558 (Simulation time: 0 hr 46 min 22 sec) 
Heartbeat CPU 0 instructions: 503000001 cycles: 1386169731 heartbeat IPC: 0.569898 cumulative IPC: 0.578392 (Simulation time: 0 hr 46 min 26 sec) 
Heartbeat CPU 0 instructions: 504000001 cycles: 1387928500 heartbeat IPC: 0.568579 cumulative IPC: 0.578207 (Simulation time: 0 hr 46 min 30 sec) 
Heartbeat CPU 0 instructions: 505000003 cycles: 1389686359 heartbeat IPC: 0.568875 cumulative IPC: 0.578035 (Simulation time: 0 hr 46 min 34 sec) 
Heartbeat CPU 0 instructions: 506000000 cycles: 1391408000 heartbeat IPC: 0.580839 cumulative IPC: 0.578084 (Simulation time: 0 hr 46 min 37 sec) 
Heartbeat CPU 0 instructions: 507000003 cycles: 1393127556 heartbeat IPC: 0.581547 cumulative IPC: 0.578145 (Simulation time: 0 hr 46 min 41 sec) 
Heartbeat CPU 0 instructions: 508000003 cycles: 1394856671 heartbeat IPC: 0.578331 cumulative IPC: 0.578148 (Simulation time: 0 hr 46 min 45 sec) 
Heartbeat CPU 0 instructions: 509000000 cycles: 1396572065 heartbeat IPC: 0.582955 cumulative IPC: 0.578229 (Simulation time: 0 hr 46 min 49 sec) 
Heartbeat CPU 0 instructions: 510000003 cycles: 1398289874 heartbeat IPC: 0.582139 cumulative IPC: 0.578294 (Simulation time: 0 hr 46 min 53 sec) 
Heartbeat CPU 0 instructions: 511000001 cycles: 1400017844 heartbeat IPC: 0.578713 cumulative IPC: 0.5783 (Simulation time: 0 hr 46 min 57 sec) 
Heartbeat CPU 0 instructions: 512000000 cycles: 1401745643 heartbeat IPC: 0.57877 cumulative IPC: 0.578308 (Simulation time: 0 hr 47 min 1 sec) 
Heartbeat CPU 0 instructions: 513000000 cycles: 1403477550 heartbeat IPC: 0.577398 cumulative IPC: 0.578294 (Simulation time: 0 hr 47 min 5 sec) 
Heartbeat CPU 0 instructions: 514000000 cycles: 1405200346 heartbeat IPC: 0.580452 cumulative IPC: 0.578327 (Simulation time: 0 hr 47 min 9 sec) 
Heartbeat CPU 0 instructions: 515000000 cycles: 1406937807 heartbeat IPC: 0.575552 cumulative IPC: 0.578284 (Simulation time: 0 hr 47 min 13 sec) 
Heartbeat CPU 0 instructions: 516000002 cycles: 1408655794 heartbeat IPC: 0.582078 cumulative IPC: 0.578341 (Simulation time: 0 hr 47 min 17 sec) 
Heartbeat CPU 0 instructions: 517000000 cycles: 1410379784 heartbeat IPC: 0.580049 cumulative IPC: 0.578367 (Simulation time: 0 hr 47 min 21 sec) 
Heartbeat CPU 0 instructions: 518000000 cycles: 1412098310 heartbeat IPC: 0.581894 cumulative IPC: 0.578418 (Simulation time: 0 hr 47 min 25 sec) 
Heartbeat CPU 0 instructions: 519000000 cycles: 1413829069 heartbeat IPC: 0.577781 cumulative IPC: 0.578409 (Simulation time: 0 hr 47 min 29 sec) 
Heartbeat CPU 0 instructions: 520000002 cycles: 1415552402 heartbeat IPC: 0.580272 cumulative IPC: 0.578436 (Simulation time: 0 hr 47 min 33 sec) 
Heartbeat CPU 0 instructions: 521000000 cycles: 1417270289 heartbeat IPC: 0.582109 cumulative IPC: 0.578487 (Simulation time: 0 hr 47 min 37 sec) 
Heartbeat CPU 0 instructions: 522000003 cycles: 1419007855 heartbeat IPC: 0.575519 cumulative IPC: 0.578446 (Simulation time: 0 hr 47 min 41 sec) 
Heartbeat CPU 0 instructions: 523000003 cycles: 1420734132 heartbeat IPC: 0.579281 cumulative IPC: 0.578457 (Simulation time: 0 hr 47 min 45 sec) 
Heartbeat CPU 0 instructions: 524000000 cycles: 1422475652 heartbeat IPC: 0.574209 cumulative IPC: 0.578399 (Simulation time: 0 hr 47 min 49 sec) 
Heartbeat CPU 0 instructions: 525000000 cycles: 1424207932 heartbeat IPC: 0.577274 cumulative IPC: 0.578384 (Simulation time: 0 hr 47 min 53 sec) 
Heartbeat CPU 0 instructions: 526000000 cycles: 1425935819 heartbeat IPC: 0.578742 cumulative IPC: 0.578389 (Simulation time: 0 hr 47 min 57 sec) 
Heartbeat CPU 0 instructions: 527000003 cycles: 1427645013 heartbeat IPC: 0.585073 cumulative IPC: 0.578475 (Simulation time: 0 hr 48 min 1 sec) 
Heartbeat CPU 0 instructions: 528000000 cycles: 1429371791 heartbeat IPC: 0.579112 cumulative IPC: 0.578483 (Simulation time: 0 hr 48 min 5 sec) 
Heartbeat CPU 0 instructions: 529000001 cycles: 1431106726 heartbeat IPC: 0.576391 cumulative IPC: 0.578456 (Simulation time: 0 hr 48 min 9 sec) 
Heartbeat CPU 0 instructions: 530000001 cycles: 1432830532 heartbeat IPC: 0.580112 cumulative IPC: 0.578477 (Simulation time: 0 hr 48 min 13 sec) 
Heartbeat CPU 0 instructions: 531000003 cycles: 1434577324 heartbeat IPC: 0.572479 cumulative IPC: 0.578402 (Simulation time: 0 hr 48 min 17 sec) 
Heartbeat CPU 0 instructions: 532000000 cycles: 1436319058 heartbeat IPC: 0.574139 cumulative IPC: 0.57835 (Simulation time: 0 hr 48 min 21 sec) 
Heartbeat CPU 0 instructions: 533000000 cycles: 1438097335 heartbeat IPC: 0.562342 cumulative IPC: 0.578151 (Simulation time: 0 hr 48 min 26 sec) 
Heartbeat CPU 0 instructions: 534000000 cycles: 1439831405 heartbeat IPC: 0.576678 cumulative IPC: 0.578134 (Simulation time: 0 hr 48 min 33 sec) 
Heartbeat CPU 0 instructions: 535000001 cycles: 1441577205 heartbeat IPC: 0.572804 cumulative IPC: 0.578071 (Simulation time: 0 hr 48 min 41 sec) 
Heartbeat CPU 0 instructions: 536000002 cycles: 1443308641 heartbeat IPC: 0.577556 cumulative IPC: 0.578065 (Simulation time: 0 hr 48 min 48 sec) 
Heartbeat CPU 0 instructions: 537000001 cycles: 1445040650 heartbeat IPC: 0.577364 cumulative IPC: 0.578057 (Simulation time: 0 hr 48 min 55 sec) 
Heartbeat CPU 0 instructions: 538000002 cycles: 1446780631 heartbeat IPC: 0.574719 cumulative IPC: 0.578018 (Simulation time: 0 hr 48 min 59 sec) 
Heartbeat CPU 0 instructions: 539000000 cycles: 1448519585 heartbeat IPC: 0.575057 cumulative IPC: 0.577985 (Simulation time: 0 hr 49 min 3 sec) 
Heartbeat CPU 0 instructions: 540000003 cycles: 1450256189 heartbeat IPC: 0.575838 cumulative IPC: 0.577961 (Simulation time: 0 hr 49 min 7 sec) 
Heartbeat CPU 0 instructions: 541000003 cycles: 1451987797 heartbeat IPC: 0.577498 cumulative IPC: 0.577956 (Simulation time: 0 hr 49 min 11 sec) 
Heartbeat CPU 0 instructions: 542000000 cycles: 1453725831 heartbeat IPC: 0.575361 cumulative IPC: 0.577928 (Simulation time: 0 hr 49 min 15 sec) 
Heartbeat CPU 0 instructions: 543000000 cycles: 1455471297 heartbeat IPC: 0.572913 cumulative IPC: 0.577873 (Simulation time: 0 hr 49 min 19 sec) 
Heartbeat CPU 0 instructions: 544000000 cycles: 1457196811 heartbeat IPC: 0.579537 cumulative IPC: 0.577891 (Simulation time: 0 hr 49 min 22 sec) 
Heartbeat CPU 0 instructions: 545000000 cycles: 1458928084 heartbeat IPC: 0.57761 cumulative IPC: 0.577888 (Simulation time: 0 hr 49 min 26 sec) 
[...]
Heartbeat CPU 0 instructions: 834000001 cycles: 1971637603 heartbeat IPC: 0.57495 cumulative IPC: 0.567123 (Simulation time: 1 hr 19 min 2 sec) 
Heartbeat CPU 0 instructions: 835000000 cycles: 1973393092 heartbeat IPC: 0.569641 cumulative IPC: 0.56713 (Simulation time: 1 hr 19 min 10 sec) 
Heartbeat CPU 0 instructions: 836000000 cycles: 1975120420 heartbeat IPC: 0.578929 cumulative IPC: 0.56716 (Simulation time: 1 hr 19 min 18 sec) 
Heartbeat CPU 0 instructions: 837000000 cycles: 1976847058 heartbeat IPC: 0.57916 cumulative IPC: 0.56719 (Simulation time: 1 hr 19 min 25 sec) 
Heartbeat CPU 0 instructions: 838000003 cycles: 1978583066 heartbeat IPC: 0.576036 cumulative IPC: 0.567213 (Simulation time: 1 hr 19 min 33 sec) 
Heartbeat CPU 0 instructions: 839000000 cycles: 1980301692 heartbeat IPC: 0.581858 cumulative IPC: 0.567249 (Simulation time: 1 hr 19 min 41 sec) 
Heartbeat CPU 0 instructions: 840000002 cycles: 1982025527 heartbeat IPC: 0.580103 cumulative IPC: 0.567282 (Simulation time: 1 hr 19 min 49 sec) 
Heartbeat CPU 0 instructions: 841000002 cycles: 1983735004 heartbeat IPC: 0.584974 cumulative IPC: 0.567326 (Simulation time: 1 hr 19 min 57 sec) 
Heartbeat CPU 0 instructions: 842000000 cycles: 1985472119 heartbeat IPC: 0.575666 cumulative IPC: 0.567347 (Simulation time: 1 hr 20 min 4 sec) 
Heartbeat CPU 0 instructions: 843000002 cycles: 1987227973 heartbeat IPC: 0.569525 cumulative IPC: 0.567352 (Simulation time: 1 hr 20 min 12 sec) 
Heartbeat CPU 0 instructions: 844000000 cycles: 1988995599 heartbeat IPC: 0.565729 cumulative IPC: 0.567348 (Simulation time: 1 hr 20 min 20 sec) 
Heartbeat CPU 0 instructions: 845000003 cycles: 1990730165 heartbeat IPC: 0.576515 cumulative IPC: 0.567371 (Simulation time: 1 hr 20 min 28 sec) 
Heartbeat CPU 0 instructions: 846000000 cycles: 1992448297 heartbeat IPC: 0.582026 cumulative IPC: 0.567407 (Simulation time: 1 hr 20 min 35 sec) 
Heartbeat CPU 0 instructions: 847000000 cycles: 1994164187 heartbeat IPC: 0.582788 cumulative IPC: 0.567445 (Simulation time: 1 hr 20 min 43 sec) 
Heartbeat CPU 0 instructions: 848000003 cycles: 1995893625 heartbeat IPC: 0.578224 cumulative IPC: 0.567471 (Simulation time: 1 hr 20 min 51 sec) 
Heartbeat CPU 0 instructions: 849000003 cycles: 1997638498 heartbeat IPC: 0.573108 cumulative IPC: 0.567485 (Simulation time: 1 hr 20 min 59 sec) 
Heartbeat CPU 0 instructions: 850000000 cycles: 1999358472 heartbeat IPC: 0.581402 cumulative IPC: 0.567519 (Simulation time: 1 hr 21 min 6 sec) 
Heartbeat CPU 0 instructions: 851000002 cycles: 2001115982 heartbeat IPC: 0.568988 cumulative IPC: 0.567523 (Simulation time: 1 hr 21 min 14 sec) 
Heartbeat CPU 0 instructions: 852000000 cycles: 2002832704 heartbeat IPC: 0.582504 cumulative IPC: 0.567559 (Simulation time: 1 hr 21 min 22 sec) 
Heartbeat CPU 0 instructions: 853000000 cycles: 2004553977 heartbeat IPC: 0.580965 cumulative IPC: 0.567592 (Simulation time: 1 hr 21 min 29 sec) 
Heartbeat CPU 0 instructions: 854000001 cycles: 2006280671 heartbeat IPC: 0.579142 cumulative IPC: 0.56762 (Simulation time: 1 hr 21 min 36 sec) 
Heartbeat CPU 0 instructions: 855000001 cycles: 2008006570 heartbeat IPC: 0.579408 cumulative IPC: 0.567648 (Simulation time: 1 hr 21 min 44 sec) 
Heartbeat CPU 0 instructions: 856000000 cycles: 2009712484 heartbeat IPC: 0.586195 cumulative IPC: 0.567692 (Simulation time: 1 hr 21 min 51 sec) 
Heartbeat CPU 0 instructions: 857000000 cycles: 2011432225 heartbeat IPC: 0.581483 cumulative IPC: 0.567725 (Simulation time: 1 hr 21 min 58 sec) 
Heartbeat CPU 0 instructions: 858000000 cycles: 2013143884 heartbeat IPC: 0.584229 cumulative IPC: 0.567765 (Simulation time: 1 hr 22 min 6 sec) 
Heartbeat CPU 0 instructions: 859000000 cycles: 2014859862 heartbeat IPC: 0.582758 cumulative IPC: 0.5678 (Simulation time: 1 hr 22 min 13 sec) 
Heartbeat CPU 0 instructions: 860000000 cycles: 2016569994 heartbeat IPC: 0.58475 cumulative IPC: 0.567841 (Simulation time: 1 hr 22 min 21 sec) 
Heartbeat CPU 0 instructions: 861000000 cycles: 2018281047 heartbeat IPC: 0.584435 cumulative IPC: 0.56788 (Simulation time: 1 hr 22 min 29 sec) 
Heartbeat CPU 0 instructions: 862000002 cycles: 2020003645 heartbeat IPC: 0.58052 cumulative IPC: 0.56791 (Simulation time: 1 hr 22 min 36 sec) 
Heartbeat CPU 0 instructions: 863000000 cycles: 2021709749 heartbeat IPC: 0.58613 cumulative IPC: 0.567953 (Simulation time: 1 hr 22 min 44 sec) 
Heartbeat CPU 0 instructions: 864000003 cycles: 2023414322 heartbeat IPC: 0.586659 cumulative IPC: 0.567996 (Simulation time: 1 hr 22 min 53 sec) 
Heartbeat CPU 0 instructions: 865000000 cycles: 2025148262 heartbeat IPC: 0.57672 cumulative IPC: 0.568017 (Simulation time: 1 hr 23 min 1 sec) 
Heartbeat CPU 0 instructions: 866000001 cycles: 2026866986 heartbeat IPC: 0.581828 cumulative IPC: 0.568049 (Simulation time: 1 hr 23 min 8 sec) 
Heartbeat CPU 0 instructions: 867000000 cycles: 2028580730 heartbeat IPC: 0.583517 cumulative IPC: 0.568086 (Simulation time: 1 hr 23 min 16 sec) 
Heartbeat CPU 0 instructions: 868000003 cycles: 2030304062 heartbeat IPC: 0.580273 cumulative IPC: 0.568114 (Simulation time: 1 hr 23 min 24 sec) 
Heartbeat CPU 0 instructions: 869000000 cycles: 2032033318 heartbeat IPC: 0.578282 cumulative IPC: 0.568138 (Simulation time: 1 hr 23 min 31 sec) 
Heartbeat CPU 0 instructions: 870000003 cycles: 2033765347 heartbeat IPC: 0.577359 cumulative IPC: 0.56816 (Simulation time: 1 hr 23 min 39 sec) 
Heartbeat CPU 0 instructions: 871000003 cycles: 2035473448 heartbeat IPC: 0.585445 cumulative IPC: 0.568199 (Simulation time: 1 hr 23 min 47 sec) 
Heartbeat CPU 0 instructions: 872000000 cycles: 2037206768 heartbeat IPC: 0.576926 cumulative IPC: 0.56822 (Simulation time: 1 hr 23 min 55 sec) 
Heartbeat CPU 0 instructions: 873000001 cycles: 2038953946 heartbeat IPC: 0.572352 cumulative IPC: 0.568229 (Simulation time: 1 hr 24 min 2 sec) 
Heartbeat CPU 0 instructions: 874000002 cycles: 2040688076 heartbeat IPC: 0.576659 cumulative IPC: 0.568249 (Simulation time: 1 hr 24 min 10 sec) 
Heartbeat CPU 0 instructions: 875000000 cycles: 2042397329 heartbeat IPC: 0.58505 cumulative IPC: 0.568287 (Simulation time: 1 hr 24 min 17 sec) 
Heartbeat CPU 0 instructions: 876000003 cycles: 2044105607 heartbeat IPC: 0.585387 cumulative IPC: 0.568326 (Simulation time: 1 hr 24 min 24 sec) 
Heartbeat CPU 0 instructions: 877000001 cycles: 2045813029 heartbeat IPC: 0.585677 cumulative IPC: 0.568366 (Simulation time: 1 hr 24 min 31 sec) 
Heartbeat CPU 0 instructions: 878000002 cycles: 2047534263 heartbeat IPC: 0.580979 cumulative IPC: 0.568395 (Simulation time: 1 hr 24 min 39 sec) 
Heartbeat CPU 0 instructions: 879000003 cycles: 2049247399 heartbeat IPC: 0.583725 cumulative IPC: 0.568429 (Simulation time: 1 hr 24 min 46 sec) 
Heartbeat CPU 0 instructions: 880000000 cycles: 2050957107 heartbeat IPC: 0.584893 cumulative IPC: 0.568467 (Simulation time: 1 hr 24 min 53 sec) 
Heartbeat CPU 0 instructions: 881000002 cycles: 2052675073 heartbeat IPC: 0.582085 cumulative IPC: 0.568498 (Simulation time: 1 hr 25 min 0 sec) 
Heartbeat CPU 0 instructions: 882000003 cycles: 2054387232 heartbeat IPC: 0.584058 cumulative IPC: 0.568533 (Simulation time: 1 hr 25 min 8 sec) 
Heartbeat CPU 0 instructions: 883000003 cycles: 2056094805 heartbeat IPC: 0.585626 cumulative IPC: 0.568571 (Simulation time: 1 hr 25 min 15 sec) 
Heartbeat CPU 0 instructions: 884000000 cycles: 2057813205 heartbeat IPC: 0.581935 cumulative IPC: 0.568601 (Simulation time: 1 hr 25 min 22 sec) 
Heartbeat CPU 0 instructions: 885000001 cycles: 2059526942 heartbeat IPC: 0.583521 cumulative IPC: 0.568634 (Simulation time: 1 hr 25 min 30 sec) 
Heartbeat CPU 0 instructions: 886000003 cycles: 2061244434 heartbeat IPC: 0.582246 cumulative IPC: 0.568665 (Simulation time: 1 hr 25 min 37 sec) 
Heartbeat CPU 0 instructions: 887000003 cycles: 2062960862 heartbeat IPC: 0.582605 cumulative IPC: 0.568696 (Simulation time: 1 hr 25 min 44 sec) 
Heartbeat CPU 0 instructions: 888000001 cycles: 2064689334 heartbeat IPC: 0.578544 cumulative IPC: 0.568718 (Simulation time: 1 hr 25 min 52 sec) 
Heartbeat CPU 0 instructions: 889000002 cycles: 2066417433 heartbeat IPC: 0.578671 cumulative IPC: 0.56874 (Simulation time: 1 hr 25 min 59 sec) 
Heartbeat CPU 0 instructions: 890000001 cycles: 2068140863 heartbeat IPC: 0.580238 cumulative IPC: 0.568766 (Simulation time: 1 hr 26 min 7 sec) 
Heartbeat CPU 0 instructions: 891000000 cycles: 2069880107 heartbeat IPC: 0.574962 cumulative IPC: 0.56878 (Simulation time: 1 hr 26 min 14 sec) 
Heartbeat CPU 0 instructions: 892000000 cycles: 2071610390 heartbeat IPC: 0.57794 cumulative IPC: 0.5688 (Simulation time: 1 hr 26 min 21 sec) 
Heartbeat CPU 0 instructions: 893000001 cycles: 2073367693 heartbeat IPC: 0.569054 cumulative IPC: 0.568801 (Simulation time: 1 hr 26 min 29 sec) 
Heartbeat CPU 0 instructions: 894000001 cycles: 2075104414 heartbeat IPC: 0.575798 cumulative IPC: 0.568816 (Simulation time: 1 hr 26 min 36 sec) 
Heartbeat CPU 0 instructions: 895000001 cycles: 2076823302 heartbeat IPC: 0.581771 cumulative IPC: 0.568845 (Simulation time: 1 hr 26 min 44 sec) 
Heartbeat CPU 0 instructions: 896000000 cycles: 2078539501 heartbeat IPC: 0.582682 cumulative IPC: 0.568875 (Simulation time: 1 hr 26 min 51 sec) 
Heartbeat CPU 0 instructions: 897000003 cycles: 2080267876 heartbeat IPC: 0.57858 cumulative IPC: 0.568897 (Simulation time: 1 hr 26 min 58 sec) 
Heartbeat CPU 0 instructions: 898000000 cycles: 2081995320 heartbeat IPC: 0.578888 cumulative IPC: 0.568919 (Simulation time: 1 hr 27 min 5 sec) 
Heartbeat CPU 0 instructions: 899000000 cycles: 2083730480 heartbeat IPC: 0.576316 cumulative IPC: 0.568935 (Simulation time: 1 hr 27 min 13 sec) 
Heartbeat CPU 0 instructions: 900000002 cycles: 2085465717 heartbeat IPC: 0.576291 cumulative IPC: 0.568951 (Simulation time: 1 hr 27 min 20 sec) 
Heartbeat CPU 0 instructions: 901000003 cycles: 2087189470 heartbeat IPC: 0.58013 cumulative IPC: 0.568975 (Simulation time: 1 hr 27 min 28 sec) 
Heartbeat CPU 0 instructions: 902000000 cycles: 2088928052 heartbeat IPC: 0.57518 cumulative IPC: 0.568989 (Simulation time: 1 hr 27 min 35 sec) 
Heartbeat CPU 0 instructions: 903000000 cycles: 2090651204 heartbeat IPC: 0.580332 cumulative IPC: 0.569013 (Simulation time: 1 hr 27 min 42 sec) 
Heartbeat CPU 0 instructions: 904000000 cycles: 2092377954 heartbeat IPC: 0.579123 cumulative IPC: 0.569035 (Simulation time: 1 hr 27 min 50 sec) 
Heartbeat CPU 0 instructions: 905000001 cycles: 2094098531 heartbeat IPC: 0.581201 cumulative IPC: 0.569061 (Simulation time: 1 hr 27 min 57 sec) 
Heartbeat CPU 0 instructions: 906000000 cycles: 2095818771 heartbeat IPC: 0.581314 cumulative IPC: 0.569088 (Simulation time: 1 hr 28 min 5 sec) 
Heartbeat CPU 0 instructions: 907000000 cycles: 2097527567 heartbeat IPC: 0.585207 cumulative IPC: 0.569122 (Simulation time: 1 hr 28 min 12 sec) 
Heartbeat CPU 0 instructions: 908000003 cycles: 2099251809 heartbeat IPC: 0.579967 cumulative IPC: 0.569145 (Simulation time: 1 hr 28 min 19 sec) 
Heartbeat CPU 0 instructions: 909000000 cycles: 2100968044 heartbeat IPC: 0.582669 cumulative IPC: 0.569174 (Simulation time: 1 hr 28 min 26 sec) 
Heartbeat CPU 0 instructions: 910000001 cycles: 2102693962 heartbeat IPC: 0.579402 cumulative IPC: 0.569196 (Simulation time: 1 hr 28 min 33 sec) 
Heartbeat CPU 0 instructions: 911000003 cycles: 2104407797 heartbeat IPC: 0.583488 cumulative IPC: 0.569226 (Simulation time: 1 hr 28 min 40 sec) 
Heartbeat CPU 0 instructions: 912000001 cycles: 2106139648 heartbeat IPC: 0.577416 cumulative IPC: 0.569244 (Simulation time: 1 hr 28 min 47 sec) 
Heartbeat CPU 0 instructions: 913000000 cycles: 2107879343 heartbeat IPC: 0.574813 cumulative IPC: 0.569256 (Simulation time: 1 hr 28 min 55 sec) 
Heartbeat CPU 0 instructions: 914000000 cycles: 2109605291 heartbeat IPC: 0.579392 cumulative IPC: 0.569277 (Simulation time: 1 hr 29 min 2 sec) 
Heartbeat CPU 0 instructions: 915000001 cycles: 2111328594 heartbeat IPC: 0.580282 cumulative IPC: 0.5693 (Simulation time: 1 hr 29 min 9 sec) 
Heartbeat CPU 0 instructions: 916000001 cycles: 2113053742 heartbeat IPC: 0.57966 cumulative IPC: 0.569322 (Simulation time: 1 hr 29 min 16 sec) 
Heartbeat CPU 0 instructions: 917000003 cycles: 2114786809 heartbeat IPC: 0.577013 cumulative IPC: 0.569338 (Simulation time: 1 hr 29 min 23 sec) 
Heartbeat CPU 0 instructions: 918000000 cycles: 2116504310 heartbeat IPC: 0.58224 cumulative IPC: 0.569365 (Simulation time: 1 hr 29 min 30 sec) 
Heartbeat CPU 0 instructions: 919000000 cycles: 2118231794 heartbeat IPC: 0.578877 cumulative IPC: 0.569385 (Simulation time: 1 hr 29 min 37 sec) 
Heartbeat CPU 0 instructions: 920000002 cycles: 2119946082 heartbeat IPC: 0.583334 cumulative IPC: 0.569414 (Simulation time: 1 hr 29 min 45 sec) 
Heartbeat CPU 0 instructions: 921000003 cycles: 2121667721 heartbeat IPC: 0.580842 cumulative IPC: 0.569438 (Simulation time: 1 hr 29 min 52 sec) 
Heartbeat CPU 0 instructions: 922000003 cycles: 2123379533 heartbeat IPC: 0.584176 cumulative IPC: 0.569468 (Simulation time: 1 hr 30 min 0 sec) 
Heartbeat CPU 0 instructions: 923000002 cycles: 2125097920 heartbeat IPC: 0.581941 cumulative IPC: 0.569494 (Simulation time: 1 hr 30 min 7 sec) 
Heartbeat CPU 0 instructions: 924000000 cycles: 2126814919 heartbeat IPC: 0.58241 cumulative IPC: 0.569521 (Simulation time: 1 hr 30 min 15 sec) 
Heartbeat CPU 0 instructions: 925000000 cycles: 2128539518 heartbeat IPC: 0.579845 cumulative IPC: 0.569542 (Simulation time: 1 hr 30 min 22 sec) 
Heartbeat CPU 0 instructions: 926000000 cycles: 2130265408 heartbeat IPC: 0.579411 cumulative IPC: 0.569563 (Simulation time: 1 hr 30 min 29 sec) 
Heartbeat CPU 0 instructions: 927000002 cycles: 2131975432 heartbeat IPC: 0.584788 cumulative IPC: 0.569594 (Simulation time: 1 hr 30 min 37 sec) 
Heartbeat CPU 0 instructions: 928000000 cycles: 2133692205 heartbeat IPC: 0.582487 cumulative IPC: 0.56962 (Simulation time: 1 hr 30 min 44 sec) 
Heartbeat CPU 0 instructions: 929000000 cycles: 2135430541 heartbeat IPC: 0.575263 cumulative IPC: 0.569632 (Simulation time: 1 hr 30 min 52 sec) 
Heartbeat CPU 0 instructions: 930000001 cycles: 2137141959 heartbeat IPC: 0.584311 cumulative IPC: 0.569661 (Simulation time: 1 hr 30 min 59 sec) 
Heartbeat CPU 0 instructions: 931000001 cycles: 2138872159 heartbeat IPC: 0.577968 cumulative IPC: 0.569679 (Simulation time: 1 hr 31 min 7 sec) 
Heartbeat CPU 0 instructions: 932000000 cycles: 2140604401 heartbeat IPC: 0.577286 cumulative IPC: 0.569694 (Simulation time: 1 hr 31 min 14 sec) 
Heartbeat CPU 0 instructions: 933000000 cycles: 2142334228 heartbeat IPC: 0.578093 cumulative IPC: 0.569711 (Simulation time: 1 hr 31 min 21 sec) 
Heartbeat CPU 0 instructions: 934000000 cycles: 2144051465 heartbeat IPC: 0.582331 cumulative IPC: 0.569737 (Simulation time: 1 hr 31 min 28 sec) 
Heartbeat CPU 0 instructions: 935000000 cycles: 2145775215 heartbeat IPC: 0.580131 cumulative IPC: 0.569758 (Simulation time: 1 hr 31 min 35 sec) 
Heartbeat CPU 0 instructions: 936000001 cycles: 2147500464 heartbeat IPC: 0.579627 cumulative IPC: 0.569778 (Simulation time: 1 hr 31 min 43 sec) 
Heartbeat CPU 0 instructions: 937000003 cycles: 2149238222 heartbeat IPC: 0.575455 cumulative IPC: 0.569789 (Simulation time: 1 hr 31 min 50 sec) 
Heartbeat CPU 0 instructions: 938000000 cycles: 2150947791 heartbeat IPC: 0.584941 cumulative IPC: 0.56982 (Simulation time: 1 hr 31 min 57 sec) 
Heartbeat CPU 0 instructions: 939000003 cycles: 2152663609 heartbeat IPC: 0.582814 cumulative IPC: 0.569846 (Simulation time: 1 hr 32 min 5 sec) 
Heartbeat CPU 0 instructions: 940000000 cycles: 2154388652 heartbeat IPC: 0.579694 cumulative IPC: 0.569865 (Simulation time: 1 hr 32 min 12 sec) 
Heartbeat CPU 0 instructions: 941000000 cycles: 2156124554 heartbeat IPC: 0.576069 cumulative IPC: 0.569878 (Simulation time: 1 hr 32 min 19 sec) 
Heartbeat CPU 0 instructions: 942000000 cycles: 2157851105 heartbeat IPC: 0.579189 cumulative IPC: 0.569896 (Simulation time: 1 hr 32 min 26 sec) 
Heartbeat CPU 0 instructions: 943000001 cycles: 2159581623 heartbeat IPC: 0.577862 cumulative IPC: 0.569912 (Simulation time: 1 hr 32 min 34 sec) 
Heartbeat CPU 0 instructions: 944000000 cycles: 2161330826 heartbeat IPC: 0.571688 cumulative IPC: 0.569916 (Simulation time: 1 hr 32 min 41 sec) 
Heartbeat CPU 0 instructions: 945000002 cycles: 2163083658 heartbeat IPC: 0.570506 cumulative IPC: 0.569917 (Simulation time: 1 hr 32 min 48 sec) 
Heartbeat CPU 0 instructions: 946000000 cycles: 2164793119 heartbeat IPC: 0.584979 cumulative IPC: 0.569947 (Simulation time: 1 hr 32 min 55 sec) 
Heartbeat CPU 0 instructions: 947000003 cycles: 2166539237 heartbeat IPC: 0.572701 cumulative IPC: 0.569952 (Simulation time: 1 hr 33 min 3 sec) 
Heartbeat CPU 0 instructions: 948000000 cycles: 2168276292 heartbeat IPC: 0.575685 cumulative IPC: 0.569964 (Simulation time: 1 hr 33 min 10 sec) 
Heartbeat CPU 0 instructions: 949000002 cycles: 2170020897 heartbeat IPC: 0.573197 cumulative IPC: 0.56997 (Simulation time: 1 hr 33 min 17 sec) 
Heartbeat CPU 0 instructions: 950000000 cycles: 2171749617 heartbeat IPC: 0.578462 cumulative IPC: 0.569987 (Simulation time: 1 hr 33 min 25 sec) 
Finished CPU 0 instructions: 500000001 cycles: 877213291 cumulative IPC: 0.569987 (Simulation time: 1 hr 33 min 25 sec) 

ChampSim completed all CPUs

Region of Interest Statistics

CPU 0 cumulative IPC: 0.569987 instructions: 500000001 cycles: 877213291
L1D TOTAL     ACCESS:  132909124  HIT:  120833615  MISS:   12075509
L1D LOAD      ACCESS:   89748553  HIT:   77677309  MISS:   12071244
L1D RFO       ACCESS:   43160571  HIT:   43156306  MISS:       4265
L1D PREFETCH  ACCESS:          0  HIT:          0  MISS:          0
L1D WRITEBACK ACCESS:          0  HIT:          0  MISS:          0
L1D PREFETCH  REQUESTED:          0  ISSUED:          0  USEFUL:          0  USELESS:          0
L1D AVERAGE MISS LATENCY: 42.2885 cycles
L1I TOTAL     ACCESS:  114444744  HIT:  114444744  MISS:          0
L1I LOAD      ACCESS:  114444744  HIT:  114444744  MISS:          0
L1I RFO       ACCESS:          0  HIT:          0  MISS:          0
L1I PREFETCH  ACCESS:          0  HIT:          0  MISS:          0
L1I WRITEBACK ACCESS:          0  HIT:          0  MISS:          0
L1I PREFETCH  REQUESTED:          0  ISSUED:          0  USEFUL:          0  USELESS:          0
L1I AVERAGE MISS LATENCY: -nan cycles
L2C TOTAL     ACCESS:   12101252  HIT:    3164256  MISS:    8936996
L2C LOAD      ACCESS:   12071242  HIT:    3138511  MISS:    8932731
L2C RFO       ACCESS:       4265  HIT:          0  MISS:       4265
L2C PREFETCH  ACCESS:          0  HIT:          0  MISS:          0
L2C WRITEBACK ACCESS:      25745  HIT:      25745  MISS:          0
L2C PREFETCH  REQUESTED:          0  ISSUED:          0  USEFUL:          0  USELESS:          0
L2C AVERAGE MISS LATENCY: 36.7717 cycles
LLC TOTAL     ACCESS:   17393880  HIT:    8365023  MISS:    9028857
LLC LOAD      ACCESS:    8932731  HIT:    8246715  MISS:     686016
LLC RFO       ACCESS:       4265  HIT:       1130  MISS:       3135
LLC PREFETCH  ACCESS:    8444994  HIT:     105288  MISS:    8339706
LLC WRITEBACK ACCESS:      11890  HIT:      11890  MISS:          0
LLC PREFETCH  REQUESTED:    8980863  ISSUED:    8551277  USEFUL:    8212337  USELESS:     127118
LLC AVERAGE MISS LATENCY: 78.1915 cycles
Major fault: 0 Minor fault: 286692
performance stats:
mapping cache size: 16875773
divergence: 53445

DRAM Statistics
 CHANNEL 0
 RQ ROW_BUFFER_HIT:    8350741  ROW_BUFFER_MISS:     678117
 DBUS_CONGESTED:     193241
 WQ ROW_BUFFER_HIT:       6211  ROW_BUFFER_MISS:       5688  FULL:          0

 AVG_CONGESTED_CYCLE: 6

CPU 0 Branch Prediction Accuracy: 99.9637% MPKI: 0.093066 Average ROB Occupancy at Mispredict: 317.952

Branch types
NOT_BRANCH: 371796905 74.3594%
BRANCH_DIRECT_JUMP: 10794891 2.15898%
BRANCH_INDIRECT: 0 0%
BRANCH_CONDITIONAL: 106605962 21.3212%
BRANCH_DIRECT_CALL: 5401122 1.08022%
BRANCH_INDIRECT_CALL: 0 0%
BRANCH_RETURN: 5401122 1.08022%
BRANCH_OTHER: 0 0%

