
*** ChampSim Multicore Out-of-Order Simulator ***

Warmup Instructions: 1000000
Prefetch Warmup Instructions: 450000000
Simulation Instructions: 500000000
Stat Printing Period: 1000000
Number of CPUs: 1
LLC sets: 2048
LLC ways: 16
Off-chip DRAM Size: 4096 MB Channels: 1 Width: 64-bit Data Rate: 3200 MT/s

CPU 0 runs /scratch/cluster/cmolder/ML-DPC/ChampSimTraces/spec17/602.gcc-s2.trace.xz
Read seed: 275
Heartbeat CPU 0 instructions: 1000000 cycles: 552910 heartbeat IPC: 1.80861 cumulative IPC: 1.80861 (Simulation time: 0 hr 0 min 5 sec) 

Warmup complete CPU 0 instructions: 1000001 cycles: 552912 (Simulation time: 0 hr 0 min 5 sec) 

Heartbeat CPU 0 instructions: 2000003 cycles: 2044124 heartbeat IPC: 0.670597 cumulative IPC: 0.670597 (Simulation time: 0 hr 0 min 10 sec) 
Heartbeat CPU 0 instructions: 3000000 cycles: 4065284 heartbeat IPC: 0.494764 cumulative IPC: 0.569416 (Simulation time: 0 hr 0 min 15 sec) 
Heartbeat CPU 0 instructions: 4000000 cycles: 5814351 heartbeat IPC: 0.571733 cumulative IPC: 0.570186 (Simulation time: 0 hr 0 min 20 sec) 
Heartbeat CPU 0 instructions: 5000000 cycles: 7991539 heartbeat IPC: 0.459308 cumulative IPC: 0.537733 (Simulation time: 0 hr 0 min 25 sec) 
Heartbeat CPU 0 instructions: 6000003 cycles: 9547677 heartbeat IPC: 0.642618 cumulative IPC: 0.555879 (Simulation time: 0 hr 0 min 31 sec) 
Heartbeat CPU 0 instructions: 7000002 cycles: 11057053 heartbeat IPC: 0.662525 cumulative IPC: 0.571203 (Simulation time: 0 hr 0 min 37 sec) 
Heartbeat CPU 0 instructions: 8000002 cycles: 12783369 heartbeat IPC: 0.579268 cumulative IPC: 0.572342 (Simulation time: 0 hr 0 min 42 sec) 
Heartbeat CPU 0 instructions: 9000000 cycles: 14429533 heartbeat IPC: 0.607472 cumulative IPC: 0.576509 (Simulation time: 0 hr 0 min 48 sec) 
Heartbeat CPU 0 instructions: 10000000 cycles: 16245110 heartbeat IPC: 0.550789 cumulative IPC: 0.573533 (Simulation time: 0 hr 0 min 53 sec) 
Heartbeat CPU 0 instructions: 11000000 cycles: 17975146 heartbeat IPC: 0.578023 cumulative IPC: 0.573979 (Simulation time: 0 hr 0 min 58 sec) 
Heartbeat CPU 0 instructions: 12000001 cycles: 19343677 heartbeat IPC: 0.730711 cumulative IPC: 0.585394 (Simulation time: 0 hr 1 min 3 sec) 
Heartbeat CPU 0 instructions: 13000001 cycles: 20986846 heartbeat IPC: 0.60858 cumulative IPC: 0.587258 (Simulation time: 0 hr 1 min 8 sec) 
Heartbeat CPU 0 instructions: 14000001 cycles: 22093764 heartbeat IPC: 0.903409 cumulative IPC: 0.603504 (Simulation time: 0 hr 1 min 12 sec) 
Heartbeat CPU 0 instructions: 15000003 cycles: 23402895 heartbeat IPC: 0.763867 cumulative IPC: 0.612692 (Simulation time: 0 hr 1 min 17 sec) 
Heartbeat CPU 0 instructions: 16000000 cycles: 25305203 heartbeat IPC: 0.525676 cumulative IPC: 0.606004 (Simulation time: 0 hr 1 min 22 sec) 
Heartbeat CPU 0 instructions: 17000000 cycles: 26840380 heartbeat IPC: 0.651391 cumulative IPC: 0.608655 (Simulation time: 0 hr 1 min 27 sec) 
Heartbeat CPU 0 instructions: 18000000 cycles: 28439488 heartbeat IPC: 0.625349 cumulative IPC: 0.609612 (Simulation time: 0 hr 1 min 32 sec) 
Heartbeat CPU 0 instructions: 19000000 cycles: 29881284 heartbeat IPC: 0.693579 cumulative IPC: 0.61374 (Simulation time: 0 hr 1 min 36 sec) 
Heartbeat CPU 0 instructions: 20000000 cycles: 31307786 heartbeat IPC: 0.701015 cumulative IPC: 0.617788 (Simulation time: 0 hr 1 min 41 sec) 
Heartbeat CPU 0 instructions: 21000001 cycles: 32759282 heartbeat IPC: 0.688945 cumulative IPC: 0.620995 (Simulation time: 0 hr 1 min 46 sec) 
Heartbeat CPU 0 instructions: 22000000 cycles: 34118759 heartbeat IPC: 0.735576 cumulative IPC: 0.625636 (Simulation time: 0 hr 1 min 50 sec) 
Heartbeat CPU 0 instructions: 23000002 cycles: 35496234 heartbeat IPC: 0.725967 cumulative IPC: 0.629591 (Simulation time: 0 hr 1 min 55 sec) 
Heartbeat CPU 0 instructions: 24000001 cycles: 36877772 heartbeat IPC: 0.72383 cumulative IPC: 0.633175 (Simulation time: 0 hr 2 min 0 sec) 
Heartbeat CPU 0 instructions: 25000001 cycles: 38184049 heartbeat IPC: 0.765534 cumulative IPC: 0.63777 (Simulation time: 0 hr 2 min 5 sec) 
Heartbeat CPU 0 instructions: 26000002 cycles: 39574763 heartbeat IPC: 0.719056 cumulative IPC: 0.640667 (Simulation time: 0 hr 2 min 10 sec) 
Heartbeat CPU 0 instructions: 27000000 cycles: 40889193 heartbeat IPC: 0.760785 cumulative IPC: 0.644581 (Simulation time: 0 hr 2 min 15 sec) 
Heartbeat CPU 0 instructions: 28000002 cycles: 42290196 heartbeat IPC: 0.713776 cumulative IPC: 0.646904 (Simulation time: 0 hr 2 min 20 sec) 
Heartbeat CPU 0 instructions: 29000003 cycles: 43785472 heartbeat IPC: 0.668774 cumulative IPC: 0.64766 (Simulation time: 0 hr 2 min 25 sec) 
Heartbeat CPU 0 instructions: 30000000 cycles: 45451631 heartbeat IPC: 0.600181 cumulative IPC: 0.645898 (Simulation time: 0 hr 2 min 30 sec) 
Heartbeat CPU 0 instructions: 31000003 cycles: 46871189 heartbeat IPC: 0.704447 cumulative IPC: 0.647693 (Simulation time: 0 hr 2 min 34 sec) 
Heartbeat CPU 0 instructions: 32000001 cycles: 48140079 heartbeat IPC: 0.788089 cumulative IPC: 0.651436 (Simulation time: 0 hr 2 min 39 sec) 
Heartbeat CPU 0 instructions: 33000000 cycles: 49586820 heartbeat IPC: 0.691208 cumulative IPC: 0.65261 (Simulation time: 0 hr 2 min 43 sec) 
Heartbeat CPU 0 instructions: 34000000 cycles: 50788085 heartbeat IPC: 0.832456 cumulative IPC: 0.65691 (Simulation time: 0 hr 2 min 47 sec) 
Heartbeat CPU 0 instructions: 35000000 cycles: 52213718 heartbeat IPC: 0.701443 cumulative IPC: 0.658139 (Simulation time: 0 hr 2 min 52 sec) 
Heartbeat CPU 0 instructions: 36000000 cycles: 53673880 heartbeat IPC: 0.684856 cumulative IPC: 0.658873 (Simulation time: 0 hr 2 min 57 sec) 
Heartbeat CPU 0 instructions: 37000002 cycles: 55088817 heartbeat IPC: 0.706747 cumulative IPC: 0.660116 (Simulation time: 0 hr 3 min 1 sec) 
Heartbeat CPU 0 instructions: 38000000 cycles: 56352735 heartbeat IPC: 0.791189 cumulative IPC: 0.663085 (Simulation time: 0 hr 3 min 5 sec) 
Heartbeat CPU 0 instructions: 39000000 cycles: 58168425 heartbeat IPC: 0.550755 cumulative IPC: 0.659545 (Simulation time: 0 hr 3 min 10 sec) 
Heartbeat CPU 0 instructions: 40000001 cycles: 59470085 heartbeat IPC: 0.768251 cumulative IPC: 0.661946 (Simulation time: 0 hr 3 min 15 sec) 
Heartbeat CPU 0 instructions: 41000001 cycles: 60795929 heartbeat IPC: 0.754237 cumulative IPC: 0.663977 (Simulation time: 0 hr 3 min 19 sec) 
Heartbeat CPU 0 instructions: 42000000 cycles: 62343854 heartbeat IPC: 0.646025 cumulative IPC: 0.663528 (Simulation time: 0 hr 3 min 24 sec) 
Heartbeat CPU 0 instructions: 43000003 cycles: 63341163 heartbeat IPC: 1.0027 cumulative IPC: 0.668915 (Simulation time: 0 hr 3 min 28 sec) 
Heartbeat CPU 0 instructions: 44000000 cycles: 64014618 heartbeat IPC: 1.48488 cumulative IPC: 0.677574 (Simulation time: 0 hr 3 min 33 sec) 
Heartbeat CPU 0 instructions: 45000000 cycles: 65099628 heartbeat IPC: 0.92165 cumulative IPC: 0.681677 (Simulation time: 0 hr 3 min 38 sec) 
Heartbeat CPU 0 instructions: 46000000 cycles: 66558689 heartbeat IPC: 0.685372 cumulative IPC: 0.681758 (Simulation time: 0 hr 3 min 43 sec) 
Heartbeat CPU 0 instructions: 47000001 cycles: 67245381 heartbeat IPC: 1.45626 cumulative IPC: 0.689733 (Simulation time: 0 hr 3 min 47 sec) 
Heartbeat CPU 0 instructions: 48000002 cycles: 67910551 heartbeat IPC: 1.50338 cumulative IPC: 0.697768 (Simulation time: 0 hr 3 min 52 sec) 
Heartbeat CPU 0 instructions: 49000001 cycles: 69208165 heartbeat IPC: 0.770644 cumulative IPC: 0.699145 (Simulation time: 0 hr 3 min 58 sec) 
Heartbeat CPU 0 instructions: 50000000 cycles: 70629562 heartbeat IPC: 0.703533 cumulative IPC: 0.699234 (Simulation time: 0 hr 4 min 3 sec) 
Heartbeat CPU 0 instructions: 51000000 cycles: 71697398 heartbeat IPC: 0.936473 cumulative IPC: 0.702795 (Simulation time: 0 hr 4 min 6 sec) 
Heartbeat CPU 0 instructions: 52000000 cycles: 72966580 heartbeat IPC: 0.787909 cumulative IPC: 0.704287 (Simulation time: 0 hr 4 min 10 sec) 
Heartbeat CPU 0 instructions: 53000001 cycles: 74238890 heartbeat IPC: 0.785973 cumulative IPC: 0.705697 (Simulation time: 0 hr 4 min 15 sec) 
Heartbeat CPU 0 instructions: 54000002 cycles: 75140565 heartbeat IPC: 1.10905 cumulative IPC: 0.710573 (Simulation time: 0 hr 4 min 17 sec) 
Heartbeat CPU 0 instructions: 55000000 cycles: 76228392 heartbeat IPC: 0.919262 cumulative IPC: 0.713573 (Simulation time: 0 hr 4 min 21 sec) 
Heartbeat CPU 0 instructions: 56000003 cycles: 77395786 heartbeat IPC: 0.856611 cumulative IPC: 0.715746 (Simulation time: 0 hr 4 min 25 sec) 
Heartbeat CPU 0 instructions: 57000001 cycles: 78403672 heartbeat IPC: 0.992174 cumulative IPC: 0.719325 (Simulation time: 0 hr 4 min 29 sec) 
Heartbeat CPU 0 instructions: 58000000 cycles: 79457316 heartbeat IPC: 0.949086 cumulative IPC: 0.722393 (Simulation time: 0 hr 4 min 32 sec) 
Heartbeat CPU 0 instructions: 59000001 cycles: 80484700 heartbeat IPC: 0.973347 cumulative IPC: 0.725619 (Simulation time: 0 hr 4 min 36 sec) 
Heartbeat CPU 0 instructions: 60000000 cycles: 81656703 heartbeat IPC: 0.853239 cumulative IPC: 0.727463 (Simulation time: 0 hr 4 min 41 sec) 
Heartbeat CPU 0 instructions: 61000002 cycles: 83330904 heartbeat IPC: 0.597301 cumulative IPC: 0.72483 (Simulation time: 0 hr 4 min 46 sec) 
Heartbeat CPU 0 instructions: 62000002 cycles: 84968625 heartbeat IPC: 0.610605 cumulative IPC: 0.722614 (Simulation time: 0 hr 4 min 51 sec) 
Heartbeat CPU 0 instructions: 63000002 cycles: 86695962 heartbeat IPC: 0.578926 cumulative IPC: 0.719733 (Simulation time: 0 hr 4 min 55 sec) 
Heartbeat CPU 0 instructions: 64000000 cycles: 88446543 heartbeat IPC: 0.571238 cumulative IPC: 0.716775 (Simulation time: 0 hr 5 min 0 sec) 
Heartbeat CPU 0 instructions: 65000002 cycles: 89916400 heartbeat IPC: 0.68034 cumulative IPC: 0.716176 (Simulation time: 0 hr 5 min 5 sec) 
Heartbeat CPU 0 instructions: 66000000 cycles: 91734326 heartbeat IPC: 0.550076 cumulative IPC: 0.712865 (Simulation time: 0 hr 5 min 9 sec) 
Heartbeat CPU 0 instructions: 67000000 cycles: 93181216 heartbeat IPC: 0.691138 cumulative IPC: 0.712525 (Simulation time: 0 hr 5 min 13 sec) 
Heartbeat CPU 0 instructions: 68000001 cycles: 94432977 heartbeat IPC: 0.798875 cumulative IPC: 0.713677 (Simulation time: 0 hr 5 min 17 sec) 
Heartbeat CPU 0 instructions: 69000000 cycles: 95946341 heartbeat IPC: 0.660779 cumulative IPC: 0.712837 (Simulation time: 0 hr 5 min 21 sec) 
Heartbeat CPU 0 instructions: 70000002 cycles: 97298896 heartbeat IPC: 0.739343 cumulative IPC: 0.713208 (Simulation time: 0 hr 5 min 26 sec) 
Heartbeat CPU 0 instructions: 71000001 cycles: 99126334 heartbeat IPC: 0.547214 cumulative IPC: 0.710131 (Simulation time: 0 hr 5 min 31 sec) 
Heartbeat CPU 0 instructions: 72000000 cycles: 100160817 heartbeat IPC: 0.966665 cumulative IPC: 0.712795 (Simulation time: 0 hr 5 min 35 sec) 
Heartbeat CPU 0 instructions: 73000000 cycles: 101099446 heartbeat IPC: 1.06538 cumulative IPC: 0.716086 (Simulation time: 0 hr 5 min 40 sec) 
Heartbeat CPU 0 instructions: 74000001 cycles: 102002176 heartbeat IPC: 1.10775 cumulative IPC: 0.719572 (Simulation time: 0 hr 5 min 44 sec) 
Heartbeat CPU 0 instructions: 75000000 cycles: 102948606 heartbeat IPC: 1.0566 cumulative IPC: 0.722687 (Simulation time: 0 hr 5 min 47 sec) 
Heartbeat CPU 0 instructions: 76000001 cycles: 103834125 heartbeat IPC: 1.12928 cumulative IPC: 0.726173 (Simulation time: 0 hr 5 min 49 sec) 
Heartbeat CPU 0 instructions: 77000000 cycles: 104912790 heartbeat IPC: 0.927071 cumulative IPC: 0.728249 (Simulation time: 0 hr 5 min 51 sec) 
Heartbeat CPU 0 instructions: 78000001 cycles: 106015289 heartbeat IPC: 0.907031 cumulative IPC: 0.730118 (Simulation time: 0 hr 5 min 56 sec) 
Heartbeat CPU 0 instructions: 79000000 cycles: 106920344 heartbeat IPC: 1.1049 cumulative IPC: 0.733307 (Simulation time: 0 hr 6 min 0 sec) 
Heartbeat CPU 0 instructions: 80000002 cycles: 107801311 heartbeat IPC: 1.13512 cumulative IPC: 0.736608 (Simulation time: 0 hr 6 min 5 sec) 
Heartbeat CPU 0 instructions: 81000002 cycles: 108668674 heartbeat IPC: 1.15292 cumulative IPC: 0.739948 (Simulation time: 0 hr 6 min 8 sec) 
Heartbeat CPU 0 instructions: 82000000 cycles: 109526911 heartbeat IPC: 1.16518 cumulative IPC: 0.743297 (Simulation time: 0 hr 6 min 11 sec) 
Heartbeat CPU 0 instructions: 83000003 cycles: 110408167 heartbeat IPC: 1.13475 cumulative IPC: 0.746437 (Simulation time: 0 hr 6 min 14 sec) 
Heartbeat CPU 0 instructions: 84000000 cycles: 111393292 heartbeat IPC: 1.0151 cumulative IPC: 0.748825 (Simulation time: 0 hr 6 min 17 sec) 
Heartbeat CPU 0 instructions: 85000000 cycles: 112299411 heartbeat IPC: 1.10361 cumulative IPC: 0.751701 (Simulation time: 0 hr 6 min 21 sec) 
Heartbeat CPU 0 instructions: 86000003 cycles: 113176804 heartbeat IPC: 1.13974 cumulative IPC: 0.754724 (Simulation time: 0 hr 6 min 26 sec) 
Heartbeat CPU 0 instructions: 87000003 cycles: 114023209 heartbeat IPC: 1.18147 cumulative IPC: 0.757908 (Simulation time: 0 hr 6 min 30 sec) 
Heartbeat CPU 0 instructions: 88000000 cycles: 114856640 heartbeat IPC: 1.19986 cumulative IPC: 0.76113 (Simulation time: 0 hr 6 min 33 sec) 
Heartbeat CPU 0 instructions: 89000000 cycles: 115718516 heartbeat IPC: 1.16026 cumulative IPC: 0.764117 (Simulation time: 0 hr 6 min 36 sec) 
Heartbeat CPU 0 instructions: 90000000 cycles: 116872320 heartbeat IPC: 0.866698 cumulative IPC: 0.765135 (Simulation time: 0 hr 6 min 39 sec) 
Heartbeat CPU 0 instructions: 91000000 cycles: 118075551 heartbeat IPC: 0.831096 cumulative IPC: 0.76581 (Simulation time: 0 hr 6 min 42 sec) 
Heartbeat CPU 0 instructions: 92000002 cycles: 119177555 heartbeat IPC: 0.90744 cumulative IPC: 0.767126 (Simulation time: 0 hr 6 min 46 sec) 
Heartbeat CPU 0 instructions: 93000002 cycles: 120259966 heartbeat IPC: 0.923863 cumulative IPC: 0.768543 (Simulation time: 0 hr 6 min 50 sec) 
Heartbeat CPU 0 instructions: 94000000 cycles: 121309052 heartbeat IPC: 0.953209 cumulative IPC: 0.770147 (Simulation time: 0 hr 6 min 54 sec) 
Heartbeat CPU 0 instructions: 95000001 cycles: 122839274 heartbeat IPC: 0.653501 cumulative IPC: 0.768688 (Simulation time: 0 hr 6 min 59 sec) 
Heartbeat CPU 0 instructions: 96000003 cycles: 124549945 heartbeat IPC: 0.584567 cumulative IPC: 0.766147 (Simulation time: 0 hr 7 min 4 sec) 
Heartbeat CPU 0 instructions: 97000001 cycles: 126095078 heartbeat IPC: 0.647192 cumulative IPC: 0.764683 (Simulation time: 0 hr 7 min 10 sec) 
Heartbeat CPU 0 instructions: 98000001 cycles: 127490584 heartbeat IPC: 0.716586 cumulative IPC: 0.764155 (Simulation time: 0 hr 7 min 16 sec) 
Heartbeat CPU 0 instructions: 99000000 cycles: 128836785 heartbeat IPC: 0.74283 cumulative IPC: 0.763931 (Simulation time: 0 hr 7 min 22 sec) 
Heartbeat CPU 0 instructions: 100000000 cycles: 130776051 heartbeat IPC: 0.515659 cumulative IPC: 0.760234 (Simulation time: 0 hr 7 min 28 sec) 
Heartbeat CPU 0 instructions: 101000003 cycles: 132371579 heartbeat IPC: 0.626754 cumulative IPC: 0.758618 (Simulation time: 0 hr 7 min 32 sec) 
Heartbeat CPU 0 instructions: 102000000 cycles: 133657415 heartbeat IPC: 0.777702 cumulative IPC: 0.758802 (Simulation time: 0 hr 7 min 37 sec) 
Heartbeat CPU 0 instructions: 103000003 cycles: 134907307 heartbeat IPC: 0.800072 cumulative IPC: 0.759186 (Simulation time: 0 hr 7 min 42 sec) 
Heartbeat CPU 0 instructions: 104000003 cycles: 136181114 heartbeat IPC: 0.785048 cumulative IPC: 0.759429 (Simulation time: 0 hr 7 min 46 sec) 
Heartbeat CPU 0 instructions: 105000000 cycles: 137490770 heartbeat IPC: 0.763557 cumulative IPC: 0.759469 (Simulation time: 0 hr 7 min 51 sec) 
Heartbeat CPU 0 instructions: 106000002 cycles: 138858280 heartbeat IPC: 0.731258 cumulative IPC: 0.75919 (Simulation time: 0 hr 7 min 56 sec) 
Heartbeat CPU 0 instructions: 107000002 cycles: 140058471 heartbeat IPC: 0.833201 cumulative IPC: 0.759826 (Simulation time: 0 hr 8 min 1 sec) 
Heartbeat CPU 0 instructions: 108000001 cycles: 141239695 heartbeat IPC: 0.846579 cumulative IPC: 0.760555 (Simulation time: 0 hr 8 min 5 sec) 
Heartbeat CPU 0 instructions: 109000000 cycles: 142479251 heartbeat IPC: 0.80674 cumulative IPC: 0.760958 (Simulation time: 0 hr 8 min 10 sec) 
Heartbeat CPU 0 instructions: 110000000 cycles: 143759304 heartbeat IPC: 0.781218 cumulative IPC: 0.761139 (Simulation time: 0 hr 8 min 16 sec) 
Heartbeat CPU 0 instructions: 111000002 cycles: 145127950 heartbeat IPC: 0.730651 cumulative IPC: 0.760851 (Simulation time: 0 hr 8 min 20 sec) 
Heartbeat CPU 0 instructions: 112000001 cycles: 146687438 heartbeat IPC: 0.641235 cumulative IPC: 0.759574 (Simulation time: 0 hr 8 min 25 sec) 
Heartbeat CPU 0 instructions: 113000001 cycles: 148307341 heartbeat IPC: 0.617321 cumulative IPC: 0.758015 (Simulation time: 0 hr 8 min 30 sec) 
Heartbeat CPU 0 instructions: 114000002 cycles: 149624268 heartbeat IPC: 0.759344 cumulative IPC: 0.758026 (Simulation time: 0 hr 8 min 35 sec) 
Heartbeat CPU 0 instructions: 115000001 cycles: 150920483 heartbeat IPC: 0.771476 cumulative IPC: 0.758142 (Simulation time: 0 hr 8 min 40 sec) 
Heartbeat CPU 0 instructions: 116000001 cycles: 152641382 heartbeat IPC: 0.581092 cumulative IPC: 0.756139 (Simulation time: 0 hr 8 min 45 sec) 
Heartbeat CPU 0 instructions: 117000003 cycles: 154331773 heartbeat IPC: 0.59158 cumulative IPC: 0.75433 (Simulation time: 0 hr 8 min 49 sec) 
Heartbeat CPU 0 instructions: 118000000 cycles: 155883481 heartbeat IPC: 0.644449 cumulative IPC: 0.753232 (Simulation time: 0 hr 8 min 55 sec) 
Heartbeat CPU 0 instructions: 119000000 cycles: 157405225 heartbeat IPC: 0.657141 cumulative IPC: 0.7523 (Simulation time: 0 hr 9 min 0 sec) 
Heartbeat CPU 0 instructions: 120000001 cycles: 159283246 heartbeat IPC: 0.532476 cumulative IPC: 0.749699 (Simulation time: 0 hr 9 min 4 sec) 
Heartbeat CPU 0 instructions: 121000000 cycles: 161086863 heartbeat IPC: 0.554441 cumulative IPC: 0.747505 (Simulation time: 0 hr 9 min 10 sec) 
Heartbeat CPU 0 instructions: 122000001 cycles: 162596650 heartbeat IPC: 0.662346 cumulative IPC: 0.746712 (Simulation time: 0 hr 9 min 15 sec) 
Heartbeat CPU 0 instructions: 123000000 cycles: 164297386 heartbeat IPC: 0.58798 cumulative IPC: 0.745063 (Simulation time: 0 hr 9 min 20 sec) 
Heartbeat CPU 0 instructions: 124000000 cycles: 165834842 heartbeat IPC: 0.650425 cumulative IPC: 0.744183 (Simulation time: 0 hr 9 min 25 sec) 
Heartbeat CPU 0 instructions: 125000003 cycles: 167328344 heartbeat IPC: 0.669569 cumulative IPC: 0.743515 (Simulation time: 0 hr 9 min 30 sec) 
Heartbeat CPU 0 instructions: 126000000 cycles: 169057956 heartbeat IPC: 0.578163 cumulative IPC: 0.741818 (Simulation time: 0 hr 9 min 35 sec) 
Heartbeat CPU 0 instructions: 127000003 cycles: 170381905 heartbeat IPC: 0.755318 cumulative IPC: 0.741923 (Simulation time: 0 hr 9 min 39 sec) 
Heartbeat CPU 0 instructions: 128000002 cycles: 171331801 heartbeat IPC: 1.05275 cumulative IPC: 0.743652 (Simulation time: 0 hr 9 min 44 sec) 
Heartbeat CPU 0 instructions: 129000001 cycles: 172282997 heartbeat IPC: 1.05131 cumulative IPC: 0.745356 (Simulation time: 0 hr 9 min 48 sec) 
Heartbeat CPU 0 instructions: 130000002 cycles: 173765234 heartbeat IPC: 0.674657 cumulative IPC: 0.744751 (Simulation time: 0 hr 9 min 53 sec) 
Heartbeat CPU 0 instructions: 131000002 cycles: 175502983 heartbeat IPC: 0.575457 cumulative IPC: 0.743069 (Simulation time: 0 hr 9 min 59 sec) 
Heartbeat CPU 0 instructions: 132000000 cycles: 176787266 heartbeat IPC: 0.778643 cumulative IPC: 0.743328 (Simulation time: 0 hr 10 min 3 sec) 
Heartbeat CPU 0 instructions: 133000001 cycles: 178332388 heartbeat IPC: 0.647199 cumulative IPC: 0.742493 (Simulation time: 0 hr 10 min 8 sec) 
Heartbeat CPU 0 instructions: 134000000 cycles: 179718978 heartbeat IPC: 0.721193 cumulative IPC: 0.742328 (Simulation time: 0 hr 10 min 13 sec) 
Heartbeat CPU 0 instructions: 135000001 cycles: 181434614 heartbeat IPC: 0.582875 cumulative IPC: 0.740816 (Simulation time: 0 hr 10 min 17 sec) 
Heartbeat CPU 0 instructions: 136000001 cycles: 183135000 heartbeat IPC: 0.588102 cumulative IPC: 0.739393 (Simulation time: 0 hr 10 min 23 sec) 
Heartbeat CPU 0 instructions: 137000000 cycles: 185134772 heartbeat IPC: 0.500057 cumulative IPC: 0.7368 (Simulation time: 0 hr 10 min 27 sec) 
Heartbeat CPU 0 instructions: 138000001 cycles: 186476683 heartbeat IPC: 0.745207 cumulative IPC: 0.736861 (Simulation time: 0 hr 10 min 32 sec) 
Heartbeat CPU 0 instructions: 139000000 cycles: 187765237 heartbeat IPC: 0.776063 cumulative IPC: 0.737131 (Simulation time: 0 hr 10 min 38 sec) 
Heartbeat CPU 0 instructions: 140000000 cycles: 189076613 heartbeat IPC: 0.762558 cumulative IPC: 0.737308 (Simulation time: 0 hr 10 min 43 sec) 
Heartbeat CPU 0 instructions: 141000001 cycles: 190412461 heartbeat IPC: 0.748589 cumulative IPC: 0.737387 (Simulation time: 0 hr 10 min 49 sec) 
Heartbeat CPU 0 instructions: 142000000 cycles: 191649632 heartbeat IPC: 0.808295 cumulative IPC: 0.737846 (Simulation time: 0 hr 10 min 54 sec) 
Heartbeat CPU 0 instructions: 143000000 cycles: 192954377 heartbeat IPC: 0.766433 cumulative IPC: 0.73804 (Simulation time: 0 hr 11 min 0 sec) 
Heartbeat CPU 0 instructions: 144000001 cycles: 194202303 heartbeat IPC: 0.80133 cumulative IPC: 0.738448 (Simulation time: 0 hr 11 min 5 sec) 
Heartbeat CPU 0 instructions: 145000000 cycles: 195494571 heartbeat IPC: 0.773832 cumulative IPC: 0.738683 (Simulation time: 0 hr 11 min 9 sec) 
Heartbeat CPU 0 instructions: 146000000 cycles: 196826877 heartbeat IPC: 0.750578 cumulative IPC: 0.738763 (Simulation time: 0 hr 11 min 15 sec) 
Heartbeat CPU 0 instructions: 147000002 cycles: 198051748 heartbeat IPC: 0.816414 cumulative IPC: 0.739245 (Simulation time: 0 hr 11 min 20 sec) 
Heartbeat CPU 0 instructions: 148000003 cycles: 199437987 heartbeat IPC: 0.721377 cumulative IPC: 0.73912 (Simulation time: 0 hr 11 min 25 sec) 
Heartbeat CPU 0 instructions: 149000001 cycles: 200586547 heartbeat IPC: 0.870654 cumulative IPC: 0.739876 (Simulation time: 0 hr 11 min 30 sec) 
Heartbeat CPU 0 instructions: 150000002 cycles: 201916604 heartbeat IPC: 0.751848 cumulative IPC: 0.739955 (Simulation time: 0 hr 11 min 36 sec) 
Heartbeat CPU 0 instructions: 151000000 cycles: 203084872 heartbeat IPC: 0.855966 cumulative IPC: 0.740624 (Simulation time: 0 hr 11 min 41 sec) 
Heartbeat CPU 0 instructions: 152000003 cycles: 204641079 heartbeat IPC: 0.64259 cumulative IPC: 0.739876 (Simulation time: 0 hr 11 min 47 sec) 
Heartbeat CPU 0 instructions: 153000002 cycles: 205962895 heartbeat IPC: 0.756534 cumulative IPC: 0.739983 (Simulation time: 0 hr 11 min 52 sec) 
Heartbeat CPU 0 instructions: 154000000 cycles: 206941488 heartbeat IPC: 1.02187 cumulative IPC: 0.74132 (Simulation time: 0 hr 11 min 58 sec) 
Heartbeat CPU 0 instructions: 155000001 cycles: 207937819 heartbeat IPC: 1.00368 cumulative IPC: 0.742581 (Simulation time: 0 hr 12 min 3 sec) 
Heartbeat CPU 0 instructions: 156000001 cycles: 208853645 heartbeat IPC: 1.09191 cumulative IPC: 0.744116 (Simulation time: 0 hr 12 min 8 sec) 
Heartbeat CPU 0 instructions: 157000001 cycles: 210054337 heartbeat IPC: 0.832853 cumulative IPC: 0.744625 (Simulation time: 0 hr 12 min 13 sec) 
Heartbeat CPU 0 instructions: 158000003 cycles: 211082073 heartbeat IPC: 0.973014 cumulative IPC: 0.74574 (Simulation time: 0 hr 12 min 18 sec) 
Heartbeat CPU 0 instructions: 159000002 cycles: 212049738 heartbeat IPC: 1.03341 cumulative IPC: 0.747056 (Simulation time: 0 hr 12 min 24 sec) 
Heartbeat CPU 0 instructions: 160000001 cycles: 214260003 heartbeat IPC: 0.452434 cumulative IPC: 0.744009 (Simulation time: 0 hr 12 min 29 sec) 
Heartbeat CPU 0 instructions: 161000000 cycles: 216093376 heartbeat IPC: 0.545442 cumulative IPC: 0.74232 (Simulation time: 0 hr 12 min 33 sec) 
Heartbeat CPU 0 instructions: 162000000 cycles: 217741821 heartbeat IPC: 0.606632 cumulative IPC: 0.74129 (Simulation time: 0 hr 12 min 38 sec) 
Heartbeat CPU 0 instructions: 163000001 cycles: 219298110 heartbeat IPC: 0.642555 cumulative IPC: 0.740588 (Simulation time: 0 hr 12 min 42 sec) 
Heartbeat CPU 0 instructions: 164000002 cycles: 220753203 heartbeat IPC: 0.687242 cumulative IPC: 0.740235 (Simulation time: 0 hr 12 min 47 sec) 
Heartbeat CPU 0 instructions: 165000000 cycles: 222514553 heartbeat IPC: 0.567745 cumulative IPC: 0.738866 (Simulation time: 0 hr 12 min 51 sec) 
Heartbeat CPU 0 instructions: 166000003 cycles: 224263704 heartbeat IPC: 0.571708 cumulative IPC: 0.737559 (Simulation time: 0 hr 12 min 56 sec) 
Heartbeat CPU 0 instructions: 167000001 cycles: 225809926 heartbeat IPC: 0.646736 cumulative IPC: 0.736936 (Simulation time: 0 hr 13 min 1 sec) 
Heartbeat CPU 0 instructions: 168000000 cycles: 227297313 heartbeat IPC: 0.672319 cumulative IPC: 0.736512 (Simulation time: 0 hr 13 min 5 sec) 
Heartbeat CPU 0 instructions: 169000000 cycles: 228807389 heartbeat IPC: 0.662218 cumulative IPC: 0.736021 (Simulation time: 0 hr 13 min 9 sec) 
Heartbeat CPU 0 instructions: 170000000 cycles: 230159059 heartbeat IPC: 0.739826 cumulative IPC: 0.736043 (Simulation time: 0 hr 13 min 13 sec) 
Heartbeat CPU 0 instructions: 171000003 cycles: 231379902 heartbeat IPC: 0.819109 cumulative IPC: 0.736482 (Simulation time: 0 hr 13 min 17 sec) 
Heartbeat CPU 0 instructions: 172000000 cycles: 232521837 heartbeat IPC: 0.875704 cumulative IPC: 0.737168 (Simulation time: 0 hr 13 min 21 sec) 
Heartbeat CPU 0 instructions: 173000001 cycles: 233583568 heartbeat IPC: 0.941859 cumulative IPC: 0.7381 (Simulation time: 0 hr 13 min 26 sec) 
Heartbeat CPU 0 instructions: 174000001 cycles: 234570474 heartbeat IPC: 1.01327 cumulative IPC: 0.739261 (Simulation time: 0 hr 13 min 30 sec) 
Heartbeat CPU 0 instructions: 175000003 cycles: 235536500 heartbeat IPC: 1.03517 cumulative IPC: 0.740477 (Simulation time: 0 hr 13 min 34 sec) 
Heartbeat CPU 0 instructions: 176000000 cycles: 236833815 heartbeat IPC: 0.77082 cumulative IPC: 0.740644 (Simulation time: 0 hr 13 min 38 sec) 
Heartbeat CPU 0 instructions: 177000003 cycles: 237886418 heartbeat IPC: 0.950029 cumulative IPC: 0.741572 (Simulation time: 0 hr 13 min 43 sec) 
Heartbeat CPU 0 instructions: 178000002 cycles: 239323622 heartbeat IPC: 0.695795 cumulative IPC: 0.741297 (Simulation time: 0 hr 13 min 46 sec) 
Heartbeat CPU 0 instructions: 179000001 cycles: 240920629 heartbeat IPC: 0.626171 cumulative IPC: 0.740532 (Simulation time: 0 hr 13 min 50 sec) 
Heartbeat CPU 0 instructions: 180000000 cycles: 242451742 heartbeat IPC: 0.653119 cumulative IPC: 0.739979 (Simulation time: 0 hr 13 min 54 sec) 
Heartbeat CPU 0 instructions: 181000003 cycles: 243882264 heartbeat IPC: 0.699048 cumulative IPC: 0.739738 (Simulation time: 0 hr 13 min 59 sec) 
Heartbeat CPU 0 instructions: 182000001 cycles: 245510052 heartbeat IPC: 0.614329 cumulative IPC: 0.738905 (Simulation time: 0 hr 14 min 4 sec) 
Heartbeat CPU 0 instructions: 183000002 cycles: 246880495 heartbeat IPC: 0.729692 cumulative IPC: 0.738854 (Simulation time: 0 hr 14 min 8 sec) 
Heartbeat CPU 0 instructions: 184000002 cycles: 248369820 heartbeat IPC: 0.671445 cumulative IPC: 0.738448 (Simulation time: 0 hr 14 min 12 sec) 
Heartbeat CPU 0 instructions: 185000001 cycles: 250514303 heartbeat IPC: 0.466312 cumulative IPC: 0.736114 (Simulation time: 0 hr 14 min 17 sec) 
Heartbeat CPU 0 instructions: 186000001 cycles: 252268346 heartbeat IPC: 0.570111 cumulative IPC: 0.734957 (Simulation time: 0 hr 14 min 22 sec) 
Heartbeat CPU 0 instructions: 187000000 cycles: 253700868 heartbeat IPC: 0.698069 cumulative IPC: 0.734748 (Simulation time: 0 hr 14 min 27 sec) 
Heartbeat CPU 0 instructions: 188000000 cycles: 255410772 heartbeat IPC: 0.584828 cumulative IPC: 0.733742 (Simulation time: 0 hr 14 min 30 sec) 
Heartbeat CPU 0 instructions: 189000000 cycles: 256884344 heartbeat IPC: 0.678623 cumulative IPC: 0.733425 (Simulation time: 0 hr 14 min 33 sec) 
Heartbeat CPU 0 instructions: 190000002 cycles: 258451637 heartbeat IPC: 0.638044 cumulative IPC: 0.732846 (Simulation time: 0 hr 14 min 36 sec) 
Heartbeat CPU 0 instructions: 191000000 cycles: 259961907 heartbeat IPC: 0.662132 cumulative IPC: 0.732434 (Simulation time: 0 hr 14 min 38 sec) 
Heartbeat CPU 0 instructions: 192000000 cycles: 261483961 heartbeat IPC: 0.657007 cumulative IPC: 0.731994 (Simulation time: 0 hr 14 min 41 sec) 
Heartbeat CPU 0 instructions: 193000000 cycles: 262931965 heartbeat IPC: 0.690606 cumulative IPC: 0.731766 (Simulation time: 0 hr 14 min 44 sec) 
Heartbeat CPU 0 instructions: 194000003 cycles: 264347692 heartbeat IPC: 0.706353 cumulative IPC: 0.731629 (Simulation time: 0 hr 14 min 47 sec) 
Heartbeat CPU 0 instructions: 195000001 cycles: 265773921 heartbeat IPC: 0.701148 cumulative IPC: 0.731465 (Simulation time: 0 hr 14 min 50 sec) 
Heartbeat CPU 0 instructions: 196000003 cycles: 267140621 heartbeat IPC: 0.731691 cumulative IPC: 0.731467 (Simulation time: 0 hr 14 min 53 sec) 
Heartbeat CPU 0 instructions: 197000000 cycles: 268613683 heartbeat IPC: 0.678856 cumulative IPC: 0.731178 (Simulation time: 0 hr 14 min 56 sec) 
Heartbeat CPU 0 instructions: 198000000 cycles: 270064830 heartbeat IPC: 0.68911 cumulative IPC: 0.730951 (Simulation time: 0 hr 14 min 59 sec) 
Heartbeat CPU 0 instructions: 199000002 cycles: 271524393 heartbeat IPC: 0.685138 cumulative IPC: 0.730704 (Simulation time: 0 hr 15 min 2 sec) 
Heartbeat CPU 0 instructions: 200000000 cycles: 272935253 heartbeat IPC: 0.708786 cumulative IPC: 0.730591 (Simulation time: 0 hr 15 min 4 sec) 
Heartbeat CPU 0 instructions: 201000000 cycles: 274653354 heartbeat IPC: 0.582038 cumulative IPC: 0.729659 (Simulation time: 0 hr 15 min 7 sec) 
Heartbeat CPU 0 instructions: 202000000 cycles: 276243828 heartbeat IPC: 0.628743 cumulative IPC: 0.729077 (Simulation time: 0 hr 15 min 10 sec) 
Heartbeat CPU 0 instructions: 203000000 cycles: 277710836 heartbeat IPC: 0.68166 cumulative IPC: 0.728826 (Simulation time: 0 hr 15 min 13 sec) 
Heartbeat CPU 0 instructions: 204000000 cycles: 279140525 heartbeat IPC: 0.699453 cumulative IPC: 0.728676 (Simulation time: 0 hr 15 min 15 sec) 
Heartbeat CPU 0 instructions: 205000003 cycles: 280562792 heartbeat IPC: 0.703105 cumulative IPC: 0.728546 (Simulation time: 0 hr 15 min 17 sec) 
Heartbeat CPU 0 instructions: 206000000 cycles: 281608342 heartbeat IPC: 0.956432 cumulative IPC: 0.729393 (Simulation time: 0 hr 15 min 20 sec) 
Heartbeat CPU 0 instructions: 207000000 cycles: 282977426 heartbeat IPC: 0.730415 cumulative IPC: 0.729398 (Simulation time: 0 hr 15 min 23 sec) 
Heartbeat CPU 0 instructions: 208000000 cycles: 284365465 heartbeat IPC: 0.720441 cumulative IPC: 0.729355 (Simulation time: 0 hr 15 min 26 sec) 
Heartbeat CPU 0 instructions: 209000000 cycles: 285875367 heartbeat IPC: 0.662295 cumulative IPC: 0.729 (Simulation time: 0 hr 15 min 28 sec) 
Heartbeat CPU 0 instructions: 210000001 cycles: 287353326 heartbeat IPC: 0.676609 cumulative IPC: 0.72873 (Simulation time: 0 hr 15 min 31 sec) 
Heartbeat CPU 0 instructions: 211000000 cycles: 288580780 heartbeat IPC: 0.814694 cumulative IPC: 0.729096 (Simulation time: 0 hr 15 min 33 sec) 
Heartbeat CPU 0 instructions: 212000000 cycles: 289994112 heartbeat IPC: 0.707548 cumulative IPC: 0.728991 (Simulation time: 0 hr 15 min 36 sec) 
Heartbeat CPU 0 instructions: 213000001 cycles: 291447689 heartbeat IPC: 0.687959 cumulative IPC: 0.728786 (Simulation time: 0 hr 15 min 39 sec) 
Heartbeat CPU 0 instructions: 214000003 cycles: 292706926 heartbeat IPC: 0.794133 cumulative IPC: 0.729068 (Simulation time: 0 hr 15 min 42 sec) 
Heartbeat CPU 0 instructions: 215000000 cycles: 294139153 heartbeat IPC: 0.698211 cumulative IPC: 0.728917 (Simulation time: 0 hr 15 min 45 sec) 
Heartbeat CPU 0 instructions: 216000000 cycles: 295588482 heartbeat IPC: 0.689974 cumulative IPC: 0.728726 (Simulation time: 0 hr 15 min 48 sec) 
Heartbeat CPU 0 instructions: 217000000 cycles: 297182217 heartbeat IPC: 0.627457 cumulative IPC: 0.728182 (Simulation time: 0 hr 15 min 51 sec) 
Heartbeat CPU 0 instructions: 218000000 cycles: 298589292 heartbeat IPC: 0.710694 cumulative IPC: 0.728099 (Simulation time: 0 hr 15 min 54 sec) 
Heartbeat CPU 0 instructions: 219000001 cycles: 299884523 heartbeat IPC: 0.772064 cumulative IPC: 0.728289 (Simulation time: 0 hr 15 min 57 sec) 
Heartbeat CPU 0 instructions: 220000000 cycles: 301435949 heartbeat IPC: 0.644568 cumulative IPC: 0.727858 (Simulation time: 0 hr 16 min 0 sec) 
Heartbeat CPU 0 instructions: 221000000 cycles: 303044141 heartbeat IPC: 0.621816 cumulative IPC: 0.727294 (Simulation time: 0 hr 16 min 3 sec) 
Heartbeat CPU 0 instructions: 222000003 cycles: 304446379 heartbeat IPC: 0.713148 cumulative IPC: 0.727229 (Simulation time: 0 hr 16 min 8 sec) 
Heartbeat CPU 0 instructions: 223000000 cycles: 305788076 heartbeat IPC: 0.745323 cumulative IPC: 0.727308 (Simulation time: 0 hr 16 min 13 sec) 
Heartbeat CPU 0 instructions: 224000002 cycles: 307181000 heartbeat IPC: 0.717916 cumulative IPC: 0.727265 (Simulation time: 0 hr 16 min 18 sec) 
Heartbeat CPU 0 instructions: 225000000 cycles: 308327905 heartbeat IPC: 0.87191 cumulative IPC: 0.727804 (Simulation time: 0 hr 16 min 23 sec) 
Heartbeat CPU 0 instructions: 226000003 cycles: 310274076 heartbeat IPC: 0.513831 cumulative IPC: 0.72646 (Simulation time: 0 hr 16 min 28 sec) 
Heartbeat CPU 0 instructions: 227000002 cycles: 311993306 heartbeat IPC: 0.581655 cumulative IPC: 0.725661 (Simulation time: 0 hr 16 min 32 sec) 
Heartbeat CPU 0 instructions: 228000002 cycles: 313672266 heartbeat IPC: 0.595607 cumulative IPC: 0.724963 (Simulation time: 0 hr 16 min 37 sec) 
Heartbeat CPU 0 instructions: 229000002 cycles: 315344992 heartbeat IPC: 0.597827 cumulative IPC: 0.724288 (Simulation time: 0 hr 16 min 41 sec) 
Heartbeat CPU 0 instructions: 230000000 cycles: 317062427 heartbeat IPC: 0.582263 cumulative IPC: 0.723517 (Simulation time: 0 hr 16 min 45 sec) 
Heartbeat CPU 0 instructions: 231000000 cycles: 318627846 heartbeat IPC: 0.638807 cumulative IPC: 0.7231 (Simulation time: 0 hr 16 min 48 sec) 
Heartbeat CPU 0 instructions: 232000003 cycles: 320030265 heartbeat IPC: 0.713056 cumulative IPC: 0.723056 (Simulation time: 0 hr 16 min 50 sec) 
Heartbeat CPU 0 instructions: 233000001 cycles: 321245591 heartbeat IPC: 0.822823 cumulative IPC: 0.723434 (Simulation time: 0 hr 16 min 53 sec) 
Heartbeat CPU 0 instructions: 234000000 cycles: 322810402 heartbeat IPC: 0.639054 cumulative IPC: 0.723024 (Simulation time: 0 hr 16 min 56 sec) 
Heartbeat CPU 0 instructions: 235000003 cycles: 324293686 heartbeat IPC: 0.674182 cumulative IPC: 0.722801 (Simulation time: 0 hr 16 min 58 sec) 
Heartbeat CPU 0 instructions: 236000001 cycles: 326476232 heartbeat IPC: 0.45818 cumulative IPC: 0.721029 (Simulation time: 0 hr 17 min 1 sec) 
Heartbeat CPU 0 instructions: 237000002 cycles: 328115768 heartbeat IPC: 0.609929 cumulative IPC: 0.720472 (Simulation time: 0 hr 17 min 4 sec) 
Heartbeat CPU 0 instructions: 238000000 cycles: 329381000 heartbeat IPC: 0.790367 cumulative IPC: 0.720741 (Simulation time: 0 hr 17 min 7 sec) 
Heartbeat CPU 0 instructions: 239000001 cycles: 331132333 heartbeat IPC: 0.570994 cumulative IPC: 0.719948 (Simulation time: 0 hr 17 min 10 sec) 
Heartbeat CPU 0 instructions: 240000002 cycles: 332697595 heartbeat IPC: 0.638871 cumulative IPC: 0.719566 (Simulation time: 0 hr 17 min 13 sec) 
Heartbeat CPU 0 instructions: 241000002 cycles: 334296271 heartbeat IPC: 0.625518 cumulative IPC: 0.719115 (Simulation time: 0 hr 17 min 16 sec) 
Heartbeat CPU 0 instructions: 242000000 cycles: 335616310 heartbeat IPC: 0.757552 cumulative IPC: 0.719267 (Simulation time: 0 hr 17 min 20 sec) 
Heartbeat CPU 0 instructions: 243000002 cycles: 337091096 heartbeat IPC: 0.678066 cumulative IPC: 0.719086 (Simulation time: 0 hr 17 min 23 sec) 
Heartbeat CPU 0 instructions: 244000001 cycles: 338589093 heartbeat IPC: 0.667557 cumulative IPC: 0.718858 (Simulation time: 0 hr 17 min 26 sec) 
Heartbeat CPU 0 instructions: 245000003 cycles: 340050946 heartbeat IPC: 0.684065 cumulative IPC: 0.718708 (Simulation time: 0 hr 17 min 29 sec) 
Heartbeat CPU 0 instructions: 246000000 cycles: 341748275 heartbeat IPC: 0.589159 cumulative IPC: 0.718064 (Simulation time: 0 hr 17 min 32 sec) 
Heartbeat CPU 0 instructions: 247000003 cycles: 343245551 heartbeat IPC: 0.667882 cumulative IPC: 0.717844 (Simulation time: 0 hr 17 min 35 sec) 
Heartbeat CPU 0 instructions: 248000002 cycles: 344645345 heartbeat IPC: 0.71439 cumulative IPC: 0.71783 (Simulation time: 0 hr 17 min 37 sec) 
Heartbeat CPU 0 instructions: 249000000 cycles: 345875311 heartbeat IPC: 0.813029 cumulative IPC: 0.718169 (Simulation time: 0 hr 17 min 40 sec) 
Heartbeat CPU 0 instructions: 250000002 cycles: 346909559 heartbeat IPC: 0.966888 cumulative IPC: 0.718912 (Simulation time: 0 hr 17 min 43 sec) 
Heartbeat CPU 0 instructions: 251000000 cycles: 348444113 heartbeat IPC: 0.651654 cumulative IPC: 0.718615 (Simulation time: 0 hr 17 min 45 sec) 
Heartbeat CPU 0 instructions: 252000002 cycles: 349555458 heartbeat IPC: 0.899812 cumulative IPC: 0.719192 (Simulation time: 0 hr 17 min 47 sec) 
Heartbeat CPU 0 instructions: 253000000 cycles: 350789679 heartbeat IPC: 0.810226 cumulative IPC: 0.719513 (Simulation time: 0 hr 17 min 50 sec) 
Heartbeat CPU 0 instructions: 254000002 cycles: 352154749 heartbeat IPC: 0.732565 cumulative IPC: 0.719564 (Simulation time: 0 hr 17 min 53 sec) 
Heartbeat CPU 0 instructions: 255000001 cycles: 353412038 heartbeat IPC: 0.795361 cumulative IPC: 0.719834 (Simulation time: 0 hr 17 min 56 sec) 
Heartbeat CPU 0 instructions: 256000000 cycles: 354856664 heartbeat IPC: 0.69222 cumulative IPC: 0.719721 (Simulation time: 0 hr 17 min 59 sec) 
Heartbeat CPU 0 instructions: 257000000 cycles: 356406073 heartbeat IPC: 0.645407 cumulative IPC: 0.719398 (Simulation time: 0 hr 18 min 2 sec) 
Heartbeat CPU 0 instructions: 258000001 cycles: 357632636 heartbeat IPC: 0.815287 cumulative IPC: 0.719727 (Simulation time: 0 hr 18 min 5 sec) 
Heartbeat CPU 0 instructions: 259000000 cycles: 359158785 heartbeat IPC: 0.655243 cumulative IPC: 0.719453 (Simulation time: 0 hr 18 min 8 sec) 
Heartbeat CPU 0 instructions: 260000000 cycles: 360718018 heartbeat IPC: 0.641341 cumulative IPC: 0.719115 (Simulation time: 0 hr 18 min 11 sec) 
Heartbeat CPU 0 instructions: 261000003 cycles: 362091687 heartbeat IPC: 0.72798 cumulative IPC: 0.719148 (Simulation time: 0 hr 18 min 14 sec) 
Heartbeat CPU 0 instructions: 262000000 cycles: 363256090 heartbeat IPC: 0.858807 cumulative IPC: 0.719597 (Simulation time: 0 hr 18 min 17 sec) 
Heartbeat CPU 0 instructions: 263000000 cycles: 364504169 heartbeat IPC: 0.801231 cumulative IPC: 0.719877 (Simulation time: 0 hr 18 min 20 sec) 
Heartbeat CPU 0 instructions: 264000000 cycles: 366379991 heartbeat IPC: 0.5331 cumulative IPC: 0.718919 (Simulation time: 0 hr 18 min 23 sec) 
Heartbeat CPU 0 instructions: 265000001 cycles: 368336714 heartbeat IPC: 0.511059 cumulative IPC: 0.717813 (Simulation time: 0 hr 18 min 25 sec) 
Heartbeat CPU 0 instructions: 266000001 cycles: 369915915 heartbeat IPC: 0.633232 cumulative IPC: 0.717451 (Simulation time: 0 hr 18 min 28 sec) 
Heartbeat CPU 0 instructions: 267000000 cycles: 371346664 heartbeat IPC: 0.698934 cumulative IPC: 0.71738 (Simulation time: 0 hr 18 min 30 sec) 
Heartbeat CPU 0 instructions: 268000000 cycles: 373055225 heartbeat IPC: 0.585288 cumulative IPC: 0.716774 (Simulation time: 0 hr 18 min 32 sec) 
Heartbeat CPU 0 instructions: 269000001 cycles: 375131685 heartbeat IPC: 0.481589 cumulative IPC: 0.71547 (Simulation time: 0 hr 18 min 35 sec) 
Heartbeat CPU 0 instructions: 270000001 cycles: 377006721 heartbeat IPC: 0.533323 cumulative IPC: 0.714563 (Simulation time: 0 hr 18 min 38 sec) 
Heartbeat CPU 0 instructions: 271000000 cycles: 378643456 heartbeat IPC: 0.610972 cumulative IPC: 0.714115 (Simulation time: 0 hr 18 min 40 sec) 
Heartbeat CPU 0 instructions: 272000000 cycles: 380344062 heartbeat IPC: 0.588026 cumulative IPC: 0.71355 (Simulation time: 0 hr 18 min 43 sec) 
Heartbeat CPU 0 instructions: 273000002 cycles: 381928079 heartbeat IPC: 0.631308 cumulative IPC: 0.713208 (Simulation time: 0 hr 18 min 46 sec) 
Heartbeat CPU 0 instructions: 274000003 cycles: 383358240 heartbeat IPC: 0.699223 cumulative IPC: 0.713156 (Simulation time: 0 hr 18 min 48 sec) 
Heartbeat CPU 0 instructions: 275000000 cycles: 385056201 heartbeat IPC: 0.58894 cumulative IPC: 0.712608 (Simulation time: 0 hr 18 min 50 sec) 
Heartbeat CPU 0 instructions: 276000000 cycles: 386554247 heartbeat IPC: 0.667536 cumulative IPC: 0.712433 (Simulation time: 0 hr 18 min 53 sec) 
Heartbeat CPU 0 instructions: 277000000 cycles: 388131830 heartbeat IPC: 0.633881 cumulative IPC: 0.712113 (Simulation time: 0 hr 18 min 55 sec) 
Heartbeat CPU 0 instructions: 278000000 cycles: 389683223 heartbeat IPC: 0.644582 cumulative IPC: 0.711844 (Simulation time: 0 hr 18 min 58 sec) 
Heartbeat CPU 0 instructions: 279000000 cycles: 391089723 heartbeat IPC: 0.710985 cumulative IPC: 0.711841 (Simulation time: 0 hr 19 min 1 sec) 
Heartbeat CPU 0 instructions: 280000002 cycles: 392654158 heartbeat IPC: 0.63921 cumulative IPC: 0.711551 (Simulation time: 0 hr 19 min 3 sec) 
Heartbeat CPU 0 instructions: 281000003 cycles: 394450125 heartbeat IPC: 0.556804 cumulative IPC: 0.710845 (Simulation time: 0 hr 19 min 7 sec) 
Heartbeat CPU 0 instructions: 282000002 cycles: 396253599 heartbeat IPC: 0.554485 cumulative IPC: 0.710133 (Simulation time: 0 hr 19 min 9 sec) 
Heartbeat CPU 0 instructions: 283000003 cycles: 397577527 heartbeat IPC: 0.755329 cumulative IPC: 0.710283 (Simulation time: 0 hr 19 min 12 sec) 
Heartbeat CPU 0 instructions: 284000000 cycles: 399259656 heartbeat IPC: 0.594483 cumulative IPC: 0.709795 (Simulation time: 0 hr 19 min 15 sec) 
Heartbeat CPU 0 instructions: 285000002 cycles: 400799866 heartbeat IPC: 0.649263 cumulative IPC: 0.709562 (Simulation time: 0 hr 19 min 17 sec) 
Heartbeat CPU 0 instructions: 286000000 cycles: 402115279 heartbeat IPC: 0.760216 cumulative IPC: 0.709728 (Simulation time: 0 hr 19 min 20 sec) 
Heartbeat CPU 0 instructions: 287000000 cycles: 403520595 heartbeat IPC: 0.711584 cumulative IPC: 0.709734 (Simulation time: 0 hr 19 min 23 sec) 
Heartbeat CPU 0 instructions: 288000000 cycles: 405042441 heartbeat IPC: 0.657097 cumulative IPC: 0.709536 (Simulation time: 0 hr 19 min 27 sec) 
Heartbeat CPU 0 instructions: 289000002 cycles: 406635995 heartbeat IPC: 0.627529 cumulative IPC: 0.709214 (Simulation time: 0 hr 19 min 31 sec) 
Heartbeat CPU 0 instructions: 290000002 cycles: 408458818 heartbeat IPC: 0.5486 cumulative IPC: 0.708497 (Simulation time: 0 hr 19 min 33 sec) 
Heartbeat CPU 0 instructions: 291000000 cycles: 410122567 heartbeat IPC: 0.601051 cumulative IPC: 0.70806 (Simulation time: 0 hr 19 min 36 sec) 
Heartbeat CPU 0 instructions: 292000002 cycles: 411575058 heartbeat IPC: 0.688474 cumulative IPC: 0.707991 (Simulation time: 0 hr 19 min 39 sec) 
Heartbeat CPU 0 instructions: 293000000 cycles: 412933636 heartbeat IPC: 0.736062 cumulative IPC: 0.708084 (Simulation time: 0 hr 19 min 41 sec) 
Heartbeat CPU 0 instructions: 294000002 cycles: 414271146 heartbeat IPC: 0.747659 cumulative IPC: 0.708211 (Simulation time: 0 hr 19 min 44 sec) 
Heartbeat CPU 0 instructions: 295000001 cycles: 415793846 heartbeat IPC: 0.656728 cumulative IPC: 0.708023 (Simulation time: 0 hr 19 min 48 sec) 
Heartbeat CPU 0 instructions: 296000001 cycles: 417456558 heartbeat IPC: 0.601427 cumulative IPC: 0.707598 (Simulation time: 0 hr 19 min 54 sec) 
Heartbeat CPU 0 instructions: 297000000 cycles: 418801365 heartbeat IPC: 0.7436 cumulative IPC: 0.707713 (Simulation time: 0 hr 19 min 58 sec) 
Heartbeat CPU 0 instructions: 298000000 cycles: 420056954 heartbeat IPC: 0.796439 cumulative IPC: 0.707979 (Simulation time: 0 hr 20 min 2 sec) 
Heartbeat CPU 0 instructions: 299000003 cycles: 421363985 heartbeat IPC: 0.765095 cumulative IPC: 0.708156 (Simulation time: 0 hr 20 min 7 sec) 
Heartbeat CPU 0 instructions: 300000000 cycles: 422728459 heartbeat IPC: 0.732881 cumulative IPC: 0.708236 (Simulation time: 0 hr 20 min 10 sec) 
Heartbeat CPU 0 instructions: 301000003 cycles: 423926737 heartbeat IPC: 0.834533 cumulative IPC: 0.708594 (Simulation time: 0 hr 20 min 13 sec) 
Heartbeat CPU 0 instructions: 302000000 cycles: 425015752 heartbeat IPC: 0.918258 cumulative IPC: 0.709132 (Simulation time: 0 hr 20 min 15 sec) 
Heartbeat CPU 0 instructions: 303000002 cycles: 426155052 heartbeat IPC: 0.877734 cumulative IPC: 0.709583 (Simulation time: 0 hr 20 min 18 sec) 
Heartbeat CPU 0 instructions: 304000000 cycles: 427308861 heartbeat IPC: 0.866693 cumulative IPC: 0.710008 (Simulation time: 0 hr 20 min 21 sec) 
Heartbeat CPU 0 instructions: 305000000 cycles: 428358908 heartbeat IPC: 0.952338 cumulative IPC: 0.710602 (Simulation time: 0 hr 20 min 25 sec) 
Heartbeat CPU 0 instructions: 306000003 cycles: 429652085 heartbeat IPC: 0.773292 cumulative IPC: 0.710791 (Simulation time: 0 hr 20 min 28 sec) 
Heartbeat CPU 0 instructions: 307000003 cycles: 430905558 heartbeat IPC: 0.797783 cumulative IPC: 0.711045 (Simulation time: 0 hr 20 min 32 sec) 
Heartbeat CPU 0 instructions: 308000000 cycles: 432285984 heartbeat IPC: 0.724412 cumulative IPC: 0.711088 (Simulation time: 0 hr 20 min 37 sec) 
Heartbeat CPU 0 instructions: 309000000 cycles: 433835096 heartbeat IPC: 0.645531 cumulative IPC: 0.710853 (Simulation time: 0 hr 20 min 42 sec) 
Heartbeat CPU 0 instructions: 310000000 cycles: 435484551 heartbeat IPC: 0.606261 cumulative IPC: 0.710456 (Simulation time: 0 hr 20 min 46 sec) 
Heartbeat CPU 0 instructions: 311000000 cycles: 436993276 heartbeat IPC: 0.662811 cumulative IPC: 0.710292 (Simulation time: 0 hr 20 min 51 sec) 
Heartbeat CPU 0 instructions: 312000001 cycles: 438431098 heartbeat IPC: 0.695497 cumulative IPC: 0.710243 (Simulation time: 0 hr 20 min 56 sec) 
Heartbeat CPU 0 instructions: 313000000 cycles: 439881376 heartbeat IPC: 0.689522 cumulative IPC: 0.710175 (Simulation time: 0 hr 21 min 1 sec) 
Heartbeat CPU 0 instructions: 314000001 cycles: 441530597 heartbeat IPC: 0.606348 cumulative IPC: 0.709786 (Simulation time: 0 hr 21 min 5 sec) 
Heartbeat CPU 0 instructions: 315000003 cycles: 443036919 heartbeat IPC: 0.66387 cumulative IPC: 0.70963 (Simulation time: 0 hr 21 min 9 sec) 
Heartbeat CPU 0 instructions: 316000001 cycles: 444709717 heartbeat IPC: 0.5978 cumulative IPC: 0.709209 (Simulation time: 0 hr 21 min 12 sec) 
Heartbeat CPU 0 instructions: 317000001 cycles: 446067893 heartbeat IPC: 0.736282 cumulative IPC: 0.709292 (Simulation time: 0 hr 21 min 15 sec) 
Heartbeat CPU 0 instructions: 318000000 cycles: 447415768 heartbeat IPC: 0.741908 cumulative IPC: 0.70939 (Simulation time: 0 hr 21 min 18 sec) 
Heartbeat CPU 0 instructions: 319000000 cycles: 448849246 heartbeat IPC: 0.697604 cumulative IPC: 0.709352 (Simulation time: 0 hr 21 min 21 sec) 
Heartbeat CPU 0 instructions: 320000001 cycles: 450384630 heartbeat IPC: 0.651304 cumulative IPC: 0.709154 (Simulation time: 0 hr 21 min 24 sec) 
Heartbeat CPU 0 instructions: 321000002 cycles: 451990402 heartbeat IPC: 0.622754 cumulative IPC: 0.708847 (Simulation time: 0 hr 21 min 27 sec) 
Heartbeat CPU 0 instructions: 322000000 cycles: 454073141 heartbeat IPC: 0.480136 cumulative IPC: 0.707796 (Simulation time: 0 hr 21 min 30 sec) 
Heartbeat CPU 0 instructions: 323000001 cycles: 455675842 heartbeat IPC: 0.623947 cumulative IPC: 0.707501 (Simulation time: 0 hr 21 min 33 sec) 
Heartbeat CPU 0 instructions: 324000000 cycles: 457272914 heartbeat IPC: 0.626145 cumulative IPC: 0.707217 (Simulation time: 0 hr 21 min 36 sec) 
Heartbeat CPU 0 instructions: 325000000 cycles: 458803098 heartbeat IPC: 0.653516 cumulative IPC: 0.707037 (Simulation time: 0 hr 21 min 39 sec) 
Heartbeat CPU 0 instructions: 326000000 cycles: 460091818 heartbeat IPC: 0.775964 cumulative IPC: 0.707231 (Simulation time: 0 hr 21 min 43 sec) 
Heartbeat CPU 0 instructions: 327000002 cycles: 461600962 heartbeat IPC: 0.662629 cumulative IPC: 0.707085 (Simulation time: 0 hr 21 min 46 sec) 
Heartbeat CPU 0 instructions: 328000000 cycles: 463396357 heartbeat IPC: 0.556979 cumulative IPC: 0.706502 (Simulation time: 0 hr 21 min 49 sec) 
Heartbeat CPU 0 instructions: 329000000 cycles: 464853718 heartbeat IPC: 0.686172 cumulative IPC: 0.706439 (Simulation time: 0 hr 21 min 53 sec) 
Heartbeat CPU 0 instructions: 330000000 cycles: 466277698 heartbeat IPC: 0.702257 cumulative IPC: 0.706426 (Simulation time: 0 hr 21 min 56 sec) 
Heartbeat CPU 0 instructions: 331000000 cycles: 467720065 heartbeat IPC: 0.693305 cumulative IPC: 0.706385 (Simulation time: 0 hr 22 min 0 sec) 
Heartbeat CPU 0 instructions: 332000003 cycles: 469159214 heartbeat IPC: 0.694857 cumulative IPC: 0.70635 (Simulation time: 0 hr 22 min 5 sec) 
Heartbeat CPU 0 instructions: 333000000 cycles: 470922991 heartbeat IPC: 0.566963 cumulative IPC: 0.705827 (Simulation time: 0 hr 22 min 10 sec) 
Heartbeat CPU 0 instructions: 334000000 cycles: 472385119 heartbeat IPC: 0.683935 cumulative IPC: 0.705759 (Simulation time: 0 hr 22 min 15 sec) 
Heartbeat CPU 0 instructions: 335000000 cycles: 473815757 heartbeat IPC: 0.698989 cumulative IPC: 0.705739 (Simulation time: 0 hr 22 min 20 sec) 
Heartbeat CPU 0 instructions: 336000001 cycles: 475322303 heartbeat IPC: 0.663771 cumulative IPC: 0.705606 (Simulation time: 0 hr 22 min 24 sec) 
Heartbeat CPU 0 instructions: 337000002 cycles: 476761624 heartbeat IPC: 0.694773 cumulative IPC: 0.705573 (Simulation time: 0 hr 22 min 29 sec) 
Heartbeat CPU 0 instructions: 338000003 cycles: 478403932 heartbeat IPC: 0.6089 cumulative IPC: 0.705241 (Simulation time: 0 hr 22 min 34 sec) 
Heartbeat CPU 0 instructions: 339000000 cycles: 479935177 heartbeat IPC: 0.653061 cumulative IPC: 0.705074 (Simulation time: 0 hr 22 min 40 sec) 
Heartbeat CPU 0 instructions: 340000000 cycles: 481412679 heartbeat IPC: 0.676818 cumulative IPC: 0.704987 (Simulation time: 0 hr 22 min 45 sec) 
Heartbeat CPU 0 instructions: 341000000 cycles: 482798982 heartbeat IPC: 0.721343 cumulative IPC: 0.705034 (Simulation time: 0 hr 22 min 50 sec) 
Heartbeat CPU 0 instructions: 342000000 cycles: 484193187 heartbeat IPC: 0.717255 cumulative IPC: 0.705069 (Simulation time: 0 hr 22 min 55 sec) 
Heartbeat CPU 0 instructions: 343000002 cycles: 485650541 heartbeat IPC: 0.686176 cumulative IPC: 0.705013 (Simulation time: 0 hr 22 min 59 sec) 
Heartbeat CPU 0 instructions: 344000000 cycles: 487023258 heartbeat IPC: 0.728481 cumulative IPC: 0.705079 (Simulation time: 0 hr 23 min 2 sec) 
Heartbeat CPU 0 instructions: 345000000 cycles: 488560761 heartbeat IPC: 0.650405 cumulative IPC: 0.704907 (Simulation time: 0 hr 23 min 5 sec) 
Heartbeat CPU 0 instructions: 346000001 cycles: 489950763 heartbeat IPC: 0.719424 cumulative IPC: 0.704948 (Simulation time: 0 hr 23 min 8 sec) 
Heartbeat CPU 0 instructions: 347000000 cycles: 491421806 heartbeat IPC: 0.679789 cumulative IPC: 0.704873 (Simulation time: 0 hr 23 min 13 sec) 
Heartbeat CPU 0 instructions: 348000002 cycles: 492729901 heartbeat IPC: 0.764472 cumulative IPC: 0.705031 (Simulation time: 0 hr 23 min 18 sec) 
Heartbeat CPU 0 instructions: 349000002 cycles: 494194627 heartbeat IPC: 0.682722 cumulative IPC: 0.704965 (Simulation time: 0 hr 23 min 22 sec) 
Heartbeat CPU 0 instructions: 350000001 cycles: 495536624 heartbeat IPC: 0.745157 cumulative IPC: 0.705074 (Simulation time: 0 hr 23 min 26 sec) 
Heartbeat CPU 0 instructions: 351000003 cycles: 496917258 heartbeat IPC: 0.724306 cumulative IPC: 0.705127 (Simulation time: 0 hr 23 min 30 sec) 
Heartbeat CPU 0 instructions: 352000000 cycles: 498371605 heartbeat IPC: 0.687592 cumulative IPC: 0.705076 (Simulation time: 0 hr 23 min 35 sec) 
Heartbeat CPU 0 instructions: 353000001 cycles: 499966576 heartbeat IPC: 0.626971 cumulative IPC: 0.704827 (Simulation time: 0 hr 23 min 40 sec) 
Heartbeat CPU 0 instructions: 354000002 cycles: 501362653 heartbeat IPC: 0.716294 cumulative IPC: 0.704858 (Simulation time: 0 hr 23 min 45 sec) 
Heartbeat CPU 0 instructions: 355000002 cycles: 502749428 heartbeat IPC: 0.721098 cumulative IPC: 0.704903 (Simulation time: 0 hr 23 min 49 sec) 
Heartbeat CPU 0 instructions: 356000001 cycles: 504144856 heartbeat IPC: 0.716625 cumulative IPC: 0.704936 (Simulation time: 0 hr 23 min 55 sec) 
Heartbeat CPU 0 instructions: 357000000 cycles: 505756505 heartbeat IPC: 0.620482 cumulative IPC: 0.704666 (Simulation time: 0 hr 23 min 59 sec) 
Heartbeat CPU 0 instructions: 358000000 cycles: 507250561 heartbeat IPC: 0.669319 cumulative IPC: 0.704562 (Simulation time: 0 hr 24 min 4 sec) 
Heartbeat CPU 0 instructions: 359000000 cycles: 508783466 heartbeat IPC: 0.652356 cumulative IPC: 0.704405 (Simulation time: 0 hr 24 min 9 sec) 
Heartbeat CPU 0 instructions: 360000000 cycles: 510340474 heartbeat IPC: 0.642257 cumulative IPC: 0.704215 (Simulation time: 0 hr 24 min 13 sec) 
Heartbeat CPU 0 instructions: 361000000 cycles: 511620361 heartbeat IPC: 0.781319 cumulative IPC: 0.704408 (Simulation time: 0 hr 24 min 18 sec) 
Heartbeat CPU 0 instructions: 362000000 cycles: 513171122 heartbeat IPC: 0.644845 cumulative IPC: 0.704228 (Simulation time: 0 hr 24 min 22 sec) 
Heartbeat CPU 0 instructions: 363000000 cycles: 514924775 heartbeat IPC: 0.570238 cumulative IPC: 0.703771 (Simulation time: 0 hr 24 min 27 sec) 
Heartbeat CPU 0 instructions: 364000003 cycles: 516379967 heartbeat IPC: 0.687197 cumulative IPC: 0.703724 (Simulation time: 0 hr 24 min 31 sec) 
Heartbeat CPU 0 instructions: 365000000 cycles: 517795074 heartbeat IPC: 0.706658 cumulative IPC: 0.703732 (Simulation time: 0 hr 24 min 36 sec) 
Heartbeat CPU 0 instructions: 366000001 cycles: 519198560 heartbeat IPC: 0.712512 cumulative IPC: 0.703756 (Simulation time: 0 hr 24 min 41 sec) 
Heartbeat CPU 0 instructions: 367000000 cycles: 520622428 heartbeat IPC: 0.702312 cumulative IPC: 0.703752 (Simulation time: 0 hr 24 min 46 sec) 
Heartbeat CPU 0 instructions: 368000000 cycles: 522039411 heartbeat IPC: 0.705725 cumulative IPC: 0.703757 (Simulation time: 0 hr 24 min 50 sec) 
Heartbeat CPU 0 instructions: 369000002 cycles: 523569557 heartbeat IPC: 0.653534 cumulative IPC: 0.70361 (Simulation time: 0 hr 24 min 55 sec) 
Heartbeat CPU 0 instructions: 370000001 cycles: 524878719 heartbeat IPC: 0.763847 cumulative IPC: 0.703761 (Simulation time: 0 hr 24 min 59 sec) 
Heartbeat CPU 0 instructions: 371000000 cycles: 526327702 heartbeat IPC: 0.690139 cumulative IPC: 0.703723 (Simulation time: 0 hr 25 min 3 sec) 
Heartbeat CPU 0 instructions: 372000003 cycles: 527795585 heartbeat IPC: 0.681255 cumulative IPC: 0.703661 (Simulation time: 0 hr 25 min 7 sec) 
Heartbeat CPU 0 instructions: 373000002 cycles: 529156073 heartbeat IPC: 0.73503 cumulative IPC: 0.703742 (Simulation time: 0 hr 25 min 11 sec) 
Heartbeat CPU 0 instructions: 374000000 cycles: 529925867 heartbeat IPC: 1.29905 cumulative IPC: 0.704607 (Simulation time: 0 hr 25 min 16 sec) 
Heartbeat CPU 0 instructions: 375000001 cycles: 530998965 heartbeat IPC: 0.931882 cumulative IPC: 0.705067 (Simulation time: 0 hr 25 min 20 sec) 
Heartbeat CPU 0 instructions: 376000001 cycles: 531853207 heartbeat IPC: 1.17063 cumulative IPC: 0.705816 (Simulation time: 0 hr 25 min 24 sec) 
Heartbeat CPU 0 instructions: 377000000 cycles: 533189815 heartbeat IPC: 0.748162 cumulative IPC: 0.705922 (Simulation time: 0 hr 25 min 29 sec) 
Heartbeat CPU 0 instructions: 378000002 cycles: 534510779 heartbeat IPC: 0.757024 cumulative IPC: 0.706048 (Simulation time: 0 hr 25 min 32 sec) 
Heartbeat CPU 0 instructions: 379000000 cycles: 535769370 heartbeat IPC: 0.794538 cumulative IPC: 0.706256 (Simulation time: 0 hr 25 min 36 sec) 
Heartbeat CPU 0 instructions: 380000000 cycles: 537503813 heartbeat IPC: 0.576554 cumulative IPC: 0.705837 (Simulation time: 0 hr 25 min 41 sec) 
Heartbeat CPU 0 instructions: 381000001 cycles: 539012054 heartbeat IPC: 0.663025 cumulative IPC: 0.705717 (Simulation time: 0 hr 25 min 45 sec) 
Heartbeat CPU 0 instructions: 382000002 cycles: 540406741 heartbeat IPC: 0.717007 cumulative IPC: 0.705747 (Simulation time: 0 hr 25 min 49 sec) 
Heartbeat CPU 0 instructions: 383000001 cycles: 541890231 heartbeat IPC: 0.674085 cumulative IPC: 0.70566 (Simulation time: 0 hr 25 min 53 sec) 
Heartbeat CPU 0 instructions: 384000000 cycles: 542933829 heartbeat IPC: 0.958222 cumulative IPC: 0.706146 (Simulation time: 0 hr 25 min 57 sec) 
Heartbeat CPU 0 instructions: 385000000 cycles: 543969827 heartbeat IPC: 0.965253 cumulative IPC: 0.70664 (Simulation time: 0 hr 26 min 0 sec) 
Heartbeat CPU 0 instructions: 386000002 cycles: 544906604 heartbeat IPC: 1.06749 cumulative IPC: 0.707261 (Simulation time: 0 hr 26 min 5 sec) 
Heartbeat CPU 0 instructions: 387000002 cycles: 545999340 heartbeat IPC: 0.915134 cumulative IPC: 0.707677 (Simulation time: 0 hr 26 min 8 sec) 
Heartbeat CPU 0 instructions: 388000001 cycles: 547182373 heartbeat IPC: 0.845284 cumulative IPC: 0.707975 (Simulation time: 0 hr 26 min 11 sec) 
Heartbeat CPU 0 instructions: 389000000 cycles: 548550263 heartbeat IPC: 0.731052 cumulative IPC: 0.708033 (Simulation time: 0 hr 26 min 15 sec) 
Heartbeat CPU 0 instructions: 390000001 cycles: 549998226 heartbeat IPC: 0.690626 cumulative IPC: 0.707987 (Simulation time: 0 hr 26 min 20 sec) 
Heartbeat CPU 0 instructions: 391000000 cycles: 551484344 heartbeat IPC: 0.672893 cumulative IPC: 0.707892 (Simulation time: 0 hr 26 min 23 sec) 
Heartbeat CPU 0 instructions: 392000003 cycles: 552944313 heartbeat IPC: 0.684948 cumulative IPC: 0.707831 (Simulation time: 0 hr 26 min 26 sec) 
Heartbeat CPU 0 instructions: 393000002 cycles: 554192166 heartbeat IPC: 0.801376 cumulative IPC: 0.708042 (Simulation time: 0 hr 26 min 29 sec) 
Heartbeat CPU 0 instructions: 394000002 cycles: 555483561 heartbeat IPC: 0.774356 cumulative IPC: 0.708197 (Simulation time: 0 hr 26 min 31 sec) 
Heartbeat CPU 0 instructions: 395000001 cycles: 556670885 heartbeat IPC: 0.842229 cumulative IPC: 0.708483 (Simulation time: 0 hr 26 min 34 sec) 
Heartbeat CPU 0 instructions: 396000000 cycles: 558044390 heartbeat IPC: 0.728064 cumulative IPC: 0.708531 (Simulation time: 0 hr 26 min 37 sec) 
Heartbeat CPU 0 instructions: 397000000 cycles: 559519131 heartbeat IPC: 0.678085 cumulative IPC: 0.708451 (Simulation time: 0 hr 26 min 40 sec) 
Heartbeat CPU 0 instructions: 398000002 cycles: 561107421 heartbeat IPC: 0.629609 cumulative IPC: 0.708227 (Simulation time: 0 hr 26 min 43 sec) 
Heartbeat CPU 0 instructions: 399000000 cycles: 562642558 heartbeat IPC: 0.651406 cumulative IPC: 0.708072 (Simulation time: 0 hr 26 min 46 sec) 
Heartbeat CPU 0 instructions: 400000000 cycles: 564393381 heartbeat IPC: 0.57116 cumulative IPC: 0.707647 (Simulation time: 0 hr 26 min 50 sec) 
Heartbeat CPU 0 instructions: 401000001 cycles: 565984209 heartbeat IPC: 0.628604 cumulative IPC: 0.707425 (Simulation time: 0 hr 26 min 54 sec) 
Heartbeat CPU 0 instructions: 402000000 cycles: 567454820 heartbeat IPC: 0.679989 cumulative IPC: 0.707353 (Simulation time: 0 hr 26 min 59 sec) 
Heartbeat CPU 0 instructions: 403000000 cycles: 568933728 heartbeat IPC: 0.676175 cumulative IPC: 0.707272 (Simulation time: 0 hr 27 min 4 sec) 
Heartbeat CPU 0 instructions: 404000001 cycles: 570032713 heartbeat IPC: 0.909931 cumulative IPC: 0.707663 (Simulation time: 0 hr 27 min 9 sec) 
Heartbeat CPU 0 instructions: 405000000 cycles: 571470988 heartbeat IPC: 0.695277 cumulative IPC: 0.707632 (Simulation time: 0 hr 27 min 12 sec) 
Heartbeat CPU 0 instructions: 406000003 cycles: 572906574 heartbeat IPC: 0.696582 cumulative IPC: 0.707604 (Simulation time: 0 hr 27 min 16 sec) 
Heartbeat CPU 0 instructions: 407000000 cycles: 574443791 heartbeat IPC: 0.650524 cumulative IPC: 0.707452 (Simulation time: 0 hr 27 min 19 sec) 
Heartbeat CPU 0 instructions: 408000000 cycles: 576054953 heartbeat IPC: 0.62067 cumulative IPC: 0.707209 (Simulation time: 0 hr 27 min 22 sec) 
Heartbeat CPU 0 instructions: 409000000 cycles: 577594789 heartbeat IPC: 0.64942 cumulative IPC: 0.707054 (Simulation time: 0 hr 27 min 27 sec) 
Heartbeat CPU 0 instructions: 410000002 cycles: 578894847 heartbeat IPC: 0.769198 cumulative IPC: 0.707194 (Simulation time: 0 hr 27 min 31 sec) 
Heartbeat CPU 0 instructions: 411000002 cycles: 580182935 heartbeat IPC: 0.776344 cumulative IPC: 0.707348 (Simulation time: 0 hr 27 min 36 sec) 
Heartbeat CPU 0 instructions: 412000000 cycles: 581463325 heartbeat IPC: 0.78101 cumulative IPC: 0.70751 (Simulation time: 0 hr 27 min 41 sec) 
Heartbeat CPU 0 instructions: 413000001 cycles: 582742434 heartbeat IPC: 0.781795 cumulative IPC: 0.707673 (Simulation time: 0 hr 27 min 46 sec) 
Heartbeat CPU 0 instructions: 414000001 cycles: 584062310 heartbeat IPC: 0.757647 cumulative IPC: 0.707786 (Simulation time: 0 hr 27 min 51 sec) 
Heartbeat CPU 0 instructions: 415000003 cycles: 585536741 heartbeat IPC: 0.678229 cumulative IPC: 0.707712 (Simulation time: 0 hr 27 min 56 sec) 
Heartbeat CPU 0 instructions: 416000003 cycles: 586570313 heartbeat IPC: 0.967518 cumulative IPC: 0.70817 (Simulation time: 0 hr 28 min 1 sec) 
Heartbeat CPU 0 instructions: 417000001 cycles: 587725091 heartbeat IPC: 0.865966 cumulative IPC: 0.70848 (Simulation time: 0 hr 28 min 5 sec) 
Heartbeat CPU 0 instructions: 418000000 cycles: 588745088 heartbeat IPC: 0.980394 cumulative IPC: 0.708952 (Simulation time: 0 hr 28 min 10 sec) 
Heartbeat CPU 0 instructions: 419000000 cycles: 591012351 heartbeat IPC: 0.44106 cumulative IPC: 0.707923 (Simulation time: 0 hr 28 min 14 sec) 
Heartbeat CPU 0 instructions: 420000002 cycles: 592981320 heartbeat IPC: 0.507881 cumulative IPC: 0.707258 (Simulation time: 0 hr 28 min 18 sec) 
Heartbeat CPU 0 instructions: 421000000 cycles: 594899614 heartbeat IPC: 0.521295 cumulative IPC: 0.706658 (Simulation time: 0 hr 28 min 22 sec) 
Heartbeat CPU 0 instructions: 422000000 cycles: 596302377 heartbeat IPC: 0.712879 cumulative IPC: 0.706673 (Simulation time: 0 hr 28 min 26 sec) 
Heartbeat CPU 0 instructions: 423000000 cycles: 597936680 heartbeat IPC: 0.611882 cumulative IPC: 0.706414 (Simulation time: 0 hr 28 min 30 sec) 
Heartbeat CPU 0 instructions: 424000001 cycles: 600002108 heartbeat IPC: 0.484162 cumulative IPC: 0.705648 (Simulation time: 0 hr 28 min 33 sec) 
Heartbeat CPU 0 instructions: 425000000 cycles: 601284772 heartbeat IPC: 0.779627 cumulative IPC: 0.705806 (Simulation time: 0 hr 28 min 36 sec) 
Heartbeat CPU 0 instructions: 426000000 cycles: 602933356 heartbeat IPC: 0.606581 cumulative IPC: 0.705534 (Simulation time: 0 hr 28 min 39 sec) 
Heartbeat CPU 0 instructions: 427000000 cycles: 604425461 heartbeat IPC: 0.670194 cumulative IPC: 0.705447 (Simulation time: 0 hr 28 min 42 sec) 
Heartbeat CPU 0 instructions: 428000002 cycles: 605888330 heartbeat IPC: 0.68359 cumulative IPC: 0.705394 (Simulation time: 0 hr 28 min 45 sec) 
Heartbeat CPU 0 instructions: 429000000 cycles: 607278399 heartbeat IPC: 0.719387 cumulative IPC: 0.705426 (Simulation time: 0 hr 28 min 48 sec) 
Heartbeat CPU 0 instructions: 430000001 cycles: 608766606 heartbeat IPC: 0.67195 cumulative IPC: 0.705344 (Simulation time: 0 hr 28 min 51 sec) 
Heartbeat CPU 0 instructions: 431000000 cycles: 610321001 heartbeat IPC: 0.643336 cumulative IPC: 0.705186 (Simulation time: 0 hr 28 min 54 sec) 
Heartbeat CPU 0 instructions: 432000001 cycles: 611636491 heartbeat IPC: 0.760174 cumulative IPC: 0.705305 (Simulation time: 0 hr 28 min 57 sec) 
Heartbeat CPU 0 instructions: 433000001 cycles: 612997674 heartbeat IPC: 0.734655 cumulative IPC: 0.70537 (Simulation time: 0 hr 28 min 59 sec) 
Heartbeat CPU 0 instructions: 434000000 cycles: 614133032 heartbeat IPC: 0.880779 cumulative IPC: 0.705694 (Simulation time: 0 hr 29 min 2 sec) 
Heartbeat CPU 0 instructions: 435000001 cycles: 615431583 heartbeat IPC: 0.77009 cumulative IPC: 0.70583 (Simulation time: 0 hr 29 min 7 sec) 
Heartbeat CPU 0 instructions: 436000001 cycles: 616701405 heartbeat IPC: 0.787512 cumulative IPC: 0.705999 (Simulation time: 0 hr 29 min 11 sec) 
Heartbeat CPU 0 instructions: 437000003 cycles: 618198378 heartbeat IPC: 0.668016 cumulative IPC: 0.705907 (Simulation time: 0 hr 29 min 15 sec) 
Heartbeat CPU 0 instructions: 438000000 cycles: 619614551 heartbeat IPC: 0.706126 cumulative IPC: 0.705907 (Simulation time: 0 hr 29 min 18 sec) 
Heartbeat CPU 0 instructions: 439000001 cycles: 621149418 heartbeat IPC: 0.651523 cumulative IPC: 0.705773 (Simulation time: 0 hr 29 min 22 sec) 
Heartbeat CPU 0 instructions: 440000000 cycles: 622522683 heartbeat IPC: 0.728191 cumulative IPC: 0.705822 (Simulation time: 0 hr 29 min 26 sec) 
Heartbeat CPU 0 instructions: 441000003 cycles: 624064415 heartbeat IPC: 0.648623 cumulative IPC: 0.705681 (Simulation time: 0 hr 29 min 31 sec) 
Heartbeat CPU 0 instructions: 442000000 cycles: 625606648 heartbeat IPC: 0.648409 cumulative IPC: 0.705539 (Simulation time: 0 hr 29 min 36 sec) 
Heartbeat CPU 0 instructions: 443000003 cycles: 627357476 heartbeat IPC: 0.57116 cumulative IPC: 0.705164 (Simulation time: 0 hr 29 min 40 sec) 
Heartbeat CPU 0 instructions: 444000000 cycles: 628660627 heartbeat IPC: 0.767368 cumulative IPC: 0.705293 (Simulation time: 0 hr 29 min 44 sec) 
Heartbeat CPU 0 instructions: 445000001 cycles: 630298113 heartbeat IPC: 0.610693 cumulative IPC: 0.705047 (Simulation time: 0 hr 29 min 49 sec) 
Heartbeat CPU 0 instructions: 446000000 cycles: 631723679 heartbeat IPC: 0.701475 cumulative IPC: 0.705039 (Simulation time: 0 hr 29 min 53 sec) 
Heartbeat CPU 0 instructions: 447000000 cycles: 632967955 heartbeat IPC: 0.80368 cumulative IPC: 0.705233 (Simulation time: 0 hr 29 min 57 sec) 
Heartbeat CPU 0 instructions: 448000000 cycles: 634355974 heartbeat IPC: 0.720451 cumulative IPC: 0.705266 (Simulation time: 0 hr 30 min 2 sec) 
Heartbeat CPU 0 instructions: 449000000 cycles: 635962207 heartbeat IPC: 0.622575 cumulative IPC: 0.705057 (Simulation time: 0 hr 30 min 6 sec) 
Heartbeat CPU 0 instructions: 450000001 cycles: 637716603 heartbeat IPC: 0.569997 cumulative IPC: 0.704685 (Simulation time: 0 hr 30 min 10 sec) 

Warmup complete CPU 0 instructions: 450000001 cycles: 637716603 (Simulation time: 0 hr 30 min 10 sec) 

Heartbeat CPU 0 instructions: 451000000 cycles: 639154959 heartbeat IPC: 0.695237 cumulative IPC: 0.695237 (Simulation time: 0 hr 30 min 15 sec) 
Heartbeat CPU 0 instructions: 452000002 cycles: 640572029 heartbeat IPC: 0.705683 cumulative IPC: 0.700421 (Simulation time: 0 hr 30 min 19 sec) 
Heartbeat CPU 0 instructions: 453000002 cycles: 642141808 heartbeat IPC: 0.637032 cumulative IPC: 0.677935 (Simulation time: 0 hr 30 min 24 sec) 
Heartbeat CPU 0 instructions: 454000001 cycles: 643461831 heartbeat IPC: 0.757562 cumulative IPC: 0.69623 (Simulation time: 0 hr 30 min 28 sec) 
Heartbeat CPU 0 instructions: 455000001 cycles: 644669236 heartbeat IPC: 0.828223 cumulative IPC: 0.719152 (Simulation time: 0 hr 30 min 32 sec) 
Heartbeat CPU 0 instructions: 456000000 cycles: 645881835 heartbeat IPC: 0.824674 cumulative IPC: 0.734823 (Simulation time: 0 hr 30 min 36 sec) 
Heartbeat CPU 0 instructions: 457000002 cycles: 647160423 heartbeat IPC: 0.782114 cumulative IPC: 0.741226 (Simulation time: 0 hr 30 min 40 sec) 
Heartbeat CPU 0 instructions: 458000002 cycles: 648265553 heartbeat IPC: 0.904871 cumulative IPC: 0.758369 (Simulation time: 0 hr 30 min 45 sec) 
Heartbeat CPU 0 instructions: 459000000 cycles: 649290621 heartbeat IPC: 0.975543 cumulative IPC: 0.777604 (Simulation time: 0 hr 30 min 48 sec) 
Heartbeat CPU 0 instructions: 460000000 cycles: 650434621 heartbeat IPC: 0.874126 cumulative IPC: 0.786286 (Simulation time: 0 hr 30 min 52 sec) 
Heartbeat CPU 0 instructions: 461000000 cycles: 651629474 heartbeat IPC: 0.836923 cumulative IPC: 0.790635 (Simulation time: 0 hr 30 min 56 sec) 
Heartbeat CPU 0 instructions: 462000000 cycles: 653018162 heartbeat IPC: 0.720104 cumulative IPC: 0.784234 (Simulation time: 0 hr 31 min 0 sec) 
Heartbeat CPU 0 instructions: 463000002 cycles: 654511448 heartbeat IPC: 0.669665 cumulative IPC: 0.774047 (Simulation time: 0 hr 31 min 4 sec) 
Heartbeat CPU 0 instructions: 464000000 cycles: 656030920 heartbeat IPC: 0.658122 cumulative IPC: 0.764429 (Simulation time: 0 hr 31 min 8 sec) 
Heartbeat CPU 0 instructions: 465000000 cycles: 657403085 heartbeat IPC: 0.728775 cumulative IPC: 0.761944 (Simulation time: 0 hr 31 min 13 sec) 
Heartbeat CPU 0 instructions: 466000003 cycles: 658786278 heartbeat IPC: 0.722967 cumulative IPC: 0.759385 (Simulation time: 0 hr 31 min 17 sec) 
Heartbeat CPU 0 instructions: 467000002 cycles: 660358508 heartbeat IPC: 0.636039 cumulative IPC: 0.75082 (Simulation time: 0 hr 31 min 22 sec) 
Heartbeat CPU 0 instructions: 468000000 cycles: 661694186 heartbeat IPC: 0.748682 cumulative IPC: 0.750701 (Simulation time: 0 hr 31 min 26 sec) 
Heartbeat CPU 0 instructions: 469000000 cycles: 663097152 heartbeat IPC: 0.712776 cumulative IPC: 0.748605 (Simulation time: 0 hr 31 min 31 sec) 
Heartbeat CPU 0 instructions: 470000002 cycles: 664654980 heartbeat IPC: 0.641921 cumulative IPC: 0.742435 (Simulation time: 0 hr 31 min 36 sec) 
Heartbeat CPU 0 instructions: 471000000 cycles: 666643443 heartbeat IPC: 0.5029 cumulative IPC: 0.725969 (Simulation time: 0 hr 31 min 40 sec) 
Heartbeat CPU 0 instructions: 472000001 cycles: 668303065 heartbeat IPC: 0.602547 cumulative IPC: 0.719272 (Simulation time: 0 hr 31 min 45 sec) 
Heartbeat CPU 0 instructions: 473000000 cycles: 669851881 heartbeat IPC: 0.645654 cumulative IPC: 0.715724 (Simulation time: 0 hr 31 min 50 sec) 
Heartbeat CPU 0 instructions: 474000000 cycles: 671213880 heartbeat IPC: 0.734215 cumulative IPC: 0.716476 (Simulation time: 0 hr 31 min 55 sec) 
Heartbeat CPU 0 instructions: 475000003 cycles: 672981512 heartbeat IPC: 0.56573 cumulative IPC: 0.70892 (Simulation time: 0 hr 31 min 59 sec) 
Heartbeat CPU 0 instructions: 476000000 cycles: 674463748 heartbeat IPC: 0.674654 cumulative IPC: 0.707538 (Simulation time: 0 hr 32 min 4 sec) 
Heartbeat CPU 0 instructions: 477000001 cycles: 675855188 heartbeat IPC: 0.718681 cumulative IPC: 0.707944 (Simulation time: 0 hr 32 min 8 sec) 
Heartbeat CPU 0 instructions: 478000003 cycles: 677450796 heartbeat IPC: 0.626722 cumulative IPC: 0.704683 (Simulation time: 0 hr 32 min 13 sec) 
Heartbeat CPU 0 instructions: 479000000 cycles: 678827880 heartbeat IPC: 0.72617 cumulative IPC: 0.705403 (Simulation time: 0 hr 32 min 18 sec) 
Heartbeat CPU 0 instructions: 480000001 cycles: 680356162 heartbeat IPC: 0.65433 cumulative IPC: 0.703572 (Simulation time: 0 hr 32 min 23 sec) 
Heartbeat CPU 0 instructions: 481000002 cycles: 681869460 heartbeat IPC: 0.660809 cumulative IPC: 0.702106 (Simulation time: 0 hr 32 min 29 sec) 
Heartbeat CPU 0 instructions: 482000000 cycles: 683367177 heartbeat IPC: 0.667682 cumulative IPC: 0.700977 (Simulation time: 0 hr 32 min 35 sec) 
Heartbeat CPU 0 instructions: 483000001 cycles: 684837255 heartbeat IPC: 0.680237 cumulative IPC: 0.70033 (Simulation time: 0 hr 32 min 40 sec) 
Heartbeat CPU 0 instructions: 484000000 cycles: 686259283 heartbeat IPC: 0.70322 cumulative IPC: 0.700415 (Simulation time: 0 hr 32 min 45 sec) 
Heartbeat CPU 0 instructions: 485000000 cycles: 687609281 heartbeat IPC: 0.740742 cumulative IPC: 0.701506 (Simulation time: 0 hr 32 min 50 sec) 
Heartbeat CPU 0 instructions: 486000001 cycles: 689142772 heartbeat IPC: 0.652108 cumulative IPC: 0.700033 (Simulation time: 0 hr 32 min 55 sec) 
Heartbeat CPU 0 instructions: 487000002 cycles: 690519664 heartbeat IPC: 0.726274 cumulative IPC: 0.700717 (Simulation time: 0 hr 33 min 0 sec) 
Heartbeat CPU 0 instructions: 488000001 cycles: 691915760 heartbeat IPC: 0.716282 cumulative IPC: 0.701118 (Simulation time: 0 hr 33 min 4 sec) 
Heartbeat CPU 0 instructions: 489000003 cycles: 693364380 heartbeat IPC: 0.690314 cumulative IPC: 0.700837 (Simulation time: 0 hr 33 min 9 sec) 
Heartbeat CPU 0 instructions: 490000002 cycles: 694624342 heartbeat IPC: 0.793674 cumulative IPC: 0.702892 (Simulation time: 0 hr 33 min 14 sec) 
Heartbeat CPU 0 instructions: 491000001 cycles: 695865853 heartbeat IPC: 0.805469 cumulative IPC: 0.705082 (Simulation time: 0 hr 33 min 17 sec) 
Heartbeat CPU 0 instructions: 492000003 cycles: 697257061 heartbeat IPC: 0.718801 cumulative IPC: 0.705403 (Simulation time: 0 hr 33 min 20 sec) 
Heartbeat CPU 0 instructions: 493000002 cycles: 698597459 heartbeat IPC: 0.746046 cumulative IPC: 0.706298 (Simulation time: 0 hr 33 min 23 sec) 
Heartbeat CPU 0 instructions: 494000000 cycles: 700119674 heartbeat IPC: 0.656936 cumulative IPC: 0.705094 (Simulation time: 0 hr 33 min 26 sec) 
Heartbeat CPU 0 instructions: 495000000 cycles: 701540381 heartbeat IPC: 0.703875 cumulative IPC: 0.705066 (Simulation time: 0 hr 33 min 29 sec) 
Heartbeat CPU 0 instructions: 496000003 cycles: 702951709 heartbeat IPC: 0.708555 cumulative IPC: 0.705142 (Simulation time: 0 hr 33 min 32 sec) 
Heartbeat CPU 0 instructions: 497000000 cycles: 704500339 heartbeat IPC: 0.64573 cumulative IPC: 0.703764 (Simulation time: 0 hr 33 min 35 sec) 
Heartbeat CPU 0 instructions: 498000000 cycles: 705934569 heartbeat IPC: 0.697238 cumulative IPC: 0.703627 (Simulation time: 0 hr 33 min 38 sec) 
Heartbeat CPU 0 instructions: 499000000 cycles: 707231835 heartbeat IPC: 0.770852 cumulative IPC: 0.704881 (Simulation time: 0 hr 33 min 41 sec) 
Heartbeat CPU 0 instructions: 500000000 cycles: 708895500 heartbeat IPC: 0.601083 cumulative IPC: 0.702455 (Simulation time: 0 hr 33 min 44 sec) 
Heartbeat CPU 0 instructions: 501000000 cycles: 710379676 heartbeat IPC: 0.673775 cumulative IPC: 0.70187 (Simulation time: 0 hr 33 min 47 sec) 
Heartbeat CPU 0 instructions: 502000001 cycles: 711913402 heartbeat IPC: 0.652008 cumulative IPC: 0.700839 (Simulation time: 0 hr 33 min 50 sec) 
Heartbeat CPU 0 instructions: 503000000 cycles: 713337417 heartbeat IPC: 0.702239 cumulative IPC: 0.700865 (Simulation time: 0 hr 33 min 53 sec) 
Heartbeat CPU 0 instructions: 504000000 cycles: 714701071 heartbeat IPC: 0.733324 cumulative IPC: 0.70144 (Simulation time: 0 hr 33 min 57 sec) 
Heartbeat CPU 0 instructions: 505000003 cycles: 716148762 heartbeat IPC: 0.690757 cumulative IPC: 0.701243 (Simulation time: 0 hr 34 min 2 sec) 
Heartbeat CPU 0 instructions: 506000000 cycles: 717237235 heartbeat IPC: 0.918715 cumulative IPC: 0.70422 (Simulation time: 0 hr 34 min 6 sec) 
Heartbeat CPU 0 instructions: 507000000 cycles: 718270801 heartbeat IPC: 0.967524 cumulative IPC: 0.707598 (Simulation time: 0 hr 34 min 12 sec) 
Heartbeat CPU 0 instructions: 508000001 cycles: 719576893 heartbeat IPC: 0.765644 cumulative IPC: 0.708524 (Simulation time: 0 hr 34 min 16 sec) 
Heartbeat CPU 0 instructions: 509000002 cycles: 720703737 heartbeat IPC: 0.887435 cumulative IPC: 0.710954 (Simulation time: 0 hr 34 min 19 sec) 
Heartbeat CPU 0 instructions: 510000000 cycles: 721939330 heartbeat IPC: 0.809326 cumulative IPC: 0.712397 (Simulation time: 0 hr 34 min 24 sec) 
Heartbeat CPU 0 instructions: 511000002 cycles: 723516505 heartbeat IPC: 0.634046 cumulative IPC: 0.710957 (Simulation time: 0 hr 34 min 29 sec) 
Heartbeat CPU 0 instructions: 512000000 cycles: 724976625 heartbeat IPC: 0.684874 cumulative IPC: 0.71052 (Simulation time: 0 hr 34 min 32 sec) 
Heartbeat CPU 0 instructions: 513000001 cycles: 726291310 heartbeat IPC: 0.760639 cumulative IPC: 0.711264 (Simulation time: 0 hr 34 min 34 sec) 
Heartbeat CPU 0 instructions: 514000000 cycles: 727340042 heartbeat IPC: 0.953532 cumulative IPC: 0.714099 (Simulation time: 0 hr 34 min 36 sec) 
Heartbeat CPU 0 instructions: 515000001 cycles: 728226144 heartbeat IPC: 1.12854 cumulative IPC: 0.718156 (Simulation time: 0 hr 34 min 39 sec) 
Heartbeat CPU 0 instructions: 516000002 cycles: 729404476 heartbeat IPC: 0.848658 cumulative IPC: 0.719833 (Simulation time: 0 hr 34 min 41 sec) 
Heartbeat CPU 0 instructions: 517000000 cycles: 730717509 heartbeat IPC: 0.761594 cumulative IPC: 0.720423 (Simulation time: 0 hr 34 min 44 sec) 
Heartbeat CPU 0 instructions: 518000000 cycles: 732094130 heartbeat IPC: 0.726416 cumulative IPC: 0.72051 (Simulation time: 0 hr 34 min 47 sec) 
Heartbeat CPU 0 instructions: 519000000 cycles: 733519840 heartbeat IPC: 0.701405 cumulative IPC: 0.720226 (Simulation time: 0 hr 34 min 50 sec) 
Heartbeat CPU 0 instructions: 520000000 cycles: 734858082 heartbeat IPC: 0.747249 cumulative IPC: 0.720598 (Simulation time: 0 hr 34 min 53 sec) 
Heartbeat CPU 0 instructions: 521000000 cycles: 736096136 heartbeat IPC: 0.807719 cumulative IPC: 0.721695 (Simulation time: 0 hr 34 min 56 sec) 
Heartbeat CPU 0 instructions: 522000000 cycles: 737527083 heartbeat IPC: 0.698838 cumulative IPC: 0.721367 (Simulation time: 0 hr 35 min 1 sec) 
Heartbeat CPU 0 instructions: 523000003 cycles: 738915645 heartbeat IPC: 0.720172 cumulative IPC: 0.721351 (Simulation time: 0 hr 35 min 3 sec) 
Heartbeat CPU 0 instructions: 524000000 cycles: 740508402 heartbeat IPC: 0.62784 cumulative IPC: 0.719902 (Simulation time: 0 hr 35 min 6 sec) 
Heartbeat CPU 0 instructions: 525000003 cycles: 742084791 heartbeat IPC: 0.634363 cumulative IPC: 0.71861 (Simulation time: 0 hr 35 min 9 sec) 
Heartbeat CPU 0 instructions: 526000001 cycles: 743389889 heartbeat IPC: 0.766224 cumulative IPC: 0.719198 (Simulation time: 0 hr 35 min 12 sec) 
Heartbeat CPU 0 instructions: 527000000 cycles: 744633950 heartbeat IPC: 0.803818 cumulative IPC: 0.720182 (Simulation time: 0 hr 35 min 15 sec) 
Heartbeat CPU 0 instructions: 528000000 cycles: 746164387 heartbeat IPC: 0.653408 cumulative IPC: 0.71924 (Simulation time: 0 hr 35 min 20 sec) 
Heartbeat CPU 0 instructions: 529000003 cycles: 747767339 heartbeat IPC: 0.623851 cumulative IPC: 0.717851 (Simulation time: 0 hr 35 min 25 sec) 
Heartbeat CPU 0 instructions: 530000002 cycles: 749115204 heartbeat IPC: 0.741913 cumulative IPC: 0.718142 (Simulation time: 0 hr 35 min 30 sec) 
Heartbeat CPU 0 instructions: 531000003 cycles: 750400826 heartbeat IPC: 0.777834 cumulative IPC: 0.718823 (Simulation time: 0 hr 35 min 34 sec) 
Heartbeat CPU 0 instructions: 532000000 cycles: 751773719 heartbeat IPC: 0.728387 cumulative IPC: 0.718938 (Simulation time: 0 hr 35 min 39 sec) 
Heartbeat CPU 0 instructions: 533000000 cycles: 753025640 heartbeat IPC: 0.798772 cumulative IPC: 0.719805 (Simulation time: 0 hr 35 min 44 sec) 
Heartbeat CPU 0 instructions: 534000000 cycles: 754408044 heartbeat IPC: 0.723378 cumulative IPC: 0.719847 (Simulation time: 0 hr 35 min 49 sec) 
Heartbeat CPU 0 instructions: 535000002 cycles: 755392016 heartbeat IPC: 1.01629 cumulative IPC: 0.722326 (Simulation time: 0 hr 35 min 53 sec) 
Heartbeat CPU 0 instructions: 536000000 cycles: 756546252 heartbeat IPC: 0.866372 cumulative IPC: 0.723725 (Simulation time: 0 hr 35 min 58 sec) 
Heartbeat CPU 0 instructions: 537000002 cycles: 758389105 heartbeat IPC: 0.542638 cumulative IPC: 0.72096 (Simulation time: 0 hr 36 min 3 sec) 
Heartbeat CPU 0 instructions: 538000000 cycles: 760189617 heartbeat IPC: 0.555396 cumulative IPC: 0.718526 (Simulation time: 0 hr 36 min 6 sec) 
Heartbeat CPU 0 instructions: 539000000 cycles: 761687511 heartbeat IPC: 0.667604 cumulative IPC: 0.71791 (Simulation time: 0 hr 36 min 8 sec) 
Heartbeat CPU 0 instructions: 540000003 cycles: 763431929 heartbeat IPC: 0.573259 cumulative IPC: 0.715903 (Simulation time: 0 hr 36 min 11 sec) 
Heartbeat CPU 0 instructions: 541000002 cycles: 764981333 heartbeat IPC: 0.645409 cumulative IPC: 0.715045 (Simulation time: 0 hr 36 min 13 sec) 
Heartbeat CPU 0 instructions: 542000000 cycles: 766341600 heartbeat IPC: 0.735148 cumulative IPC: 0.715258 (Simulation time: 0 hr 36 min 16 sec) 
Heartbeat CPU 0 instructions: 543000001 cycles: 767815854 heartbeat IPC: 0.67831 cumulative IPC: 0.714839 (Simulation time: 0 hr 36 min 18 sec) 
Heartbeat CPU 0 instructions: 544000000 cycles: 769455383 heartbeat IPC: 0.609931 cumulative IPC: 0.713533 (Simulation time: 0 hr 36 min 21 sec) 
Heartbeat CPU 0 instructions: 545000000 cycles: 771264982 heartbeat IPC: 0.552609 cumulative IPC: 0.711353 (Simulation time: 0 hr 36 min 24 sec) 
Heartbeat CPU 0 instructions: 546000002 cycles: 772908197 heartbeat IPC: 0.608564 cumulative IPC: 0.710103 (Simulation time: 0 hr 36 min 26 sec) 
Heartbeat CPU 0 instructions: 547000002 cycles: 774285082 heartbeat IPC: 0.726277 cumulative IPC: 0.710266 (Simulation time: 0 hr 36 min 29 sec) 
[...]
Heartbeat CPU 0 instructions: 835000001 cycles: 1185238666 heartbeat IPC: 0.678819 cumulative IPC: 0.703168 (Simulation time: 0 hr 51 min 11 sec) 
Heartbeat CPU 0 instructions: 836000000 cycles: 1186634439 heartbeat IPC: 0.716448 cumulative IPC: 0.703202 (Simulation time: 0 hr 51 min 14 sec) 
Heartbeat CPU 0 instructions: 837000000 cycles: 1188018396 heartbeat IPC: 0.722566 cumulative IPC: 0.70325 (Simulation time: 0 hr 51 min 17 sec) 
Heartbeat CPU 0 instructions: 838000001 cycles: 1189300887 heartbeat IPC: 0.779733 cumulative IPC: 0.703428 (Simulation time: 0 hr 51 min 21 sec) 
Heartbeat CPU 0 instructions: 839000002 cycles: 1190573761 heartbeat IPC: 0.785625 cumulative IPC: 0.703618 (Simulation time: 0 hr 51 min 24 sec) 
Heartbeat CPU 0 instructions: 840000002 cycles: 1192015766 heartbeat IPC: 0.693479 cumulative IPC: 0.703591 (Simulation time: 0 hr 51 min 27 sec) 
Heartbeat CPU 0 instructions: 841000002 cycles: 1193395155 heartbeat IPC: 0.724959 cumulative IPC: 0.703644 (Simulation time: 0 hr 51 min 30 sec) 
Heartbeat CPU 0 instructions: 842000000 cycles: 1194804345 heartbeat IPC: 0.709626 cumulative IPC: 0.703659 (Simulation time: 0 hr 51 min 33 sec) 
Heartbeat CPU 0 instructions: 843000000 cycles: 1196054918 heartbeat IPC: 0.799633 cumulative IPC: 0.703874 (Simulation time: 0 hr 51 min 36 sec) 
Heartbeat CPU 0 instructions: 844000003 cycles: 1196923837 heartbeat IPC: 1.15086 cumulative IPC: 0.704569 (Simulation time: 0 hr 51 min 38 sec) 
Heartbeat CPU 0 instructions: 845000001 cycles: 1198110180 heartbeat IPC: 0.842925 cumulative IPC: 0.704862 (Simulation time: 0 hr 51 min 41 sec) 
Heartbeat CPU 0 instructions: 846000002 cycles: 1199212599 heartbeat IPC: 0.907097 cumulative IPC: 0.705259 (Simulation time: 0 hr 51 min 44 sec) 
Heartbeat CPU 0 instructions: 847000000 cycles: 1200321796 heartbeat IPC: 0.901551 cumulative IPC: 0.705646 (Simulation time: 0 hr 51 min 46 sec) 
Heartbeat CPU 0 instructions: 848000002 cycles: 1201419500 heartbeat IPC: 0.910994 cumulative IPC: 0.706046 (Simulation time: 0 hr 51 min 49 sec) 
Heartbeat CPU 0 instructions: 849000000 cycles: 1202629436 heartbeat IPC: 0.826488 cumulative IPC: 0.706304 (Simulation time: 0 hr 51 min 52 sec) 
Heartbeat CPU 0 instructions: 850000001 cycles: 1203876825 heartbeat IPC: 0.801675 cumulative IPC: 0.706514 (Simulation time: 0 hr 51 min 55 sec) 
Heartbeat CPU 0 instructions: 851000000 cycles: 1205156111 heartbeat IPC: 0.781685 cumulative IPC: 0.706683 (Simulation time: 0 hr 51 min 58 sec) 
Heartbeat CPU 0 instructions: 852000003 cycles: 1206253214 heartbeat IPC: 0.911494 cumulative IPC: 0.707078 (Simulation time: 0 hr 52 min 1 sec) 
Heartbeat CPU 0 instructions: 853000001 cycles: 1207670507 heartbeat IPC: 0.705569 cumulative IPC: 0.707075 (Simulation time: 0 hr 52 min 4 sec) 
Heartbeat CPU 0 instructions: 854000000 cycles: 1208729980 heartbeat IPC: 0.943865 cumulative IPC: 0.707514 (Simulation time: 0 hr 52 min 7 sec) 
Heartbeat CPU 0 instructions: 855000000 cycles: 1210012018 heartbeat IPC: 0.780008 cumulative IPC: 0.707676 (Simulation time: 0 hr 52 min 10 sec) 
Heartbeat CPU 0 instructions: 856000000 cycles: 1211478875 heartbeat IPC: 0.68173 cumulative IPC: 0.70761 (Simulation time: 0 hr 52 min 13 sec) 
Heartbeat CPU 0 instructions: 857000000 cycles: 1212806503 heartbeat IPC: 0.753223 cumulative IPC: 0.707715 (Simulation time: 0 hr 52 min 16 sec) 
Heartbeat CPU 0 instructions: 858000000 cycles: 1213828548 heartbeat IPC: 0.978431 cumulative IPC: 0.708196 (Simulation time: 0 hr 52 min 19 sec) 
Heartbeat CPU 0 instructions: 859000003 cycles: 1214996671 heartbeat IPC: 0.856077 cumulative IPC: 0.708495 (Simulation time: 0 hr 52 min 22 sec) 
Heartbeat CPU 0 instructions: 860000002 cycles: 1216253493 heartbeat IPC: 0.795657 cumulative IPC: 0.708684 (Simulation time: 0 hr 52 min 27 sec) 
Heartbeat CPU 0 instructions: 861000000 cycles: 1217408594 heartbeat IPC: 0.865723 cumulative IPC: 0.708997 (Simulation time: 0 hr 52 min 30 sec) 
Heartbeat CPU 0 instructions: 862000001 cycles: 1219059355 heartbeat IPC: 0.605782 cumulative IPC: 0.708704 (Simulation time: 0 hr 52 min 33 sec) 
Heartbeat CPU 0 instructions: 863000000 cycles: 1220767275 heartbeat IPC: 0.585507 cumulative IPC: 0.708343 (Simulation time: 0 hr 52 min 36 sec) 
Heartbeat CPU 0 instructions: 864000001 cycles: 1222396308 heartbeat IPC: 0.613862 cumulative IPC: 0.70808 (Simulation time: 0 hr 52 min 38 sec) 
Heartbeat CPU 0 instructions: 865000000 cycles: 1223879408 heartbeat IPC: 0.674263 cumulative IPC: 0.707994 (Simulation time: 0 hr 52 min 41 sec) 
Heartbeat CPU 0 instructions: 866000003 cycles: 1225185886 heartbeat IPC: 0.765419 cumulative IPC: 0.708122 (Simulation time: 0 hr 52 min 44 sec) 
Heartbeat CPU 0 instructions: 867000000 cycles: 1226390451 heartbeat IPC: 0.830173 cumulative IPC: 0.708372 (Simulation time: 0 hr 52 min 47 sec) 
Heartbeat CPU 0 instructions: 868000000 cycles: 1227770118 heartbeat IPC: 0.724813 cumulative IPC: 0.70841 (Simulation time: 0 hr 52 min 51 sec) 
Heartbeat CPU 0 instructions: 869000000 cycles: 1229130064 heartbeat IPC: 0.735323 cumulative IPC: 0.708472 (Simulation time: 0 hr 52 min 54 sec) 
Heartbeat CPU 0 instructions: 870000001 cycles: 1230213651 heartbeat IPC: 0.922862 cumulative IPC: 0.708864 (Simulation time: 0 hr 52 min 56 sec) 
Heartbeat CPU 0 instructions: 871000001 cycles: 1231357741 heartbeat IPC: 0.874057 cumulative IPC: 0.709183 (Simulation time: 0 hr 53 min 0 sec) 
Heartbeat CPU 0 instructions: 872000001 cycles: 1232488638 heartbeat IPC: 0.884254 cumulative IPC: 0.709516 (Simulation time: 0 hr 53 min 5 sec) 
Heartbeat CPU 0 instructions: 873000001 cycles: 1233758231 heartbeat IPC: 0.787654 cumulative IPC: 0.709682 (Simulation time: 0 hr 53 min 8 sec) 
Heartbeat CPU 0 instructions: 874000000 cycles: 1234879552 heartbeat IPC: 0.891804 cumulative IPC: 0.710024 (Simulation time: 0 hr 53 min 12 sec) 
Heartbeat CPU 0 instructions: 875000000 cycles: 1236102774 heartbeat IPC: 0.817513 cumulative IPC: 0.710244 (Simulation time: 0 hr 53 min 14 sec) 
Heartbeat CPU 0 instructions: 876000000 cycles: 1237538950 heartbeat IPC: 0.696293 cumulative IPC: 0.71021 (Simulation time: 0 hr 53 min 17 sec) 
Heartbeat CPU 0 instructions: 877000002 cycles: 1238601145 heartbeat IPC: 0.941449 cumulative IPC: 0.710619 (Simulation time: 0 hr 53 min 21 sec) 
Heartbeat CPU 0 instructions: 878000000 cycles: 1239645929 heartbeat IPC: 0.957134 cumulative IPC: 0.711047 (Simulation time: 0 hr 53 min 24 sec) 
Heartbeat CPU 0 instructions: 879000000 cycles: 1240769587 heartbeat IPC: 0.889951 cumulative IPC: 0.71138 (Simulation time: 0 hr 53 min 27 sec) 
Heartbeat CPU 0 instructions: 880000000 cycles: 1242478557 heartbeat IPC: 0.585148 cumulative IPC: 0.711024 (Simulation time: 0 hr 53 min 29 sec) 
Heartbeat CPU 0 instructions: 881000001 cycles: 1244002709 heartbeat IPC: 0.656103 cumulative IPC: 0.710886 (Simulation time: 0 hr 53 min 32 sec) 
Heartbeat CPU 0 instructions: 882000003 cycles: 1245553332 heartbeat IPC: 0.644903 cumulative IPC: 0.710717 (Simulation time: 0 hr 53 min 35 sec) 
Heartbeat CPU 0 instructions: 883000002 cycles: 1246794299 heartbeat IPC: 0.805822 cumulative IPC: 0.710911 (Simulation time: 0 hr 53 min 38 sec) 
Heartbeat CPU 0 instructions: 884000001 cycles: 1248178208 heartbeat IPC: 0.72259 cumulative IPC: 0.710937 (Simulation time: 0 hr 53 min 41 sec) 
Heartbeat CPU 0 instructions: 885000000 cycles: 1249348935 heartbeat IPC: 0.854169 cumulative IPC: 0.711212 (Simulation time: 0 hr 53 min 44 sec) 
Heartbeat CPU 0 instructions: 886000002 cycles: 1250742417 heartbeat IPC: 0.717628 cumulative IPC: 0.711226 (Simulation time: 0 hr 53 min 47 sec) 
Heartbeat CPU 0 instructions: 887000002 cycles: 1251911626 heartbeat IPC: 0.855279 cumulative IPC: 0.7115 (Simulation time: 0 hr 53 min 50 sec) 
Heartbeat CPU 0 instructions: 888000003 cycles: 1253038015 heartbeat IPC: 0.887794 cumulative IPC: 0.711823 (Simulation time: 0 hr 53 min 53 sec) 
Heartbeat CPU 0 instructions: 889000000 cycles: 1254101588 heartbeat IPC: 0.940224 cumulative IPC: 0.712217 (Simulation time: 0 hr 53 min 56 sec) 
Heartbeat CPU 0 instructions: 890000002 cycles: 1255313984 heartbeat IPC: 0.824815 cumulative IPC: 0.712438 (Simulation time: 0 hr 53 min 59 sec) 
Heartbeat CPU 0 instructions: 891000000 cycles: 1256476457 heartbeat IPC: 0.860233 cumulative IPC: 0.712716 (Simulation time: 0 hr 54 min 4 sec) 
Heartbeat CPU 0 instructions: 892000002 cycles: 1257728332 heartbeat IPC: 0.798803 cumulative IPC: 0.71289 (Simulation time: 0 hr 54 min 9 sec) 
Heartbeat CPU 0 instructions: 893000003 cycles: 1258885239 heartbeat IPC: 0.864375 cumulative IPC: 0.713172 (Simulation time: 0 hr 54 min 13 sec) 
Heartbeat CPU 0 instructions: 894000003 cycles: 1260348343 heartbeat IPC: 0.683478 cumulative IPC: 0.713102 (Simulation time: 0 hr 54 min 18 sec) 
Heartbeat CPU 0 instructions: 895000001 cycles: 1261381184 heartbeat IPC: 0.968201 cumulative IPC: 0.713525 (Simulation time: 0 hr 54 min 22 sec) 
Heartbeat CPU 0 instructions: 896000000 cycles: 1262327414 heartbeat IPC: 1.05682 cumulative IPC: 0.714045 (Simulation time: 0 hr 54 min 25 sec) 
Heartbeat CPU 0 instructions: 897000001 cycles: 1263600379 heartbeat IPC: 0.785568 cumulative IPC: 0.71419 (Simulation time: 0 hr 54 min 29 sec) 
Heartbeat CPU 0 instructions: 898000000 cycles: 1265300575 heartbeat IPC: 0.588167 cumulative IPC: 0.713849 (Simulation time: 0 hr 54 min 33 sec) 
Heartbeat CPU 0 instructions: 899000000 cycles: 1266756962 heartbeat IPC: 0.686631 cumulative IPC: 0.713786 (Simulation time: 0 hr 54 min 36 sec) 
Heartbeat CPU 0 instructions: 900000001 cycles: 1268386204 heartbeat IPC: 0.613783 cumulative IPC: 0.713527 (Simulation time: 0 hr 54 min 39 sec) 
Heartbeat CPU 0 instructions: 901000000 cycles: 1269528349 heartbeat IPC: 0.875545 cumulative IPC: 0.71382 (Simulation time: 0 hr 54 min 42 sec) 
Heartbeat CPU 0 instructions: 902000000 cycles: 1270878360 heartbeat IPC: 0.740735 cumulative IPC: 0.713878 (Simulation time: 0 hr 54 min 46 sec) 
Heartbeat CPU 0 instructions: 903000001 cycles: 1272178065 heartbeat IPC: 0.769406 cumulative IPC: 0.713991 (Simulation time: 0 hr 54 min 48 sec) 
Heartbeat CPU 0 instructions: 904000002 cycles: 1273476648 heartbeat IPC: 0.770071 cumulative IPC: 0.714106 (Simulation time: 0 hr 54 min 51 sec) 
Heartbeat CPU 0 instructions: 905000001 cycles: 1274560096 heartbeat IPC: 0.922978 cumulative IPC: 0.714461 (Simulation time: 0 hr 54 min 54 sec) 
Heartbeat CPU 0 instructions: 906000000 cycles: 1275714039 heartbeat IPC: 0.866593 cumulative IPC: 0.714736 (Simulation time: 0 hr 54 min 56 sec) 
Heartbeat CPU 0 instructions: 907000002 cycles: 1276800817 heartbeat IPC: 0.920153 cumulative IPC: 0.715086 (Simulation time: 0 hr 54 min 59 sec) 
Heartbeat CPU 0 instructions: 908000003 cycles: 1278035294 heartbeat IPC: 0.81006 cumulative IPC: 0.715269 (Simulation time: 0 hr 55 min 2 sec) 
Heartbeat CPU 0 instructions: 909000001 cycles: 1279125771 heartbeat IPC: 0.917028 cumulative IPC: 0.715612 (Simulation time: 0 hr 55 min 5 sec) 
Heartbeat CPU 0 instructions: 910000002 cycles: 1280426281 heartbeat IPC: 0.76893 cumulative IPC: 0.71572 (Simulation time: 0 hr 55 min 7 sec) 
Heartbeat CPU 0 instructions: 911000000 cycles: 1281719622 heartbeat IPC: 0.77319 cumulative IPC: 0.715835 (Simulation time: 0 hr 55 min 10 sec) 
Heartbeat CPU 0 instructions: 912000000 cycles: 1283017201 heartbeat IPC: 0.770666 cumulative IPC: 0.715945 (Simulation time: 0 hr 55 min 13 sec) 
Heartbeat CPU 0 instructions: 913000000 cycles: 1284030245 heartbeat IPC: 0.987124 cumulative IPC: 0.71637 (Simulation time: 0 hr 55 min 16 sec) 
Heartbeat CPU 0 instructions: 914000000 cycles: 1285105383 heartbeat IPC: 0.930113 cumulative IPC: 0.716725 (Simulation time: 0 hr 55 min 19 sec) 
Heartbeat CPU 0 instructions: 915000002 cycles: 1286486519 heartbeat IPC: 0.724043 cumulative IPC: 0.716741 (Simulation time: 0 hr 55 min 22 sec) 
Heartbeat CPU 0 instructions: 916000001 cycles: 1288215209 heartbeat IPC: 0.578472 cumulative IPC: 0.716374 (Simulation time: 0 hr 55 min 25 sec) 
Heartbeat CPU 0 instructions: 917000001 cycles: 1289778148 heartbeat IPC: 0.63982 cumulative IPC: 0.71619 (Simulation time: 0 hr 55 min 28 sec) 
Heartbeat CPU 0 instructions: 918000001 cycles: 1291149650 heartbeat IPC: 0.729128 cumulative IPC: 0.716217 (Simulation time: 0 hr 55 min 30 sec) 
Heartbeat CPU 0 instructions: 919000003 cycles: 1292640997 heartbeat IPC: 0.670536 cumulative IPC: 0.716113 (Simulation time: 0 hr 55 min 33 sec) 
Heartbeat CPU 0 instructions: 920000000 cycles: 1294145208 heartbeat IPC: 0.664798 cumulative IPC: 0.715996 (Simulation time: 0 hr 55 min 36 sec) 
Heartbeat CPU 0 instructions: 921000000 cycles: 1295503051 heartbeat IPC: 0.736462 cumulative IPC: 0.716038 (Simulation time: 0 hr 55 min 40 sec) 
Heartbeat CPU 0 instructions: 922000002 cycles: 1296880423 heartbeat IPC: 0.726022 cumulative IPC: 0.716059 (Simulation time: 0 hr 55 min 44 sec) 
Heartbeat CPU 0 instructions: 923000003 cycles: 1298378049 heartbeat IPC: 0.667724 cumulative IPC: 0.715949 (Simulation time: 0 hr 55 min 49 sec) 
Heartbeat CPU 0 instructions: 924000000 cycles: 1300158918 heartbeat IPC: 0.561522 cumulative IPC: 0.715534 (Simulation time: 0 hr 55 min 53 sec) 
Heartbeat CPU 0 instructions: 925000000 cycles: 1301807326 heartbeat IPC: 0.606646 cumulative IPC: 0.715264 (Simulation time: 0 hr 55 min 58 sec) 
Heartbeat CPU 0 instructions: 926000003 cycles: 1303036044 heartbeat IPC: 0.813859 cumulative IPC: 0.715446 (Simulation time: 0 hr 56 min 3 sec) 
Heartbeat CPU 0 instructions: 927000002 cycles: 1304662771 heartbeat IPC: 0.614731 cumulative IPC: 0.7152 (Simulation time: 0 hr 56 min 7 sec) 
Heartbeat CPU 0 instructions: 928000002 cycles: 1306118132 heartbeat IPC: 0.687115 cumulative IPC: 0.715139 (Simulation time: 0 hr 56 min 12 sec) 
Heartbeat CPU 0 instructions: 929000002 cycles: 1307641028 heartbeat IPC: 0.656644 cumulative IPC: 0.715006 (Simulation time: 0 hr 56 min 17 sec) 
Heartbeat CPU 0 instructions: 930000000 cycles: 1309206420 heartbeat IPC: 0.638816 cumulative IPC: 0.714828 (Simulation time: 0 hr 56 min 21 sec) 
Heartbeat CPU 0 instructions: 931000000 cycles: 1310465378 heartbeat IPC: 0.794308 cumulative IPC: 0.714977 (Simulation time: 0 hr 56 min 26 sec) 
Heartbeat CPU 0 instructions: 932000000 cycles: 1311886447 heartbeat IPC: 0.703696 cumulative IPC: 0.714953 (Simulation time: 0 hr 56 min 31 sec) 
Heartbeat CPU 0 instructions: 933000001 cycles: 1313364272 heartbeat IPC: 0.676671 cumulative IPC: 0.71487 (Simulation time: 0 hr 56 min 36 sec) 
Heartbeat CPU 0 instructions: 934000000 cycles: 1314893675 heartbeat IPC: 0.653849 cumulative IPC: 0.714732 (Simulation time: 0 hr 56 min 39 sec) 
Heartbeat CPU 0 instructions: 935000000 cycles: 1316317963 heartbeat IPC: 0.702105 cumulative IPC: 0.714705 (Simulation time: 0 hr 56 min 43 sec) 
Heartbeat CPU 0 instructions: 936000003 cycles: 1317436548 heartbeat IPC: 0.893989 cumulative IPC: 0.715 (Simulation time: 0 hr 56 min 47 sec) 
Heartbeat CPU 0 instructions: 937000003 cycles: 1318632529 heartbeat IPC: 0.836134 cumulative IPC: 0.715213 (Simulation time: 0 hr 56 min 50 sec) 
Heartbeat CPU 0 instructions: 938000003 cycles: 1319776792 heartbeat IPC: 0.873925 cumulative IPC: 0.715479 (Simulation time: 0 hr 56 min 54 sec) 
Heartbeat CPU 0 instructions: 939000000 cycles: 1320888856 heartbeat IPC: 0.899226 cumulative IPC: 0.715778 (Simulation time: 0 hr 56 min 59 sec) 
Heartbeat CPU 0 instructions: 940000000 cycles: 1322169311 heartbeat IPC: 0.780972 cumulative IPC: 0.7159 (Simulation time: 0 hr 57 min 3 sec) 
Heartbeat CPU 0 instructions: 941000003 cycles: 1323487519 heartbeat IPC: 0.758608 cumulative IPC: 0.715983 (Simulation time: 0 hr 57 min 8 sec) 
Heartbeat CPU 0 instructions: 942000002 cycles: 1324853978 heartbeat IPC: 0.731818 cumulative IPC: 0.716014 (Simulation time: 0 hr 57 min 14 sec) 
Heartbeat CPU 0 instructions: 943000000 cycles: 1326165841 heartbeat IPC: 0.762273 cumulative IPC: 0.716102 (Simulation time: 0 hr 57 min 19 sec) 
Heartbeat CPU 0 instructions: 944000003 cycles: 1327630492 heartbeat IPC: 0.682759 cumulative IPC: 0.716031 (Simulation time: 0 hr 57 min 23 sec) 
Heartbeat CPU 0 instructions: 945000001 cycles: 1328783842 heartbeat IPC: 0.867038 cumulative IPC: 0.716283 (Simulation time: 0 hr 57 min 28 sec) 
Heartbeat CPU 0 instructions: 946000000 cycles: 1330364843 heartbeat IPC: 0.63251 cumulative IPC: 0.716092 (Simulation time: 0 hr 57 min 32 sec) 
Heartbeat CPU 0 instructions: 947000003 cycles: 1331629202 heartbeat IPC: 0.790917 cumulative IPC: 0.716229 (Simulation time: 0 hr 57 min 37 sec) 
Heartbeat CPU 0 instructions: 948000002 cycles: 1332818972 heartbeat IPC: 0.840498 cumulative IPC: 0.716441 (Simulation time: 0 hr 57 min 42 sec) 
Heartbeat CPU 0 instructions: 949000002 cycles: 1333982853 heartbeat IPC: 0.859194 cumulative IPC: 0.71668 (Simulation time: 0 hr 57 min 47 sec) 
Heartbeat CPU 0 instructions: 950000003 cycles: 1335149636 heartbeat IPC: 0.857058 cumulative IPC: 0.716915 (Simulation time: 0 hr 57 min 52 sec) 
Finished CPU 0 instructions: 500000002 cycles: 697433033 cumulative IPC: 0.716915 (Simulation time: 0 hr 57 min 52 sec) 

ChampSim completed all CPUs

Region of Interest Statistics

CPU 0 cumulative IPC: 0.716915 instructions: 500000002 cycles: 697433033
L1D TOTAL     ACCESS:  164035990  HIT:  159755517  MISS:    4280473
L1D LOAD      ACCESS:   97667765  HIT:   93872478  MISS:    3795287
L1D RFO       ACCESS:   66368225  HIT:   65883039  MISS:     485186
L1D PREFETCH  ACCESS:          0  HIT:          0  MISS:          0
L1D WRITEBACK ACCESS:          0  HIT:          0  MISS:          0
L1D PREFETCH  REQUESTED:          0  ISSUED:          0  USEFUL:          0  USELESS:          0
L1D AVERAGE MISS LATENCY: 26.6698 cycles
L1I TOTAL     ACCESS:   97907880  HIT:   95626336  MISS:    2281544
L1I LOAD      ACCESS:   97907880  HIT:   95626336  MISS:    2281544
L1I RFO       ACCESS:          0  HIT:          0  MISS:          0
L1I PREFETCH  ACCESS:          0  HIT:          0  MISS:          0
L1I WRITEBACK ACCESS:          0  HIT:          0  MISS:          0
L1I PREFETCH  REQUESTED:          0  ISSUED:          0  USEFUL:          0  USELESS:          0
L1I AVERAGE MISS LATENCY: 26.839 cycles
L2C TOTAL     ACCESS:    7630343  HIT:    6606432  MISS:    1023911
L2C LOAD      ACCESS:    6076701  HIT:    5287300  MISS:     789401
L2C RFO       ACCESS:     485166  HIT:     252273  MISS:     232893
L2C PREFETCH  ACCESS:          0  HIT:          0  MISS:          0
L2C WRITEBACK ACCESS:    1068476  HIT:    1066859  MISS:       1617
L2C PREFETCH  REQUESTED:          0  ISSUED:          0  USEFUL:          0  USELESS:          0
L2C AVERAGE MISS LATENCY: 76.1909 cycles
LLC TOTAL     ACCESS:    2070830  HIT:    1752893  MISS:     317937
LLC LOAD      ACCESS:     789396  HIT:     602030  MISS:     187366
LLC RFO       ACCESS:     232891  HIT:     134409  MISS:      98482
LLC PREFETCH  ACCESS:     682600  HIT:     653156  MISS:      29444
LLC WRITEBACK ACCESS:     365943  HIT:     363298  MISS:       2645
LLC PREFETCH  REQUESTED:     739729  ISSUED:     739729  USEFUL:      17464  USELESS:      11209
LLC AVERAGE MISS LATENCY: 164.272 cycles
Major fault: 0 Minor fault: 25025
performance stats:
mapping cache size: 157042
divergence: 687460

DRAM Statistics
 CHANNEL 0
 RQ ROW_BUFFER_HIT:      60728  ROW_BUFFER_MISS:     254557
 DBUS_CONGESTED:     174263
 WQ ROW_BUFFER_HIT:      24146  ROW_BUFFER_MISS:     109719  FULL:          0

 AVG_CONGESTED_CYCLE: 6

CPU 0 Branch Prediction Accuracy: 96.0805% MPKI: 8.45558 Average ROB Occupancy at Mispredict: 43.8392

Branch types
NOT_BRANCH: 392134674 78.4269%
BRANCH_DIRECT_JUMP: 8745227 1.74905%
BRANCH_INDIRECT: 2091314 0.418263%
BRANCH_CONDITIONAL: 78670278 15.7341%
BRANCH_DIRECT_CALL: 8670976 1.7342%
BRANCH_INDIRECT_CALL: 508438 0.101688%
BRANCH_RETURN: 9179409 1.83588%
BRANCH_OTHER: 0 0%

