
*** ChampSim Multicore Out-of-Order Simulator ***

Warmup Instructions: 1000000
Prefetch Warmup Instructions: 450000000
Simulation Instructions: 500000000
Stat Printing Period: 1000000
Number of CPUs: 1
LLC sets: 2048
LLC ways: 16
Off-chip DRAM Size: 4096 MB Channels: 1 Width: 64-bit Data Rate: 3200 MT/s

CPU 0 runs /scratch/cluster/cmolder/ML-DPC/ChampSimTraces/spec17/605.mcf-s2.trace.xz
Read seed: 273
Heartbeat CPU 0 instructions: 1000000 cycles: 462204 heartbeat IPC: 2.16355 cumulative IPC: 2.16355 (Simulation time: 0 hr 0 min 5 sec) 

Warmup complete CPU 0 instructions: 1000004 cycles: 462205 (Simulation time: 0 hr 0 min 5 sec) 

Heartbeat CPU 0 instructions: 2000001 cycles: 7519957 heartbeat IPC: 0.141688 cumulative IPC: 0.141688 (Simulation time: 0 hr 0 min 13 sec) 
Heartbeat CPU 0 instructions: 3000003 cycles: 13993488 heartbeat IPC: 0.154476 cumulative IPC: 0.147806 (Simulation time: 0 hr 0 min 20 sec) 
Heartbeat CPU 0 instructions: 4000000 cycles: 20929819 heartbeat IPC: 0.144168 cumulative IPC: 0.146573 (Simulation time: 0 hr 0 min 28 sec) 
Heartbeat CPU 0 instructions: 5000001 cycles: 28480989 heartbeat IPC: 0.13243 cumulative IPC: 0.142761 (Simulation time: 0 hr 0 min 36 sec) 
Heartbeat CPU 0 instructions: 6000001 cycles: 34337170 heartbeat IPC: 0.17076 cumulative IPC: 0.147602 (Simulation time: 0 hr 0 min 44 sec) 
Heartbeat CPU 0 instructions: 7000003 cycles: 41649112 heartbeat IPC: 0.136763 cumulative IPC: 0.145677 (Simulation time: 0 hr 0 min 52 sec) 
Heartbeat CPU 0 instructions: 8000000 cycles: 48163424 heartbeat IPC: 0.153508 cumulative IPC: 0.146747 (Simulation time: 0 hr 1 min 0 sec) 
Heartbeat CPU 0 instructions: 9000001 cycles: 55218702 heartbeat IPC: 0.141738 cumulative IPC: 0.146101 (Simulation time: 0 hr 1 min 8 sec) 
Heartbeat CPU 0 instructions: 10000001 cycles: 62163570 heartbeat IPC: 0.143991 cumulative IPC: 0.145864 (Simulation time: 0 hr 1 min 16 sec) 
Heartbeat CPU 0 instructions: 11000000 cycles: 67656131 heartbeat IPC: 0.182064 cumulative IPC: 0.148823 (Simulation time: 0 hr 1 min 25 sec) 
Heartbeat CPU 0 instructions: 12000002 cycles: 75339636 heartbeat IPC: 0.130149 cumulative IPC: 0.146907 (Simulation time: 0 hr 1 min 35 sec) 
Heartbeat CPU 0 instructions: 13000000 cycles: 83275543 heartbeat IPC: 0.126009 cumulative IPC: 0.144904 (Simulation time: 0 hr 1 min 42 sec) 
Heartbeat CPU 0 instructions: 14000003 cycles: 89520449 heartbeat IPC: 0.160131 cumulative IPC: 0.145972 (Simulation time: 0 hr 1 min 50 sec) 
Heartbeat CPU 0 instructions: 15000003 cycles: 95655973 heartbeat IPC: 0.162985 cumulative IPC: 0.147068 (Simulation time: 0 hr 1 min 58 sec) 
Heartbeat CPU 0 instructions: 16000002 cycles: 101843708 heartbeat IPC: 0.16161 cumulative IPC: 0.147956 (Simulation time: 0 hr 2 min 6 sec) 
Heartbeat CPU 0 instructions: 17000001 cycles: 108996229 heartbeat IPC: 0.139811 cumulative IPC: 0.147419 (Simulation time: 0 hr 2 min 13 sec) 
Heartbeat CPU 0 instructions: 18000002 cycles: 116001153 heartbeat IPC: 0.142757 cumulative IPC: 0.147137 (Simulation time: 0 hr 2 min 21 sec) 
Heartbeat CPU 0 instructions: 19000000 cycles: 123960186 heartbeat IPC: 0.125643 cumulative IPC: 0.145751 (Simulation time: 0 hr 2 min 29 sec) 
Heartbeat CPU 0 instructions: 20000000 cycles: 129312348 heartbeat IPC: 0.18684 cumulative IPC: 0.147458 (Simulation time: 0 hr 2 min 36 sec) 
Heartbeat CPU 0 instructions: 21000000 cycles: 135584846 heartbeat IPC: 0.159426 cumulative IPC: 0.148014 (Simulation time: 0 hr 2 min 44 sec) 
Heartbeat CPU 0 instructions: 22000000 cycles: 143409019 heartbeat IPC: 0.127809 cumulative IPC: 0.146908 (Simulation time: 0 hr 2 min 51 sec) 
Heartbeat CPU 0 instructions: 23000000 cycles: 149294998 heartbeat IPC: 0.169895 cumulative IPC: 0.147817 (Simulation time: 0 hr 2 min 59 sec) 
Heartbeat CPU 0 instructions: 24000001 cycles: 154898646 heartbeat IPC: 0.178455 cumulative IPC: 0.148929 (Simulation time: 0 hr 3 min 6 sec) 
Heartbeat CPU 0 instructions: 25000001 cycles: 162440156 heartbeat IPC: 0.132599 cumulative IPC: 0.148168 (Simulation time: 0 hr 3 min 14 sec) 
Heartbeat CPU 0 instructions: 26000001 cycles: 168718777 heartbeat IPC: 0.159271 cumulative IPC: 0.148583 (Simulation time: 0 hr 3 min 22 sec) 
Heartbeat CPU 0 instructions: 27000001 cycles: 176030337 heartbeat IPC: 0.13677 cumulative IPC: 0.148091 (Simulation time: 0 hr 3 min 30 sec) 
Heartbeat CPU 0 instructions: 28000001 cycles: 182839697 heartbeat IPC: 0.146857 cumulative IPC: 0.148045 (Simulation time: 0 hr 3 min 38 sec) 
Heartbeat CPU 0 instructions: 29000000 cycles: 189155830 heartbeat IPC: 0.158325 cumulative IPC: 0.148389 (Simulation time: 0 hr 3 min 46 sec) 
Heartbeat CPU 0 instructions: 30000002 cycles: 195352319 heartbeat IPC: 0.161382 cumulative IPC: 0.148802 (Simulation time: 0 hr 3 min 53 sec) 
Heartbeat CPU 0 instructions: 31000001 cycles: 201031342 heartbeat IPC: 0.176086 cumulative IPC: 0.149574 (Simulation time: 0 hr 4 min 0 sec) 
Heartbeat CPU 0 instructions: 32000001 cycles: 207929355 heartbeat IPC: 0.144969 cumulative IPC: 0.149421 (Simulation time: 0 hr 4 min 9 sec) 
Heartbeat CPU 0 instructions: 33000000 cycles: 215353879 heartbeat IPC: 0.134689 cumulative IPC: 0.148912 (Simulation time: 0 hr 4 min 16 sec) 
Heartbeat CPU 0 instructions: 34000000 cycles: 222170640 heartbeat IPC: 0.146697 cumulative IPC: 0.148844 (Simulation time: 0 hr 4 min 24 sec) 
Heartbeat CPU 0 instructions: 35000000 cycles: 228341021 heartbeat IPC: 0.162065 cumulative IPC: 0.149202 (Simulation time: 0 hr 4 min 32 sec) 
Heartbeat CPU 0 instructions: 36000001 cycles: 235473060 heartbeat IPC: 0.140212 cumulative IPC: 0.148929 (Simulation time: 0 hr 4 min 40 sec) 
Heartbeat CPU 0 instructions: 37000000 cycles: 241462887 heartbeat IPC: 0.16695 cumulative IPC: 0.149377 (Simulation time: 0 hr 4 min 47 sec) 
Heartbeat CPU 0 instructions: 38000000 cycles: 249463336 heartbeat IPC: 0.124993 cumulative IPC: 0.148594 (Simulation time: 0 hr 4 min 55 sec) 
Heartbeat CPU 0 instructions: 39000000 cycles: 255956048 heartbeat IPC: 0.154019 cumulative IPC: 0.148732 (Simulation time: 0 hr 5 min 2 sec) 
Heartbeat CPU 0 instructions: 40000001 cycles: 262777133 heartbeat IPC: 0.146604 cumulative IPC: 0.148676 (Simulation time: 0 hr 5 min 11 sec) 
Heartbeat CPU 0 instructions: 41000001 cycles: 269117589 heartbeat IPC: 0.157717 cumulative IPC: 0.14889 (Simulation time: 0 hr 5 min 18 sec) 
Heartbeat CPU 0 instructions: 42000000 cycles: 276608675 heartbeat IPC: 0.133492 cumulative IPC: 0.148472 (Simulation time: 0 hr 5 min 26 sec) 
Heartbeat CPU 0 instructions: 43000000 cycles: 282513670 heartbeat IPC: 0.169348 cumulative IPC: 0.148909 (Simulation time: 0 hr 5 min 34 sec) 
Heartbeat CPU 0 instructions: 44000000 cycles: 288827531 heartbeat IPC: 0.158382 cumulative IPC: 0.149116 (Simulation time: 0 hr 5 min 42 sec) 
Heartbeat CPU 0 instructions: 45000000 cycles: 295410031 heartbeat IPC: 0.151918 cumulative IPC: 0.149179 (Simulation time: 0 hr 5 min 49 sec) 
Heartbeat CPU 0 instructions: 46000001 cycles: 302264231 heartbeat IPC: 0.145896 cumulative IPC: 0.149104 (Simulation time: 0 hr 5 min 57 sec) 
Heartbeat CPU 0 instructions: 47000001 cycles: 308872147 heartbeat IPC: 0.151334 cumulative IPC: 0.149152 (Simulation time: 0 hr 6 min 5 sec) 
Heartbeat CPU 0 instructions: 48000001 cycles: 315558995 heartbeat IPC: 0.149547 cumulative IPC: 0.149161 (Simulation time: 0 hr 6 min 13 sec) 
Heartbeat CPU 0 instructions: 49000000 cycles: 322428864 heartbeat IPC: 0.145563 cumulative IPC: 0.149084 (Simulation time: 0 hr 6 min 20 sec) 
Heartbeat CPU 0 instructions: 50000000 cycles: 330164671 heartbeat IPC: 0.129269 cumulative IPC: 0.148619 (Simulation time: 0 hr 6 min 28 sec) 
Heartbeat CPU 0 instructions: 51000002 cycles: 336060194 heartbeat IPC: 0.169621 cumulative IPC: 0.148988 (Simulation time: 0 hr 6 min 36 sec) 
Heartbeat CPU 0 instructions: 52000001 cycles: 342007413 heartbeat IPC: 0.168146 cumulative IPC: 0.149321 (Simulation time: 0 hr 6 min 44 sec) 
Heartbeat CPU 0 instructions: 53000002 cycles: 347867794 heartbeat IPC: 0.170638 cumulative IPC: 0.149681 (Simulation time: 0 hr 6 min 51 sec) 
Heartbeat CPU 0 instructions: 54000001 cycles: 355645985 heartbeat IPC: 0.128564 cumulative IPC: 0.149219 (Simulation time: 0 hr 6 min 59 sec) 
Heartbeat CPU 0 instructions: 55000000 cycles: 362551915 heartbeat IPC: 0.144803 cumulative IPC: 0.149134 (Simulation time: 0 hr 7 min 7 sec) 
Heartbeat CPU 0 instructions: 56000000 cycles: 369009269 heartbeat IPC: 0.154862 cumulative IPC: 0.149235 (Simulation time: 0 hr 7 min 15 sec) 
Heartbeat CPU 0 instructions: 57000000 cycles: 375365327 heartbeat IPC: 0.15733 cumulative IPC: 0.149372 (Simulation time: 0 hr 7 min 23 sec) 
Heartbeat CPU 0 instructions: 58000001 cycles: 382147149 heartbeat IPC: 0.147453 cumulative IPC: 0.149338 (Simulation time: 0 hr 7 min 31 sec) 
Heartbeat CPU 0 instructions: 59000000 cycles: 389653288 heartbeat IPC: 0.133224 cumulative IPC: 0.149027 (Simulation time: 0 hr 7 min 39 sec) 
Heartbeat CPU 0 instructions: 60000000 cycles: 397202842 heartbeat IPC: 0.132458 cumulative IPC: 0.148712 (Simulation time: 0 hr 7 min 47 sec) 
Heartbeat CPU 0 instructions: 61000001 cycles: 403035561 heartbeat IPC: 0.171447 cumulative IPC: 0.149041 (Simulation time: 0 hr 7 min 55 sec) 
Heartbeat CPU 0 instructions: 62000000 cycles: 410781390 heartbeat IPC: 0.129102 cumulative IPC: 0.148665 (Simulation time: 0 hr 8 min 3 sec) 
Heartbeat CPU 0 instructions: 63000000 cycles: 417965891 heartbeat IPC: 0.139189 cumulative IPC: 0.148502 (Simulation time: 0 hr 8 min 11 sec) 
Heartbeat CPU 0 instructions: 64000002 cycles: 424131560 heartbeat IPC: 0.162189 cumulative IPC: 0.148701 (Simulation time: 0 hr 8 min 19 sec) 
Heartbeat CPU 0 instructions: 65000001 cycles: 430303829 heartbeat IPC: 0.162015 cumulative IPC: 0.148892 (Simulation time: 0 hr 8 min 26 sec) 
Heartbeat CPU 0 instructions: 66000000 cycles: 437547798 heartbeat IPC: 0.138046 cumulative IPC: 0.148712 (Simulation time: 0 hr 8 min 34 sec) 
Heartbeat CPU 0 instructions: 67000000 cycles: 444024508 heartbeat IPC: 0.154399 cumulative IPC: 0.148795 (Simulation time: 0 hr 8 min 42 sec) 
Heartbeat CPU 0 instructions: 68000000 cycles: 450427849 heartbeat IPC: 0.156168 cumulative IPC: 0.1489 (Simulation time: 0 hr 8 min 50 sec) 
Heartbeat CPU 0 instructions: 69000003 cycles: 457282969 heartbeat IPC: 0.145877 cumulative IPC: 0.148855 (Simulation time: 0 hr 8 min 58 sec) 
Heartbeat CPU 0 instructions: 70000001 cycles: 465428450 heartbeat IPC: 0.122767 cumulative IPC: 0.148398 (Simulation time: 0 hr 9 min 6 sec) 
Heartbeat CPU 0 instructions: 71000000 cycles: 472914034 heartbeat IPC: 0.13359 cumulative IPC: 0.148163 (Simulation time: 0 hr 9 min 14 sec) 
Heartbeat CPU 0 instructions: 72000002 cycles: 479974834 heartbeat IPC: 0.141627 cumulative IPC: 0.148067 (Simulation time: 0 hr 9 min 22 sec) 
Heartbeat CPU 0 instructions: 73000002 cycles: 487573820 heartbeat IPC: 0.131597 cumulative IPC: 0.14781 (Simulation time: 0 hr 9 min 30 sec) 
Heartbeat CPU 0 instructions: 74000002 cycles: 493610787 heartbeat IPC: 0.165646 cumulative IPC: 0.148028 (Simulation time: 0 hr 9 min 38 sec) 
Heartbeat CPU 0 instructions: 75000003 cycles: 501662836 heartbeat IPC: 0.124192 cumulative IPC: 0.147645 (Simulation time: 0 hr 9 min 46 sec) 
Heartbeat CPU 0 instructions: 76000000 cycles: 509297215 heartbeat IPC: 0.130986 cumulative IPC: 0.147396 (Simulation time: 0 hr 9 min 54 sec) 
Heartbeat CPU 0 instructions: 77000000 cycles: 516452074 heartbeat IPC: 0.139765 cumulative IPC: 0.14729 (Simulation time: 0 hr 10 min 3 sec) 
Heartbeat CPU 0 instructions: 78000000 cycles: 523305308 heartbeat IPC: 0.145917 cumulative IPC: 0.147272 (Simulation time: 0 hr 10 min 11 sec) 
Heartbeat CPU 0 instructions: 79000001 cycles: 528766745 heartbeat IPC: 0.183102 cumulative IPC: 0.147642 (Simulation time: 0 hr 10 min 19 sec) 
Heartbeat CPU 0 instructions: 80000000 cycles: 535307655 heartbeat IPC: 0.152884 cumulative IPC: 0.147706 (Simulation time: 0 hr 10 min 26 sec) 
Heartbeat CPU 0 instructions: 81000000 cycles: 541388776 heartbeat IPC: 0.164443 cumulative IPC: 0.147894 (Simulation time: 0 hr 10 min 35 sec) 
Heartbeat CPU 0 instructions: 82000001 cycles: 548668023 heartbeat IPC: 0.137377 cumulative IPC: 0.147755 (Simulation time: 0 hr 10 min 43 sec) 
Heartbeat CPU 0 instructions: 83000003 cycles: 555958643 heartbeat IPC: 0.137163 cumulative IPC: 0.147616 (Simulation time: 0 hr 10 min 51 sec) 
Heartbeat CPU 0 instructions: 84000001 cycles: 562461371 heartbeat IPC: 0.153781 cumulative IPC: 0.147687 (Simulation time: 0 hr 10 min 59 sec) 
Heartbeat CPU 0 instructions: 85000000 cycles: 568890542 heartbeat IPC: 0.155541 cumulative IPC: 0.147776 (Simulation time: 0 hr 11 min 7 sec) 
Heartbeat CPU 0 instructions: 86000002 cycles: 575226248 heartbeat IPC: 0.157836 cumulative IPC: 0.147887 (Simulation time: 0 hr 11 min 15 sec) 
Heartbeat CPU 0 instructions: 87000003 cycles: 582153270 heartbeat IPC: 0.144362 cumulative IPC: 0.147845 (Simulation time: 0 hr 11 min 22 sec) 
Heartbeat CPU 0 instructions: 88000000 cycles: 590081995 heartbeat IPC: 0.126123 cumulative IPC: 0.147553 (Simulation time: 0 hr 11 min 30 sec) 
Heartbeat CPU 0 instructions: 89000002 cycles: 596663160 heartbeat IPC: 0.151949 cumulative IPC: 0.147601 (Simulation time: 0 hr 11 min 38 sec) 
Heartbeat CPU 0 instructions: 90000002 cycles: 603718414 heartbeat IPC: 0.141738 cumulative IPC: 0.147533 (Simulation time: 0 hr 11 min 46 sec) 
Heartbeat CPU 0 instructions: 91000001 cycles: 610445141 heartbeat IPC: 0.148661 cumulative IPC: 0.147545 (Simulation time: 0 hr 11 min 54 sec) 
Heartbeat CPU 0 instructions: 92000001 cycles: 616613820 heartbeat IPC: 0.162109 cumulative IPC: 0.147691 (Simulation time: 0 hr 12 min 1 sec) 
Heartbeat CPU 0 instructions: 93000002 cycles: 624090690 heartbeat IPC: 0.133746 cumulative IPC: 0.147524 (Simulation time: 0 hr 12 min 9 sec) 
Heartbeat CPU 0 instructions: 94000003 cycles: 630066312 heartbeat IPC: 0.167347 cumulative IPC: 0.147712 (Simulation time: 0 hr 12 min 18 sec) 
Heartbeat CPU 0 instructions: 95000002 cycles: 635572809 heartbeat IPC: 0.181603 cumulative IPC: 0.148006 (Simulation time: 0 hr 12 min 25 sec) 
Heartbeat CPU 0 instructions: 96000001 cycles: 642961834 heartbeat IPC: 0.135336 cumulative IPC: 0.14786 (Simulation time: 0 hr 12 min 33 sec) 
Heartbeat CPU 0 instructions: 97000000 cycles: 649426280 heartbeat IPC: 0.154692 cumulative IPC: 0.147928 (Simulation time: 0 hr 12 min 41 sec) 
Heartbeat CPU 0 instructions: 98000002 cycles: 655681496 heartbeat IPC: 0.159867 cumulative IPC: 0.148042 (Simulation time: 0 hr 12 min 48 sec) 
Heartbeat CPU 0 instructions: 99000000 cycles: 663150565 heartbeat IPC: 0.133885 cumulative IPC: 0.147882 (Simulation time: 0 hr 12 min 57 sec) 
Heartbeat CPU 0 instructions: 100000000 cycles: 670423847 heartbeat IPC: 0.13749 cumulative IPC: 0.14777 (Simulation time: 0 hr 13 min 4 sec) 
Heartbeat CPU 0 instructions: 101000003 cycles: 677279848 heartbeat IPC: 0.145858 cumulative IPC: 0.14775 (Simulation time: 0 hr 13 min 12 sec) 
Heartbeat CPU 0 instructions: 102000003 cycles: 684344321 heartbeat IPC: 0.141553 cumulative IPC: 0.147686 (Simulation time: 0 hr 13 min 20 sec) 
Heartbeat CPU 0 instructions: 103000002 cycles: 690471682 heartbeat IPC: 0.163202 cumulative IPC: 0.147824 (Simulation time: 0 hr 13 min 28 sec) 
Heartbeat CPU 0 instructions: 104000003 cycles: 697732285 heartbeat IPC: 0.13773 cumulative IPC: 0.147719 (Simulation time: 0 hr 13 min 36 sec) 
Heartbeat CPU 0 instructions: 105000001 cycles: 703827179 heartbeat IPC: 0.164071 cumulative IPC: 0.147861 (Simulation time: 0 hr 13 min 44 sec) 
Heartbeat CPU 0 instructions: 106000002 cycles: 711219542 heartbeat IPC: 0.135275 cumulative IPC: 0.14773 (Simulation time: 0 hr 13 min 52 sec) 
Heartbeat CPU 0 instructions: 107000002 cycles: 718190601 heartbeat IPC: 0.14345 cumulative IPC: 0.147688 (Simulation time: 0 hr 14 min 0 sec) 
Heartbeat CPU 0 instructions: 108000003 cycles: 723828025 heartbeat IPC: 0.177386 cumulative IPC: 0.14792 (Simulation time: 0 hr 14 min 8 sec) 
Heartbeat CPU 0 instructions: 109000002 cycles: 731279935 heartbeat IPC: 0.134194 cumulative IPC: 0.14778 (Simulation time: 0 hr 14 min 16 sec) 
Heartbeat CPU 0 instructions: 110000000 cycles: 737821883 heartbeat IPC: 0.152859 cumulative IPC: 0.147825 (Simulation time: 0 hr 14 min 24 sec) 
Heartbeat CPU 0 instructions: 111000000 cycles: 743405055 heartbeat IPC: 0.17911 cumulative IPC: 0.14806 (Simulation time: 0 hr 14 min 32 sec) 
Heartbeat CPU 0 instructions: 112000002 cycles: 749844981 heartbeat IPC: 0.155282 cumulative IPC: 0.148122 (Simulation time: 0 hr 14 min 39 sec) 
Heartbeat CPU 0 instructions: 113000002 cycles: 757018103 heartbeat IPC: 0.139409 cumulative IPC: 0.148039 (Simulation time: 0 hr 14 min 48 sec) 
Heartbeat CPU 0 instructions: 114000002 cycles: 763654876 heartbeat IPC: 0.150676 cumulative IPC: 0.148062 (Simulation time: 0 hr 14 min 56 sec) 
Heartbeat CPU 0 instructions: 115000001 cycles: 769406894 heartbeat IPC: 0.173852 cumulative IPC: 0.148255 (Simulation time: 0 hr 15 min 3 sec) 
Heartbeat CPU 0 instructions: 116000001 cycles: 774946849 heartbeat IPC: 0.180507 cumulative IPC: 0.148486 (Simulation time: 0 hr 15 min 11 sec) 
Heartbeat CPU 0 instructions: 117000002 cycles: 781867138 heartbeat IPC: 0.144503 cumulative IPC: 0.148451 (Simulation time: 0 hr 15 min 19 sec) 
Heartbeat CPU 0 instructions: 118000000 cycles: 787870579 heartbeat IPC: 0.166571 cumulative IPC: 0.148589 (Simulation time: 0 hr 15 min 27 sec) 
Heartbeat CPU 0 instructions: 119000000 cycles: 793391064 heartbeat IPC: 0.181144 cumulative IPC: 0.148815 (Simulation time: 0 hr 15 min 35 sec) 
Heartbeat CPU 0 instructions: 120000000 cycles: 800758923 heartbeat IPC: 0.135725 cumulative IPC: 0.148695 (Simulation time: 0 hr 15 min 43 sec) 
Heartbeat CPU 0 instructions: 121000000 cycles: 807463339 heartbeat IPC: 0.149155 cumulative IPC: 0.148699 (Simulation time: 0 hr 15 min 50 sec) 
Heartbeat CPU 0 instructions: 122000001 cycles: 813713439 heartbeat IPC: 0.159998 cumulative IPC: 0.148786 (Simulation time: 0 hr 15 min 59 sec) 
Heartbeat CPU 0 instructions: 123000003 cycles: 820157468 heartbeat IPC: 0.155183 cumulative IPC: 0.148836 (Simulation time: 0 hr 16 min 6 sec) 
Heartbeat CPU 0 instructions: 124000001 cycles: 826670423 heartbeat IPC: 0.15354 cumulative IPC: 0.148873 (Simulation time: 0 hr 16 min 14 sec) 
Heartbeat CPU 0 instructions: 125000001 cycles: 833386246 heartbeat IPC: 0.148902 cumulative IPC: 0.148873 (Simulation time: 0 hr 16 min 23 sec) 
Heartbeat CPU 0 instructions: 126000001 cycles: 839633644 heartbeat IPC: 0.160067 cumulative IPC: 0.148956 (Simulation time: 0 hr 16 min 30 sec) 
Heartbeat CPU 0 instructions: 127000003 cycles: 846529393 heartbeat IPC: 0.145017 cumulative IPC: 0.148924 (Simulation time: 0 hr 16 min 38 sec) 
Heartbeat CPU 0 instructions: 128000002 cycles: 853613024 heartbeat IPC: 0.14117 cumulative IPC: 0.14886 (Simulation time: 0 hr 16 min 46 sec) 
Heartbeat CPU 0 instructions: 129000000 cycles: 859656595 heartbeat IPC: 0.165465 cumulative IPC: 0.148977 (Simulation time: 0 hr 16 min 54 sec) 
Heartbeat CPU 0 instructions: 130000000 cycles: 866706885 heartbeat IPC: 0.141838 cumulative IPC: 0.148919 (Simulation time: 0 hr 17 min 3 sec) 
Heartbeat CPU 0 instructions: 131000001 cycles: 872240342 heartbeat IPC: 0.180719 cumulative IPC: 0.149121 (Simulation time: 0 hr 17 min 10 sec) 
Heartbeat CPU 0 instructions: 132000000 cycles: 879751125 heartbeat IPC: 0.133142 cumulative IPC: 0.148984 (Simulation time: 0 hr 17 min 18 sec) 
Heartbeat CPU 0 instructions: 133000002 cycles: 887316254 heartbeat IPC: 0.132186 cumulative IPC: 0.148841 (Simulation time: 0 hr 17 min 26 sec) 
Heartbeat CPU 0 instructions: 134000001 cycles: 895094784 heartbeat IPC: 0.128559 cumulative IPC: 0.148664 (Simulation time: 0 hr 17 min 34 sec) 
Heartbeat CPU 0 instructions: 135000000 cycles: 901766772 heartbeat IPC: 0.14988 cumulative IPC: 0.148673 (Simulation time: 0 hr 17 min 42 sec) 
Heartbeat CPU 0 instructions: 136000001 cycles: 908974490 heartbeat IPC: 0.13874 cumulative IPC: 0.148595 (Simulation time: 0 hr 17 min 51 sec) 
Heartbeat CPU 0 instructions: 137000001 cycles: 914646816 heartbeat IPC: 0.176295 cumulative IPC: 0.148766 (Simulation time: 0 hr 17 min 59 sec) 
Heartbeat CPU 0 instructions: 138000002 cycles: 921804786 heartbeat IPC: 0.139705 cumulative IPC: 0.148696 (Simulation time: 0 hr 18 min 6 sec) 
Heartbeat CPU 0 instructions: 139000002 cycles: 928009752 heartbeat IPC: 0.161161 cumulative IPC: 0.148779 (Simulation time: 0 hr 18 min 15 sec) 
Heartbeat CPU 0 instructions: 140000000 cycles: 933808089 heartbeat IPC: 0.172463 cumulative IPC: 0.148927 (Simulation time: 0 hr 18 min 22 sec) 
Heartbeat CPU 0 instructions: 141000003 cycles: 940390559 heartbeat IPC: 0.151919 cumulative IPC: 0.148948 (Simulation time: 0 hr 18 min 30 sec) 
Heartbeat CPU 0 instructions: 142000001 cycles: 946974893 heartbeat IPC: 0.151875 cumulative IPC: 0.148968 (Simulation time: 0 hr 18 min 38 sec) 
Heartbeat CPU 0 instructions: 143000000 cycles: 954114772 heartbeat IPC: 0.140058 cumulative IPC: 0.148901 (Simulation time: 0 hr 18 min 47 sec) 
Heartbeat CPU 0 instructions: 144000000 cycles: 959842879 heartbeat IPC: 0.174578 cumulative IPC: 0.149054 (Simulation time: 0 hr 18 min 55 sec) 
Heartbeat CPU 0 instructions: 145000000 cycles: 967339294 heartbeat IPC: 0.133397 cumulative IPC: 0.148933 (Simulation time: 0 hr 19 min 4 sec) 
Heartbeat CPU 0 instructions: 146000000 cycles: 973963849 heartbeat IPC: 0.150954 cumulative IPC: 0.148947 (Simulation time: 0 hr 19 min 12 sec) 
Heartbeat CPU 0 instructions: 147000000 cycles: 979684869 heartbeat IPC: 0.174794 cumulative IPC: 0.149098 (Simulation time: 0 hr 19 min 21 sec) 
Heartbeat CPU 0 instructions: 148000001 cycles: 986384305 heartbeat IPC: 0.149266 cumulative IPC: 0.149099 (Simulation time: 0 hr 19 min 29 sec) 
Heartbeat CPU 0 instructions: 149000000 cycles: 993510701 heartbeat IPC: 0.140323 cumulative IPC: 0.149036 (Simulation time: 0 hr 19 min 37 sec) 
Heartbeat CPU 0 instructions: 150000001 cycles: 999774865 heartbeat IPC: 0.159638 cumulative IPC: 0.149102 (Simulation time: 0 hr 19 min 45 sec) 
Heartbeat CPU 0 instructions: 151000001 cycles: 1005319876 heartbeat IPC: 0.180342 cumulative IPC: 0.149275 (Simulation time: 0 hr 19 min 54 sec) 
Heartbeat CPU 0 instructions: 152000001 cycles: 1011023508 heartbeat IPC: 0.175327 cumulative IPC: 0.149422 (Simulation time: 0 hr 20 min 2 sec) 
Heartbeat CPU 0 instructions: 153000000 cycles: 1016748271 heartbeat IPC: 0.17468 cumulative IPC: 0.149564 (Simulation time: 0 hr 20 min 10 sec) 
Heartbeat CPU 0 instructions: 154000000 cycles: 1022394634 heartbeat IPC: 0.177105 cumulative IPC: 0.149716 (Simulation time: 0 hr 20 min 18 sec) 
Heartbeat CPU 0 instructions: 155000002 cycles: 1028089060 heartbeat IPC: 0.175611 cumulative IPC: 0.14986 (Simulation time: 0 hr 20 min 26 sec) 
Heartbeat CPU 0 instructions: 156000003 cycles: 1033629204 heartbeat IPC: 0.180501 cumulative IPC: 0.150024 (Simulation time: 0 hr 20 min 34 sec) 
Heartbeat CPU 0 instructions: 157000002 cycles: 1040843590 heartbeat IPC: 0.138612 cumulative IPC: 0.149945 (Simulation time: 0 hr 20 min 41 sec) 
Heartbeat CPU 0 instructions: 158000002 cycles: 1048022771 heartbeat IPC: 0.139292 cumulative IPC: 0.149872 (Simulation time: 0 hr 20 min 49 sec) 
Heartbeat CPU 0 instructions: 159000001 cycles: 1054068006 heartbeat IPC: 0.165419 cumulative IPC: 0.149961 (Simulation time: 0 hr 20 min 58 sec) 
Heartbeat CPU 0 instructions: 160000000 cycles: 1060756048 heartbeat IPC: 0.14952 cumulative IPC: 0.149958 (Simulation time: 0 hr 21 min 5 sec) 
Heartbeat CPU 0 instructions: 161000002 cycles: 1067529643 heartbeat IPC: 0.147632 cumulative IPC: 0.149944 (Simulation time: 0 hr 21 min 13 sec) 
Heartbeat CPU 0 instructions: 162000000 cycles: 1074718616 heartbeat IPC: 0.139102 cumulative IPC: 0.149871 (Simulation time: 0 hr 21 min 21 sec) 
Heartbeat CPU 0 instructions: 163000003 cycles: 1082057899 heartbeat IPC: 0.136254 cumulative IPC: 0.149779 (Simulation time: 0 hr 21 min 29 sec) 
Heartbeat CPU 0 instructions: 164000000 cycles: 1088247330 heartbeat IPC: 0.161565 cumulative IPC: 0.149846 (Simulation time: 0 hr 21 min 37 sec) 
Heartbeat CPU 0 instructions: 165000000 cycles: 1094883609 heartbeat IPC: 0.150687 cumulative IPC: 0.149851 (Simulation time: 0 hr 21 min 45 sec) 
Heartbeat CPU 0 instructions: 166000001 cycles: 1100578941 heartbeat IPC: 0.175583 cumulative IPC: 0.149984 (Simulation time: 0 hr 21 min 53 sec) 
Heartbeat CPU 0 instructions: 167000000 cycles: 1106296864 heartbeat IPC: 0.174889 cumulative IPC: 0.150113 (Simulation time: 0 hr 22 min 1 sec) 
Heartbeat CPU 0 instructions: 168000001 cycles: 1111961366 heartbeat IPC: 0.176538 cumulative IPC: 0.150248 (Simulation time: 0 hr 22 min 9 sec) 
Heartbeat CPU 0 instructions: 169000001 cycles: 1117568894 heartbeat IPC: 0.178332 cumulative IPC: 0.150388 (Simulation time: 0 hr 22 min 16 sec) 
Heartbeat CPU 0 instructions: 170000003 cycles: 1123231243 heartbeat IPC: 0.176606 cumulative IPC: 0.150521 (Simulation time: 0 hr 22 min 24 sec) 
Heartbeat CPU 0 instructions: 171000003 cycles: 1130072734 heartbeat IPC: 0.146167 cumulative IPC: 0.150494 (Simulation time: 0 hr 22 min 32 sec) 
Heartbeat CPU 0 instructions: 172000000 cycles: 1136039522 heartbeat IPC: 0.167594 cumulative IPC: 0.150584 (Simulation time: 0 hr 22 min 40 sec) 
Heartbeat CPU 0 instructions: 173000003 cycles: 1142459609 heartbeat IPC: 0.155762 cumulative IPC: 0.150613 (Simulation time: 0 hr 22 min 48 sec) 
Heartbeat CPU 0 instructions: 174000001 cycles: 1148069189 heartbeat IPC: 0.178266 cumulative IPC: 0.150748 (Simulation time: 0 hr 22 min 56 sec) 
Heartbeat CPU 0 instructions: 175000001 cycles: 1154805301 heartbeat IPC: 0.148454 cumulative IPC: 0.150735 (Simulation time: 0 hr 23 min 4 sec) 
Heartbeat CPU 0 instructions: 176000000 cycles: 1160369385 heartbeat IPC: 0.179724 cumulative IPC: 0.150874 (Simulation time: 0 hr 23 min 11 sec) 
Heartbeat CPU 0 instructions: 177000003 cycles: 1166506096 heartbeat IPC: 0.162954 cumulative IPC: 0.150938 (Simulation time: 0 hr 23 min 19 sec) 
Heartbeat CPU 0 instructions: 178000003 cycles: 1173686225 heartbeat IPC: 0.139273 cumulative IPC: 0.150866 (Simulation time: 0 hr 23 min 27 sec) 
Heartbeat CPU 0 instructions: 179000000 cycles: 1179407931 heartbeat IPC: 0.174773 cumulative IPC: 0.150982 (Simulation time: 0 hr 23 min 35 sec) 
Heartbeat CPU 0 instructions: 180000001 cycles: 1186166125 heartbeat IPC: 0.147969 cumulative IPC: 0.150965 (Simulation time: 0 hr 23 min 43 sec) 
Heartbeat CPU 0 instructions: 181000002 cycles: 1193868555 heartbeat IPC: 0.129829 cumulative IPC: 0.150829 (Simulation time: 0 hr 23 min 51 sec) 
Heartbeat CPU 0 instructions: 182000002 cycles: 1199461637 heartbeat IPC: 0.178792 cumulative IPC: 0.150959 (Simulation time: 0 hr 23 min 58 sec) 
Heartbeat CPU 0 instructions: 183000000 cycles: 1205138523 heartbeat IPC: 0.176153 cumulative IPC: 0.151078 (Simulation time: 0 hr 24 min 6 sec) 
Heartbeat CPU 0 instructions: 184000002 cycles: 1211820329 heartbeat IPC: 0.14966 cumulative IPC: 0.15107 (Simulation time: 0 hr 24 min 14 sec) 
Heartbeat CPU 0 instructions: 185000001 cycles: 1217497586 heartbeat IPC: 0.176141 cumulative IPC: 0.151187 (Simulation time: 0 hr 24 min 22 sec) 
Heartbeat CPU 0 instructions: 186000002 cycles: 1223330144 heartbeat IPC: 0.171452 cumulative IPC: 0.151284 (Simulation time: 0 hr 24 min 29 sec) 
Heartbeat CPU 0 instructions: 187000000 cycles: 1229656407 heartbeat IPC: 0.158071 cumulative IPC: 0.151319 (Simulation time: 0 hr 24 min 37 sec) 
Heartbeat CPU 0 instructions: 188000003 cycles: 1235227068 heartbeat IPC: 0.179512 cumulative IPC: 0.151446 (Simulation time: 0 hr 24 min 45 sec) 
Heartbeat CPU 0 instructions: 189000000 cycles: 1241000992 heartbeat IPC: 0.173192 cumulative IPC: 0.151547 (Simulation time: 0 hr 24 min 53 sec) 
Heartbeat CPU 0 instructions: 190000001 cycles: 1246718859 heartbeat IPC: 0.174891 cumulative IPC: 0.151654 (Simulation time: 0 hr 25 min 0 sec) 
Heartbeat CPU 0 instructions: 191000002 cycles: 1253061770 heartbeat IPC: 0.157656 cumulative IPC: 0.151685 (Simulation time: 0 hr 25 min 8 sec) 
Heartbeat CPU 0 instructions: 192000001 cycles: 1259275741 heartbeat IPC: 0.160928 cumulative IPC: 0.15173 (Simulation time: 0 hr 25 min 16 sec) 
Heartbeat CPU 0 instructions: 193000000 cycles: 1265582921 heartbeat IPC: 0.158549 cumulative IPC: 0.151764 (Simulation time: 0 hr 25 min 24 sec) 
Heartbeat CPU 0 instructions: 194000000 cycles: 1271874544 heartbeat IPC: 0.158942 cumulative IPC: 0.1518 (Simulation time: 0 hr 25 min 32 sec) 
Heartbeat CPU 0 instructions: 195000000 cycles: 1277660509 heartbeat IPC: 0.172832 cumulative IPC: 0.151895 (Simulation time: 0 hr 25 min 40 sec) 
Heartbeat CPU 0 instructions: 196000000 cycles: 1283381901 heartbeat IPC: 0.174783 cumulative IPC: 0.151997 (Simulation time: 0 hr 25 min 48 sec) 
Heartbeat CPU 0 instructions: 197000001 cycles: 1289025753 heartbeat IPC: 0.177184 cumulative IPC: 0.152107 (Simulation time: 0 hr 25 min 56 sec) 
Heartbeat CPU 0 instructions: 198000000 cycles: 1295076736 heartbeat IPC: 0.165262 cumulative IPC: 0.152169 (Simulation time: 0 hr 26 min 3 sec) 
Heartbeat CPU 0 instructions: 199000000 cycles: 1301794840 heartbeat IPC: 0.148852 cumulative IPC: 0.152152 (Simulation time: 0 hr 26 min 11 sec) 
Heartbeat CPU 0 instructions: 200000001 cycles: 1308675189 heartbeat IPC: 0.145342 cumulative IPC: 0.152116 (Simulation time: 0 hr 26 min 19 sec) 
Heartbeat CPU 0 instructions: 201000003 cycles: 1315390529 heartbeat IPC: 0.148913 cumulative IPC: 0.1521 (Simulation time: 0 hr 26 min 27 sec) 
Heartbeat CPU 0 instructions: 202000003 cycles: 1321058277 heartbeat IPC: 0.176437 cumulative IPC: 0.152204 (Simulation time: 0 hr 26 min 35 sec) 
Heartbeat CPU 0 instructions: 203000000 cycles: 1326689528 heartbeat IPC: 0.17758 cumulative IPC: 0.152312 (Simulation time: 0 hr 26 min 43 sec) 
Heartbeat CPU 0 instructions: 204000000 cycles: 1332498552 heartbeat IPC: 0.172146 cumulative IPC: 0.152398 (Simulation time: 0 hr 26 min 51 sec) 
Heartbeat CPU 0 instructions: 205000002 cycles: 1340218241 heartbeat IPC: 0.129539 cumulative IPC: 0.152267 (Simulation time: 0 hr 26 min 58 sec) 
Heartbeat CPU 0 instructions: 206000000 cycles: 1346709463 heartbeat IPC: 0.154054 cumulative IPC: 0.152275 (Simulation time: 0 hr 27 min 6 sec) 
Heartbeat CPU 0 instructions: 207000001 cycles: 1352440277 heartbeat IPC: 0.174495 cumulative IPC: 0.152369 (Simulation time: 0 hr 27 min 14 sec) 
Heartbeat CPU 0 instructions: 208000000 cycles: 1358220053 heartbeat IPC: 0.173017 cumulative IPC: 0.152457 (Simulation time: 0 hr 27 min 22 sec) 
Heartbeat CPU 0 instructions: 209000000 cycles: 1364748175 heartbeat IPC: 0.153183 cumulative IPC: 0.152461 (Simulation time: 0 hr 27 min 29 sec) 
Heartbeat CPU 0 instructions: 210000001 cycles: 1371789246 heartbeat IPC: 0.142024 cumulative IPC: 0.152407 (Simulation time: 0 hr 27 min 37 sec) 
Heartbeat CPU 0 instructions: 211000002 cycles: 1377768356 heartbeat IPC: 0.167249 cumulative IPC: 0.152472 (Simulation time: 0 hr 27 min 44 sec) 
Heartbeat CPU 0 instructions: 212000000 cycles: 1385864231 heartbeat IPC: 0.123519 cumulative IPC: 0.152302 (Simulation time: 0 hr 27 min 52 sec) 
Heartbeat CPU 0 instructions: 213000000 cycles: 1392284954 heartbeat IPC: 0.155746 cumulative IPC: 0.152318 (Simulation time: 0 hr 28 min 0 sec) 
Heartbeat CPU 0 instructions: 214000003 cycles: 1399021280 heartbeat IPC: 0.148449 cumulative IPC: 0.1523 (Simulation time: 0 hr 28 min 8 sec) 
Heartbeat CPU 0 instructions: 215000001 cycles: 1405541859 heartbeat IPC: 0.15336 cumulative IPC: 0.152305 (Simulation time: 0 hr 28 min 16 sec) 
Heartbeat CPU 0 instructions: 216000001 cycles: 1411219424 heartbeat IPC: 0.176132 cumulative IPC: 0.1524 (Simulation time: 0 hr 28 min 24 sec) 
Heartbeat CPU 0 instructions: 217000000 cycles: 1416864737 heartbeat IPC: 0.177138 cumulative IPC: 0.152499 (Simulation time: 0 hr 28 min 32 sec) 
Heartbeat CPU 0 instructions: 218000002 cycles: 1423753420 heartbeat IPC: 0.145166 cumulative IPC: 0.152464 (Simulation time: 0 hr 28 min 40 sec) 
Heartbeat CPU 0 instructions: 219000003 cycles: 1429401405 heartbeat IPC: 0.177054 cumulative IPC: 0.152561 (Simulation time: 0 hr 28 min 48 sec) 
Heartbeat CPU 0 instructions: 220000000 cycles: 1435360188 heartbeat IPC: 0.167819 cumulative IPC: 0.152624 (Simulation time: 0 hr 28 min 56 sec) 
Heartbeat CPU 0 instructions: 221000000 cycles: 1441331182 heartbeat IPC: 0.167476 cumulative IPC: 0.152686 (Simulation time: 0 hr 29 min 3 sec) 
Heartbeat CPU 0 instructions: 222000001 cycles: 1448141449 heartbeat IPC: 0.146837 cumulative IPC: 0.152658 (Simulation time: 0 hr 29 min 12 sec) 
Heartbeat CPU 0 instructions: 223000000 cycles: 1455883048 heartbeat IPC: 0.129172 cumulative IPC: 0.152533 (Simulation time: 0 hr 29 min 20 sec) 
Heartbeat CPU 0 instructions: 224000002 cycles: 1461770856 heartbeat IPC: 0.169843 cumulative IPC: 0.152603 (Simulation time: 0 hr 29 min 28 sec) 
Heartbeat CPU 0 instructions: 225000002 cycles: 1467456506 heartbeat IPC: 0.175881 cumulative IPC: 0.152693 (Simulation time: 0 hr 29 min 36 sec) 
Heartbeat CPU 0 instructions: 226000002 cycles: 1473364133 heartbeat IPC: 0.169273 cumulative IPC: 0.15276 (Simulation time: 0 hr 29 min 44 sec) 
Heartbeat CPU 0 instructions: 227000000 cycles: 1479196335 heartbeat IPC: 0.171461 cumulative IPC: 0.152833 (Simulation time: 0 hr 29 min 52 sec) 
Heartbeat CPU 0 instructions: 228000000 cycles: 1484939083 heartbeat IPC: 0.174133 cumulative IPC: 0.152916 (Simulation time: 0 hr 29 min 59 sec) 
Heartbeat CPU 0 instructions: 229000001 cycles: 1491508054 heartbeat IPC: 0.152231 cumulative IPC: 0.152913 (Simulation time: 0 hr 30 min 7 sec) 
Heartbeat CPU 0 instructions: 230000001 cycles: 1497358112 heartbeat IPC: 0.170938 cumulative IPC: 0.152983 (Simulation time: 0 hr 30 min 15 sec) 
Heartbeat CPU 0 instructions: 231000000 cycles: 1503272559 heartbeat IPC: 0.169077 cumulative IPC: 0.153047 (Simulation time: 0 hr 30 min 22 sec) 
Heartbeat CPU 0 instructions: 232000001 cycles: 1509820315 heartbeat IPC: 0.152724 cumulative IPC: 0.153045 (Simulation time: 0 hr 30 min 31 sec) 
Heartbeat CPU 0 instructions: 233000003 cycles: 1516944376 heartbeat IPC: 0.14037 cumulative IPC: 0.152986 (Simulation time: 0 hr 30 min 39 sec) 
Heartbeat CPU 0 instructions: 234000000 cycles: 1522944829 heartbeat IPC: 0.166654 cumulative IPC: 0.15304 (Simulation time: 0 hr 30 min 46 sec) 
Heartbeat CPU 0 instructions: 235000000 cycles: 1529367422 heartbeat IPC: 0.1557 cumulative IPC: 0.153051 (Simulation time: 0 hr 30 min 54 sec) 
Heartbeat CPU 0 instructions: 236000000 cycles: 1537068674 heartbeat IPC: 0.129849 cumulative IPC: 0.152934 (Simulation time: 0 hr 31 min 2 sec) 
Heartbeat CPU 0 instructions: 237000003 cycles: 1542991891 heartbeat IPC: 0.168828 cumulative IPC: 0.152995 (Simulation time: 0 hr 31 min 10 sec) 
Heartbeat CPU 0 instructions: 238000003 cycles: 1548920479 heartbeat IPC: 0.168674 cumulative IPC: 0.153055 (Simulation time: 0 hr 31 min 18 sec) 
Heartbeat CPU 0 instructions: 239000003 cycles: 1554771128 heartbeat IPC: 0.170921 cumulative IPC: 0.153123 (Simulation time: 0 hr 31 min 26 sec) 
Heartbeat CPU 0 instructions: 240000001 cycles: 1561366693 heartbeat IPC: 0.151617 cumulative IPC: 0.153116 (Simulation time: 0 hr 31 min 33 sec) 
Heartbeat CPU 0 instructions: 241000002 cycles: 1567789120 heartbeat IPC: 0.155705 cumulative IPC: 0.153127 (Simulation time: 0 hr 31 min 41 sec) 
Heartbeat CPU 0 instructions: 242000000 cycles: 1573543756 heartbeat IPC: 0.173773 cumulative IPC: 0.153202 (Simulation time: 0 hr 31 min 49 sec) 
Heartbeat CPU 0 instructions: 243000001 cycles: 1579261118 heartbeat IPC: 0.174906 cumulative IPC: 0.153281 (Simulation time: 0 hr 31 min 57 sec) 
Heartbeat CPU 0 instructions: 244000003 cycles: 1585164255 heartbeat IPC: 0.169402 cumulative IPC: 0.153341 (Simulation time: 0 hr 32 min 5 sec) 
Heartbeat CPU 0 instructions: 245000002 cycles: 1592323088 heartbeat IPC: 0.139687 cumulative IPC: 0.15328 (Simulation time: 0 hr 32 min 12 sec) 
Heartbeat CPU 0 instructions: 246000001 cycles: 1598453296 heartbeat IPC: 0.163126 cumulative IPC: 0.153317 (Simulation time: 0 hr 32 min 20 sec) 
Heartbeat CPU 0 instructions: 247000000 cycles: 1604540655 heartbeat IPC: 0.164275 cumulative IPC: 0.153359 (Simulation time: 0 hr 32 min 28 sec) 
Heartbeat CPU 0 instructions: 248000001 cycles: 1611689359 heartbeat IPC: 0.139886 cumulative IPC: 0.153299 (Simulation time: 0 hr 32 min 36 sec) 
Heartbeat CPU 0 instructions: 249000001 cycles: 1619020937 heartbeat IPC: 0.136396 cumulative IPC: 0.153223 (Simulation time: 0 hr 32 min 45 sec) 
Heartbeat CPU 0 instructions: 250000001 cycles: 1626042959 heartbeat IPC: 0.142409 cumulative IPC: 0.153176 (Simulation time: 0 hr 32 min 53 sec) 
Heartbeat CPU 0 instructions: 251000001 cycles: 1631801708 heartbeat IPC: 0.173649 cumulative IPC: 0.153248 (Simulation time: 0 hr 33 min 1 sec) 
Heartbeat CPU 0 instructions: 252000002 cycles: 1637715433 heartbeat IPC: 0.169098 cumulative IPC: 0.153306 (Simulation time: 0 hr 33 min 9 sec) 
Heartbeat CPU 0 instructions: 253000000 cycles: 1643678766 heartbeat IPC: 0.167691 cumulative IPC: 0.153358 (Simulation time: 0 hr 33 min 17 sec) 
Heartbeat CPU 0 instructions: 254000003 cycles: 1649668117 heartbeat IPC: 0.166964 cumulative IPC: 0.153407 (Simulation time: 0 hr 33 min 25 sec) 
Heartbeat CPU 0 instructions: 255000000 cycles: 1655456187 heartbeat IPC: 0.172769 cumulative IPC: 0.153475 (Simulation time: 0 hr 33 min 33 sec) 
Heartbeat CPU 0 instructions: 256000000 cycles: 1662008931 heartbeat IPC: 0.152608 cumulative IPC: 0.153471 (Simulation time: 0 hr 33 min 41 sec) 
Heartbeat CPU 0 instructions: 257000001 cycles: 1667917291 heartbeat IPC: 0.169252 cumulative IPC: 0.153527 (Simulation time: 0 hr 33 min 49 sec) 
Heartbeat CPU 0 instructions: 258000000 cycles: 1675142363 heartbeat IPC: 0.138407 cumulative IPC: 0.153462 (Simulation time: 0 hr 33 min 57 sec) 
Heartbeat CPU 0 instructions: 259000002 cycles: 1681076972 heartbeat IPC: 0.168503 cumulative IPC: 0.153515 (Simulation time: 0 hr 34 min 5 sec) 
Heartbeat CPU 0 instructions: 260000002 cycles: 1686955399 heartbeat IPC: 0.170114 cumulative IPC: 0.153573 (Simulation time: 0 hr 34 min 20 sec) 
Heartbeat CPU 0 instructions: 261000000 cycles: 1693941341 heartbeat IPC: 0.143144 cumulative IPC: 0.15353 (Simulation time: 0 hr 34 min 32 sec) 
Heartbeat CPU 0 instructions: 262000002 cycles: 1700292790 heartbeat IPC: 0.157445 cumulative IPC: 0.153545 (Simulation time: 0 hr 34 min 47 sec) 
Heartbeat CPU 0 instructions: 263000000 cycles: 1706175938 heartbeat IPC: 0.169977 cumulative IPC: 0.153601 (Simulation time: 0 hr 35 min 2 sec) 
Heartbeat CPU 0 instructions: 264000000 cycles: 1713091572 heartbeat IPC: 0.1446 cumulative IPC: 0.153565 (Simulation time: 0 hr 35 min 14 sec) 
Heartbeat CPU 0 instructions: 265000000 cycles: 1719828400 heartbeat IPC: 0.148438 cumulative IPC: 0.153545 (Simulation time: 0 hr 35 min 27 sec) 
Heartbeat CPU 0 instructions: 266000001 cycles: 1725982024 heartbeat IPC: 0.162506 cumulative IPC: 0.153577 (Simulation time: 0 hr 35 min 39 sec) 
Heartbeat CPU 0 instructions: 267000003 cycles: 1732534974 heartbeat IPC: 0.152603 cumulative IPC: 0.153573 (Simulation time: 0 hr 35 min 53 sec) 
Heartbeat CPU 0 instructions: 268000003 cycles: 1739711719 heartbeat IPC: 0.139339 cumulative IPC: 0.153514 (Simulation time: 0 hr 36 min 7 sec) 
Heartbeat CPU 0 instructions: 269000002 cycles: 1745543195 heartbeat IPC: 0.171483 cumulative IPC: 0.153575 (Simulation time: 0 hr 36 min 22 sec) 
Heartbeat CPU 0 instructions: 270000002 cycles: 1752573692 heartbeat IPC: 0.142237 cumulative IPC: 0.153529 (Simulation time: 0 hr 36 min 37 sec) 
Heartbeat CPU 0 instructions: 271000001 cycles: 1759135827 heartbeat IPC: 0.152389 cumulative IPC: 0.153525 (Simulation time: 0 hr 36 min 47 sec) 
Heartbeat CPU 0 instructions: 272000003 cycles: 1766142872 heartbeat IPC: 0.142714 cumulative IPC: 0.153482 (Simulation time: 0 hr 36 min 56 sec) 
Heartbeat CPU 0 instructions: 273000000 cycles: 1772901143 heartbeat IPC: 0.147966 cumulative IPC: 0.153461 (Simulation time: 0 hr 37 min 10 sec) 
Heartbeat CPU 0 instructions: 274000000 cycles: 1779805838 heartbeat IPC: 0.144829 cumulative IPC: 0.153427 (Simulation time: 0 hr 37 min 22 sec) 
Heartbeat CPU 0 instructions: 275000000 cycles: 1786448257 heartbeat IPC: 0.150548 cumulative IPC: 0.153417 (Simulation time: 0 hr 37 min 33 sec) 
Heartbeat CPU 0 instructions: 276000002 cycles: 1793098265 heartbeat IPC: 0.150376 cumulative IPC: 0.153405 (Simulation time: 0 hr 37 min 43 sec) 
Heartbeat CPU 0 instructions: 277000001 cycles: 1799850112 heartbeat IPC: 0.148107 cumulative IPC: 0.153385 (Simulation time: 0 hr 37 min 56 sec) 
Heartbeat CPU 0 instructions: 278000002 cycles: 1806036726 heartbeat IPC: 0.161639 cumulative IPC: 0.153414 (Simulation time: 0 hr 38 min 8 sec) 
Heartbeat CPU 0 instructions: 279000003 cycles: 1811846535 heartbeat IPC: 0.172123 cumulative IPC: 0.153474 (Simulation time: 0 hr 38 min 22 sec) 
Heartbeat CPU 0 instructions: 280000003 cycles: 1817934689 heartbeat IPC: 0.164253 cumulative IPC: 0.15351 (Simulation time: 0 hr 38 min 37 sec) 
Heartbeat CPU 0 instructions: 281000003 cycles: 1823907714 heartbeat IPC: 0.167419 cumulative IPC: 0.153555 (Simulation time: 0 hr 38 min 52 sec) 
Heartbeat CPU 0 instructions: 282000003 cycles: 1831000596 heartbeat IPC: 0.140986 cumulative IPC: 0.153507 (Simulation time: 0 hr 39 min 7 sec) 
Heartbeat CPU 0 instructions: 283000003 cycles: 1837918874 heartbeat IPC: 0.144545 cumulative IPC: 0.153473 (Simulation time: 0 hr 39 min 21 sec) 
Heartbeat CPU 0 instructions: 284000003 cycles: 1844390532 heartbeat IPC: 0.15452 cumulative IPC: 0.153477 (Simulation time: 0 hr 39 min 30 sec) 
Heartbeat CPU 0 instructions: 285000000 cycles: 1851191989 heartbeat IPC: 0.147027 cumulative IPC: 0.153453 (Simulation time: 0 hr 39 min 45 sec) 
Heartbeat CPU 0 instructions: 286000000 cycles: 1858554484 heartbeat IPC: 0.135824 cumulative IPC: 0.153383 (Simulation time: 0 hr 40 min 0 sec) 
Heartbeat CPU 0 instructions: 287000000 cycles: 1865321332 heartbeat IPC: 0.147779 cumulative IPC: 0.153363 (Simulation time: 0 hr 40 min 14 sec) 
Heartbeat CPU 0 instructions: 288000000 cycles: 1871209646 heartbeat IPC: 0.169828 cumulative IPC: 0.153415 (Simulation time: 0 hr 40 min 23 sec) 
Heartbeat CPU 0 instructions: 289000003 cycles: 1877112983 heartbeat IPC: 0.169396 cumulative IPC: 0.153465 (Simulation time: 0 hr 40 min 31 sec) 
Heartbeat CPU 0 instructions: 290000000 cycles: 1884263168 heartbeat IPC: 0.139856 cumulative IPC: 0.153413 (Simulation time: 0 hr 40 min 46 sec) 
Heartbeat CPU 0 instructions: 291000001 cycles: 1891404828 heartbeat IPC: 0.140024 cumulative IPC: 0.153363 (Simulation time: 0 hr 41 min 2 sec) 
Heartbeat CPU 0 instructions: 292000000 cycles: 1897336165 heartbeat IPC: 0.168596 cumulative IPC: 0.15341 (Simulation time: 0 hr 41 min 17 sec) 
Heartbeat CPU 0 instructions: 293000000 cycles: 1903195129 heartbeat IPC: 0.170679 cumulative IPC: 0.153463 (Simulation time: 0 hr 41 min 28 sec) 
Heartbeat CPU 0 instructions: 294000000 cycles: 1909006316 heartbeat IPC: 0.172082 cumulative IPC: 0.15352 (Simulation time: 0 hr 41 min 41 sec) 
Heartbeat CPU 0 instructions: 295000001 cycles: 1914816358 heartbeat IPC: 0.172116 cumulative IPC: 0.153577 (Simulation time: 0 hr 41 min 54 sec) 
Heartbeat CPU 0 instructions: 296000000 cycles: 1920884006 heartbeat IPC: 0.164808 cumulative IPC: 0.153612 (Simulation time: 0 hr 42 min 9 sec) 
Heartbeat CPU 0 instructions: 297000000 cycles: 1927049946 heartbeat IPC: 0.162181 cumulative IPC: 0.15364 (Simulation time: 0 hr 42 min 23 sec) 
Heartbeat CPU 0 instructions: 298000003 cycles: 1934152079 heartbeat IPC: 0.140803 cumulative IPC: 0.153592 (Simulation time: 0 hr 42 min 37 sec) 
Heartbeat CPU 0 instructions: 299000000 cycles: 1940093076 heartbeat IPC: 0.168321 cumulative IPC: 0.153637 (Simulation time: 0 hr 42 min 52 sec) 
Heartbeat CPU 0 instructions: 300000002 cycles: 1946048900 heartbeat IPC: 0.167903 cumulative IPC: 0.153681 (Simulation time: 0 hr 43 min 7 sec) 
Heartbeat CPU 0 instructions: 301000000 cycles: 1952296343 heartbeat IPC: 0.160065 cumulative IPC: 0.153702 (Simulation time: 0 hr 43 min 18 sec) 
Heartbeat CPU 0 instructions: 302000002 cycles: 1959515486 heartbeat IPC: 0.138521 cumulative IPC: 0.153646 (Simulation time: 0 hr 43 min 26 sec) 
Heartbeat CPU 0 instructions: 303000003 cycles: 1966243824 heartbeat IPC: 0.148625 cumulative IPC: 0.153628 (Simulation time: 0 hr 43 min 39 sec) 
Heartbeat CPU 0 instructions: 304000002 cycles: 1972176825 heartbeat IPC: 0.168549 cumulative IPC: 0.153673 (Simulation time: 0 hr 43 min 55 sec) 
Heartbeat CPU 0 instructions: 305000001 cycles: 1979171756 heartbeat IPC: 0.142961 cumulative IPC: 0.153635 (Simulation time: 0 hr 44 min 7 sec) 
Heartbeat CPU 0 instructions: 306000001 cycles: 1985330430 heartbeat IPC: 0.162373 cumulative IPC: 0.153663 (Simulation time: 0 hr 44 min 16 sec) 
Heartbeat CPU 0 instructions: 307000000 cycles: 1992145701 heartbeat IPC: 0.146729 cumulative IPC: 0.153639 (Simulation time: 0 hr 44 min 28 sec) 
Heartbeat CPU 0 instructions: 308000000 cycles: 1998189445 heartbeat IPC: 0.16546 cumulative IPC: 0.153675 (Simulation time: 0 hr 44 min 40 sec) 
Heartbeat CPU 0 instructions: 309000001 cycles: 2004144280 heartbeat IPC: 0.167931 cumulative IPC: 0.153717 (Simulation time: 0 hr 44 min 55 sec) 
Heartbeat CPU 0 instructions: 310000003 cycles: 2010174284 heartbeat IPC: 0.165838 cumulative IPC: 0.153753 (Simulation time: 0 hr 45 min 7 sec) 
Heartbeat CPU 0 instructions: 311000001 cycles: 2017234054 heartbeat IPC: 0.141647 cumulative IPC: 0.153711 (Simulation time: 0 hr 45 min 22 sec) 
Heartbeat CPU 0 instructions: 312000003 cycles: 2024295086 heartbeat IPC: 0.141623 cumulative IPC: 0.153669 (Simulation time: 0 hr 45 min 36 sec) 
Heartbeat CPU 0 instructions: 313000003 cycles: 2030389874 heartbeat IPC: 0.164075 cumulative IPC: 0.1537 (Simulation time: 0 hr 45 min 50 sec) 
Heartbeat CPU 0 instructions: 314000002 cycles: 2036388602 heartbeat IPC: 0.166702 cumulative IPC: 0.153738 (Simulation time: 0 hr 46 min 5 sec) 
Heartbeat CPU 0 instructions: 315000002 cycles: 2042282170 heartbeat IPC: 0.169676 cumulative IPC: 0.153784 (Simulation time: 0 hr 46 min 20 sec) 
Heartbeat CPU 0 instructions: 316000002 cycles: 2048165992 heartbeat IPC: 0.169958 cumulative IPC: 0.153831 (Simulation time: 0 hr 46 min 35 sec) 
Heartbeat CPU 0 instructions: 317000000 cycles: 2055121284 heartbeat IPC: 0.143775 cumulative IPC: 0.153797 (Simulation time: 0 hr 46 min 49 sec) 
Heartbeat CPU 0 instructions: 318000000 cycles: 2061880733 heartbeat IPC: 0.147941 cumulative IPC: 0.153778 (Simulation time: 0 hr 47 min 4 sec) 
Heartbeat CPU 0 instructions: 319000000 cycles: 2068905304 heartbeat IPC: 0.142357 cumulative IPC: 0.153739 (Simulation time: 0 hr 47 min 19 sec) 
Heartbeat CPU 0 instructions: 320000002 cycles: 2076103242 heartbeat IPC: 0.138929 cumulative IPC: 0.153687 (Simulation time: 0 hr 47 min 32 sec) 
Heartbeat CPU 0 instructions: 321000003 cycles: 2083667947 heartbeat IPC: 0.132193 cumulative IPC: 0.153609 (Simulation time: 0 hr 47 min 47 sec) 
Heartbeat CPU 0 instructions: 322000003 cycles: 2090626010 heartbeat IPC: 0.143718 cumulative IPC: 0.153576 (Simulation time: 0 hr 47 min 58 sec) 
Heartbeat CPU 0 instructions: 323000003 cycles: 2096681119 heartbeat IPC: 0.16515 cumulative IPC: 0.15361 (Simulation time: 0 hr 48 min 11 sec) 
Heartbeat CPU 0 instructions: 324000001 cycles: 2102672291 heartbeat IPC: 0.166912 cumulative IPC: 0.153648 (Simulation time: 0 hr 48 min 22 sec) 
Heartbeat CPU 0 instructions: 325000003 cycles: 2109392522 heartbeat IPC: 0.148805 cumulative IPC: 0.153632 (Simulation time: 0 hr 48 min 33 sec) 
Heartbeat CPU 0 instructions: 326000002 cycles: 2115477221 heartbeat IPC: 0.164347 cumulative IPC: 0.153663 (Simulation time: 0 hr 48 min 47 sec) 
Heartbeat CPU 0 instructions: 327000000 cycles: 2122608229 heartbeat IPC: 0.140232 cumulative IPC: 0.153618 (Simulation time: 0 hr 49 min 1 sec) 
Heartbeat CPU 0 instructions: 328000003 cycles: 2129786649 heartbeat IPC: 0.139307 cumulative IPC: 0.15357 (Simulation time: 0 hr 49 min 16 sec) 
Heartbeat CPU 0 instructions: 329000000 cycles: 2136386789 heartbeat IPC: 0.151511 cumulative IPC: 0.153563 (Simulation time: 0 hr 49 min 33 sec) 
Heartbeat CPU 0 instructions: 330000000 cycles: 2143749097 heartbeat IPC: 0.135827 cumulative IPC: 0.153503 (Simulation time: 0 hr 49 min 43 sec) 
Heartbeat CPU 0 instructions: 331000000 cycles: 2150008622 heartbeat IPC: 0.159757 cumulative IPC: 0.153521 (Simulation time: 0 hr 49 min 51 sec) 
Heartbeat CPU 0 instructions: 332000001 cycles: 2157400790 heartbeat IPC: 0.135278 cumulative IPC: 0.153458 (Simulation time: 0 hr 49 min 59 sec) 
Heartbeat CPU 0 instructions: 333000001 cycles: 2165390519 heartbeat IPC: 0.125161 cumulative IPC: 0.153354 (Simulation time: 0 hr 50 min 8 sec) 
Heartbeat CPU 0 instructions: 334000000 cycles: 2172749854 heartbeat IPC: 0.135882 cumulative IPC: 0.153295 (Simulation time: 0 hr 50 min 18 sec) 
Heartbeat CPU 0 instructions: 335000002 cycles: 2179040603 heartbeat IPC: 0.158964 cumulative IPC: 0.153311 (Simulation time: 0 hr 50 min 28 sec) 
Heartbeat CPU 0 instructions: 336000001 cycles: 2186317463 heartbeat IPC: 0.137422 cumulative IPC: 0.153258 (Simulation time: 0 hr 50 min 40 sec) 
Heartbeat CPU 0 instructions: 337000001 cycles: 2193789721 heartbeat IPC: 0.133828 cumulative IPC: 0.153192 (Simulation time: 0 hr 50 min 50 sec) 
Heartbeat CPU 0 instructions: 338000002 cycles: 2200561053 heartbeat IPC: 0.147682 cumulative IPC: 0.153175 (Simulation time: 0 hr 50 min 59 sec) 
Heartbeat CPU 0 instructions: 339000000 cycles: 2207294561 heartbeat IPC: 0.148511 cumulative IPC: 0.153161 (Simulation time: 0 hr 51 min 13 sec) 
Heartbeat CPU 0 instructions: 340000000 cycles: 2213188708 heartbeat IPC: 0.16966 cumulative IPC: 0.153205 (Simulation time: 0 hr 51 min 26 sec) 
Heartbeat CPU 0 instructions: 341000000 cycles: 2220110641 heartbeat IPC: 0.144468 cumulative IPC: 0.153177 (Simulation time: 0 hr 51 min 40 sec) 
Heartbeat CPU 0 instructions: 342000000 cycles: 2227121531 heartbeat IPC: 0.142635 cumulative IPC: 0.153144 (Simulation time: 0 hr 51 min 52 sec) 
Heartbeat CPU 0 instructions: 343000002 cycles: 2234363990 heartbeat IPC: 0.138075 cumulative IPC: 0.153095 (Simulation time: 0 hr 52 min 2 sec) 
Heartbeat CPU 0 instructions: 344000000 cycles: 2241999768 heartbeat IPC: 0.130962 cumulative IPC: 0.15302 (Simulation time: 0 hr 52 min 11 sec) 
Heartbeat CPU 0 instructions: 345000000 cycles: 2248231942 heartbeat IPC: 0.160458 cumulative IPC: 0.153041 (Simulation time: 0 hr 52 min 23 sec) 
Heartbeat CPU 0 instructions: 346000002 cycles: 2255015636 heartbeat IPC: 0.147413 cumulative IPC: 0.153024 (Simulation time: 0 hr 52 min 39 sec) 
Heartbeat CPU 0 instructions: 347000003 cycles: 2262295445 heartbeat IPC: 0.137366 cumulative IPC: 0.152973 (Simulation time: 0 hr 52 min 50 sec) 
Heartbeat CPU 0 instructions: 348000000 cycles: 2269032875 heartbeat IPC: 0.148424 cumulative IPC: 0.15296 (Simulation time: 0 hr 53 min 5 sec) 
Heartbeat CPU 0 instructions: 349000000 cycles: 2275786329 heartbeat IPC: 0.148072 cumulative IPC: 0.152945 (Simulation time: 0 hr 53 min 18 sec) 
Heartbeat CPU 0 instructions: 350000000 cycles: 2281961881 heartbeat IPC: 0.161929 cumulative IPC: 0.15297 (Simulation time: 0 hr 53 min 29 sec) 
Heartbeat CPU 0 instructions: 351000000 cycles: 2288709219 heartbeat IPC: 0.148207 cumulative IPC: 0.152956 (Simulation time: 0 hr 53 min 38 sec) 
Heartbeat CPU 0 instructions: 352000000 cycles: 2295350340 heartbeat IPC: 0.150577 cumulative IPC: 0.152949 (Simulation time: 0 hr 53 min 45 sec) 
Heartbeat CPU 0 instructions: 353000001 cycles: 2301898793 heartbeat IPC: 0.152708 cumulative IPC: 0.152948 (Simulation time: 0 hr 53 min 55 sec) 
Heartbeat CPU 0 instructions: 354000002 cycles: 2307840795 heartbeat IPC: 0.168294 cumulative IPC: 0.152987 (Simulation time: 0 hr 54 min 3 sec) 
Heartbeat CPU 0 instructions: 355000000 cycles: 2313755239 heartbeat IPC: 0.169077 cumulative IPC: 0.153029 (Simulation time: 0 hr 54 min 12 sec) 
Heartbeat CPU 0 instructions: 356000000 cycles: 2320657368 heartbeat IPC: 0.144883 cumulative IPC: 0.153004 (Simulation time: 0 hr 54 min 20 sec) 
Heartbeat CPU 0 instructions: 357000001 cycles: 2328419433 heartbeat IPC: 0.128832 cumulative IPC: 0.152924 (Simulation time: 0 hr 54 min 28 sec) 
Heartbeat CPU 0 instructions: 358000003 cycles: 2335275751 heartbeat IPC: 0.145851 cumulative IPC: 0.152903 (Simulation time: 0 hr 54 min 41 sec) 
Heartbeat CPU 0 instructions: 359000003 cycles: 2341497325 heartbeat IPC: 0.160731 cumulative IPC: 0.152924 (Simulation time: 0 hr 54 min 53 sec) 
Heartbeat CPU 0 instructions: 360000000 cycles: 2348866359 heartbeat IPC: 0.135703 cumulative IPC: 0.15287 (Simulation time: 0 hr 55 min 1 sec) 
Heartbeat CPU 0 instructions: 361000002 cycles: 2355712965 heartbeat IPC: 0.146058 cumulative IPC: 0.15285 (Simulation time: 0 hr 55 min 10 sec) 
Heartbeat CPU 0 instructions: 362000003 cycles: 2363111161 heartbeat IPC: 0.135168 cumulative IPC: 0.152795 (Simulation time: 0 hr 55 min 25 sec) 
Heartbeat CPU 0 instructions: 363000000 cycles: 2369133403 heartbeat IPC: 0.166051 cumulative IPC: 0.152828 (Simulation time: 0 hr 55 min 40 sec) 
Heartbeat CPU 0 instructions: 364000003 cycles: 2375084924 heartbeat IPC: 0.168025 cumulative IPC: 0.152866 (Simulation time: 0 hr 55 min 56 sec) 
Heartbeat CPU 0 instructions: 365000002 cycles: 2381322829 heartbeat IPC: 0.16031 cumulative IPC: 0.152886 (Simulation time: 0 hr 56 min 9 sec) 
Heartbeat CPU 0 instructions: 366000003 cycles: 2388560785 heartbeat IPC: 0.138161 cumulative IPC: 0.152841 (Simulation time: 0 hr 56 min 23 sec) 
Heartbeat CPU 0 instructions: 367000003 cycles: 2395042878 heartbeat IPC: 0.154271 cumulative IPC: 0.152845 (Simulation time: 0 hr 56 min 39 sec) 
Heartbeat CPU 0 instructions: 368000000 cycles: 2401543300 heartbeat IPC: 0.153836 cumulative IPC: 0.152848 (Simulation time: 0 hr 56 min 49 sec) 
Heartbeat CPU 0 instructions: 369000003 cycles: 2409140067 heartbeat IPC: 0.131635 cumulative IPC: 0.152781 (Simulation time: 0 hr 56 min 58 sec) 
Heartbeat CPU 0 instructions: 370000000 cycles: 2415347429 heartbeat IPC: 0.161099 cumulative IPC: 0.152802 (Simulation time: 0 hr 57 min 7 sec) 
Heartbeat CPU 0 instructions: 371000003 cycles: 2423219423 heartbeat IPC: 0.127033 cumulative IPC: 0.152719 (Simulation time: 0 hr 57 min 18 sec) 
Heartbeat CPU 0 instructions: 372000001 cycles: 2429474385 heartbeat IPC: 0.159873 cumulative IPC: 0.152737 (Simulation time: 0 hr 57 min 29 sec) 
Heartbeat CPU 0 instructions: 373000000 cycles: 2436313466 heartbeat IPC: 0.146218 cumulative IPC: 0.152719 (Simulation time: 0 hr 57 min 41 sec) 
Heartbeat CPU 0 instructions: 374000000 cycles: 2442411518 heartbeat IPC: 0.163987 cumulative IPC: 0.152747 (Simulation time: 0 hr 57 min 57 sec) 
Heartbeat CPU 0 instructions: 375000002 cycles: 2449553223 heartbeat IPC: 0.140023 cumulative IPC: 0.15271 (Simulation time: 0 hr 58 min 7 sec) 
Heartbeat CPU 0 instructions: 376000001 cycles: 2455702513 heartbeat IPC: 0.16262 cumulative IPC: 0.152735 (Simulation time: 0 hr 58 min 16 sec) 
Heartbeat CPU 0 instructions: 377000001 cycles: 2461963343 heartbeat IPC: 0.159723 cumulative IPC: 0.152752 (Simulation time: 0 hr 58 min 24 sec) 
Heartbeat CPU 0 instructions: 378000003 cycles: 2468993426 heartbeat IPC: 0.142246 cumulative IPC: 0.152722 (Simulation time: 0 hr 58 min 34 sec) 
Heartbeat CPU 0 instructions: 379000003 cycles: 2475115819 heartbeat IPC: 0.163335 cumulative IPC: 0.152749 (Simulation time: 0 hr 58 min 47 sec) 
Heartbeat CPU 0 instructions: 380000003 cycles: 2481284140 heartbeat IPC: 0.162119 cumulative IPC: 0.152772 (Simulation time: 0 hr 59 min 2 sec) 
Heartbeat CPU 0 instructions: 381000000 cycles: 2488647562 heartbeat IPC: 0.135806 cumulative IPC: 0.152722 (Simulation time: 0 hr 59 min 11 sec) 
Heartbeat CPU 0 instructions: 382000000 cycles: 2495419233 heartbeat IPC: 0.147674 cumulative IPC: 0.152708 (Simulation time: 0 hr 59 min 24 sec) 
Heartbeat CPU 0 instructions: 383000002 cycles: 2501401775 heartbeat IPC: 0.167153 cumulative IPC: 0.152743 (Simulation time: 0 hr 59 min 38 sec) 
Heartbeat CPU 0 instructions: 384000001 cycles: 2507342384 heartbeat IPC: 0.168333 cumulative IPC: 0.15278 (Simulation time: 0 hr 59 min 50 sec) 
Heartbeat CPU 0 instructions: 385000000 cycles: 2513373893 heartbeat IPC: 0.165796 cumulative IPC: 0.152811 (Simulation time: 1 hr 0 min 4 sec) 
Heartbeat CPU 0 instructions: 386000001 cycles: 2520316195 heartbeat IPC: 0.144045 cumulative IPC: 0.152787 (Simulation time: 1 hr 0 min 15 sec) 
Heartbeat CPU 0 instructions: 387000000 cycles: 2526472836 heartbeat IPC: 0.162426 cumulative IPC: 0.15281 (Simulation time: 1 hr 0 min 30 sec) 
Heartbeat CPU 0 instructions: 388000003 cycles: 2532547048 heartbeat IPC: 0.164631 cumulative IPC: 0.152838 (Simulation time: 1 hr 0 min 45 sec) 
Heartbeat CPU 0 instructions: 389000000 cycles: 2538563652 heartbeat IPC: 0.166206 cumulative IPC: 0.15287 (Simulation time: 1 hr 1 min 1 sec) 
Heartbeat CPU 0 instructions: 390000002 cycles: 2544546123 heartbeat IPC: 0.167155 cumulative IPC: 0.152904 (Simulation time: 1 hr 1 min 16 sec) 
Heartbeat CPU 0 instructions: 391000000 cycles: 2550504818 heartbeat IPC: 0.167822 cumulative IPC: 0.152939 (Simulation time: 1 hr 1 min 31 sec) 
Heartbeat CPU 0 instructions: 392000001 cycles: 2556462365 heartbeat IPC: 0.167854 cumulative IPC: 0.152973 (Simulation time: 1 hr 1 min 46 sec) 
Heartbeat CPU 0 instructions: 393000000 cycles: 2562495620 heartbeat IPC: 0.165748 cumulative IPC: 0.153003 (Simulation time: 1 hr 2 min 1 sec) 
Heartbeat CPU 0 instructions: 394000002 cycles: 2569501290 heartbeat IPC: 0.142742 cumulative IPC: 0.152975 (Simulation time: 1 hr 2 min 16 sec) 
Heartbeat CPU 0 instructions: 395000002 cycles: 2575766695 heartbeat IPC: 0.159607 cumulative IPC: 0.152992 (Simulation time: 1 hr 2 min 31 sec) 
Heartbeat CPU 0 instructions: 396000000 cycles: 2581914576 heartbeat IPC: 0.162657 cumulative IPC: 0.153015 (Simulation time: 1 hr 2 min 46 sec) 
Heartbeat CPU 0 instructions: 397000000 cycles: 2588742881 heartbeat IPC: 0.146449 cumulative IPC: 0.152997 (Simulation time: 1 hr 2 min 57 sec) 
Heartbeat CPU 0 instructions: 398000002 cycles: 2595225180 heartbeat IPC: 0.154267 cumulative IPC: 0.153 (Simulation time: 1 hr 3 min 9 sec) 
Heartbeat CPU 0 instructions: 399000000 cycles: 2602403500 heartbeat IPC: 0.139308 cumulative IPC: 0.152963 (Simulation time: 1 hr 3 min 18 sec) 
Heartbeat CPU 0 instructions: 400000000 cycles: 2609616341 heartbeat IPC: 0.138642 cumulative IPC: 0.152923 (Simulation time: 1 hr 3 min 29 sec) 
Heartbeat CPU 0 instructions: 401000001 cycles: 2615785019 heartbeat IPC: 0.162109 cumulative IPC: 0.152945 (Simulation time: 1 hr 3 min 40 sec) 
Heartbeat CPU 0 instructions: 402000002 cycles: 2621877752 heartbeat IPC: 0.16413 cumulative IPC: 0.152971 (Simulation time: 1 hr 3 min 49 sec) 
Heartbeat CPU 0 instructions: 403000002 cycles: 2628991850 heartbeat IPC: 0.140566 cumulative IPC: 0.152937 (Simulation time: 1 hr 3 min 58 sec) 
Heartbeat CPU 0 instructions: 404000002 cycles: 2635253459 heartbeat IPC: 0.159703 cumulative IPC: 0.152953 (Simulation time: 1 hr 4 min 6 sec) 
Heartbeat CPU 0 instructions: 405000002 cycles: 2641486395 heartbeat IPC: 0.160438 cumulative IPC: 0.152971 (Simulation time: 1 hr 4 min 14 sec) 
Heartbeat CPU 0 instructions: 406000000 cycles: 2648250498 heartbeat IPC: 0.147839 cumulative IPC: 0.152958 (Simulation time: 1 hr 4 min 23 sec) 
Heartbeat CPU 0 instructions: 407000000 cycles: 2654338588 heartbeat IPC: 0.164255 cumulative IPC: 0.152984 (Simulation time: 1 hr 4 min 32 sec) 
Heartbeat CPU 0 instructions: 408000000 cycles: 2661350730 heartbeat IPC: 0.14261 cumulative IPC: 0.152956 (Simulation time: 1 hr 4 min 40 sec) 
Heartbeat CPU 0 instructions: 409000001 cycles: 2667674678 heartbeat IPC: 0.158129 cumulative IPC: 0.152969 (Simulation time: 1 hr 4 min 49 sec) 
Heartbeat CPU 0 instructions: 410000000 cycles: 2673761994 heartbeat IPC: 0.164276 cumulative IPC: 0.152994 (Simulation time: 1 hr 4 min 58 sec) 
Heartbeat CPU 0 instructions: 411000003 cycles: 2680071453 heartbeat IPC: 0.158493 cumulative IPC: 0.153007 (Simulation time: 1 hr 5 min 7 sec) 
Heartbeat CPU 0 instructions: 412000003 cycles: 2686253521 heartbeat IPC: 0.161758 cumulative IPC: 0.153028 (Simulation time: 1 hr 5 min 15 sec) 
Heartbeat CPU 0 instructions: 413000000 cycles: 2692788952 heartbeat IPC: 0.153012 cumulative IPC: 0.153027 (Simulation time: 1 hr 5 min 23 sec) 
Heartbeat CPU 0 instructions: 414000003 cycles: 2699545688 heartbeat IPC: 0.148001 cumulative IPC: 0.153015 (Simulation time: 1 hr 5 min 37 sec) 
Heartbeat CPU 0 instructions: 415000003 cycles: 2706300495 heartbeat IPC: 0.148043 cumulative IPC: 0.153002 (Simulation time: 1 hr 5 min 52 sec) 
Heartbeat CPU 0 instructions: 416000001 cycles: 2712604491 heartbeat IPC: 0.158629 cumulative IPC: 0.153016 (Simulation time: 1 hr 6 min 7 sec) 
Heartbeat CPU 0 instructions: 417000001 cycles: 2719568450 heartbeat IPC: 0.143596 cumulative IPC: 0.152991 (Simulation time: 1 hr 6 min 22 sec) 
Heartbeat CPU 0 instructions: 418000000 cycles: 2727028697 heartbeat IPC: 0.134044 cumulative IPC: 0.15294 (Simulation time: 1 hr 6 min 36 sec) 
Heartbeat CPU 0 instructions: 419000000 cycles: 2734304163 heartbeat IPC: 0.137448 cumulative IPC: 0.152898 (Simulation time: 1 hr 6 min 45 sec) 
Heartbeat CPU 0 instructions: 420000000 cycles: 2740499633 heartbeat IPC: 0.161408 cumulative IPC: 0.152918 (Simulation time: 1 hr 6 min 54 sec) 
Heartbeat CPU 0 instructions: 421000003 cycles: 2747860599 heartbeat IPC: 0.135852 cumulative IPC: 0.152872 (Simulation time: 1 hr 7 min 5 sec) 
Heartbeat CPU 0 instructions: 422000001 cycles: 2753914347 heartbeat IPC: 0.165187 cumulative IPC: 0.152899 (Simulation time: 1 hr 7 min 18 sec) 
Heartbeat CPU 0 instructions: 423000002 cycles: 2760732211 heartbeat IPC: 0.146674 cumulative IPC: 0.152884 (Simulation time: 1 hr 7 min 34 sec) 
Heartbeat CPU 0 instructions: 424000000 cycles: 2766887202 heartbeat IPC: 0.162469 cumulative IPC: 0.152905 (Simulation time: 1 hr 7 min 48 sec) 
Heartbeat CPU 0 instructions: 425000000 cycles: 2774767046 heartbeat IPC: 0.126906 cumulative IPC: 0.152831 (Simulation time: 1 hr 8 min 3 sec) 
Heartbeat CPU 0 instructions: 426000002 cycles: 2781083345 heartbeat IPC: 0.158321 cumulative IPC: 0.152844 (Simulation time: 1 hr 8 min 18 sec) 
Heartbeat CPU 0 instructions: 427000002 cycles: 2787070672 heartbeat IPC: 0.167019 cumulative IPC: 0.152874 (Simulation time: 1 hr 8 min 28 sec) 
Heartbeat CPU 0 instructions: 428000000 cycles: 2793106303 heartbeat IPC: 0.165682 cumulative IPC: 0.152902 (Simulation time: 1 hr 8 min 36 sec) 
Heartbeat CPU 0 instructions: 429000000 cycles: 2800047392 heartbeat IPC: 0.14407 cumulative IPC: 0.15288 (Simulation time: 1 hr 8 min 45 sec) 
Heartbeat CPU 0 instructions: 430000002 cycles: 2806246766 heartbeat IPC: 0.161307 cumulative IPC: 0.152898 (Simulation time: 1 hr 8 min 53 sec) 
Heartbeat CPU 0 instructions: 431000000 cycles: 2812391176 heartbeat IPC: 0.162749 cumulative IPC: 0.15292 (Simulation time: 1 hr 9 min 2 sec) 
Heartbeat CPU 0 instructions: 432000000 cycles: 2818521935 heartbeat IPC: 0.163112 cumulative IPC: 0.152942 (Simulation time: 1 hr 9 min 10 sec) 
Heartbeat CPU 0 instructions: 433000001 cycles: 2824609516 heartbeat IPC: 0.164269 cumulative IPC: 0.152967 (Simulation time: 1 hr 9 min 19 sec) 
Heartbeat CPU 0 instructions: 434000002 cycles: 2831971955 heartbeat IPC: 0.135825 cumulative IPC: 0.152922 (Simulation time: 1 hr 9 min 28 sec) 
Heartbeat CPU 0 instructions: 435000000 cycles: 2839149313 heartbeat IPC: 0.139327 cumulative IPC: 0.152888 (Simulation time: 1 hr 9 min 37 sec) 
Heartbeat CPU 0 instructions: 436000000 cycles: 2845476546 heartbeat IPC: 0.158047 cumulative IPC: 0.152899 (Simulation time: 1 hr 9 min 46 sec) 
Heartbeat CPU 0 instructions: 437000002 cycles: 2852893834 heartbeat IPC: 0.13482 cumulative IPC: 0.152852 (Simulation time: 1 hr 9 min 55 sec) 
Heartbeat CPU 0 instructions: 438000000 cycles: 2859053897 heartbeat IPC: 0.162336 cumulative IPC: 0.152872 (Simulation time: 1 hr 10 min 6 sec) 
Heartbeat CPU 0 instructions: 439000002 cycles: 2865133239 heartbeat IPC: 0.164492 cumulative IPC: 0.152897 (Simulation time: 1 hr 10 min 15 sec) 
Heartbeat CPU 0 instructions: 440000000 cycles: 2871360687 heartbeat IPC: 0.160579 cumulative IPC: 0.152914 (Simulation time: 1 hr 10 min 24 sec) 
Heartbeat CPU 0 instructions: 441000003 cycles: 2877640653 heartbeat IPC: 0.159237 cumulative IPC: 0.152928 (Simulation time: 1 hr 10 min 33 sec) 
Heartbeat CPU 0 instructions: 442000002 cycles: 2884948946 heartbeat IPC: 0.136831 cumulative IPC: 0.152887 (Simulation time: 1 hr 10 min 41 sec) 
Heartbeat CPU 0 instructions: 443000001 cycles: 2891966787 heartbeat IPC: 0.142494 cumulative IPC: 0.152862 (Simulation time: 1 hr 10 min 58 sec) 
Heartbeat CPU 0 instructions: 444000001 cycles: 2898099634 heartbeat IPC: 0.163056 cumulative IPC: 0.152883 (Simulation time: 1 hr 11 min 13 sec) 
Heartbeat CPU 0 instructions: 445000000 cycles: 2904208213 heartbeat IPC: 0.163704 cumulative IPC: 0.152906 (Simulation time: 1 hr 11 min 26 sec) 
Heartbeat CPU 0 instructions: 446000000 cycles: 2910547938 heartbeat IPC: 0.157736 cumulative IPC: 0.152916 (Simulation time: 1 hr 11 min 37 sec) 
Heartbeat CPU 0 instructions: 447000002 cycles: 2916744955 heartbeat IPC: 0.161368 cumulative IPC: 0.152934 (Simulation time: 1 hr 11 min 46 sec) 
Heartbeat CPU 0 instructions: 448000003 cycles: 2922936288 heartbeat IPC: 0.161516 cumulative IPC: 0.152953 (Simulation time: 1 hr 11 min 59 sec) 
Heartbeat CPU 0 instructions: 449000000 cycles: 2929123446 heartbeat IPC: 0.161625 cumulative IPC: 0.152971 (Simulation time: 1 hr 12 min 14 sec) 
Heartbeat CPU 0 instructions: 450000000 cycles: 2935291977 heartbeat IPC: 0.162113 cumulative IPC: 0.15299 (Simulation time: 1 hr 12 min 28 sec) 

Warmup complete CPU 0 instructions: 450000001 cycles: 2935292038 (Simulation time: 1 hr 12 min 28 sec) 

Heartbeat CPU 0 instructions: 451000000 cycles: 2938524150 heartbeat IPC: 0.309389 cumulative IPC: 0.309395 (Simulation time: 1 hr 12 min 40 sec) 
Heartbeat CPU 0 instructions: 452000001 cycles: 2941814606 heartbeat IPC: 0.30391 cumulative IPC: 0.306628 (Simulation time: 1 hr 12 min 52 sec) 
Heartbeat CPU 0 instructions: 453000002 cycles: 2945077633 heartbeat IPC: 0.306464 cumulative IPC: 0.306573 (Simulation time: 1 hr 13 min 3 sec) 
Heartbeat CPU 0 instructions: 454000001 cycles: 2948323228 heartbeat IPC: 0.30811 cumulative IPC: 0.306956 (Simulation time: 1 hr 13 min 10 sec) 
Heartbeat CPU 0 instructions: 455000000 cycles: 2951525769 heartbeat IPC: 0.312252 cumulative IPC: 0.308001 (Simulation time: 1 hr 13 min 19 sec) 
Heartbeat CPU 0 instructions: 456000000 cycles: 2954770306 heartbeat IPC: 0.30821 cumulative IPC: 0.308036 (Simulation time: 1 hr 13 min 32 sec) 
Heartbeat CPU 0 instructions: 457000000 cycles: 2958020938 heartbeat IPC: 0.307632 cumulative IPC: 0.307978 (Simulation time: 1 hr 13 min 44 sec) 
Heartbeat CPU 0 instructions: 458000003 cycles: 2961242488 heartbeat IPC: 0.310411 cumulative IPC: 0.30828 (Simulation time: 1 hr 13 min 56 sec) 
Heartbeat CPU 0 instructions: 459000000 cycles: 2964513002 heartbeat IPC: 0.305761 cumulative IPC: 0.307998 (Simulation time: 1 hr 14 min 8 sec) 
Heartbeat CPU 0 instructions: 460000002 cycles: 2967717201 heartbeat IPC: 0.312091 cumulative IPC: 0.308402 (Simulation time: 1 hr 14 min 20 sec) 
Heartbeat CPU 0 instructions: 461000000 cycles: 2970979745 heartbeat IPC: 0.306509 cumulative IPC: 0.308229 (Simulation time: 1 hr 14 min 32 sec) 
Heartbeat CPU 0 instructions: 462000000 cycles: 2974211060 heartbeat IPC: 0.309472 cumulative IPC: 0.308333 (Simulation time: 1 hr 14 min 44 sec) 
Heartbeat CPU 0 instructions: 463000001 cycles: 2977385788 heartbeat IPC: 0.314988 cumulative IPC: 0.308834 (Simulation time: 1 hr 14 min 57 sec) 
Heartbeat CPU 0 instructions: 464000001 cycles: 2980742865 heartbeat IPC: 0.297878 cumulative IPC: 0.308025 (Simulation time: 1 hr 15 min 8 sec) 
Heartbeat CPU 0 instructions: 465000002 cycles: 2984032465 heartbeat IPC: 0.303989 cumulative IPC: 0.307753 (Simulation time: 1 hr 15 min 21 sec) 
Heartbeat CPU 0 instructions: 466000002 cycles: 2987401131 heartbeat IPC: 0.296853 cumulative IPC: 0.307048 (Simulation time: 1 hr 15 min 33 sec) 
Heartbeat CPU 0 instructions: 467000002 cycles: 2990743241 heartbeat IPC: 0.299212 cumulative IPC: 0.306576 (Simulation time: 1 hr 15 min 46 sec) 
Heartbeat CPU 0 instructions: 468000002 cycles: 2994034875 heartbeat IPC: 0.3038 cumulative IPC: 0.30642 (Simulation time: 1 hr 15 min 58 sec) 
Heartbeat CPU 0 instructions: 469000002 cycles: 2997549724 heartbeat IPC: 0.284507 cumulative IPC: 0.305183 (Simulation time: 1 hr 16 min 9 sec) 
Heartbeat CPU 0 instructions: 470000000 cycles: 3000847257 heartbeat IPC: 0.303256 cumulative IPC: 0.305086 (Simulation time: 1 hr 16 min 22 sec) 
Heartbeat CPU 0 instructions: 471000000 cycles: 3004179690 heartbeat IPC: 0.300081 cumulative IPC: 0.304844 (Simulation time: 1 hr 16 min 34 sec) 
Heartbeat CPU 0 instructions: 472000000 cycles: 3007491742 heartbeat IPC: 0.301928 cumulative IPC: 0.30471 (Simulation time: 1 hr 16 min 47 sec) 
Heartbeat CPU 0 instructions: 473000000 cycles: 3010783049 heartbeat IPC: 0.303831 cumulative IPC: 0.304672 (Simulation time: 1 hr 16 min 59 sec) 
Heartbeat CPU 0 instructions: 474000001 cycles: 3014019473 heartbeat IPC: 0.308983 cumulative IPC: 0.304849 (Simulation time: 1 hr 17 min 12 sec) 
Heartbeat CPU 0 instructions: 475000000 cycles: 3017215705 heartbeat IPC: 0.312868 cumulative IPC: 0.305162 (Simulation time: 1 hr 17 min 24 sec) 
Heartbeat CPU 0 instructions: 476000003 cycles: 3020847711 heartbeat IPC: 0.275331 cumulative IPC: 0.303896 (Simulation time: 1 hr 17 min 37 sec) 
Heartbeat CPU 0 instructions: 477000001 cycles: 3024114213 heartbeat IPC: 0.306137 cumulative IPC: 0.303978 (Simulation time: 1 hr 17 min 50 sec) 
Heartbeat CPU 0 instructions: 478000002 cycles: 3027489640 heartbeat IPC: 0.296259 cumulative IPC: 0.303696 (Simulation time: 1 hr 18 min 2 sec) 
Heartbeat CPU 0 instructions: 479000000 cycles: 3030715665 heartbeat IPC: 0.309978 cumulative IPC: 0.303908 (Simulation time: 1 hr 18 min 15 sec) 
Heartbeat CPU 0 instructions: 480000003 cycles: 3033935173 heartbeat IPC: 0.310607 cumulative IPC: 0.304127 (Simulation time: 1 hr 18 min 25 sec) 
Heartbeat CPU 0 instructions: 481000000 cycles: 3037095651 heartbeat IPC: 0.316407 cumulative IPC: 0.304508 (Simulation time: 1 hr 18 min 36 sec) 
Heartbeat CPU 0 instructions: 482000003 cycles: 3040223537 heartbeat IPC: 0.319706 cumulative IPC: 0.304961 (Simulation time: 1 hr 18 min 44 sec) 
Heartbeat CPU 0 instructions: 483000003 cycles: 3043698042 heartbeat IPC: 0.287811 cumulative IPC: 0.304411 (Simulation time: 1 hr 18 min 55 sec) 
Heartbeat CPU 0 instructions: 484000000 cycles: 3047276177 heartbeat IPC: 0.279474 cumulative IPC: 0.303614 (Simulation time: 1 hr 19 min 4 sec) 
Heartbeat CPU 0 instructions: 485000002 cycles: 3050701933 heartbeat IPC: 0.291907 cumulative IPC: 0.303267 (Simulation time: 1 hr 19 min 11 sec) 
Heartbeat CPU 0 instructions: 486000000 cycles: 3054231135 heartbeat IPC: 0.28335 cumulative IPC: 0.302676 (Simulation time: 1 hr 19 min 22 sec) 
Heartbeat CPU 0 instructions: 487000000 cycles: 3057461946 heartbeat IPC: 0.30952 cumulative IPC: 0.302857 (Simulation time: 1 hr 19 min 35 sec) 
Heartbeat CPU 0 instructions: 488000001 cycles: 3060761603 heartbeat IPC: 0.303062 cumulative IPC: 0.302862 (Simulation time: 1 hr 19 min 48 sec) 
Heartbeat CPU 0 instructions: 489000000 cycles: 3064025220 heartbeat IPC: 0.306408 cumulative IPC: 0.302952 (Simulation time: 1 hr 20 min 0 sec) 
Heartbeat CPU 0 instructions: 490000002 cycles: 3067209616 heartbeat IPC: 0.314032 cumulative IPC: 0.30322 (Simulation time: 1 hr 20 min 12 sec) 
Heartbeat CPU 0 instructions: 491000000 cycles: 3070439869 heartbeat IPC: 0.309573 cumulative IPC: 0.303371 (Simulation time: 1 hr 20 min 25 sec) 
Heartbeat CPU 0 instructions: 492000002 cycles: 3073597004 heartbeat IPC: 0.316743 cumulative IPC: 0.303677 (Simulation time: 1 hr 20 min 36 sec) 
Heartbeat CPU 0 instructions: 493000002 cycles: 3077182632 heartbeat IPC: 0.278891 cumulative IPC: 0.30305 (Simulation time: 1 hr 20 min 48 sec) 
Heartbeat CPU 0 instructions: 494000000 cycles: 3080572647 heartbeat IPC: 0.294983 cumulative IPC: 0.302862 (Simulation time: 1 hr 21 min 1 sec) 
Heartbeat CPU 0 instructions: 495000000 cycles: 3083832657 heartbeat IPC: 0.306748 cumulative IPC: 0.302947 (Simulation time: 1 hr 21 min 13 sec) 
Heartbeat CPU 0 instructions: 496000001 cycles: 3087441383 heartbeat IPC: 0.277106 cumulative IPC: 0.302335 (Simulation time: 1 hr 21 min 22 sec) 
Heartbeat CPU 0 instructions: 497000001 cycles: 3090844832 heartbeat IPC: 0.29382 cumulative IPC: 0.302148 (Simulation time: 1 hr 21 min 29 sec) 
Heartbeat CPU 0 instructions: 498000000 cycles: 3094097760 heartbeat IPC: 0.307415 cumulative IPC: 0.302256 (Simulation time: 1 hr 21 min 40 sec) 
Heartbeat CPU 0 instructions: 499000000 cycles: 3097310462 heartbeat IPC: 0.311264 cumulative IPC: 0.302435 (Simulation time: 1 hr 21 min 52 sec) 
Heartbeat CPU 0 instructions: 500000000 cycles: 3100563360 heartbeat IPC: 0.307418 cumulative IPC: 0.302533 (Simulation time: 1 hr 22 min 5 sec) 
Heartbeat CPU 0 instructions: 501000002 cycles: 3103807098 heartbeat IPC: 0.308287 cumulative IPC: 0.302644 (Simulation time: 1 hr 22 min 17 sec) 
Heartbeat CPU 0 instructions: 502000002 cycles: 3107029984 heartbeat IPC: 0.310281 cumulative IPC: 0.302787 (Simulation time: 1 hr 22 min 29 sec) 
Heartbeat CPU 0 instructions: 503000002 cycles: 3110235014 heartbeat IPC: 0.31201 cumulative IPC: 0.302956 (Simulation time: 1 hr 22 min 41 sec) 
Heartbeat CPU 0 instructions: 504000000 cycles: 3113380476 heartbeat IPC: 0.317918 cumulative IPC: 0.30322 (Simulation time: 1 hr 22 min 54 sec) 
Heartbeat CPU 0 instructions: 505000002 cycles: 3116579635 heartbeat IPC: 0.312583 cumulative IPC: 0.303385 (Simulation time: 1 hr 23 min 6 sec) 
Heartbeat CPU 0 instructions: 506000000 cycles: 3119907117 heartbeat IPC: 0.300527 cumulative IPC: 0.303334 (Simulation time: 1 hr 23 min 16 sec) 
Heartbeat CPU 0 instructions: 507000002 cycles: 3123247148 heartbeat IPC: 0.299399 cumulative IPC: 0.303264 (Simulation time: 1 hr 23 min 29 sec) 
Heartbeat CPU 0 instructions: 508000000 cycles: 3126618953 heartbeat IPC: 0.296576 cumulative IPC: 0.303146 (Simulation time: 1 hr 23 min 41 sec) 
Heartbeat CPU 0 instructions: 509000000 cycles: 3129964462 heartbeat IPC: 0.298908 cumulative IPC: 0.303073 (Simulation time: 1 hr 23 min 54 sec) 
Heartbeat CPU 0 instructions: 510000000 cycles: 3133265217 heartbeat IPC: 0.302961 cumulative IPC: 0.303071 (Simulation time: 1 hr 24 min 6 sec) 
Heartbeat CPU 0 instructions: 511000000 cycles: 3136530612 heartbeat IPC: 0.306242 cumulative IPC: 0.303123 (Simulation time: 1 hr 24 min 18 sec) 
Heartbeat CPU 0 instructions: 512000000 cycles: 3139733701 heartbeat IPC: 0.312199 cumulative IPC: 0.303265 (Simulation time: 1 hr 24 min 31 sec) 
Heartbeat CPU 0 instructions: 513000000 cycles: 3142998083 heartbeat IPC: 0.306337 cumulative IPC: 0.303313 (Simulation time: 1 hr 24 min 43 sec) 
Heartbeat CPU 0 instructions: 514000000 cycles: 3146290907 heartbeat IPC: 0.303691 cumulative IPC: 0.303319 (Simulation time: 1 hr 24 min 53 sec) 
Heartbeat CPU 0 instructions: 515000002 cycles: 3149521379 heartbeat IPC: 0.309553 cumulative IPC: 0.303413 (Simulation time: 1 hr 25 min 0 sec) 
Heartbeat CPU 0 instructions: 516000002 cycles: 3152734651 heartbeat IPC: 0.311209 cumulative IPC: 0.303528 (Simulation time: 1 hr 25 min 9 sec) 
Heartbeat CPU 0 instructions: 517000000 cycles: 3155973043 heartbeat IPC: 0.308795 cumulative IPC: 0.303606 (Simulation time: 1 hr 25 min 21 sec) 
Heartbeat CPU 0 instructions: 518000002 cycles: 3159144713 heartbeat IPC: 0.315292 cumulative IPC: 0.303771 (Simulation time: 1 hr 25 min 34 sec) 
Heartbeat CPU 0 instructions: 519000000 cycles: 3162287863 heartbeat IPC: 0.318152 cumulative IPC: 0.30397 (Simulation time: 1 hr 25 min 46 sec) 
Heartbeat CPU 0 instructions: 520000002 cycles: 3165641065 heartbeat IPC: 0.298223 cumulative IPC: 0.303887 (Simulation time: 1 hr 25 min 58 sec) 
Heartbeat CPU 0 instructions: 521000001 cycles: 3168990879 heartbeat IPC: 0.298524 cumulative IPC: 0.30381 (Simulation time: 1 hr 26 min 9 sec) 
Heartbeat CPU 0 instructions: 522000003 cycles: 3172520404 heartbeat IPC: 0.283325 cumulative IPC: 0.303505 (Simulation time: 1 hr 26 min 20 sec) 
Heartbeat CPU 0 instructions: 523000003 cycles: 3175887672 heartbeat IPC: 0.296977 cumulative IPC: 0.303414 (Simulation time: 1 hr 26 min 33 sec) 
Heartbeat CPU 0 instructions: 524000002 cycles: 3179198353 heartbeat IPC: 0.302052 cumulative IPC: 0.303395 (Simulation time: 1 hr 26 min 46 sec) 
Heartbeat CPU 0 instructions: 525000000 cycles: 3182451940 heartbeat IPC: 0.307352 cumulative IPC: 0.303447 (Simulation time: 1 hr 26 min 57 sec) 
Heartbeat CPU 0 instructions: 526000002 cycles: 3185700477 heartbeat IPC: 0.307831 cumulative IPC: 0.303504 (Simulation time: 1 hr 27 min 6 sec) 
Heartbeat CPU 0 instructions: 527000002 cycles: 3188942723 heartbeat IPC: 0.308428 cumulative IPC: 0.303567 (Simulation time: 1 hr 27 min 19 sec) 
Heartbeat CPU 0 instructions: 528000000 cycles: 3192124430 heartbeat IPC: 0.314296 cumulative IPC: 0.3037 (Simulation time: 1 hr 27 min 31 sec) 
Heartbeat CPU 0 instructions: 529000002 cycles: 3195446316 heartbeat IPC: 0.301034 cumulative IPC: 0.303666 (Simulation time: 1 hr 27 min 40 sec) 
Heartbeat CPU 0 instructions: 530000000 cycles: 3198844321 heartbeat IPC: 0.29429 cumulative IPC: 0.303545 (Simulation time: 1 hr 27 min 51 sec) 
Heartbeat CPU 0 instructions: 531000001 cycles: 3202211240 heartbeat IPC: 0.297008 cumulative IPC: 0.303463 (Simulation time: 1 hr 28 min 1 sec) 
Heartbeat CPU 0 instructions: 532000002 cycles: 3205544006 heartbeat IPC: 0.300051 cumulative IPC: 0.303421 (Simulation time: 1 hr 28 min 13 sec) 
Heartbeat CPU 0 instructions: 533000001 cycles: 3208815778 heartbeat IPC: 0.305644 cumulative IPC: 0.303447 (Simulation time: 1 hr 28 min 23 sec) 
Heartbeat CPU 0 instructions: 534000003 cycles: 3212083075 heartbeat IPC: 0.306064 cumulative IPC: 0.303478 (Simulation time: 1 hr 28 min 33 sec) 
Heartbeat CPU 0 instructions: 535000000 cycles: 3215469822 heartbeat IPC: 0.295268 cumulative IPC: 0.303379 (Simulation time: 1 hr 28 min 41 sec) 
Heartbeat CPU 0 instructions: 536000002 cycles: 3218840504 heartbeat IPC: 0.296676 cumulative IPC: 0.303299 (Simulation time: 1 hr 28 min 53 sec) 
Heartbeat CPU 0 instructions: 537000002 cycles: 3222139298 heartbeat IPC: 0.303141 cumulative IPC: 0.303297 (Simulation time: 1 hr 29 min 5 sec) 
Heartbeat CPU 0 instructions: 538000000 cycles: 3225432453 heartbeat IPC: 0.30366 cumulative IPC: 0.303301 (Simulation time: 1 hr 29 min 17 sec) 
Heartbeat CPU 0 instructions: 539000000 cycles: 3228732992 heartbeat IPC: 0.302981 cumulative IPC: 0.303298 (Simulation time: 1 hr 29 min 29 sec) 
Heartbeat CPU 0 instructions: 540000002 cycles: 3232096409 heartbeat IPC: 0.297317 cumulative IPC: 0.30323 (Simulation time: 1 hr 29 min 39 sec) 
Heartbeat CPU 0 instructions: 541000002 cycles: 3235387466 heartbeat IPC: 0.303854 cumulative IPC: 0.303237 (Simulation time: 1 hr 29 min 50 sec) 
Heartbeat CPU 0 instructions: 542000001 cycles: 3238683079 heartbeat IPC: 0.303433 cumulative IPC: 0.303239 (Simulation time: 1 hr 29 min 59 sec) 
Heartbeat CPU 0 instructions: 543000003 cycles: 3241989561 heartbeat IPC: 0.302437 cumulative IPC: 0.30323 (Simulation time: 1 hr 30 min 6 sec) 
Heartbeat CPU 0 instructions: 544000001 cycles: 3245231785 heartbeat IPC: 0.30843 cumulative IPC: 0.303285 (Simulation time: 1 hr 30 min 17 sec) 
[...]
Heartbeat CPU 0 instructions: 835000003 cycles: 4226433888 heartbeat IPC: 0.273787 cumulative IPC: 0.298186 (Simulation time: 2 hr 15 min 20 sec) 
Heartbeat CPU 0 instructions: 836000000 cycles: 4229832449 heartbeat IPC: 0.294241 cumulative IPC: 0.298175 (Simulation time: 2 hr 15 min 32 sec) 
Heartbeat CPU 0 instructions: 837000000 cycles: 4233233622 heartbeat IPC: 0.294016 cumulative IPC: 0.298164 (Simulation time: 2 hr 15 min 43 sec) 
Heartbeat CPU 0 instructions: 838000000 cycles: 4236625471 heartbeat IPC: 0.294824 cumulative IPC: 0.298156 (Simulation time: 2 hr 15 min 52 sec) 
Heartbeat CPU 0 instructions: 839000001 cycles: 4240019176 heartbeat IPC: 0.294663 cumulative IPC: 0.298147 (Simulation time: 2 hr 15 min 59 sec) 
Heartbeat CPU 0 instructions: 840000003 cycles: 4243279653 heartbeat IPC: 0.306704 cumulative IPC: 0.298168 (Simulation time: 2 hr 16 min 5 sec) 
Heartbeat CPU 0 instructions: 841000002 cycles: 4246790493 heartbeat IPC: 0.284832 cumulative IPC: 0.298132 (Simulation time: 2 hr 16 min 12 sec) 
Heartbeat CPU 0 instructions: 842000002 cycles: 4250101311 heartbeat IPC: 0.30204 cumulative IPC: 0.298142 (Simulation time: 2 hr 16 min 20 sec) 
Heartbeat CPU 0 instructions: 843000002 cycles: 4253675071 heartbeat IPC: 0.279817 cumulative IPC: 0.298092 (Simulation time: 2 hr 16 min 27 sec) 
Heartbeat CPU 0 instructions: 844000003 cycles: 4257048759 heartbeat IPC: 0.296412 cumulative IPC: 0.298088 (Simulation time: 2 hr 16 min 34 sec) 
Heartbeat CPU 0 instructions: 845000002 cycles: 4260512737 heartbeat IPC: 0.288685 cumulative IPC: 0.298064 (Simulation time: 2 hr 16 min 41 sec) 
Heartbeat CPU 0 instructions: 846000003 cycles: 4263821012 heartbeat IPC: 0.302273 cumulative IPC: 0.298074 (Simulation time: 2 hr 16 min 48 sec) 
Heartbeat CPU 0 instructions: 847000000 cycles: 4267219913 heartbeat IPC: 0.294212 cumulative IPC: 0.298064 (Simulation time: 2 hr 16 min 57 sec) 
Heartbeat CPU 0 instructions: 848000000 cycles: 4270528338 heartbeat IPC: 0.302259 cumulative IPC: 0.298075 (Simulation time: 2 hr 17 min 8 sec) 
Heartbeat CPU 0 instructions: 849000003 cycles: 4273871210 heartbeat IPC: 0.299145 cumulative IPC: 0.298077 (Simulation time: 2 hr 17 min 18 sec) 
Heartbeat CPU 0 instructions: 850000003 cycles: 4277167504 heartbeat IPC: 0.303371 cumulative IPC: 0.29809 (Simulation time: 2 hr 17 min 25 sec) 
Heartbeat CPU 0 instructions: 851000002 cycles: 4280607408 heartbeat IPC: 0.290706 cumulative IPC: 0.298071 (Simulation time: 2 hr 17 min 33 sec) 
Heartbeat CPU 0 instructions: 852000003 cycles: 4283971220 heartbeat IPC: 0.297282 cumulative IPC: 0.298069 (Simulation time: 2 hr 17 min 40 sec) 
Heartbeat CPU 0 instructions: 853000001 cycles: 4287437414 heartbeat IPC: 0.2885 cumulative IPC: 0.298045 (Simulation time: 2 hr 17 min 47 sec) 
Heartbeat CPU 0 instructions: 854000000 cycles: 4290652582 heartbeat IPC: 0.311025 cumulative IPC: 0.298076 (Simulation time: 2 hr 17 min 52 sec) 
Heartbeat CPU 0 instructions: 855000002 cycles: 4294250390 heartbeat IPC: 0.277948 cumulative IPC: 0.298022 (Simulation time: 2 hr 17 min 58 sec) 
Heartbeat CPU 0 instructions: 856000002 cycles: 4297898855 heartbeat IPC: 0.274088 cumulative IPC: 0.297958 (Simulation time: 2 hr 18 min 5 sec) 
Heartbeat CPU 0 instructions: 857000001 cycles: 4301190132 heartbeat IPC: 0.303833 cumulative IPC: 0.297972 (Simulation time: 2 hr 18 min 12 sec) 
Heartbeat CPU 0 instructions: 858000000 cycles: 4304553533 heartbeat IPC: 0.297318 cumulative IPC: 0.297971 (Simulation time: 2 hr 18 min 20 sec) 
Heartbeat CPU 0 instructions: 859000003 cycles: 4307819282 heartbeat IPC: 0.306209 cumulative IPC: 0.29799 (Simulation time: 2 hr 18 min 27 sec) 
Heartbeat CPU 0 instructions: 860000001 cycles: 4311253118 heartbeat IPC: 0.291219 cumulative IPC: 0.297974 (Simulation time: 2 hr 18 min 37 sec) 
Heartbeat CPU 0 instructions: 861000003 cycles: 4314610239 heartbeat IPC: 0.297875 cumulative IPC: 0.297973 (Simulation time: 2 hr 18 min 43 sec) 
Heartbeat CPU 0 instructions: 862000000 cycles: 4317991158 heartbeat IPC: 0.295777 cumulative IPC: 0.297968 (Simulation time: 2 hr 18 min 54 sec) 
Heartbeat CPU 0 instructions: 863000003 cycles: 4321350451 heartbeat IPC: 0.297683 cumulative IPC: 0.297967 (Simulation time: 2 hr 19 min 5 sec) 
Heartbeat CPU 0 instructions: 864000000 cycles: 4324779350 heartbeat IPC: 0.291638 cumulative IPC: 0.297952 (Simulation time: 2 hr 19 min 14 sec) 
Heartbeat CPU 0 instructions: 865000001 cycles: 4328078503 heartbeat IPC: 0.303108 cumulative IPC: 0.297964 (Simulation time: 2 hr 19 min 22 sec) 
Heartbeat CPU 0 instructions: 866000003 cycles: 4331519197 heartbeat IPC: 0.29064 cumulative IPC: 0.297946 (Simulation time: 2 hr 19 min 31 sec) 
Heartbeat CPU 0 instructions: 867000001 cycles: 4334885081 heartbeat IPC: 0.297098 cumulative IPC: 0.297944 (Simulation time: 2 hr 19 min 42 sec) 
Heartbeat CPU 0 instructions: 868000000 cycles: 4338255532 heartbeat IPC: 0.296696 cumulative IPC: 0.297941 (Simulation time: 2 hr 19 min 52 sec) 
Heartbeat CPU 0 instructions: 869000000 cycles: 4341737381 heartbeat IPC: 0.287204 cumulative IPC: 0.297914 (Simulation time: 2 hr 20 min 3 sec) 
Heartbeat CPU 0 instructions: 870000000 cycles: 4345077462 heartbeat IPC: 0.299394 cumulative IPC: 0.297918 (Simulation time: 2 hr 20 min 12 sec) 
Heartbeat CPU 0 instructions: 871000003 cycles: 4348530789 heartbeat IPC: 0.289577 cumulative IPC: 0.297897 (Simulation time: 2 hr 20 min 19 sec) 
Heartbeat CPU 0 instructions: 872000002 cycles: 4351902598 heartbeat IPC: 0.296576 cumulative IPC: 0.297894 (Simulation time: 2 hr 20 min 26 sec) 
Heartbeat CPU 0 instructions: 873000000 cycles: 4355278208 heartbeat IPC: 0.296242 cumulative IPC: 0.29789 (Simulation time: 2 hr 20 min 33 sec) 
Heartbeat CPU 0 instructions: 874000002 cycles: 4358545542 heartbeat IPC: 0.306061 cumulative IPC: 0.297909 (Simulation time: 2 hr 20 min 40 sec) 
Heartbeat CPU 0 instructions: 875000000 cycles: 4361942738 heartbeat IPC: 0.29436 cumulative IPC: 0.297901 (Simulation time: 2 hr 20 min 46 sec) 
Heartbeat CPU 0 instructions: 876000001 cycles: 4365496999 heartbeat IPC: 0.281353 cumulative IPC: 0.297859 (Simulation time: 2 hr 20 min 53 sec) 
Heartbeat CPU 0 instructions: 877000001 cycles: 4368901379 heartbeat IPC: 0.293739 cumulative IPC: 0.29785 (Simulation time: 2 hr 21 min 0 sec) 
Heartbeat CPU 0 instructions: 878000003 cycles: 4372313109 heartbeat IPC: 0.293107 cumulative IPC: 0.297838 (Simulation time: 2 hr 21 min 7 sec) 
Heartbeat CPU 0 instructions: 879000001 cycles: 4375702159 heartbeat IPC: 0.295067 cumulative IPC: 0.297832 (Simulation time: 2 hr 21 min 14 sec) 
Heartbeat CPU 0 instructions: 880000000 cycles: 4379089796 heartbeat IPC: 0.295191 cumulative IPC: 0.297826 (Simulation time: 2 hr 21 min 20 sec) 
Heartbeat CPU 0 instructions: 881000000 cycles: 4382481105 heartbeat IPC: 0.294871 cumulative IPC: 0.297819 (Simulation time: 2 hr 21 min 28 sec) 
Heartbeat CPU 0 instructions: 882000002 cycles: 4385780392 heartbeat IPC: 0.303096 cumulative IPC: 0.297831 (Simulation time: 2 hr 21 min 40 sec) 
Heartbeat CPU 0 instructions: 883000000 cycles: 4389234298 heartbeat IPC: 0.289527 cumulative IPC: 0.297811 (Simulation time: 2 hr 21 min 49 sec) 
Heartbeat CPU 0 instructions: 884000003 cycles: 4392529149 heartbeat IPC: 0.303505 cumulative IPC: 0.297824 (Simulation time: 2 hr 22 min 1 sec) 
Heartbeat CPU 0 instructions: 885000002 cycles: 4396041744 heartbeat IPC: 0.28469 cumulative IPC: 0.297792 (Simulation time: 2 hr 22 min 12 sec) 
Heartbeat CPU 0 instructions: 886000002 cycles: 4399382368 heartbeat IPC: 0.299345 cumulative IPC: 0.297796 (Simulation time: 2 hr 22 min 24 sec) 
Heartbeat CPU 0 instructions: 887000000 cycles: 4402820937 heartbeat IPC: 0.290818 cumulative IPC: 0.297779 (Simulation time: 2 hr 22 min 36 sec) 
Heartbeat CPU 0 instructions: 888000000 cycles: 4406143216 heartbeat IPC: 0.300998 cumulative IPC: 0.297787 (Simulation time: 2 hr 22 min 48 sec) 
Heartbeat CPU 0 instructions: 889000003 cycles: 4409533231 heartbeat IPC: 0.294985 cumulative IPC: 0.29778 (Simulation time: 2 hr 23 min 0 sec) 
Heartbeat CPU 0 instructions: 890000000 cycles: 4412753177 heartbeat IPC: 0.310563 cumulative IPC: 0.297808 (Simulation time: 2 hr 23 min 11 sec) 
Heartbeat CPU 0 instructions: 891000000 cycles: 4416154649 heartbeat IPC: 0.29399 cumulative IPC: 0.297799 (Simulation time: 2 hr 23 min 22 sec) 
Heartbeat CPU 0 instructions: 892000000 cycles: 4419622967 heartbeat IPC: 0.288324 cumulative IPC: 0.297777 (Simulation time: 2 hr 23 min 32 sec) 
Heartbeat CPU 0 instructions: 893000001 cycles: 4423057537 heartbeat IPC: 0.291158 cumulative IPC: 0.297762 (Simulation time: 2 hr 23 min 44 sec) 
Heartbeat CPU 0 instructions: 894000002 cycles: 4426440408 heartbeat IPC: 0.295607 cumulative IPC: 0.297757 (Simulation time: 2 hr 23 min 50 sec) 
Heartbeat CPU 0 instructions: 895000003 cycles: 4429849390 heartbeat IPC: 0.293343 cumulative IPC: 0.297747 (Simulation time: 2 hr 23 min 59 sec) 
Heartbeat CPU 0 instructions: 896000003 cycles: 4433148545 heartbeat IPC: 0.303108 cumulative IPC: 0.297759 (Simulation time: 2 hr 24 min 8 sec) 
Heartbeat CPU 0 instructions: 897000002 cycles: 4436507184 heartbeat IPC: 0.297739 cumulative IPC: 0.297759 (Simulation time: 2 hr 24 min 15 sec) 
Heartbeat CPU 0 instructions: 898000003 cycles: 4439813030 heartbeat IPC: 0.302495 cumulative IPC: 0.297769 (Simulation time: 2 hr 24 min 21 sec) 
Heartbeat CPU 0 instructions: 899000002 cycles: 4443242174 heartbeat IPC: 0.291618 cumulative IPC: 0.297755 (Simulation time: 2 hr 24 min 27 sec) 
Heartbeat CPU 0 instructions: 900000001 cycles: 4446442151 heartbeat IPC: 0.312502 cumulative IPC: 0.297786 (Simulation time: 2 hr 24 min 34 sec) 
Heartbeat CPU 0 instructions: 901000002 cycles: 4449842744 heartbeat IPC: 0.294067 cumulative IPC: 0.297778 (Simulation time: 2 hr 24 min 40 sec) 
Heartbeat CPU 0 instructions: 902000000 cycles: 4453462307 heartbeat IPC: 0.276276 cumulative IPC: 0.297727 (Simulation time: 2 hr 24 min 47 sec) 
Heartbeat CPU 0 instructions: 903000001 cycles: 4456892826 heartbeat IPC: 0.291501 cumulative IPC: 0.297713 (Simulation time: 2 hr 24 min 54 sec) 
Heartbeat CPU 0 instructions: 904000001 cycles: 4460209788 heartbeat IPC: 0.301481 cumulative IPC: 0.297721 (Simulation time: 2 hr 25 min 2 sec) 
Heartbeat CPU 0 instructions: 905000001 cycles: 4463643937 heartbeat IPC: 0.291193 cumulative IPC: 0.297706 (Simulation time: 2 hr 25 min 11 sec) 
Heartbeat CPU 0 instructions: 906000001 cycles: 4466955153 heartbeat IPC: 0.302004 cumulative IPC: 0.297716 (Simulation time: 2 hr 25 min 24 sec) 
Heartbeat CPU 0 instructions: 907000003 cycles: 4470307976 heartbeat IPC: 0.298257 cumulative IPC: 0.297717 (Simulation time: 2 hr 25 min 35 sec) 
Heartbeat CPU 0 instructions: 908000002 cycles: 4473621628 heartbeat IPC: 0.301782 cumulative IPC: 0.297726 (Simulation time: 2 hr 25 min 45 sec) 
Heartbeat CPU 0 instructions: 909000000 cycles: 4477314862 heartbeat IPC: 0.270765 cumulative IPC: 0.297661 (Simulation time: 2 hr 25 min 58 sec) 
Heartbeat CPU 0 instructions: 910000003 cycles: 4480768212 heartbeat IPC: 0.289575 cumulative IPC: 0.297643 (Simulation time: 2 hr 26 min 11 sec) 
Heartbeat CPU 0 instructions: 911000002 cycles: 4484073817 heartbeat IPC: 0.302516 cumulative IPC: 0.297653 (Simulation time: 2 hr 26 min 23 sec) 
Heartbeat CPU 0 instructions: 912000001 cycles: 4487448174 heartbeat IPC: 0.296352 cumulative IPC: 0.29765 (Simulation time: 2 hr 26 min 36 sec) 
Heartbeat CPU 0 instructions: 913000000 cycles: 4490742578 heartbeat IPC: 0.303545 cumulative IPC: 0.297663 (Simulation time: 2 hr 26 min 47 sec) 
Heartbeat CPU 0 instructions: 914000000 cycles: 4494295207 heartbeat IPC: 0.281482 cumulative IPC: 0.297626 (Simulation time: 2 hr 26 min 54 sec) 
Heartbeat CPU 0 instructions: 915000003 cycles: 4497377242 heartbeat IPC: 0.324462 cumulative IPC: 0.297679 (Simulation time: 2 hr 26 min 59 sec) 
Heartbeat CPU 0 instructions: 916000000 cycles: 4501045015 heartbeat IPC: 0.272644 cumulative IPC: 0.29762 (Simulation time: 2 hr 27 min 7 sec) 
Heartbeat CPU 0 instructions: 917000000 cycles: 4504205434 heartbeat IPC: 0.316414 cumulative IPC: 0.297658 (Simulation time: 2 hr 27 min 13 sec) 
Heartbeat CPU 0 instructions: 918000001 cycles: 4507838279 heartbeat IPC: 0.275267 cumulative IPC: 0.297606 (Simulation time: 2 hr 27 min 25 sec) 
Heartbeat CPU 0 instructions: 919000001 cycles: 4511233014 heartbeat IPC: 0.294574 cumulative IPC: 0.2976 (Simulation time: 2 hr 27 min 32 sec) 
Heartbeat CPU 0 instructions: 920000000 cycles: 4514702025 heartbeat IPC: 0.288266 cumulative IPC: 0.297579 (Simulation time: 2 hr 27 min 39 sec) 
Heartbeat CPU 0 instructions: 921000000 cycles: 4518144404 heartbeat IPC: 0.290497 cumulative IPC: 0.297564 (Simulation time: 2 hr 27 min 45 sec) 
Heartbeat CPU 0 instructions: 922000003 cycles: 4521430861 heartbeat IPC: 0.30428 cumulative IPC: 0.297578 (Simulation time: 2 hr 27 min 51 sec) 
Heartbeat CPU 0 instructions: 923000001 cycles: 4524833652 heartbeat IPC: 0.293876 cumulative IPC: 0.29757 (Simulation time: 2 hr 27 min 58 sec) 
Heartbeat CPU 0 instructions: 924000000 cycles: 4528257809 heartbeat IPC: 0.292042 cumulative IPC: 0.297558 (Simulation time: 2 hr 28 min 5 sec) 
Heartbeat CPU 0 instructions: 925000002 cycles: 4531323773 heartbeat IPC: 0.326162 cumulative IPC: 0.297613 (Simulation time: 2 hr 28 min 11 sec) 
Heartbeat CPU 0 instructions: 926000001 cycles: 4534937222 heartbeat IPC: 0.276744 cumulative IPC: 0.297566 (Simulation time: 2 hr 28 min 18 sec) 
Heartbeat CPU 0 instructions: 927000003 cycles: 4538139486 heartbeat IPC: 0.31228 cumulative IPC: 0.297595 (Simulation time: 2 hr 28 min 24 sec) 
Heartbeat CPU 0 instructions: 928000003 cycles: 4541770904 heartbeat IPC: 0.275375 cumulative IPC: 0.297545 (Simulation time: 2 hr 28 min 31 sec) 
Heartbeat CPU 0 instructions: 929000002 cycles: 4544920272 heartbeat IPC: 0.317524 cumulative IPC: 0.297584 (Simulation time: 2 hr 28 min 38 sec) 
Heartbeat CPU 0 instructions: 930000003 cycles: 4548528393 heartbeat IPC: 0.277153 cumulative IPC: 0.297539 (Simulation time: 2 hr 28 min 50 sec) 
Heartbeat CPU 0 instructions: 931000003 cycles: 4551886118 heartbeat IPC: 0.297821 cumulative IPC: 0.297539 (Simulation time: 2 hr 29 min 1 sec) 
Heartbeat CPU 0 instructions: 932000001 cycles: 4555182235 heartbeat IPC: 0.303387 cumulative IPC: 0.297551 (Simulation time: 2 hr 29 min 14 sec) 
Heartbeat CPU 0 instructions: 933000000 cycles: 4558636249 heartbeat IPC: 0.289518 cumulative IPC: 0.297534 (Simulation time: 2 hr 29 min 26 sec) 
Heartbeat CPU 0 instructions: 934000000 cycles: 4561950825 heartbeat IPC: 0.301698 cumulative IPC: 0.297542 (Simulation time: 2 hr 29 min 39 sec) 
Heartbeat CPU 0 instructions: 935000000 cycles: 4565368167 heartbeat IPC: 0.292625 cumulative IPC: 0.297532 (Simulation time: 2 hr 29 min 51 sec) 
Heartbeat CPU 0 instructions: 936000000 cycles: 4568665912 heartbeat IPC: 0.303238 cumulative IPC: 0.297544 (Simulation time: 2 hr 30 min 4 sec) 
Heartbeat CPU 0 instructions: 937000002 cycles: 4572114800 heartbeat IPC: 0.289949 cumulative IPC: 0.297528 (Simulation time: 2 hr 30 min 15 sec) 
Heartbeat CPU 0 instructions: 938000001 cycles: 4575570708 heartbeat IPC: 0.289359 cumulative IPC: 0.29751 (Simulation time: 2 hr 30 min 28 sec) 
Heartbeat CPU 0 instructions: 939000000 cycles: 4578904172 heartbeat IPC: 0.299988 cumulative IPC: 0.297515 (Simulation time: 2 hr 30 min 40 sec) 
Heartbeat CPU 0 instructions: 940000000 cycles: 4582347692 heartbeat IPC: 0.290401 cumulative IPC: 0.297501 (Simulation time: 2 hr 30 min 53 sec) 
Heartbeat CPU 0 instructions: 941000002 cycles: 4585682902 heartbeat IPC: 0.299832 cumulative IPC: 0.297505 (Simulation time: 2 hr 31 min 5 sec) 
Heartbeat CPU 0 instructions: 942000001 cycles: 4589014746 heartbeat IPC: 0.300134 cumulative IPC: 0.297511 (Simulation time: 2 hr 31 min 17 sec) 
Heartbeat CPU 0 instructions: 943000002 cycles: 4592398688 heartbeat IPC: 0.295514 cumulative IPC: 0.297507 (Simulation time: 2 hr 31 min 24 sec) 
Heartbeat CPU 0 instructions: 944000003 cycles: 4595730630 heartbeat IPC: 0.300126 cumulative IPC: 0.297512 (Simulation time: 2 hr 31 min 32 sec) 
Heartbeat CPU 0 instructions: 945000001 cycles: 4599209260 heartbeat IPC: 0.287469 cumulative IPC: 0.297491 (Simulation time: 2 hr 31 min 38 sec) 
Heartbeat CPU 0 instructions: 946000000 cycles: 4602564202 heartbeat IPC: 0.298067 cumulative IPC: 0.297492 (Simulation time: 2 hr 31 min 46 sec) 
Heartbeat CPU 0 instructions: 947000001 cycles: 4605924675 heartbeat IPC: 0.297577 cumulative IPC: 0.297492 (Simulation time: 2 hr 31 min 53 sec) 
Heartbeat CPU 0 instructions: 948000003 cycles: 4609359095 heartbeat IPC: 0.291171 cumulative IPC: 0.297479 (Simulation time: 2 hr 32 min 0 sec) 
Heartbeat CPU 0 instructions: 949000001 cycles: 4612697425 heartbeat IPC: 0.29955 cumulative IPC: 0.297483 (Simulation time: 2 hr 32 min 7 sec) 
Heartbeat CPU 0 instructions: 950000003 cycles: 4616071057 heartbeat IPC: 0.296417 cumulative IPC: 0.297481 (Simulation time: 2 hr 32 min 14 sec) 
Finished CPU 0 instructions: 500000002 cycles: 1680779019 cumulative IPC: 0.297481 (Simulation time: 2 hr 32 min 14 sec) 

ChampSim completed all CPUs

Region of Interest Statistics

CPU 0 cumulative IPC: 0.297481 instructions: 500000002 cycles: 1680779019
L1D TOTAL     ACCESS:  184250546  HIT:  105547849  MISS:   78702697
L1D LOAD      ACCESS:  160128193  HIT:   82035189  MISS:   78093004
L1D RFO       ACCESS:   24122353  HIT:   23512660  MISS:     609693
L1D PREFETCH  ACCESS:          0  HIT:          0  MISS:          0
L1D WRITEBACK ACCESS:          0  HIT:          0  MISS:          0
L1D PREFETCH  REQUESTED:          0  ISSUED:          0  USEFUL:          0  USELESS:          0
L1D AVERAGE MISS LATENCY: 85.1999 cycles
L1I TOTAL     ACCESS:  132214935  HIT:  132214935  MISS:          0
L1I LOAD      ACCESS:  132214935  HIT:  132214935  MISS:          0
L1I RFO       ACCESS:          0  HIT:          0  MISS:          0
L1I PREFETCH  ACCESS:          0  HIT:          0  MISS:          0
L1I WRITEBACK ACCESS:          0  HIT:          0  MISS:          0
L1I PREFETCH  REQUESTED:          0  ISSUED:          0  USEFUL:          0  USELESS:          0
L1I AVERAGE MISS LATENCY: -nan cycles
L2C TOTAL     ACCESS:   79650644  HIT:     953291  MISS:   78697353
L2C LOAD      ACCESS:   78093004  HIT:       6647  MISS:   78086357
L2C RFO       ACCESS:     609693  HIT:       1273  MISS:     608420
L2C PREFETCH  ACCESS:          0  HIT:          0  MISS:          0
L2C WRITEBACK ACCESS:     947947  HIT:     945371  MISS:       2576
L2C PREFETCH  REQUESTED:          0  ISSUED:          0  USEFUL:          0  USELESS:          0
L2C AVERAGE MISS LATENCY: 69.9992 cycles
LLC TOTAL     ACCESS:  149397607  HIT:   71403366  MISS:   77994241
LLC LOAD      ACCESS:   78086358  HIT:   42194225  MISS:   35892133
LLC RFO       ACCESS:     608420  HIT:         40  MISS:     608380
LLC PREFETCH  ACCESS:   69758317  HIT:   28266613  MISS:   41491704
LLC WRITEBACK ACCESS:     944512  HIT:     942488  MISS:       2024
LLC PREFETCH  REQUESTED:  233367529  ISSUED:  155281170  USEFUL:   41491202  USELESS:        499
LLC AVERAGE MISS LATENCY: 116.351 cycles
Major fault: 0 Minor fault: 44901
performance stats:
mapping cache size: 1065736
divergence: 33664413

DRAM Statistics
 CHANNEL 0
 RQ ROW_BUFFER_HIT:   51327747  ROW_BUFFER_MISS:   26656524
 DBUS_CONGESTED:   45785523
 WQ ROW_BUFFER_HIT:     170692  ROW_BUFFER_MISS:     770029  FULL:          0

 AVG_CONGESTED_CYCLE: 5

CPU 0 Branch Prediction Accuracy: 99.3641% MPKI: 1.17127 Average ROB Occupancy at Mispredict: 93.8338

Branch types
NOT_BRANCH: 407900563 81.5801%
BRANCH_DIRECT_JUMP: 21456098 4.29122%
BRANCH_INDIRECT: 0 0%
BRANCH_CONDITIONAL: 70636470 14.1273%
BRANCH_DIRECT_CALL: 3428 0.0006856%
BRANCH_INDIRECT_CALL: 0 0%
BRANCH_RETURN: 3428 0.0006856%
BRANCH_OTHER: 0 0%

