
*** ChampSim Multicore Out-of-Order Simulator ***

Warmup Instructions: 1000000
Prefetch Warmup Instructions: 450000000
Simulation Instructions: 500000000
Stat Printing Period: 1000000
Number of CPUs: 1
LLC sets: 2048
LLC ways: 16
Off-chip DRAM Size: 4096 MB Channels: 1 Width: 64-bit Data Rate: 3200 MT/s

CPU 0 runs /scratch/cluster/cmolder/ML-DPC/ChampSimTraces/spec17/605.mcf-s5.trace.xz
Read seed: 226
Heartbeat CPU 0 instructions: 1000001 cycles: 418000 heartbeat IPC: 2.39235 cumulative IPC: 2.39235 (Simulation time: 0 hr 0 min 6 sec) 

Warmup complete CPU 0 instructions: 1000001 cycles: 418000 (Simulation time: 0 hr 0 min 6 sec) 

Heartbeat CPU 0 instructions: 2000003 cycles: 2323190 heartbeat IPC: 0.524883 cumulative IPC: 0.524883 (Simulation time: 0 hr 0 min 13 sec) 
Heartbeat CPU 0 instructions: 3000001 cycles: 4716861 heartbeat IPC: 0.417768 cumulative IPC: 0.46524 (Simulation time: 0 hr 0 min 21 sec) 
Heartbeat CPU 0 instructions: 4000001 cycles: 7045944 heartbeat IPC: 0.429354 cumulative IPC: 0.452629 (Simulation time: 0 hr 0 min 29 sec) 
Heartbeat CPU 0 instructions: 5000001 cycles: 9674561 heartbeat IPC: 0.380428 cumulative IPC: 0.432126 (Simulation time: 0 hr 0 min 38 sec) 
Heartbeat CPU 0 instructions: 6000000 cycles: 12522593 heartbeat IPC: 0.351119 cumulative IPC: 0.413066 (Simulation time: 0 hr 0 min 47 sec) 
Heartbeat CPU 0 instructions: 7000002 cycles: 16810389 heartbeat IPC: 0.233221 cumulative IPC: 0.366024 (Simulation time: 0 hr 0 min 58 sec) 
Heartbeat CPU 0 instructions: 8000001 cycles: 19679831 heartbeat IPC: 0.348499 cumulative IPC: 0.363413 (Simulation time: 0 hr 1 min 6 sec) 
Heartbeat CPU 0 instructions: 9000000 cycles: 21711198 heartbeat IPC: 0.492279 cumulative IPC: 0.375707 (Simulation time: 0 hr 1 min 14 sec) 
Heartbeat CPU 0 instructions: 10000000 cycles: 23937669 heartbeat IPC: 0.449141 cumulative IPC: 0.382658 (Simulation time: 0 hr 1 min 22 sec) 
Heartbeat CPU 0 instructions: 11000000 cycles: 26668791 heartbeat IPC: 0.36615 cumulative IPC: 0.380941 (Simulation time: 0 hr 1 min 31 sec) 
Heartbeat CPU 0 instructions: 12000000 cycles: 28889096 heartbeat IPC: 0.450389 cumulative IPC: 0.386357 (Simulation time: 0 hr 1 min 39 sec) 
Heartbeat CPU 0 instructions: 13000000 cycles: 30821067 heartbeat IPC: 0.517606 cumulative IPC: 0.394697 (Simulation time: 0 hr 1 min 46 sec) 
Heartbeat CPU 0 instructions: 14000001 cycles: 32914019 heartbeat IPC: 0.477795 cumulative IPC: 0.400049 (Simulation time: 0 hr 1 min 54 sec) 
Heartbeat CPU 0 instructions: 15000001 cycles: 39067139 heartbeat IPC: 0.162519 cumulative IPC: 0.362233 (Simulation time: 0 hr 2 min 8 sec) 
Heartbeat CPU 0 instructions: 16000000 cycles: 43506955 heartbeat IPC: 0.225234 cumulative IPC: 0.348117 (Simulation time: 0 hr 2 min 19 sec) 
Heartbeat CPU 0 instructions: 17000003 cycles: 46590460 heartbeat IPC: 0.324307 cumulative IPC: 0.346527 (Simulation time: 0 hr 2 min 28 sec) 
Heartbeat CPU 0 instructions: 18000001 cycles: 49545931 heartbeat IPC: 0.338355 cumulative IPC: 0.346035 (Simulation time: 0 hr 2 min 38 sec) 
Heartbeat CPU 0 instructions: 19000001 cycles: 51900999 heartbeat IPC: 0.424616 cumulative IPC: 0.34963 (Simulation time: 0 hr 2 min 46 sec) 
Heartbeat CPU 0 instructions: 20000000 cycles: 54670815 heartbeat IPC: 0.361034 cumulative IPC: 0.350212 (Simulation time: 0 hr 2 min 55 sec) 
Heartbeat CPU 0 instructions: 21000000 cycles: 56970614 heartbeat IPC: 0.434821 cumulative IPC: 0.353653 (Simulation time: 0 hr 3 min 3 sec) 
Heartbeat CPU 0 instructions: 22000000 cycles: 58873081 heartbeat IPC: 0.525633 cumulative IPC: 0.35925 (Simulation time: 0 hr 3 min 11 sec) 
Heartbeat CPU 0 instructions: 23000000 cycles: 64348820 heartbeat IPC: 0.182624 cumulative IPC: 0.344122 (Simulation time: 0 hr 3 min 24 sec) 
Heartbeat CPU 0 instructions: 24000002 cycles: 69021724 heartbeat IPC: 0.214 cumulative IPC: 0.335259 (Simulation time: 0 hr 3 min 36 sec) 
Heartbeat CPU 0 instructions: 25000000 cycles: 70748942 heartbeat IPC: 0.578965 cumulative IPC: 0.341244 (Simulation time: 0 hr 3 min 43 sec) 
Heartbeat CPU 0 instructions: 26000000 cycles: 72434046 heartbeat IPC: 0.593435 cumulative IPC: 0.347145 (Simulation time: 0 hr 3 min 50 sec) 
Heartbeat CPU 0 instructions: 27000000 cycles: 74325091 heartbeat IPC: 0.528808 cumulative IPC: 0.351793 (Simulation time: 0 hr 3 min 57 sec) 
Heartbeat CPU 0 instructions: 28000001 cycles: 76336336 heartbeat IPC: 0.497205 cumulative IPC: 0.355645 (Simulation time: 0 hr 4 min 5 sec) 
Heartbeat CPU 0 instructions: 29000002 cycles: 78382687 heartbeat IPC: 0.488675 cumulative IPC: 0.359137 (Simulation time: 0 hr 4 min 12 sec) 
Heartbeat CPU 0 instructions: 30000000 cycles: 82659109 heartbeat IPC: 0.23384 cumulative IPC: 0.352622 (Simulation time: 0 hr 4 min 23 sec) 
Heartbeat CPU 0 instructions: 31000000 cycles: 84535543 heartbeat IPC: 0.532926 cumulative IPC: 0.356644 (Simulation time: 0 hr 4 min 31 sec) 
Heartbeat CPU 0 instructions: 32000001 cycles: 86967620 heartbeat IPC: 0.411172 cumulative IPC: 0.358176 (Simulation time: 0 hr 4 min 39 sec) 
Heartbeat CPU 0 instructions: 33000000 cycles: 89409303 heartbeat IPC: 0.409553 cumulative IPC: 0.359586 (Simulation time: 0 hr 4 min 48 sec) 
Heartbeat CPU 0 instructions: 34000000 cycles: 91561836 heartbeat IPC: 0.464569 cumulative IPC: 0.362065 (Simulation time: 0 hr 4 min 56 sec) 
Heartbeat CPU 0 instructions: 35000000 cycles: 94054651 heartbeat IPC: 0.401153 cumulative IPC: 0.363106 (Simulation time: 0 hr 5 min 5 sec) 
Heartbeat CPU 0 instructions: 36000000 cycles: 96703497 heartbeat IPC: 0.377523 cumulative IPC: 0.363502 (Simulation time: 0 hr 5 min 13 sec) 
Heartbeat CPU 0 instructions: 37000000 cycles: 101678880 heartbeat IPC: 0.20099 cumulative IPC: 0.355517 (Simulation time: 0 hr 5 min 25 sec) 
Heartbeat CPU 0 instructions: 38000001 cycles: 104061858 heartbeat IPC: 0.419643 cumulative IPC: 0.356992 (Simulation time: 0 hr 5 min 33 sec) 
Heartbeat CPU 0 instructions: 39000000 cycles: 105886513 heartbeat IPC: 0.548048 cumulative IPC: 0.360297 (Simulation time: 0 hr 5 min 41 sec) 
Heartbeat CPU 0 instructions: 40000001 cycles: 108469996 heartbeat IPC: 0.387075 cumulative IPC: 0.360937 (Simulation time: 0 hr 5 min 49 sec) 
Heartbeat CPU 0 instructions: 41000003 cycles: 110488803 heartbeat IPC: 0.495343 cumulative IPC: 0.363402 (Simulation time: 0 hr 5 min 57 sec) 
Heartbeat CPU 0 instructions: 42000000 cycles: 112492024 heartbeat IPC: 0.499195 cumulative IPC: 0.36583 (Simulation time: 0 hr 6 min 5 sec) 
Heartbeat CPU 0 instructions: 43000000 cycles: 114433933 heartbeat IPC: 0.514957 cumulative IPC: 0.36837 (Simulation time: 0 hr 6 min 13 sec) 
Heartbeat CPU 0 instructions: 44000000 cycles: 117602749 heartbeat IPC: 0.315575 cumulative IPC: 0.366942 (Simulation time: 0 hr 6 min 22 sec) 
Heartbeat CPU 0 instructions: 45000002 cycles: 124253847 heartbeat IPC: 0.150351 cumulative IPC: 0.355309 (Simulation time: 0 hr 6 min 37 sec) 
Heartbeat CPU 0 instructions: 46000001 cycles: 127300419 heartbeat IPC: 0.328237 cumulative IPC: 0.354659 (Simulation time: 0 hr 6 min 46 sec) 
Heartbeat CPU 0 instructions: 47000003 cycles: 129804903 heartbeat IPC: 0.399285 cumulative IPC: 0.355523 (Simulation time: 0 hr 6 min 54 sec) 
Heartbeat CPU 0 instructions: 48000000 cycles: 132748538 heartbeat IPC: 0.339715 cumulative IPC: 0.355171 (Simulation time: 0 hr 7 min 3 sec) 
Heartbeat CPU 0 instructions: 49000000 cycles: 135369051 heartbeat IPC: 0.381605 cumulative IPC: 0.355685 (Simulation time: 0 hr 7 min 12 sec) 
Heartbeat CPU 0 instructions: 50000000 cycles: 137392379 heartbeat IPC: 0.494235 cumulative IPC: 0.357731 (Simulation time: 0 hr 7 min 20 sec) 
Heartbeat CPU 0 instructions: 51000003 cycles: 139995280 heartbeat IPC: 0.384188 cumulative IPC: 0.358225 (Simulation time: 0 hr 7 min 28 sec) 
Heartbeat CPU 0 instructions: 52000001 cycles: 142850961 heartbeat IPC: 0.350178 cumulative IPC: 0.358063 (Simulation time: 0 hr 7 min 37 sec) 
Heartbeat CPU 0 instructions: 53000000 cycles: 146736376 heartbeat IPC: 0.257372 cumulative IPC: 0.355389 (Simulation time: 0 hr 7 min 48 sec) 
Heartbeat CPU 0 instructions: 54000002 cycles: 148527180 heartbeat IPC: 0.55841 cumulative IPC: 0.357844 (Simulation time: 0 hr 7 min 55 sec) 
Heartbeat CPU 0 instructions: 55000000 cycles: 150497042 heartbeat IPC: 0.507649 cumulative IPC: 0.35981 (Simulation time: 0 hr 8 min 3 sec) 
Heartbeat CPU 0 instructions: 56000003 cycles: 152491586 heartbeat IPC: 0.501369 cumulative IPC: 0.361667 (Simulation time: 0 hr 8 min 11 sec) 
Heartbeat CPU 0 instructions: 57000000 cycles: 154436841 heartbeat IPC: 0.51407 cumulative IPC: 0.363592 (Simulation time: 0 hr 8 min 19 sec) 
Heartbeat CPU 0 instructions: 58000001 cycles: 156316024 heartbeat IPC: 0.532147 cumulative IPC: 0.365624 (Simulation time: 0 hr 8 min 27 sec) 
Heartbeat CPU 0 instructions: 59000001 cycles: 158926426 heartbeat IPC: 0.383083 cumulative IPC: 0.365911 (Simulation time: 0 hr 8 min 35 sec) 
Heartbeat CPU 0 instructions: 60000003 cycles: 164693577 heartbeat IPC: 0.173396 cumulative IPC: 0.359153 (Simulation time: 0 hr 8 min 48 sec) 
Heartbeat CPU 0 instructions: 61000000 cycles: 171611090 heartbeat IPC: 0.14456 cumulative IPC: 0.350481 (Simulation time: 0 hr 9 min 3 sec) 
Heartbeat CPU 0 instructions: 62000000 cycles: 176706226 heartbeat IPC: 0.196266 cumulative IPC: 0.346024 (Simulation time: 0 hr 9 min 15 sec) 
Heartbeat CPU 0 instructions: 63000001 cycles: 178980372 heartbeat IPC: 0.439726 cumulative IPC: 0.347218 (Simulation time: 0 hr 9 min 23 sec) 
Heartbeat CPU 0 instructions: 64000001 cycles: 180769866 heartbeat IPC: 0.558817 cumulative IPC: 0.349317 (Simulation time: 0 hr 9 min 31 sec) 
Heartbeat CPU 0 instructions: 65000001 cycles: 183228120 heartbeat IPC: 0.406793 cumulative IPC: 0.35009 (Simulation time: 0 hr 9 min 39 sec) 
Heartbeat CPU 0 instructions: 66000000 cycles: 186042425 heartbeat IPC: 0.355327 cumulative IPC: 0.350169 (Simulation time: 0 hr 9 min 49 sec) 
Heartbeat CPU 0 instructions: 67000001 cycles: 188938059 heartbeat IPC: 0.345348 cumulative IPC: 0.350095 (Simulation time: 0 hr 9 min 58 sec) 
Heartbeat CPU 0 instructions: 68000000 cycles: 191001792 heartbeat IPC: 0.484558 cumulative IPC: 0.351551 (Simulation time: 0 hr 10 min 6 sec) 
Heartbeat CPU 0 instructions: 69000002 cycles: 196117527 heartbeat IPC: 0.195476 cumulative IPC: 0.347471 (Simulation time: 0 hr 10 min 18 sec) 
Heartbeat CPU 0 instructions: 70000002 cycles: 201376724 heartbeat IPC: 0.190143 cumulative IPC: 0.343354 (Simulation time: 0 hr 10 min 30 sec) 
Heartbeat CPU 0 instructions: 71000003 cycles: 204567672 heartbeat IPC: 0.313387 cumulative IPC: 0.342886 (Simulation time: 0 hr 10 min 39 sec) 
Heartbeat CPU 0 instructions: 72000003 cycles: 207308015 heartbeat IPC: 0.364918 cumulative IPC: 0.343178 (Simulation time: 0 hr 10 min 48 sec) 
Heartbeat CPU 0 instructions: 73000000 cycles: 210694688 heartbeat IPC: 0.295274 cumulative IPC: 0.342406 (Simulation time: 0 hr 10 min 58 sec) 
Heartbeat CPU 0 instructions: 74000001 cycles: 213473190 heartbeat IPC: 0.359907 cumulative IPC: 0.342634 (Simulation time: 0 hr 11 min 7 sec) 
Heartbeat CPU 0 instructions: 75000000 cycles: 216878024 heartbeat IPC: 0.2937 cumulative IPC: 0.341864 (Simulation time: 0 hr 11 min 16 sec) 
Heartbeat CPU 0 instructions: 76000003 cycles: 220345455 heartbeat IPC: 0.288399 cumulative IPC: 0.341022 (Simulation time: 0 hr 11 min 26 sec) 
Heartbeat CPU 0 instructions: 77000000 cycles: 225660347 heartbeat IPC: 0.18815 cumulative IPC: 0.337414 (Simulation time: 0 hr 11 min 38 sec) 
Heartbeat CPU 0 instructions: 78000000 cycles: 231684773 heartbeat IPC: 0.165991 cumulative IPC: 0.332949 (Simulation time: 0 hr 11 min 52 sec) 
Heartbeat CPU 0 instructions: 79000002 cycles: 233625760 heartbeat IPC: 0.515203 cumulative IPC: 0.334466 (Simulation time: 0 hr 11 min 59 sec) 
Heartbeat CPU 0 instructions: 80000000 cycles: 235494479 heartbeat IPC: 0.535125 cumulative IPC: 0.336061 (Simulation time: 0 hr 12 min 7 sec) 
Heartbeat CPU 0 instructions: 81000002 cycles: 237497507 heartbeat IPC: 0.499245 cumulative IPC: 0.33744 (Simulation time: 0 hr 12 min 14 sec) 
Heartbeat CPU 0 instructions: 82000001 cycles: 239375942 heartbeat IPC: 0.532358 cumulative IPC: 0.338972 (Simulation time: 0 hr 12 min 21 sec) 
Heartbeat CPU 0 instructions: 83000002 cycles: 241265617 heartbeat IPC: 0.529192 cumulative IPC: 0.340464 (Simulation time: 0 hr 12 min 28 sec) 
Heartbeat CPU 0 instructions: 84000001 cycles: 246223651 heartbeat IPC: 0.201693 cumulative IPC: 0.337665 (Simulation time: 0 hr 12 min 40 sec) 
Heartbeat CPU 0 instructions: 85000001 cycles: 252714081 heartbeat IPC: 0.154073 cumulative IPC: 0.332942 (Simulation time: 0 hr 12 min 55 sec) 
Heartbeat CPU 0 instructions: 86000001 cycles: 257069711 heartbeat IPC: 0.229588 cumulative IPC: 0.331188 (Simulation time: 0 hr 13 min 6 sec) 
Heartbeat CPU 0 instructions: 87000001 cycles: 259817148 heartbeat IPC: 0.363976 cumulative IPC: 0.331535 (Simulation time: 0 hr 13 min 14 sec) 
Heartbeat CPU 0 instructions: 88000000 cycles: 262020622 heartbeat IPC: 0.453828 cumulative IPC: 0.332565 (Simulation time: 0 hr 13 min 22 sec) 
Heartbeat CPU 0 instructions: 89000000 cycles: 264950335 heartbeat IPC: 0.34133 cumulative IPC: 0.332663 (Simulation time: 0 hr 13 min 31 sec) 
Heartbeat CPU 0 instructions: 90000001 cycles: 267171773 heartbeat IPC: 0.450159 cumulative IPC: 0.333641 (Simulation time: 0 hr 13 min 39 sec) 
Heartbeat CPU 0 instructions: 91000002 cycles: 269378760 heartbeat IPC: 0.453107 cumulative IPC: 0.334621 (Simulation time: 0 hr 13 min 47 sec) 
Heartbeat CPU 0 instructions: 92000000 cycles: 271976231 heartbeat IPC: 0.384989 cumulative IPC: 0.335103 (Simulation time: 0 hr 13 min 56 sec) 
Heartbeat CPU 0 instructions: 93000001 cycles: 277265420 heartbeat IPC: 0.189065 cumulative IPC: 0.332313 (Simulation time: 0 hr 14 min 8 sec) 
Heartbeat CPU 0 instructions: 94000003 cycles: 282444635 heartbeat IPC: 0.19308 cumulative IPC: 0.329756 (Simulation time: 0 hr 14 min 20 sec) 
Heartbeat CPU 0 instructions: 95000000 cycles: 284916139 heartbeat IPC: 0.404611 cumulative IPC: 0.330406 (Simulation time: 0 hr 14 min 28 sec) 
Heartbeat CPU 0 instructions: 96000002 cycles: 287093655 heartbeat IPC: 0.45924 cumulative IPC: 0.331385 (Simulation time: 0 hr 14 min 36 sec) 
Heartbeat CPU 0 instructions: 97000003 cycles: 289038746 heartbeat IPC: 0.514115 cumulative IPC: 0.332616 (Simulation time: 0 hr 14 min 43 sec) 
Heartbeat CPU 0 instructions: 98000000 cycles: 290829799 heartbeat IPC: 0.558329 cumulative IPC: 0.334008 (Simulation time: 0 hr 14 min 51 sec) 
Heartbeat CPU 0 instructions: 99000000 cycles: 292522988 heartbeat IPC: 0.590602 cumulative IPC: 0.335496 (Simulation time: 0 hr 14 min 58 sec) 
Heartbeat CPU 0 instructions: 100000000 cycles: 294205128 heartbeat IPC: 0.594481 cumulative IPC: 0.336979 (Simulation time: 0 hr 15 min 5 sec) 
Heartbeat CPU 0 instructions: 101000002 cycles: 298601462 heartbeat IPC: 0.227463 cumulative IPC: 0.335364 (Simulation time: 0 hr 15 min 17 sec) 
Heartbeat CPU 0 instructions: 102000001 cycles: 303975263 heartbeat IPC: 0.186088 cumulative IPC: 0.332721 (Simulation time: 0 hr 15 min 30 sec) 
Heartbeat CPU 0 instructions: 103000001 cycles: 305889069 heartbeat IPC: 0.522519 cumulative IPC: 0.33391 (Simulation time: 0 hr 15 min 37 sec) 
Heartbeat CPU 0 instructions: 104000002 cycles: 308014158 heartbeat IPC: 0.470569 cumulative IPC: 0.334855 (Simulation time: 0 hr 15 min 45 sec) 
Heartbeat CPU 0 instructions: 105000001 cycles: 310269340 heartbeat IPC: 0.443423 cumulative IPC: 0.335645 (Simulation time: 0 hr 15 min 53 sec) 
Heartbeat CPU 0 instructions: 106000001 cycles: 312342891 heartbeat IPC: 0.482264 cumulative IPC: 0.336619 (Simulation time: 0 hr 16 min 1 sec) 
Heartbeat CPU 0 instructions: 107000002 cycles: 314387309 heartbeat IPC: 0.489137 cumulative IPC: 0.337613 (Simulation time: 0 hr 16 min 8 sec) 
Heartbeat CPU 0 instructions: 108000001 cycles: 316192165 heartbeat IPC: 0.55406 cumulative IPC: 0.33885 (Simulation time: 0 hr 16 min 16 sec) 
Heartbeat CPU 0 instructions: 109000001 cycles: 320390749 heartbeat IPC: 0.238176 cumulative IPC: 0.337529 (Simulation time: 0 hr 16 min 26 sec) 
Heartbeat CPU 0 instructions: 110000000 cycles: 322628875 heartbeat IPC: 0.446802 cumulative IPC: 0.338288 (Simulation time: 0 hr 16 min 34 sec) 
Heartbeat CPU 0 instructions: 111000001 cycles: 324355298 heartbeat IPC: 0.579233 cumulative IPC: 0.339572 (Simulation time: 0 hr 16 min 42 sec) 
Heartbeat CPU 0 instructions: 112000000 cycles: 326319603 heartbeat IPC: 0.509085 cumulative IPC: 0.340594 (Simulation time: 0 hr 16 min 49 sec) 
Heartbeat CPU 0 instructions: 113000000 cycles: 328775503 heartbeat IPC: 0.407183 cumulative IPC: 0.341092 (Simulation time: 0 hr 16 min 57 sec) 
Heartbeat CPU 0 instructions: 114000003 cycles: 330784305 heartbeat IPC: 0.497811 cumulative IPC: 0.342045 (Simulation time: 0 hr 17 min 5 sec) 
Heartbeat CPU 0 instructions: 115000002 cycles: 332666842 heartbeat IPC: 0.531198 cumulative IPC: 0.343116 (Simulation time: 0 hr 17 min 13 sec) 
Heartbeat CPU 0 instructions: 116000000 cycles: 335542144 heartbeat IPC: 0.347789 cumulative IPC: 0.343156 (Simulation time: 0 hr 17 min 22 sec) 
Heartbeat CPU 0 instructions: 117000001 cycles: 338827633 heartbeat IPC: 0.304369 cumulative IPC: 0.34278 (Simulation time: 0 hr 17 min 32 sec) 
Heartbeat CPU 0 instructions: 118000001 cycles: 340665600 heartbeat IPC: 0.544079 cumulative IPC: 0.343867 (Simulation time: 0 hr 17 min 39 sec) 
Heartbeat CPU 0 instructions: 119000002 cycles: 342735021 heartbeat IPC: 0.483227 cumulative IPC: 0.34471 (Simulation time: 0 hr 17 min 47 sec) 
Heartbeat CPU 0 instructions: 120000001 cycles: 345008534 heartbeat IPC: 0.439847 cumulative IPC: 0.345337 (Simulation time: 0 hr 17 min 55 sec) 
Heartbeat CPU 0 instructions: 121000000 cycles: 347197153 heartbeat IPC: 0.456909 cumulative IPC: 0.346042 (Simulation time: 0 hr 18 min 4 sec) 
Heartbeat CPU 0 instructions: 122000000 cycles: 349567518 heartbeat IPC: 0.421876 cumulative IPC: 0.346556 (Simulation time: 0 hr 18 min 12 sec) 
Heartbeat CPU 0 instructions: 123000002 cycles: 351982153 heartbeat IPC: 0.414142 cumulative IPC: 0.347021 (Simulation time: 0 hr 18 min 20 sec) 
Heartbeat CPU 0 instructions: 124000003 cycles: 356224089 heartbeat IPC: 0.235742 cumulative IPC: 0.345694 (Simulation time: 0 hr 18 min 31 sec) 
Heartbeat CPU 0 instructions: 125000002 cycles: 358462457 heartbeat IPC: 0.446754 cumulative IPC: 0.346326 (Simulation time: 0 hr 18 min 40 sec) 
Heartbeat CPU 0 instructions: 126000001 cycles: 360491537 heartbeat IPC: 0.492834 cumulative IPC: 0.347151 (Simulation time: 0 hr 18 min 47 sec) 
Heartbeat CPU 0 instructions: 127000003 cycles: 362400266 heartbeat IPC: 0.52391 cumulative IPC: 0.348083 (Simulation time: 0 hr 18 min 55 sec) 
Heartbeat CPU 0 instructions: 128000001 cycles: 364253928 heartbeat IPC: 0.539472 cumulative IPC: 0.349058 (Simulation time: 0 hr 19 min 2 sec) 
Heartbeat CPU 0 instructions: 129000001 cycles: 366060145 heartbeat IPC: 0.553643 cumulative IPC: 0.350069 (Simulation time: 0 hr 19 min 10 sec) 
Heartbeat CPU 0 instructions: 130000001 cycles: 368571116 heartbeat IPC: 0.398252 cumulative IPC: 0.350398 (Simulation time: 0 hr 19 min 19 sec) 
Heartbeat CPU 0 instructions: 131000003 cycles: 372749004 heartbeat IPC: 0.239356 cumulative IPC: 0.349152 (Simulation time: 0 hr 19 min 30 sec) 
Heartbeat CPU 0 instructions: 132000000 cycles: 378991213 heartbeat IPC: 0.160199 cumulative IPC: 0.346036 (Simulation time: 0 hr 19 min 44 sec) 
Heartbeat CPU 0 instructions: 133000002 cycles: 381111836 heartbeat IPC: 0.47156 cumulative IPC: 0.346735 (Simulation time: 0 hr 19 min 52 sec) 
Heartbeat CPU 0 instructions: 134000000 cycles: 383121718 heartbeat IPC: 0.497541 cumulative IPC: 0.347527 (Simulation time: 0 hr 20 min 0 sec) 
Heartbeat CPU 0 instructions: 135000002 cycles: 384774828 heartbeat IPC: 0.604922 cumulative IPC: 0.348634 (Simulation time: 0 hr 20 min 7 sec) 
Heartbeat CPU 0 instructions: 136000002 cycles: 386474153 heartbeat IPC: 0.588469 cumulative IPC: 0.34969 (Simulation time: 0 hr 20 min 14 sec) 
Heartbeat CPU 0 instructions: 137000002 cycles: 388483330 heartbeat IPC: 0.497716 cumulative IPC: 0.350456 (Simulation time: 0 hr 20 min 22 sec) 
Heartbeat CPU 0 instructions: 138000001 cycles: 390477628 heartbeat IPC: 0.501429 cumulative IPC: 0.351228 (Simulation time: 0 hr 20 min 30 sec) 
Heartbeat CPU 0 instructions: 139000001 cycles: 393535914 heartbeat IPC: 0.326981 cumulative IPC: 0.35104 (Simulation time: 0 hr 20 min 39 sec) 
Heartbeat CPU 0 instructions: 140000000 cycles: 396722769 heartbeat IPC: 0.313789 cumulative IPC: 0.35074 (Simulation time: 0 hr 20 min 48 sec) 
Heartbeat CPU 0 instructions: 141000000 cycles: 398570080 heartbeat IPC: 0.541327 cumulative IPC: 0.351624 (Simulation time: 0 hr 20 min 56 sec) 
Heartbeat CPU 0 instructions: 142000000 cycles: 400341130 heartbeat IPC: 0.564637 cumulative IPC: 0.352568 (Simulation time: 0 hr 21 min 3 sec) 
Heartbeat CPU 0 instructions: 143000000 cycles: 402764189 heartbeat IPC: 0.412701 cumulative IPC: 0.35293 (Simulation time: 0 hr 21 min 11 sec) 
Heartbeat CPU 0 instructions: 144000001 cycles: 404782705 heartbeat IPC: 0.495414 cumulative IPC: 0.353641 (Simulation time: 0 hr 21 min 19 sec) 
Heartbeat CPU 0 instructions: 145000002 cycles: 407457619 heartbeat IPC: 0.373844 cumulative IPC: 0.353774 (Simulation time: 0 hr 21 min 28 sec) 
Heartbeat CPU 0 instructions: 146000002 cycles: 409656638 heartbeat IPC: 0.454748 cumulative IPC: 0.354317 (Simulation time: 0 hr 21 min 35 sec) 
Heartbeat CPU 0 instructions: 147000000 cycles: 413809431 heartbeat IPC: 0.240801 cumulative IPC: 0.353176 (Simulation time: 0 hr 21 min 46 sec) 
Heartbeat CPU 0 instructions: 148000003 cycles: 415642760 heartbeat IPC: 0.545457 cumulative IPC: 0.354025 (Simulation time: 0 hr 21 min 54 sec) 
Heartbeat CPU 0 instructions: 149000003 cycles: 417411372 heartbeat IPC: 0.565415 cumulative IPC: 0.354922 (Simulation time: 0 hr 22 min 1 sec) 
Heartbeat CPU 0 instructions: 150000002 cycles: 419644060 heartbeat IPC: 0.44789 cumulative IPC: 0.355417 (Simulation time: 0 hr 22 min 9 sec) 
Heartbeat CPU 0 instructions: 151000002 cycles: 421747003 heartbeat IPC: 0.475524 cumulative IPC: 0.356016 (Simulation time: 0 hr 22 min 18 sec) 
Heartbeat CPU 0 instructions: 152000000 cycles: 423867566 heartbeat IPC: 0.471572 cumulative IPC: 0.356595 (Simulation time: 0 hr 22 min 26 sec) 
Heartbeat CPU 0 instructions: 153000002 cycles: 426244548 heartbeat IPC: 0.420702 cumulative IPC: 0.356953 (Simulation time: 0 hr 22 min 34 sec) 
Heartbeat CPU 0 instructions: 154000000 cycles: 431081138 heartbeat IPC: 0.206757 cumulative IPC: 0.355266 (Simulation time: 0 hr 22 min 46 sec) 
Heartbeat CPU 0 instructions: 155000001 cycles: 433515908 heartbeat IPC: 0.410717 cumulative IPC: 0.355578 (Simulation time: 0 hr 22 min 54 sec) 
Heartbeat CPU 0 instructions: 156000001 cycles: 435411900 heartbeat IPC: 0.527428 cumulative IPC: 0.356327 (Simulation time: 0 hr 23 min 2 sec) 
Heartbeat CPU 0 instructions: 157000001 cycles: 438268854 heartbeat IPC: 0.350023 cumulative IPC: 0.356286 (Simulation time: 0 hr 23 min 10 sec) 
Heartbeat CPU 0 instructions: 158000001 cycles: 440418638 heartbeat IPC: 0.465163 cumulative IPC: 0.356818 (Simulation time: 0 hr 23 min 18 sec) 
Heartbeat CPU 0 instructions: 159000003 cycles: 442772896 heartbeat IPC: 0.424763 cumulative IPC: 0.357179 (Simulation time: 0 hr 23 min 27 sec) 
Heartbeat CPU 0 instructions: 160000001 cycles: 445259893 heartbeat IPC: 0.402091 cumulative IPC: 0.35743 (Simulation time: 0 hr 23 min 35 sec) 
Heartbeat CPU 0 instructions: 161000003 cycles: 449167990 heartbeat IPC: 0.25588 cumulative IPC: 0.356546 (Simulation time: 0 hr 23 min 46 sec) 
Heartbeat CPU 0 instructions: 162000000 cycles: 456010639 heartbeat IPC: 0.146142 cumulative IPC: 0.353386 (Simulation time: 0 hr 24 min 1 sec) 
Heartbeat CPU 0 instructions: 163000001 cycles: 458670785 heartbeat IPC: 0.37592 cumulative IPC: 0.353517 (Simulation time: 0 hr 24 min 9 sec) 
Heartbeat CPU 0 instructions: 164000002 cycles: 460566993 heartbeat IPC: 0.527369 cumulative IPC: 0.354233 (Simulation time: 0 hr 24 min 17 sec) 
Heartbeat CPU 0 instructions: 165000000 cycles: 462411055 heartbeat IPC: 0.54228 cumulative IPC: 0.354984 (Simulation time: 0 hr 24 min 24 sec) 
Heartbeat CPU 0 instructions: 166000001 cycles: 464759224 heartbeat IPC: 0.425864 cumulative IPC: 0.355342 (Simulation time: 0 hr 24 min 32 sec) 
Heartbeat CPU 0 instructions: 167000002 cycles: 466720135 heartbeat IPC: 0.509968 cumulative IPC: 0.355992 (Simulation time: 0 hr 24 min 40 sec) 
Heartbeat CPU 0 instructions: 168000001 cycles: 468763517 heartbeat IPC: 0.489384 cumulative IPC: 0.356574 (Simulation time: 0 hr 24 min 48 sec) 
Heartbeat CPU 0 instructions: 169000000 cycles: 471260557 heartbeat IPC: 0.400474 cumulative IPC: 0.356807 (Simulation time: 0 hr 24 min 56 sec) 
Heartbeat CPU 0 instructions: 170000001 cycles: 475104803 heartbeat IPC: 0.260129 cumulative IPC: 0.356024 (Simulation time: 0 hr 25 min 6 sec) 
Heartbeat CPU 0 instructions: 171000002 cycles: 477158404 heartbeat IPC: 0.48695 cumulative IPC: 0.356588 (Simulation time: 0 hr 25 min 14 sec) 
Heartbeat CPU 0 instructions: 172000003 cycles: 479035653 heartbeat IPC: 0.532695 cumulative IPC: 0.357279 (Simulation time: 0 hr 25 min 21 sec) 
Heartbeat CPU 0 instructions: 173000000 cycles: 480919985 heartbeat IPC: 0.53069 cumulative IPC: 0.357959 (Simulation time: 0 hr 25 min 28 sec) 
Heartbeat CPU 0 instructions: 174000003 cycles: 483460309 heartbeat IPC: 0.393652 cumulative IPC: 0.358147 (Simulation time: 0 hr 25 min 37 sec) 
Heartbeat CPU 0 instructions: 175000000 cycles: 485816814 heartbeat IPC: 0.424356 cumulative IPC: 0.358468 (Simulation time: 0 hr 25 min 45 sec) 
Heartbeat CPU 0 instructions: 176000000 cycles: 490672283 heartbeat IPC: 0.205953 cumulative IPC: 0.356958 (Simulation time: 0 hr 25 min 56 sec) 
Heartbeat CPU 0 instructions: 177000000 cycles: 496198454 heartbeat IPC: 0.180957 cumulative IPC: 0.354996 (Simulation time: 0 hr 26 min 9 sec) 
Heartbeat CPU 0 instructions: 178000001 cycles: 498344206 heartbeat IPC: 0.466038 cumulative IPC: 0.355474 (Simulation time: 0 hr 26 min 17 sec) 
Heartbeat CPU 0 instructions: 179000002 cycles: 500182721 heartbeat IPC: 0.543918 cumulative IPC: 0.356168 (Simulation time: 0 hr 26 min 24 sec) 
Heartbeat CPU 0 instructions: 180000001 cycles: 502064409 heartbeat IPC: 0.531437 cumulative IPC: 0.356825 (Simulation time: 0 hr 26 min 31 sec) 
Heartbeat CPU 0 instructions: 181000000 cycles: 503970193 heartbeat IPC: 0.524718 cumulative IPC: 0.35746 (Simulation time: 0 hr 26 min 39 sec) 
Heartbeat CPU 0 instructions: 182000001 cycles: 505930773 heartbeat IPC: 0.510054 cumulative IPC: 0.358052 (Simulation time: 0 hr 26 min 47 sec) 
Heartbeat CPU 0 instructions: 183000003 cycles: 509628351 heartbeat IPC: 0.270448 cumulative IPC: 0.357416 (Simulation time: 0 hr 26 min 57 sec) 
Heartbeat CPU 0 instructions: 184000000 cycles: 516369788 heartbeat IPC: 0.148336 cumulative IPC: 0.354684 (Simulation time: 0 hr 27 min 12 sec) 
Heartbeat CPU 0 instructions: 185000000 cycles: 518682363 heartbeat IPC: 0.432418 cumulative IPC: 0.355031 (Simulation time: 0 hr 27 min 20 sec) 
Heartbeat CPU 0 instructions: 186000003 cycles: 520576735 heartbeat IPC: 0.527881 cumulative IPC: 0.355661 (Simulation time: 0 hr 27 min 27 sec) 
Heartbeat CPU 0 instructions: 187000000 cycles: 522661468 heartbeat IPC: 0.479676 cumulative IPC: 0.356156 (Simulation time: 0 hr 27 min 35 sec) 
Heartbeat CPU 0 instructions: 188000000 cycles: 525036156 heartbeat IPC: 0.421108 cumulative IPC: 0.35645 (Simulation time: 0 hr 27 min 43 sec) 
Heartbeat CPU 0 instructions: 189000000 cycles: 527259308 heartbeat IPC: 0.449812 cumulative IPC: 0.356844 (Simulation time: 0 hr 27 min 51 sec) 
Heartbeat CPU 0 instructions: 190000001 cycles: 529255249 heartbeat IPC: 0.501017 cumulative IPC: 0.357388 (Simulation time: 0 hr 27 min 58 sec) 
Heartbeat CPU 0 instructions: 191000000 cycles: 534581134 heartbeat IPC: 0.187762 cumulative IPC: 0.355697 (Simulation time: 0 hr 28 min 11 sec) 
Heartbeat CPU 0 instructions: 192000001 cycles: 541281050 heartbeat IPC: 0.149256 cumulative IPC: 0.353139 (Simulation time: 0 hr 28 min 26 sec) 
Heartbeat CPU 0 instructions: 193000001 cycles: 548268559 heartbeat IPC: 0.143113 cumulative IPC: 0.350461 (Simulation time: 0 hr 28 min 41 sec) 
Heartbeat CPU 0 instructions: 194000000 cycles: 551526409 heartbeat IPC: 0.306951 cumulative IPC: 0.350203 (Simulation time: 0 hr 28 min 50 sec) 
Heartbeat CPU 0 instructions: 195000000 cycles: 553260079 heartbeat IPC: 0.576811 cumulative IPC: 0.350914 (Simulation time: 0 hr 28 min 58 sec) 
Heartbeat CPU 0 instructions: 196000001 cycles: 554955813 heartbeat IPC: 0.589716 cumulative IPC: 0.351644 (Simulation time: 0 hr 29 min 5 sec) 
Heartbeat CPU 0 instructions: 197000002 cycles: 556740790 heartbeat IPC: 0.560232 cumulative IPC: 0.352313 (Simulation time: 0 hr 29 min 12 sec) 
Heartbeat CPU 0 instructions: 198000000 cycles: 558573642 heartbeat IPC: 0.545597 cumulative IPC: 0.352948 (Simulation time: 0 hr 29 min 20 sec) 
Heartbeat CPU 0 instructions: 199000000 cycles: 560605094 heartbeat IPC: 0.492259 cumulative IPC: 0.353453 (Simulation time: 0 hr 29 min 27 sec) 
Heartbeat CPU 0 instructions: 200000001 cycles: 566532890 heartbeat IPC: 0.168697 cumulative IPC: 0.351519 (Simulation time: 0 hr 29 min 41 sec) 
Heartbeat CPU 0 instructions: 201000000 cycles: 570849975 heartbeat IPC: 0.231638 cumulative IPC: 0.350611 (Simulation time: 0 hr 29 min 52 sec) 
Heartbeat CPU 0 instructions: 202000000 cycles: 573566818 heartbeat IPC: 0.368074 cumulative IPC: 0.350694 (Simulation time: 0 hr 30 min 1 sec) 
Heartbeat CPU 0 instructions: 203000000 cycles: 575506247 heartbeat IPC: 0.515616 cumulative IPC: 0.35125 (Simulation time: 0 hr 30 min 9 sec) 
Heartbeat CPU 0 instructions: 204000000 cycles: 577975496 heartbeat IPC: 0.404981 cumulative IPC: 0.35148 (Simulation time: 0 hr 30 min 17 sec) 
Heartbeat CPU 0 instructions: 205000000 cycles: 580785985 heartbeat IPC: 0.35581 cumulative IPC: 0.351501 (Simulation time: 0 hr 30 min 26 sec) 
Heartbeat CPU 0 instructions: 206000002 cycles: 583702641 heartbeat IPC: 0.342859 cumulative IPC: 0.351458 (Simulation time: 0 hr 30 min 35 sec) 
Heartbeat CPU 0 instructions: 207000001 cycles: 586787817 heartbeat IPC: 0.32413 cumulative IPC: 0.351314 (Simulation time: 0 hr 30 min 44 sec) 
Heartbeat CPU 0 instructions: 208000001 cycles: 592776699 heartbeat IPC: 0.166976 cumulative IPC: 0.34945 (Simulation time: 0 hr 30 min 58 sec) 
Heartbeat CPU 0 instructions: 209000000 cycles: 599826406 heartbeat IPC: 0.14185 cumulative IPC: 0.347009 (Simulation time: 0 hr 31 min 14 sec) 
Heartbeat CPU 0 instructions: 210000000 cycles: 603343007 heartbeat IPC: 0.284366 cumulative IPC: 0.346643 (Simulation time: 0 hr 31 min 23 sec) 
Heartbeat CPU 0 instructions: 211000003 cycles: 605509221 heartbeat IPC: 0.461636 cumulative IPC: 0.347055 (Simulation time: 0 hr 31 min 31 sec) 
Heartbeat CPU 0 instructions: 212000001 cycles: 607411817 heartbeat IPC: 0.525597 cumulative IPC: 0.347615 (Simulation time: 0 hr 31 min 39 sec) 
Heartbeat CPU 0 instructions: 213000000 cycles: 609297299 heartbeat IPC: 0.530368 cumulative IPC: 0.348181 (Simulation time: 0 hr 31 min 46 sec) 
Heartbeat CPU 0 instructions: 214000000 cycles: 611137718 heartbeat IPC: 0.543355 cumulative IPC: 0.348769 (Simulation time: 0 hr 31 min 54 sec) 
Heartbeat CPU 0 instructions: 215000000 cycles: 613113823 heartbeat IPC: 0.506046 cumulative IPC: 0.349276 (Simulation time: 0 hr 32 min 2 sec) 
Heartbeat CPU 0 instructions: 216000001 cycles: 615366002 heartbeat IPC: 0.444015 cumulative IPC: 0.349623 (Simulation time: 0 hr 32 min 10 sec) 
Heartbeat CPU 0 instructions: 217000003 cycles: 621288461 heartbeat IPC: 0.168849 cumulative IPC: 0.347899 (Simulation time: 0 hr 32 min 24 sec) 
Heartbeat CPU 0 instructions: 218000001 cycles: 625187653 heartbeat IPC: 0.256463 cumulative IPC: 0.347328 (Simulation time: 0 hr 32 min 34 sec) 
Heartbeat CPU 0 instructions: 219000000 cycles: 626947848 heartbeat IPC: 0.568118 cumulative IPC: 0.347948 (Simulation time: 0 hr 32 min 42 sec) 
Heartbeat CPU 0 instructions: 220000000 cycles: 628930192 heartbeat IPC: 0.504453 cumulative IPC: 0.348442 (Simulation time: 0 hr 32 min 49 sec) 
Heartbeat CPU 0 instructions: 221000000 cycles: 631571508 heartbeat IPC: 0.378599 cumulative IPC: 0.348568 (Simulation time: 0 hr 32 min 58 sec) 
Heartbeat CPU 0 instructions: 222000001 cycles: 633576882 heartbeat IPC: 0.498661 cumulative IPC: 0.349044 (Simulation time: 0 hr 33 min 5 sec) 
Heartbeat CPU 0 instructions: 223000000 cycles: 635692740 heartbeat IPC: 0.472621 cumulative IPC: 0.349455 (Simulation time: 0 hr 33 min 13 sec) 
Heartbeat CPU 0 instructions: 224000000 cycles: 637813159 heartbeat IPC: 0.471605 cumulative IPC: 0.349861 (Simulation time: 0 hr 33 min 21 sec) 
Heartbeat CPU 0 instructions: 225000001 cycles: 642104480 heartbeat IPC: 0.233029 cumulative IPC: 0.34908 (Simulation time: 0 hr 33 min 32 sec) 
Heartbeat CPU 0 instructions: 226000002 cycles: 644704811 heartbeat IPC: 0.384567 cumulative IPC: 0.349223 (Simulation time: 0 hr 33 min 40 sec) 
Heartbeat CPU 0 instructions: 227000002 cycles: 646826036 heartbeat IPC: 0.471426 cumulative IPC: 0.349624 (Simulation time: 0 hr 33 min 48 sec) 
Heartbeat CPU 0 instructions: 228000000 cycles: 649198772 heartbeat IPC: 0.421454 cumulative IPC: 0.349887 (Simulation time: 0 hr 33 min 57 sec) 
Heartbeat CPU 0 instructions: 229000000 cycles: 651776905 heartbeat IPC: 0.387878 cumulative IPC: 0.350037 (Simulation time: 0 hr 34 min 5 sec) 
Heartbeat CPU 0 instructions: 230000000 cycles: 654303713 heartbeat IPC: 0.395756 cumulative IPC: 0.350214 (Simulation time: 0 hr 34 min 13 sec) 
Heartbeat CPU 0 instructions: 231000000 cycles: 656889274 heartbeat IPC: 0.386763 cumulative IPC: 0.350358 (Simulation time: 0 hr 34 min 21 sec) 
Heartbeat CPU 0 instructions: 232000000 cycles: 660938168 heartbeat IPC: 0.246981 cumulative IPC: 0.349724 (Simulation time: 0 hr 34 min 32 sec) 
Heartbeat CPU 0 instructions: 233000003 cycles: 663138219 heartbeat IPC: 0.454536 cumulative IPC: 0.350072 (Simulation time: 0 hr 34 min 40 sec) 
Heartbeat CPU 0 instructions: 234000000 cycles: 665415425 heartbeat IPC: 0.439133 cumulative IPC: 0.350377 (Simulation time: 0 hr 34 min 48 sec) 
Heartbeat CPU 0 instructions: 235000000 cycles: 667930273 heartbeat IPC: 0.397638 cumulative IPC: 0.350555 (Simulation time: 0 hr 34 min 57 sec) 
Heartbeat CPU 0 instructions: 236000001 cycles: 670846291 heartbeat IPC: 0.342934 cumulative IPC: 0.350522 (Simulation time: 0 hr 35 min 6 sec) 
Heartbeat CPU 0 instructions: 237000001 cycles: 672667611 heartbeat IPC: 0.549052 cumulative IPC: 0.35106 (Simulation time: 0 hr 35 min 14 sec) 
Heartbeat CPU 0 instructions: 238000000 cycles: 675072218 heartbeat IPC: 0.415868 cumulative IPC: 0.351291 (Simulation time: 0 hr 35 min 22 sec) 
Heartbeat CPU 0 instructions: 239000001 cycles: 679725673 heartbeat IPC: 0.214894 cumulative IPC: 0.350357 (Simulation time: 0 hr 35 min 33 sec) 
Heartbeat CPU 0 instructions: 240000000 cycles: 681558068 heartbeat IPC: 0.545733 cumulative IPC: 0.350882 (Simulation time: 0 hr 35 min 41 sec) 
Heartbeat CPU 0 instructions: 241000001 cycles: 683232486 heartbeat IPC: 0.597223 cumulative IPC: 0.351486 (Simulation time: 0 hr 35 min 48 sec) 
Heartbeat CPU 0 instructions: 242000000 cycles: 685149957 heartbeat IPC: 0.52152 cumulative IPC: 0.351963 (Simulation time: 0 hr 35 min 56 sec) 
Heartbeat CPU 0 instructions: 243000000 cycles: 687814983 heartbeat IPC: 0.375231 cumulative IPC: 0.352053 (Simulation time: 0 hr 36 min 5 sec) 
Heartbeat CPU 0 instructions: 244000001 cycles: 690626713 heartbeat IPC: 0.355653 cumulative IPC: 0.352067 (Simulation time: 0 hr 36 min 13 sec) 
Heartbeat CPU 0 instructions: 245000001 cycles: 692954746 heartbeat IPC: 0.429547 cumulative IPC: 0.352328 (Simulation time: 0 hr 36 min 22 sec) 
Heartbeat CPU 0 instructions: 246000002 cycles: 698394830 heartbeat IPC: 0.183821 cumulative IPC: 0.351015 (Simulation time: 0 hr 36 min 35 sec) 
Heartbeat CPU 0 instructions: 247000001 cycles: 705053654 heartbeat IPC: 0.150177 cumulative IPC: 0.349117 (Simulation time: 0 hr 36 min 49 sec) 
Heartbeat CPU 0 instructions: 248000001 cycles: 709226901 heartbeat IPC: 0.239622 cumulative IPC: 0.348472 (Simulation time: 0 hr 37 min 0 sec) 
Heartbeat CPU 0 instructions: 249000000 cycles: 711135488 heartbeat IPC: 0.523947 cumulative IPC: 0.348943 (Simulation time: 0 hr 37 min 8 sec) 
Heartbeat CPU 0 instructions: 250000001 cycles: 713645054 heartbeat IPC: 0.398476 cumulative IPC: 0.349117 (Simulation time: 0 hr 37 min 16 sec) 
Heartbeat CPU 0 instructions: 251000000 cycles: 715848380 heartbeat IPC: 0.453859 cumulative IPC: 0.34944 (Simulation time: 0 hr 37 min 24 sec) 
Heartbeat CPU 0 instructions: 252000002 cycles: 717890829 heartbeat IPC: 0.489609 cumulative IPC: 0.349839 (Simulation time: 0 hr 37 min 32 sec) 
Heartbeat CPU 0 instructions: 253000000 cycles: 719751140 heartbeat IPC: 0.537543 cumulative IPC: 0.350324 (Simulation time: 0 hr 37 min 40 sec) 
Heartbeat CPU 0 instructions: 254000001 cycles: 722344558 heartbeat IPC: 0.385592 cumulative IPC: 0.350451 (Simulation time: 0 hr 37 min 48 sec) 
Heartbeat CPU 0 instructions: 255000001 cycles: 725734540 heartbeat IPC: 0.294987 cumulative IPC: 0.350192 (Simulation time: 0 hr 37 min 58 sec) 
Heartbeat CPU 0 instructions: 256000000 cycles: 727477320 heartbeat IPC: 0.573795 cumulative IPC: 0.350728 (Simulation time: 0 hr 38 min 5 sec) 
Heartbeat CPU 0 instructions: 257000001 cycles: 729353540 heartbeat IPC: 0.532987 cumulative IPC: 0.351197 (Simulation time: 0 hr 38 min 13 sec) 
Heartbeat CPU 0 instructions: 258000001 cycles: 731660522 heartbeat IPC: 0.433467 cumulative IPC: 0.351457 (Simulation time: 0 hr 38 min 21 sec) 
Heartbeat CPU 0 instructions: 259000002 cycles: 733563484 heartbeat IPC: 0.525497 cumulative IPC: 0.351908 (Simulation time: 0 hr 38 min 29 sec) 
Heartbeat CPU 0 instructions: 260000001 cycles: 735847506 heartbeat IPC: 0.437824 cumulative IPC: 0.352175 (Simulation time: 0 hr 38 min 37 sec) 
Heartbeat CPU 0 instructions: 261000000 cycles: 738727694 heartbeat IPC: 0.347199 cumulative IPC: 0.352156 (Simulation time: 0 hr 38 min 46 sec) 
Heartbeat CPU 0 instructions: 262000002 cycles: 742772011 heartbeat IPC: 0.247261 cumulative IPC: 0.351584 (Simulation time: 0 hr 38 min 56 sec) 
Heartbeat CPU 0 instructions: 263000002 cycles: 745422504 heartbeat IPC: 0.377288 cumulative IPC: 0.351676 (Simulation time: 0 hr 39 min 5 sec) 
Heartbeat CPU 0 instructions: 264000000 cycles: 748198147 heartbeat IPC: 0.360276 cumulative IPC: 0.351708 (Simulation time: 0 hr 39 min 14 sec) 
Heartbeat CPU 0 instructions: 265000003 cycles: 751574231 heartbeat IPC: 0.296202 cumulative IPC: 0.351458 (Simulation time: 0 hr 39 min 24 sec) 
Heartbeat CPU 0 instructions: 266000002 cycles: 753632310 heartbeat IPC: 0.48589 cumulative IPC: 0.351826 (Simulation time: 0 hr 39 min 31 sec) 
Heartbeat CPU 0 instructions: 267000000 cycles: 755698062 heartbeat IPC: 0.484084 cumulative IPC: 0.352187 (Simulation time: 0 hr 39 min 40 sec) 
Heartbeat CPU 0 instructions: 268000003 cycles: 758459303 heartbeat IPC: 0.362157 cumulative IPC: 0.352224 (Simulation time: 0 hr 39 min 48 sec) 
Heartbeat CPU 0 instructions: 269000000 cycles: 763520786 heartbeat IPC: 0.19757 cumulative IPC: 0.351198 (Simulation time: 0 hr 40 min 0 sec) 
Heartbeat CPU 0 instructions: 270000002 cycles: 766284696 heartbeat IPC: 0.361807 cumulative IPC: 0.351236 (Simulation time: 0 hr 40 min 9 sec) 
Heartbeat CPU 0 instructions: 271000000 cycles: 768716421 heartbeat IPC: 0.41123 cumulative IPC: 0.351426 (Simulation time: 0 hr 40 min 17 sec) 
Heartbeat CPU 0 instructions: 272000001 cycles: 770994372 heartbeat IPC: 0.438991 cumulative IPC: 0.351685 (Simulation time: 0 hr 40 min 25 sec) 
Heartbeat CPU 0 instructions: 273000000 cycles: 772940638 heartbeat IPC: 0.513804 cumulative IPC: 0.352093 (Simulation time: 0 hr 40 min 33 sec) 
Heartbeat CPU 0 instructions: 274000002 cycles: 775085571 heartbeat IPC: 0.466216 cumulative IPC: 0.352409 (Simulation time: 0 hr 40 min 41 sec) 
Heartbeat CPU 0 instructions: 275000000 cycles: 777275721 heartbeat IPC: 0.456589 cumulative IPC: 0.352703 (Simulation time: 0 hr 40 min 49 sec) 
Heartbeat CPU 0 instructions: 276000003 cycles: 783080441 heartbeat IPC: 0.172274 cumulative IPC: 0.351365 (Simulation time: 0 hr 41 min 2 sec) 
Heartbeat CPU 0 instructions: 277000001 cycles: 787819171 heartbeat IPC: 0.211027 cumulative IPC: 0.35052 (Simulation time: 0 hr 41 min 14 sec) 
Heartbeat CPU 0 instructions: 278000000 cycles: 789869669 heartbeat IPC: 0.487686 cumulative IPC: 0.350876 (Simulation time: 0 hr 41 min 22 sec) 
Heartbeat CPU 0 instructions: 279000001 cycles: 791672466 heartbeat IPC: 0.554694 cumulative IPC: 0.351341 (Simulation time: 0 hr 41 min 29 sec) 
Heartbeat CPU 0 instructions: 280000002 cycles: 794129455 heartbeat IPC: 0.407003 cumulative IPC: 0.351513 (Simulation time: 0 hr 41 min 38 sec) 
Heartbeat CPU 0 instructions: 281000002 cycles: 797318486 heartbeat IPC: 0.313575 cumulative IPC: 0.351361 (Simulation time: 0 hr 41 min 47 sec) 
Heartbeat CPU 0 instructions: 282000000 cycles: 800412564 heartbeat IPC: 0.323197 cumulative IPC: 0.351252 (Simulation time: 0 hr 41 min 56 sec) 
Heartbeat CPU 0 instructions: 283000003 cycles: 803002892 heartbeat IPC: 0.386053 cumulative IPC: 0.351365 (Simulation time: 0 hr 42 min 5 sec) 
Heartbeat CPU 0 instructions: 284000000 cycles: 808707203 heartbeat IPC: 0.175305 cumulative IPC: 0.350122 (Simulation time: 0 hr 42 min 19 sec) 
Heartbeat CPU 0 instructions: 285000002 cycles: 815553985 heartbeat IPC: 0.146054 cumulative IPC: 0.348408 (Simulation time: 0 hr 42 min 34 sec) 
Heartbeat CPU 0 instructions: 286000000 cycles: 818918550 heartbeat IPC: 0.297215 cumulative IPC: 0.348198 (Simulation time: 0 hr 42 min 43 sec) 
Heartbeat CPU 0 instructions: 287000002 cycles: 820642154 heartbeat IPC: 0.580181 cumulative IPC: 0.348685 (Simulation time: 0 hr 42 min 51 sec) 
Heartbeat CPU 0 instructions: 288000002 cycles: 822795018 heartbeat IPC: 0.464498 cumulative IPC: 0.348988 (Simulation time: 0 hr 42 min 59 sec) 
Heartbeat CPU 0 instructions: 289000000 cycles: 825021094 heartbeat IPC: 0.44922 cumulative IPC: 0.349259 (Simulation time: 0 hr 43 min 6 sec) 
Heartbeat CPU 0 instructions: 290000001 cycles: 826946848 heartbeat IPC: 0.519278 cumulative IPC: 0.349655 (Simulation time: 0 hr 43 min 14 sec) 
Heartbeat CPU 0 instructions: 291000001 cycles: 828833087 heartbeat IPC: 0.530156 cumulative IPC: 0.350066 (Simulation time: 0 hr 43 min 22 sec) 
Heartbeat CPU 0 instructions: 292000000 cycles: 831866069 heartbeat IPC: 0.329708 cumulative IPC: 0.349992 (Simulation time: 0 hr 43 min 31 sec) 
Heartbeat CPU 0 instructions: 293000000 cycles: 838745695 heartbeat IPC: 0.145357 cumulative IPC: 0.348312 (Simulation time: 0 hr 43 min 47 sec) 
Heartbeat CPU 0 instructions: 294000000 cycles: 841574736 heartbeat IPC: 0.353477 cumulative IPC: 0.34833 (Simulation time: 0 hr 43 min 55 sec) 
Heartbeat CPU 0 instructions: 295000000 cycles: 844013252 heartbeat IPC: 0.410085 cumulative IPC: 0.348508 (Simulation time: 0 hr 44 min 4 sec) 
Heartbeat CPU 0 instructions: 296000000 cycles: 846494171 heartbeat IPC: 0.403076 cumulative IPC: 0.348668 (Simulation time: 0 hr 44 min 12 sec) 
Heartbeat CPU 0 instructions: 297000000 cycles: 848406071 heartbeat IPC: 0.52304 cumulative IPC: 0.349062 (Simulation time: 0 hr 44 min 20 sec) 
Heartbeat CPU 0 instructions: 298000001 cycles: 850256174 heartbeat IPC: 0.540511 cumulative IPC: 0.349478 (Simulation time: 0 hr 44 min 28 sec) 
Heartbeat CPU 0 instructions: 299000001 cycles: 852260996 heartbeat IPC: 0.498797 cumulative IPC: 0.34983 (Simulation time: 0 hr 44 min 36 sec) 
Heartbeat CPU 0 instructions: 300000000 cycles: 855544689 heartbeat IPC: 0.304535 cumulative IPC: 0.349656 (Simulation time: 0 hr 44 min 46 sec) 
Heartbeat CPU 0 instructions: 301000002 cycles: 862083585 heartbeat IPC: 0.152931 cumulative IPC: 0.348163 (Simulation time: 0 hr 45 min 1 sec) 
Heartbeat CPU 0 instructions: 302000000 cycles: 864286217 heartbeat IPC: 0.454001 cumulative IPC: 0.348433 (Simulation time: 0 hr 45 min 9 sec) 
Heartbeat CPU 0 instructions: 303000000 cycles: 866422490 heartbeat IPC: 0.468105 cumulative IPC: 0.348728 (Simulation time: 0 hr 45 min 17 sec) 
Heartbeat CPU 0 instructions: 304000000 cycles: 868323559 heartbeat IPC: 0.52602 cumulative IPC: 0.349116 (Simulation time: 0 hr 45 min 24 sec) 
Heartbeat CPU 0 instructions: 305000000 cycles: 870191396 heartbeat IPC: 0.535379 cumulative IPC: 0.349516 (Simulation time: 0 hr 45 min 32 sec) 
Heartbeat CPU 0 instructions: 306000001 cycles: 872263970 heartbeat IPC: 0.482492 cumulative IPC: 0.349832 (Simulation time: 0 hr 45 min 40 sec) 
Heartbeat CPU 0 instructions: 307000001 cycles: 874710603 heartbeat IPC: 0.408725 cumulative IPC: 0.349997 (Simulation time: 0 hr 45 min 48 sec) 
Heartbeat CPU 0 instructions: 308000000 cycles: 878429490 heartbeat IPC: 0.268897 cumulative IPC: 0.349654 (Simulation time: 0 hr 45 min 59 sec) 
Heartbeat CPU 0 instructions: 309000000 cycles: 881534929 heartbeat IPC: 0.322016 cumulative IPC: 0.349556 (Simulation time: 0 hr 46 min 8 sec) 
Heartbeat CPU 0 instructions: 310000000 cycles: 883912662 heartbeat IPC: 0.420569 cumulative IPC: 0.349747 (Simulation time: 0 hr 46 min 16 sec) 
Heartbeat CPU 0 instructions: 311000001 cycles: 885985855 heartbeat IPC: 0.482348 cumulative IPC: 0.350058 (Simulation time: 0 hr 46 min 24 sec) 
Heartbeat CPU 0 instructions: 312000001 cycles: 888137677 heartbeat IPC: 0.464722 cumulative IPC: 0.350336 (Simulation time: 0 hr 46 min 32 sec) 
Heartbeat CPU 0 instructions: 313000000 cycles: 890128702 heartbeat IPC: 0.502253 cumulative IPC: 0.350676 (Simulation time: 0 hr 46 min 39 sec) 
Heartbeat CPU 0 instructions: 314000001 cycles: 892742761 heartbeat IPC: 0.382547 cumulative IPC: 0.350769 (Simulation time: 0 hr 46 min 48 sec) 
Heartbeat CPU 0 instructions: 315000003 cycles: 897341746 heartbeat IPC: 0.21744 cumulative IPC: 0.350085 (Simulation time: 0 hr 47 min 0 sec) 
Heartbeat CPU 0 instructions: 316000002 cycles: 903977393 heartbeat IPC: 0.150701 cumulative IPC: 0.348621 (Simulation time: 0 hr 47 min 15 sec) 
Heartbeat CPU 0 instructions: 317000001 cycles: 910233333 heartbeat IPC: 0.159848 cumulative IPC: 0.347323 (Simulation time: 0 hr 47 min 29 sec) 
Heartbeat CPU 0 instructions: 318000002 cycles: 913405692 heartbeat IPC: 0.315223 cumulative IPC: 0.347212 (Simulation time: 0 hr 47 min 38 sec) 
Heartbeat CPU 0 instructions: 319000000 cycles: 915463737 heartbeat IPC: 0.485897 cumulative IPC: 0.347524 (Simulation time: 0 hr 47 min 46 sec) 
Heartbeat CPU 0 instructions: 320000003 cycles: 918026609 heartbeat IPC: 0.390188 cumulative IPC: 0.347643 (Simulation time: 0 hr 47 min 54 sec) 
Heartbeat CPU 0 instructions: 321000002 cycles: 920688600 heartbeat IPC: 0.375658 cumulative IPC: 0.347724 (Simulation time: 0 hr 48 min 3 sec) 
Heartbeat CPU 0 instructions: 322000000 cycles: 922926881 heartbeat IPC: 0.446771 cumulative IPC: 0.347964 (Simulation time: 0 hr 48 min 11 sec) 
Heartbeat CPU 0 instructions: 323000000 cycles: 925057521 heartbeat IPC: 0.469343 cumulative IPC: 0.348244 (Simulation time: 0 hr 48 min 19 sec) 
Heartbeat CPU 0 instructions: 324000001 cycles: 929852507 heartbeat IPC: 0.208551 cumulative IPC: 0.347523 (Simulation time: 0 hr 48 min 31 sec) 
Heartbeat CPU 0 instructions: 325000001 cycles: 932181100 heartbeat IPC: 0.429444 cumulative IPC: 0.347728 (Simulation time: 0 hr 48 min 39 sec) 
Heartbeat CPU 0 instructions: 326000000 cycles: 934229013 heartbeat IPC: 0.488302 cumulative IPC: 0.348036 (Simulation time: 0 hr 48 min 46 sec) 
Heartbeat CPU 0 instructions: 327000002 cycles: 936212380 heartbeat IPC: 0.504194 cumulative IPC: 0.348367 (Simulation time: 0 hr 48 min 54 sec) 
Heartbeat CPU 0 instructions: 328000003 cycles: 938243965 heartbeat IPC: 0.492227 cumulative IPC: 0.348679 (Simulation time: 0 hr 49 min 2 sec) 
Heartbeat CPU 0 instructions: 329000003 cycles: 940567756 heartbeat IPC: 0.430331 cumulative IPC: 0.348881 (Simulation time: 0 hr 49 min 10 sec) 
Heartbeat CPU 0 instructions: 330000000 cycles: 942397085 heartbeat IPC: 0.546647 cumulative IPC: 0.349265 (Simulation time: 0 hr 49 min 18 sec) 
Heartbeat CPU 0 instructions: 331000001 cycles: 946189170 heartbeat IPC: 0.263707 cumulative IPC: 0.348922 (Simulation time: 0 hr 49 min 28 sec) 
Heartbeat CPU 0 instructions: 332000001 cycles: 952700565 heartbeat IPC: 0.153577 cumulative IPC: 0.347586 (Simulation time: 0 hr 49 min 43 sec) 
Heartbeat CPU 0 instructions: 333000002 cycles: 958157009 heartbeat IPC: 0.18327 cumulative IPC: 0.34665 (Simulation time: 0 hr 49 min 56 sec) 
Heartbeat CPU 0 instructions: 334000003 cycles: 960000362 heartbeat IPC: 0.54249 cumulative IPC: 0.347026 (Simulation time: 0 hr 50 min 3 sec) 
Heartbeat CPU 0 instructions: 335000001 cycles: 962721875 heartbeat IPC: 0.367442 cumulative IPC: 0.347084 (Simulation time: 0 hr 50 min 11 sec) 
Heartbeat CPU 0 instructions: 336000001 cycles: 964842554 heartbeat IPC: 0.471547 cumulative IPC: 0.347357 (Simulation time: 0 hr 50 min 19 sec) 
Heartbeat CPU 0 instructions: 337000001 cycles: 967130373 heartbeat IPC: 0.437098 cumulative IPC: 0.34757 (Simulation time: 0 hr 50 min 27 sec) 
Heartbeat CPU 0 instructions: 338000002 cycles: 969780512 heartbeat IPC: 0.377339 cumulative IPC: 0.347651 (Simulation time: 0 hr 50 min 36 sec) 
Heartbeat CPU 0 instructions: 339000001 cycles: 971921893 heartbeat IPC: 0.466988 cumulative IPC: 0.347914 (Simulation time: 0 hr 50 min 44 sec) 
Heartbeat CPU 0 instructions: 340000000 cycles: 977461445 heartbeat IPC: 0.18052 cumulative IPC: 0.346965 (Simulation time: 0 hr 50 min 57 sec) 
Heartbeat CPU 0 instructions: 341000000 cycles: 984538337 heartbeat IPC: 0.141305 cumulative IPC: 0.345486 (Simulation time: 0 hr 51 min 12 sec) 
Heartbeat CPU 0 instructions: 342000000 cycles: 987802136 heartbeat IPC: 0.306391 cumulative IPC: 0.345357 (Simulation time: 0 hr 51 min 21 sec) 
Heartbeat CPU 0 instructions: 343000000 cycles: 990799762 heartbeat IPC: 0.333597 cumulative IPC: 0.345321 (Simulation time: 0 hr 51 min 30 sec) 
Heartbeat CPU 0 instructions: 344000003 cycles: 993294275 heartbeat IPC: 0.400881 cumulative IPC: 0.345461 (Simulation time: 0 hr 51 min 39 sec) 
Heartbeat CPU 0 instructions: 345000000 cycles: 995469910 heartbeat IPC: 0.459635 cumulative IPC: 0.345711 (Simulation time: 0 hr 51 min 47 sec) 
Heartbeat CPU 0 instructions: 346000001 cycles: 998174076 heartbeat IPC: 0.3698 cumulative IPC: 0.345776 (Simulation time: 0 hr 51 min 56 sec) 
Heartbeat CPU 0 instructions: 347000000 cycles: 1000092897 heartbeat IPC: 0.521153 cumulative IPC: 0.346113 (Simulation time: 0 hr 52 min 3 sec) 
Heartbeat CPU 0 instructions: 348000002 cycles: 1003124173 heartbeat IPC: 0.329895 cumulative IPC: 0.346063 (Simulation time: 0 hr 52 min 12 sec) 
Heartbeat CPU 0 instructions: 349000002 cycles: 1006346141 heartbeat IPC: 0.310369 cumulative IPC: 0.345949 (Simulation time: 0 hr 52 min 22 sec) 
Heartbeat CPU 0 instructions: 350000003 cycles: 1008451149 heartbeat IPC: 0.475058 cumulative IPC: 0.346219 (Simulation time: 0 hr 52 min 29 sec) 
Heartbeat CPU 0 instructions: 351000001 cycles: 1010361758 heartbeat IPC: 0.523392 cumulative IPC: 0.346554 (Simulation time: 0 hr 52 min 37 sec) 
Heartbeat CPU 0 instructions: 352000000 cycles: 1013252888 heartbeat IPC: 0.345885 cumulative IPC: 0.346552 (Simulation time: 0 hr 52 min 46 sec) 
Heartbeat CPU 0 instructions: 353000001 cycles: 1015555580 heartbeat IPC: 0.434275 cumulative IPC: 0.346751 (Simulation time: 0 hr 52 min 54 sec) 
Heartbeat CPU 0 instructions: 354000002 cycles: 1018250626 heartbeat IPC: 0.371052 cumulative IPC: 0.346815 (Simulation time: 0 hr 53 min 2 sec) 
Heartbeat CPU 0 instructions: 355000001 cycles: 1024655730 heartbeat IPC: 0.156125 cumulative IPC: 0.345623 (Simulation time: 0 hr 53 min 17 sec) 
Heartbeat CPU 0 instructions: 356000003 cycles: 1031472382 heartbeat IPC: 0.1467 cumulative IPC: 0.344308 (Simulation time: 0 hr 53 min 33 sec) 
Heartbeat CPU 0 instructions: 357000001 cycles: 1033966240 heartbeat IPC: 0.400984 cumulative IPC: 0.344444 (Simulation time: 0 hr 53 min 40 sec) 
Heartbeat CPU 0 instructions: 358000000 cycles: 1035899930 heartbeat IPC: 0.517145 cumulative IPC: 0.344767 (Simulation time: 0 hr 53 min 48 sec) 
Heartbeat CPU 0 instructions: 359000001 cycles: 1037850287 heartbeat IPC: 0.512727 cumulative IPC: 0.345083 (Simulation time: 0 hr 53 min 56 sec) 
Heartbeat CPU 0 instructions: 360000000 cycles: 1039983218 heartbeat IPC: 0.468838 cumulative IPC: 0.345337 (Simulation time: 0 hr 54 min 4 sec) 
Heartbeat CPU 0 instructions: 361000001 cycles: 1041837415 heartbeat IPC: 0.539318 cumulative IPC: 0.345682 (Simulation time: 0 hr 54 min 12 sec) 
Heartbeat CPU 0 instructions: 362000003 cycles: 1043979683 heartbeat IPC: 0.466796 cumulative IPC: 0.345931 (Simulation time: 0 hr 54 min 20 sec) 
Heartbeat CPU 0 instructions: 363000000 cycles: 1047850836 heartbeat IPC: 0.25832 cumulative IPC: 0.345607 (Simulation time: 0 hr 54 min 31 sec) 
Heartbeat CPU 0 instructions: 364000001 cycles: 1050402761 heartbeat IPC: 0.391861 cumulative IPC: 0.345719 (Simulation time: 0 hr 54 min 39 sec) 
Heartbeat CPU 0 instructions: 365000000 cycles: 1052427729 heartbeat IPC: 0.493834 cumulative IPC: 0.346004 (Simulation time: 0 hr 54 min 46 sec) 
Heartbeat CPU 0 instructions: 366000001 cycles: 1054144065 heartbeat IPC: 0.582637 cumulative IPC: 0.34639 (Simulation time: 0 hr 54 min 54 sec) 
Heartbeat CPU 0 instructions: 367000001 cycles: 1057295848 heartbeat IPC: 0.317281 cumulative IPC: 0.346303 (Simulation time: 0 hr 55 min 3 sec) 
Heartbeat CPU 0 instructions: 368000002 cycles: 1059816879 heartbeat IPC: 0.396664 cumulative IPC: 0.346423 (Simulation time: 0 hr 55 min 12 sec) 
Heartbeat CPU 0 instructions: 369000002 cycles: 1062689322 heartbeat IPC: 0.348136 cumulative IPC: 0.346428 (Simulation time: 0 hr 55 min 21 sec) 
Heartbeat CPU 0 instructions: 370000000 cycles: 1066118783 heartbeat IPC: 0.29159 cumulative IPC: 0.346251 (Simulation time: 0 hr 55 min 31 sec) 
Heartbeat CPU 0 instructions: 371000003 cycles: 1071562889 heartbeat IPC: 0.183685 cumulative IPC: 0.345425 (Simulation time: 0 hr 55 min 44 sec) 
Heartbeat CPU 0 instructions: 372000000 cycles: 1073427107 heartbeat IPC: 0.536416 cumulative IPC: 0.345757 (Simulation time: 0 hr 55 min 52 sec) 
Heartbeat CPU 0 instructions: 373000002 cycles: 1075742410 heartbeat IPC: 0.43191 cumulative IPC: 0.345942 (Simulation time: 0 hr 56 min 0 sec) 
Heartbeat CPU 0 instructions: 374000000 cycles: 1078132445 heartbeat IPC: 0.418403 cumulative IPC: 0.346103 (Simulation time: 0 hr 56 min 9 sec) 
Heartbeat CPU 0 instructions: 375000001 cycles: 1079926796 heartbeat IPC: 0.557305 cumulative IPC: 0.346454 (Simulation time: 0 hr 56 min 16 sec) 
Heartbeat CPU 0 instructions: 376000001 cycles: 1082051645 heartbeat IPC: 0.470622 cumulative IPC: 0.346698 (Simulation time: 0 hr 56 min 24 sec) 
Heartbeat CPU 0 instructions: 377000000 cycles: 1083778012 heartbeat IPC: 0.579251 cumulative IPC: 0.347068 (Simulation time: 0 hr 56 min 32 sec) 
Heartbeat CPU 0 instructions: 378000001 cycles: 1088211282 heartbeat IPC: 0.225567 cumulative IPC: 0.346573 (Simulation time: 0 hr 56 min 43 sec) 
Heartbeat CPU 0 instructions: 379000002 cycles: 1093741315 heartbeat IPC: 0.180831 cumulative IPC: 0.345735 (Simulation time: 0 hr 56 min 57 sec) 
Heartbeat CPU 0 instructions: 380000000 cycles: 1095574790 heartbeat IPC: 0.545411 cumulative IPC: 0.346069 (Simulation time: 0 hr 57 min 4 sec) 
Heartbeat CPU 0 instructions: 381000000 cycles: 1097278686 heartbeat IPC: 0.58689 cumulative IPC: 0.346443 (Simulation time: 0 hr 57 min 12 sec) 
Heartbeat CPU 0 instructions: 382000001 cycles: 1099471953 heartbeat IPC: 0.455941 cumulative IPC: 0.346662 (Simulation time: 0 hr 57 min 19 sec) 
Heartbeat CPU 0 instructions: 383000001 cycles: 1102079431 heartbeat IPC: 0.383512 cumulative IPC: 0.346749 (Simulation time: 0 hr 57 min 28 sec) 
Heartbeat CPU 0 instructions: 384000000 cycles: 1104770067 heartbeat IPC: 0.371659 cumulative IPC: 0.34681 (Simulation time: 0 hr 57 min 37 sec) 
Heartbeat CPU 0 instructions: 385000000 cycles: 1108657572 heartbeat IPC: 0.257234 cumulative IPC: 0.346495 (Simulation time: 0 hr 57 min 47 sec) 
Heartbeat CPU 0 instructions: 386000000 cycles: 1112330751 heartbeat IPC: 0.272244 cumulative IPC: 0.34625 (Simulation time: 0 hr 57 min 57 sec) 
Heartbeat CPU 0 instructions: 387000003 cycles: 1114333580 heartbeat IPC: 0.499295 cumulative IPC: 0.346525 (Simulation time: 0 hr 58 min 5 sec) 
Heartbeat CPU 0 instructions: 388000003 cycles: 1116369763 heartbeat IPC: 0.491115 cumulative IPC: 0.346789 (Simulation time: 0 hr 58 min 13 sec) 
Heartbeat CPU 0 instructions: 389000002 cycles: 1119121460 heartbeat IPC: 0.363412 cumulative IPC: 0.34683 (Simulation time: 0 hr 58 min 22 sec) 
Heartbeat CPU 0 instructions: 390000003 cycles: 1122227033 heartbeat IPC: 0.322002 cumulative IPC: 0.346761 (Simulation time: 0 hr 58 min 31 sec) 
Heartbeat CPU 0 instructions: 391000000 cycles: 1124608412 heartbeat IPC: 0.419923 cumulative IPC: 0.346916 (Simulation time: 0 hr 58 min 39 sec) 
Heartbeat CPU 0 instructions: 392000000 cycles: 1127321844 heartbeat IPC: 0.368537 cumulative IPC: 0.346968 (Simulation time: 0 hr 58 min 47 sec) 
Heartbeat CPU 0 instructions: 393000002 cycles: 1131277212 heartbeat IPC: 0.252821 cumulative IPC: 0.346639 (Simulation time: 0 hr 58 min 58 sec) 
Heartbeat CPU 0 instructions: 394000003 cycles: 1133813860 heartbeat IPC: 0.394221 cumulative IPC: 0.346746 (Simulation time: 0 hr 59 min 6 sec) 
Heartbeat CPU 0 instructions: 395000000 cycles: 1136372356 heartbeat IPC: 0.390853 cumulative IPC: 0.346845 (Simulation time: 0 hr 59 min 15 sec) 
Heartbeat CPU 0 instructions: 396000000 cycles: 1138509355 heartbeat IPC: 0.467946 cumulative IPC: 0.347072 (Simulation time: 0 hr 59 min 23 sec) 
Heartbeat CPU 0 instructions: 397000000 cycles: 1140911144 heartbeat IPC: 0.416356 cumulative IPC: 0.347218 (Simulation time: 0 hr 59 min 32 sec) 
Heartbeat CPU 0 instructions: 398000001 cycles: 1143039918 heartbeat IPC: 0.469754 cumulative IPC: 0.347447 (Simulation time: 0 hr 59 min 39 sec) 
Heartbeat CPU 0 instructions: 399000002 cycles: 1145796666 heartbeat IPC: 0.362747 cumulative IPC: 0.347483 (Simulation time: 0 hr 59 min 48 sec) 
Heartbeat CPU 0 instructions: 400000001 cycles: 1151735941 heartbeat IPC: 0.168371 cumulative IPC: 0.346559 (Simulation time: 1 hr 0 min 2 sec) 
Heartbeat CPU 0 instructions: 401000003 cycles: 1156263543 heartbeat IPC: 0.220868 cumulative IPC: 0.346067 (Simulation time: 1 hr 0 min 13 sec) 
Heartbeat CPU 0 instructions: 402000000 cycles: 1158829001 heartbeat IPC: 0.389793 cumulative IPC: 0.346164 (Simulation time: 1 hr 0 min 21 sec) 
Heartbeat CPU 0 instructions: 403000001 cycles: 1161038053 heartbeat IPC: 0.452683 cumulative IPC: 0.346367 (Simulation time: 1 hr 0 min 29 sec) 
Heartbeat CPU 0 instructions: 404000000 cycles: 1162891297 heartbeat IPC: 0.539594 cumulative IPC: 0.346675 (Simulation time: 1 hr 0 min 37 sec) 
Heartbeat CPU 0 instructions: 405000000 cycles: 1164677602 heartbeat IPC: 0.559815 cumulative IPC: 0.347002 (Simulation time: 1 hr 0 min 44 sec) 
Heartbeat CPU 0 instructions: 406000001 cycles: 1166431318 heartbeat IPC: 0.570218 cumulative IPC: 0.347337 (Simulation time: 1 hr 0 min 51 sec) 
Heartbeat CPU 0 instructions: 407000000 cycles: 1168453436 heartbeat IPC: 0.49453 cumulative IPC: 0.347592 (Simulation time: 1 hr 0 min 59 sec) 
Heartbeat CPU 0 instructions: 408000000 cycles: 1172534641 heartbeat IPC: 0.245026 cumulative IPC: 0.347235 (Simulation time: 1 hr 1 min 10 sec) 
Heartbeat CPU 0 instructions: 409000000 cycles: 1174788195 heartbeat IPC: 0.443744 cumulative IPC: 0.34742 (Simulation time: 1 hr 1 min 17 sec) 
Heartbeat CPU 0 instructions: 410000001 cycles: 1176734391 heartbeat IPC: 0.513823 cumulative IPC: 0.347696 (Simulation time: 1 hr 1 min 25 sec) 
Heartbeat CPU 0 instructions: 411000002 cycles: 1179013527 heartbeat IPC: 0.438763 cumulative IPC: 0.347872 (Simulation time: 1 hr 1 min 32 sec) 
Heartbeat CPU 0 instructions: 412000003 cycles: 1180956281 heartbeat IPC: 0.514734 cumulative IPC: 0.348146 (Simulation time: 1 hr 1 min 40 sec) 
Heartbeat CPU 0 instructions: 413000000 cycles: 1183052715 heartbeat IPC: 0.476999 cumulative IPC: 0.348375 (Simulation time: 1 hr 1 min 48 sec) 
Heartbeat CPU 0 instructions: 414000002 cycles: 1185528279 heartbeat IPC: 0.403949 cumulative IPC: 0.348491 (Simulation time: 1 hr 1 min 56 sec) 
Heartbeat CPU 0 instructions: 415000000 cycles: 1190161759 heartbeat IPC: 0.21582 cumulative IPC: 0.347974 (Simulation time: 1 hr 2 min 8 sec) 
Heartbeat CPU 0 instructions: 416000000 cycles: 1192044551 heartbeat IPC: 0.531126 cumulative IPC: 0.348263 (Simulation time: 1 hr 2 min 15 sec) 
Heartbeat CPU 0 instructions: 417000002 cycles: 1193770880 heartbeat IPC: 0.579265 cumulative IPC: 0.348598 (Simulation time: 1 hr 2 min 23 sec) 
Heartbeat CPU 0 instructions: 418000000 cycles: 1195666076 heartbeat IPC: 0.527649 cumulative IPC: 0.348882 (Simulation time: 1 hr 2 min 30 sec) 
Heartbeat CPU 0 instructions: 419000000 cycles: 1199105657 heartbeat IPC: 0.290733 cumulative IPC: 0.348715 (Simulation time: 1 hr 2 min 40 sec) 
Heartbeat CPU 0 instructions: 420000000 cycles: 1202623717 heartbeat IPC: 0.284248 cumulative IPC: 0.348526 (Simulation time: 1 hr 2 min 49 sec) 
Heartbeat CPU 0 instructions: 421000000 cycles: 1205889033 heartbeat IPC: 0.306249 cumulative IPC: 0.348412 (Simulation time: 1 hr 2 min 59 sec) 
Heartbeat CPU 0 instructions: 422000000 cycles: 1210432568 heartbeat IPC: 0.220093 cumulative IPC: 0.34793 (Simulation time: 1 hr 3 min 10 sec) 
Heartbeat CPU 0 instructions: 423000000 cycles: 1212498348 heartbeat IPC: 0.484079 cumulative IPC: 0.348162 (Simulation time: 1 hr 3 min 17 sec) 
Heartbeat CPU 0 instructions: 424000001 cycles: 1214382052 heartbeat IPC: 0.530869 cumulative IPC: 0.348445 (Simulation time: 1 hr 3 min 25 sec) 
Heartbeat CPU 0 instructions: 425000002 cycles: 1216329110 heartbeat IPC: 0.513596 cumulative IPC: 0.34871 (Simulation time: 1 hr 3 min 32 sec) 
Heartbeat CPU 0 instructions: 426000003 cycles: 1218276480 heartbeat IPC: 0.513514 cumulative IPC: 0.348973 (Simulation time: 1 hr 3 min 40 sec) 
Heartbeat CPU 0 instructions: 427000001 cycles: 1220264676 heartbeat IPC: 0.502968 cumulative IPC: 0.349224 (Simulation time: 1 hr 3 min 47 sec) 
Heartbeat CPU 0 instructions: 428000002 cycles: 1224413958 heartbeat IPC: 0.241006 cumulative IPC: 0.348857 (Simulation time: 1 hr 3 min 58 sec) 
Heartbeat CPU 0 instructions: 429000000 cycles: 1226250210 heartbeat IPC: 0.544586 cumulative IPC: 0.349151 (Simulation time: 1 hr 4 min 5 sec) 
Heartbeat CPU 0 instructions: 430000000 cycles: 1228074304 heartbeat IPC: 0.548217 cumulative IPC: 0.349446 (Simulation time: 1 hr 4 min 13 sec) 
Heartbeat CPU 0 instructions: 431000000 cycles: 1230173318 heartbeat IPC: 0.476414 cumulative IPC: 0.349663 (Simulation time: 1 hr 4 min 21 sec) 
Heartbeat CPU 0 instructions: 432000001 cycles: 1232307669 heartbeat IPC: 0.468527 cumulative IPC: 0.349869 (Simulation time: 1 hr 4 min 28 sec) 
Heartbeat CPU 0 instructions: 433000001 cycles: 1235308959 heartbeat IPC: 0.33319 cumulative IPC: 0.349828 (Simulation time: 1 hr 4 min 37 sec) 
Heartbeat CPU 0 instructions: 434000000 cycles: 1240437196 heartbeat IPC: 0.194999 cumulative IPC: 0.349188 (Simulation time: 1 hr 4 min 50 sec) 
Heartbeat CPU 0 instructions: 435000001 cycles: 1242801151 heartbeat IPC: 0.42302 cumulative IPC: 0.349329 (Simulation time: 1 hr 4 min 58 sec) 
Heartbeat CPU 0 instructions: 436000001 cycles: 1245357031 heartbeat IPC: 0.391255 cumulative IPC: 0.349415 (Simulation time: 1 hr 5 min 6 sec) 
Heartbeat CPU 0 instructions: 437000002 cycles: 1247348769 heartbeat IPC: 0.502075 cumulative IPC: 0.349659 (Simulation time: 1 hr 5 min 13 sec) 
Heartbeat CPU 0 instructions: 438000001 cycles: 1249412634 heartbeat IPC: 0.484527 cumulative IPC: 0.349881 (Simulation time: 1 hr 5 min 21 sec) 
Heartbeat CPU 0 instructions: 439000001 cycles: 1251956970 heartbeat IPC: 0.39303 cumulative IPC: 0.349969 (Simulation time: 1 hr 5 min 29 sec) 
Heartbeat CPU 0 instructions: 440000000 cycles: 1256738261 heartbeat IPC: 0.209148 cumulative IPC: 0.349433 (Simulation time: 1 hr 5 min 41 sec) 
Heartbeat CPU 0 instructions: 441000001 cycles: 1263444936 heartbeat IPC: 0.149105 cumulative IPC: 0.348369 (Simulation time: 1 hr 5 min 56 sec) 
Heartbeat CPU 0 instructions: 442000001 cycles: 1268766189 heartbeat IPC: 0.187926 cumulative IPC: 0.347696 (Simulation time: 1 hr 6 min 8 sec) 
Heartbeat CPU 0 instructions: 443000001 cycles: 1271268924 heartbeat IPC: 0.399563 cumulative IPC: 0.347798 (Simulation time: 1 hr 6 min 17 sec) 
Heartbeat CPU 0 instructions: 444000001 cycles: 1273865786 heartbeat IPC: 0.38508 cumulative IPC: 0.347874 (Simulation time: 1 hr 6 min 25 sec) 
Heartbeat CPU 0 instructions: 445000002 cycles: 1275883103 heartbeat IPC: 0.495708 cumulative IPC: 0.348108 (Simulation time: 1 hr 6 min 33 sec) 
Heartbeat CPU 0 instructions: 446000001 cycles: 1277689162 heartbeat IPC: 0.553691 cumulative IPC: 0.348399 (Simulation time: 1 hr 6 min 40 sec) 
Heartbeat CPU 0 instructions: 447000000 cycles: 1280001253 heartbeat IPC: 0.432508 cumulative IPC: 0.348551 (Simulation time: 1 hr 6 min 48 sec) 
Heartbeat CPU 0 instructions: 448000001 cycles: 1282269001 heartbeat IPC: 0.440967 cumulative IPC: 0.348714 (Simulation time: 1 hr 6 min 56 sec) 
Heartbeat CPU 0 instructions: 449000001 cycles: 1286325565 heartbeat IPC: 0.246514 cumulative IPC: 0.348392 (Simulation time: 1 hr 7 min 8 sec) 
Heartbeat CPU 0 instructions: 450000002 cycles: 1288520832 heartbeat IPC: 0.455526 cumulative IPC: 0.348575 (Simulation time: 1 hr 7 min 15 sec) 

Warmup complete CPU 0 instructions: 450000002 cycles: 1288520832 (Simulation time: 1 hr 7 min 15 sec) 

Heartbeat CPU 0 instructions: 451000000 cycles: 1290727032 heartbeat IPC: 0.453267 cumulative IPC: 0.453267 (Simulation time: 1 hr 7 min 23 sec) 
Heartbeat CPU 0 instructions: 452000001 cycles: 1293842960 heartbeat IPC: 0.320932 cumulative IPC: 0.375789 (Simulation time: 1 hr 7 min 32 sec) 
Heartbeat CPU 0 instructions: 453000000 cycles: 1296443413 heartbeat IPC: 0.384548 cumulative IPC: 0.378664 (Simulation time: 1 hr 7 min 40 sec) 
Heartbeat CPU 0 instructions: 454000000 cycles: 1299134044 heartbeat IPC: 0.37166 cumulative IPC: 0.376889 (Simulation time: 1 hr 7 min 49 sec) 
Heartbeat CPU 0 instructions: 455000000 cycles: 1303784344 heartbeat IPC: 0.21504 cumulative IPC: 0.327578 (Simulation time: 1 hr 8 min 0 sec) 
Heartbeat CPU 0 instructions: 456000001 cycles: 1309715403 heartbeat IPC: 0.168604 cumulative IPC: 0.283091 (Simulation time: 1 hr 8 min 14 sec) 
Heartbeat CPU 0 instructions: 457000003 cycles: 1311529459 heartbeat IPC: 0.551252 cumulative IPC: 0.304234 (Simulation time: 1 hr 8 min 22 sec) 
Heartbeat CPU 0 instructions: 458000000 cycles: 1313802295 heartbeat IPC: 0.439978 cumulative IPC: 0.316437 (Simulation time: 1 hr 8 min 30 sec) 
Heartbeat CPU 0 instructions: 459000002 cycles: 1316646078 heartbeat IPC: 0.351645 cumulative IPC: 0.319997 (Simulation time: 1 hr 8 min 38 sec) 
Heartbeat CPU 0 instructions: 460000000 cycles: 1318691435 heartbeat IPC: 0.488911 cumulative IPC: 0.331448 (Simulation time: 1 hr 8 min 46 sec) 
Heartbeat CPU 0 instructions: 461000000 cycles: 1320897923 heartbeat IPC: 0.453209 cumulative IPC: 0.339746 (Simulation time: 1 hr 8 min 54 sec) 
Heartbeat CPU 0 instructions: 462000000 cycles: 1324004633 heartbeat IPC: 0.321884 cumulative IPC: 0.338182 (Simulation time: 1 hr 9 min 4 sec) 
Heartbeat CPU 0 instructions: 463000001 cycles: 1328871105 heartbeat IPC: 0.205488 cumulative IPC: 0.322179 (Simulation time: 1 hr 9 min 16 sec) 
Heartbeat CPU 0 instructions: 464000001 cycles: 1330919852 heartbeat IPC: 0.488103 cumulative IPC: 0.330196 (Simulation time: 1 hr 9 min 24 sec) 
Heartbeat CPU 0 instructions: 465000001 cycles: 1332792867 heartbeat IPC: 0.533899 cumulative IPC: 0.338814 (Simulation time: 1 hr 9 min 31 sec) 
Heartbeat CPU 0 instructions: 466000000 cycles: 1334847561 heartbeat IPC: 0.48669 cumulative IPC: 0.345373 (Simulation time: 1 hr 9 min 39 sec) 
Heartbeat CPU 0 instructions: 467000001 cycles: 1336840079 heartbeat IPC: 0.501878 cumulative IPC: 0.351827 (Simulation time: 1 hr 9 min 47 sec) 
Heartbeat CPU 0 instructions: 468000000 cycles: 1339198413 heartbeat IPC: 0.424028 cumulative IPC: 0.355187 (Simulation time: 1 hr 9 min 55 sec) 
Heartbeat CPU 0 instructions: 469000002 cycles: 1341884689 heartbeat IPC: 0.372263 cumulative IPC: 0.356046 (Simulation time: 1 hr 10 min 3 sec) 
Heartbeat CPU 0 instructions: 470000000 cycles: 1346552877 heartbeat IPC: 0.214215 cumulative IPC: 0.344637 (Simulation time: 1 hr 10 min 15 sec) 
Heartbeat CPU 0 instructions: 471000001 cycles: 1348883446 heartbeat IPC: 0.42908 cumulative IPC: 0.347897 (Simulation time: 1 hr 10 min 23 sec) 
Heartbeat CPU 0 instructions: 472000000 cycles: 1350797745 heartbeat IPC: 0.522384 cumulative IPC: 0.353261 (Simulation time: 1 hr 10 min 31 sec) 
Heartbeat CPU 0 instructions: 473000000 cycles: 1352671251 heartbeat IPC: 0.533759 cumulative IPC: 0.358532 (Simulation time: 1 hr 10 min 39 sec) 
Heartbeat CPU 0 instructions: 474000002 cycles: 1354768188 heartbeat IPC: 0.476887 cumulative IPC: 0.362279 (Simulation time: 1 hr 10 min 47 sec) 
Heartbeat CPU 0 instructions: 475000001 cycles: 1356995539 heartbeat IPC: 0.448963 cumulative IPC: 0.365098 (Simulation time: 1 hr 10 min 55 sec) 
Heartbeat CPU 0 instructions: 476000003 cycles: 1359366362 heartbeat IPC: 0.421795 cumulative IPC: 0.366996 (Simulation time: 1 hr 11 min 3 sec) 
Heartbeat CPU 0 instructions: 477000001 cycles: 1363143684 heartbeat IPC: 0.264737 cumulative IPC: 0.361819 (Simulation time: 1 hr 11 min 14 sec) 
Heartbeat CPU 0 instructions: 478000001 cycles: 1369399246 heartbeat IPC: 0.159858 cumulative IPC: 0.346199 (Simulation time: 1 hr 11 min 28 sec) 
Heartbeat CPU 0 instructions: 479000001 cycles: 1371310855 heartbeat IPC: 0.52312 cumulative IPC: 0.350284 (Simulation time: 1 hr 11 min 36 sec) 
Heartbeat CPU 0 instructions: 480000001 cycles: 1373139303 heartbeat IPC: 0.546912 cumulative IPC: 0.354533 (Simulation time: 1 hr 11 min 43 sec) 
Heartbeat CPU 0 instructions: 481000000 cycles: 1375076600 heartbeat IPC: 0.516183 cumulative IPC: 0.358151 (Simulation time: 1 hr 11 min 51 sec) 
Heartbeat CPU 0 instructions: 482000002 cycles: 1378156011 heartbeat IPC: 0.324738 cumulative IPC: 0.357003 (Simulation time: 1 hr 12 min 0 sec) 
Heartbeat CPU 0 instructions: 483000000 cycles: 1381125700 heartbeat IPC: 0.336735 cumulative IPC: 0.356353 (Simulation time: 1 hr 12 min 9 sec) 
Heartbeat CPU 0 instructions: 484000000 cycles: 1383250131 heartbeat IPC: 0.470714 cumulative IPC: 0.358917 (Simulation time: 1 hr 12 min 17 sec) 
Heartbeat CPU 0 instructions: 485000000 cycles: 1387541228 heartbeat IPC: 0.233041 cumulative IPC: 0.353463 (Simulation time: 1 hr 12 min 28 sec) 
Heartbeat CPU 0 instructions: 486000002 cycles: 1390271989 heartbeat IPC: 0.366199 cumulative IPC: 0.353804 (Simulation time: 1 hr 12 min 36 sec) 
Heartbeat CPU 0 instructions: 487000001 cycles: 1392080249 heartbeat IPC: 0.553017 cumulative IPC: 0.357283 (Simulation time: 1 hr 12 min 44 sec) 
Heartbeat CPU 0 instructions: 488000001 cycles: 1393882217 heartbeat IPC: 0.554949 cumulative IPC: 0.360663 (Simulation time: 1 hr 12 min 51 sec) 
Heartbeat CPU 0 instructions: 489000003 cycles: 1396137837 heartbeat IPC: 0.443338 cumulative IPC: 0.362396 (Simulation time: 1 hr 12 min 59 sec) 
Heartbeat CPU 0 instructions: 490000000 cycles: 1398175522 heartbeat IPC: 0.490752 cumulative IPC: 0.364781 (Simulation time: 1 hr 13 min 7 sec) 
Heartbeat CPU 0 instructions: 491000000 cycles: 1400771509 heartbeat IPC: 0.38521 cumulative IPC: 0.365254 (Simulation time: 1 hr 13 min 16 sec) 
Heartbeat CPU 0 instructions: 492000000 cycles: 1404581330 heartbeat IPC: 0.26248 cumulative IPC: 0.36188 (Simulation time: 1 hr 13 min 26 sec) 
Heartbeat CPU 0 instructions: 493000000 cycles: 1407957312 heartbeat IPC: 0.29621 cumulative IPC: 0.360024 (Simulation time: 1 hr 13 min 36 sec) 
Heartbeat CPU 0 instructions: 494000000 cycles: 1410215079 heartbeat IPC: 0.442915 cumulative IPC: 0.361562 (Simulation time: 1 hr 13 min 43 sec) 
Heartbeat CPU 0 instructions: 495000000 cycles: 1412545916 heartbeat IPC: 0.42903 cumulative IPC: 0.36283 (Simulation time: 1 hr 13 min 52 sec) 
Heartbeat CPU 0 instructions: 496000000 cycles: 1414956940 heartbeat IPC: 0.414762 cumulative IPC: 0.36382 (Simulation time: 1 hr 13 min 59 sec) 
Heartbeat CPU 0 instructions: 497000003 cycles: 1416930441 heartbeat IPC: 0.506715 cumulative IPC: 0.366016 (Simulation time: 1 hr 14 min 7 sec) 
Heartbeat CPU 0 instructions: 498000001 cycles: 1420112917 heartbeat IPC: 0.31422 cumulative IPC: 0.364764 (Simulation time: 1 hr 14 min 16 sec) 
Heartbeat CPU 0 instructions: 499000001 cycles: 1423824551 heartbeat IPC: 0.269423 cumulative IPC: 0.362148 (Simulation time: 1 hr 14 min 26 sec) 
Heartbeat CPU 0 instructions: 500000001 cycles: 1425858008 heartbeat IPC: 0.491773 cumulative IPC: 0.364067 (Simulation time: 1 hr 14 min 34 sec) 
Heartbeat CPU 0 instructions: 501000002 cycles: 1427630305 heartbeat IPC: 0.56424 cumulative IPC: 0.366618 (Simulation time: 1 hr 14 min 42 sec) 
Heartbeat CPU 0 instructions: 502000001 cycles: 1429506072 heartbeat IPC: 0.533115 cumulative IPC: 0.368833 (Simulation time: 1 hr 14 min 49 sec) 
Heartbeat CPU 0 instructions: 503000001 cycles: 1432088750 heartbeat IPC: 0.387195 cumulative IPC: 0.369163 (Simulation time: 1 hr 14 min 57 sec) 
Heartbeat CPU 0 instructions: 504000001 cycles: 1434632665 heartbeat IPC: 0.393095 cumulative IPC: 0.36958 (Simulation time: 1 hr 15 min 6 sec) 
Heartbeat CPU 0 instructions: 505000000 cycles: 1437091823 heartbeat IPC: 0.406643 cumulative IPC: 0.370193 (Simulation time: 1 hr 15 min 14 sec) 
Heartbeat CPU 0 instructions: 506000000 cycles: 1440865949 heartbeat IPC: 0.264962 cumulative IPC: 0.367586 (Simulation time: 1 hr 15 min 25 sec) 
Heartbeat CPU 0 instructions: 507000000 cycles: 1442688765 heartbeat IPC: 0.548602 cumulative IPC: 0.369727 (Simulation time: 1 hr 15 min 32 sec) 
Heartbeat CPU 0 instructions: 508000001 cycles: 1444830975 heartbeat IPC: 0.466808 cumulative IPC: 0.371057 (Simulation time: 1 hr 15 min 40 sec) 
Heartbeat CPU 0 instructions: 509000003 cycles: 1447595818 heartbeat IPC: 0.361685 cumulative IPC: 0.370894 (Simulation time: 1 hr 15 min 48 sec) 
Heartbeat CPU 0 instructions: 510000002 cycles: 1449655675 heartbeat IPC: 0.48547 cumulative IPC: 0.372359 (Simulation time: 1 hr 15 min 56 sec) 
Heartbeat CPU 0 instructions: 511000003 cycles: 1451647690 heartbeat IPC: 0.502005 cumulative IPC: 0.373942 (Simulation time: 1 hr 16 min 4 sec) 
Heartbeat CPU 0 instructions: 512000002 cycles: 1453905453 heartbeat IPC: 0.442916 cumulative IPC: 0.374884 (Simulation time: 1 hr 16 min 12 sec) 
Heartbeat CPU 0 instructions: 513000001 cycles: 1459700065 heartbeat IPC: 0.172574 cumulative IPC: 0.368035 (Simulation time: 1 hr 16 min 26 sec) 
Heartbeat CPU 0 instructions: 514000000 cycles: 1466991629 heartbeat IPC: 0.137145 cumulative IPC: 0.358602 (Simulation time: 1 hr 16 min 42 sec) 
Heartbeat CPU 0 instructions: 515000000 cycles: 1470033988 heartbeat IPC: 0.328692 cumulative IPC: 0.358101 (Simulation time: 1 hr 16 min 51 sec) 
Heartbeat CPU 0 instructions: 516000002 cycles: 1472057917 heartbeat IPC: 0.494089 cumulative IPC: 0.3596 (Simulation time: 1 hr 16 min 59 sec) 
Heartbeat CPU 0 instructions: 517000000 cycles: 1474587191 heartbeat IPC: 0.39537 cumulative IPC: 0.360087 (Simulation time: 1 hr 17 min 7 sec) 
Heartbeat CPU 0 instructions: 518000000 cycles: 1477461699 heartbeat IPC: 0.347886 cumulative IPC: 0.359901 (Simulation time: 1 hr 17 min 16 sec) 
Heartbeat CPU 0 instructions: 519000000 cycles: 1480598719 heartbeat IPC: 0.318774 cumulative IPC: 0.359229 (Simulation time: 1 hr 17 min 26 sec) 
Heartbeat CPU 0 instructions: 520000002 cycles: 1483069328 heartbeat IPC: 0.404759 cumulative IPC: 0.359807 (Simulation time: 1 hr 17 min 34 sec) 
Heartbeat CPU 0 instructions: 521000000 cycles: 1486223484 heartbeat IPC: 0.317041 cumulative IPC: 0.359125 (Simulation time: 1 hr 17 min 44 sec) 
Heartbeat CPU 0 instructions: 522000001 cycles: 1489526185 heartbeat IPC: 0.302783 cumulative IPC: 0.358199 (Simulation time: 1 hr 17 min 53 sec) 
Heartbeat CPU 0 instructions: 523000000 cycles: 1491559516 heartbeat IPC: 0.491803 cumulative IPC: 0.359537 (Simulation time: 1 hr 18 min 0 sec) 
Heartbeat CPU 0 instructions: 524000000 cycles: 1493410223 heartbeat IPC: 0.540334 cumulative IPC: 0.36117 (Simulation time: 1 hr 18 min 8 sec) 
Heartbeat CPU 0 instructions: 525000000 cycles: 1495213009 heartbeat IPC: 0.554697 cumulative IPC: 0.362858 (Simulation time: 1 hr 18 min 15 sec) 
Heartbeat CPU 0 instructions: 526000000 cycles: 1497092087 heartbeat IPC: 0.532176 cumulative IPC: 0.364384 (Simulation time: 1 hr 18 min 22 sec) 
Heartbeat CPU 0 instructions: 527000000 cycles: 1500681329 heartbeat IPC: 0.27861 cumulative IPC: 0.362933 (Simulation time: 1 hr 18 min 32 sec) 
Heartbeat CPU 0 instructions: 528000000 cycles: 1503762165 heartbeat IPC: 0.324587 cumulative IPC: 0.362384 (Simulation time: 1 hr 18 min 41 sec) 
Heartbeat CPU 0 instructions: 529000002 cycles: 1505741416 heartbeat IPC: 0.505243 cumulative IPC: 0.363686 (Simulation time: 1 hr 18 min 49 sec) 
Heartbeat CPU 0 instructions: 530000000 cycles: 1507976404 heartbeat IPC: 0.447429 cumulative IPC: 0.364538 (Simulation time: 1 hr 18 min 57 sec) 
Heartbeat CPU 0 instructions: 531000000 cycles: 1510855441 heartbeat IPC: 0.347338 cumulative IPC: 0.364316 (Simulation time: 1 hr 19 min 6 sec) 
Heartbeat CPU 0 instructions: 532000000 cycles: 1513686097 heartbeat IPC: 0.353275 cumulative IPC: 0.364177 (Simulation time: 1 hr 19 min 15 sec) 
Heartbeat CPU 0 instructions: 533000001 cycles: 1515792121 heartbeat IPC: 0.474829 cumulative IPC: 0.365202 (Simulation time: 1 hr 19 min 23 sec) 
Heartbeat CPU 0 instructions: 534000000 cycles: 1518349665 heartbeat IPC: 0.391 cumulative IPC: 0.365489 (Simulation time: 1 hr 19 min 32 sec) 
Heartbeat CPU 0 instructions: 535000000 cycles: 1524777207 heartbeat IPC: 0.15558 cumulative IPC: 0.359779 (Simulation time: 1 hr 19 min 47 sec) 
Heartbeat CPU 0 instructions: 536000001 cycles: 1531525720 heartbeat IPC: 0.148181 cumulative IPC: 0.353902 (Simulation time: 1 hr 20 min 2 sec) 
Heartbeat CPU 0 instructions: 537000000 cycles: 1533745959 heartbeat IPC: 0.450402 cumulative IPC: 0.354776 (Simulation time: 1 hr 20 min 10 sec) 
Heartbeat CPU 0 instructions: 538000001 cycles: 1535603313 heartbeat IPC: 0.538401 cumulative IPC: 0.356156 (Simulation time: 1 hr 20 min 17 sec) 
Heartbeat CPU 0 instructions: 539000000 cycles: 1537640230 heartbeat IPC: 0.490938 cumulative IPC: 0.357258 (Simulation time: 1 hr 20 min 25 sec) 
Heartbeat CPU 0 instructions: 540000000 cycles: 1539686642 heartbeat IPC: 0.48866 cumulative IPC: 0.358329 (Simulation time: 1 hr 20 min 33 sec) 
Heartbeat CPU 0 instructions: 541000000 cycles: 1542508919 heartbeat IPC: 0.354324 cumulative IPC: 0.358285 (Simulation time: 1 hr 20 min 42 sec) 
Heartbeat CPU 0 instructions: 542000002 cycles: 1544902609 heartbeat IPC: 0.417766 cumulative IPC: 0.35884 (Simulation time: 1 hr 20 min 50 sec) 
Heartbeat CPU 0 instructions: 543000001 cycles: 1547899823 heartbeat IPC: 0.333643 cumulative IPC: 0.358549 (Simulation time: 1 hr 20 min 59 sec) 
Heartbeat CPU 0 instructions: 544000001 cycles: 1551196549 heartbeat IPC: 0.303331 cumulative IPC: 0.357856 (Simulation time: 1 hr 21 min 10 sec) 
Heartbeat CPU 0 instructions: 545000000 cycles: 1553023717 heartbeat IPC: 0.547294 cumulative IPC: 0.359164 (Simulation time: 1 hr 21 min 17 sec) 
[...]
Heartbeat CPU 0 instructions: 834000002 cycles: 2357251147 heartbeat IPC: 0.595818 cumulative IPC: 0.359305 (Simulation time: 2 hr 4 min 32 sec) 
Heartbeat CPU 0 instructions: 835000002 cycles: 2360446343 heartbeat IPC: 0.31297 cumulative IPC: 0.359167 (Simulation time: 2 hr 4 min 41 sec) 
Heartbeat CPU 0 instructions: 836000000 cycles: 2366920154 heartbeat IPC: 0.154468 cumulative IPC: 0.357938 (Simulation time: 2 hr 4 min 56 sec) 
Heartbeat CPU 0 instructions: 837000000 cycles: 2373427122 heartbeat IPC: 0.153681 cumulative IPC: 0.356713 (Simulation time: 2 hr 5 min 11 sec) 
Heartbeat CPU 0 instructions: 838000002 cycles: 2379092702 heartbeat IPC: 0.176505 cumulative IPC: 0.355777 (Simulation time: 2 hr 5 min 24 sec) 
Heartbeat CPU 0 instructions: 839000000 cycles: 2381012488 heartbeat IPC: 0.52089 cumulative IPC: 0.356067 (Simulation time: 2 hr 5 min 32 sec) 
Heartbeat CPU 0 instructions: 840000002 cycles: 2382788340 heartbeat IPC: 0.563111 cumulative IPC: 0.356403 (Simulation time: 2 hr 5 min 39 sec) 
Heartbeat CPU 0 instructions: 841000001 cycles: 2384943474 heartbeat IPC: 0.464008 cumulative IPC: 0.356614 (Simulation time: 2 hr 5 min 47 sec) 
Heartbeat CPU 0 instructions: 842000000 cycles: 2386881388 heartbeat IPC: 0.516018 cumulative IPC: 0.356896 (Simulation time: 2 hr 5 min 55 sec) 
Heartbeat CPU 0 instructions: 843000001 cycles: 2389021727 heartbeat IPC: 0.467216 cumulative IPC: 0.35711 (Simulation time: 2 hr 6 min 3 sec) 
Heartbeat CPU 0 instructions: 844000000 cycles: 2391434755 heartbeat IPC: 0.414417 cumulative IPC: 0.357235 (Simulation time: 2 hr 6 min 11 sec) 
Heartbeat CPU 0 instructions: 845000003 cycles: 2395017342 heartbeat IPC: 0.279129 cumulative IPC: 0.356983 (Simulation time: 2 hr 6 min 22 sec) 
Heartbeat CPU 0 instructions: 846000001 cycles: 2401509638 heartbeat IPC: 0.154028 cumulative IPC: 0.355799 (Simulation time: 2 hr 6 min 37 sec) 
Heartbeat CPU 0 instructions: 847000000 cycles: 2403610475 heartbeat IPC: 0.476 cumulative IPC: 0.356025 (Simulation time: 2 hr 6 min 44 sec) 
Heartbeat CPU 0 instructions: 848000003 cycles: 2405388304 heartbeat IPC: 0.562485 cumulative IPC: 0.356354 (Simulation time: 2 hr 6 min 52 sec) 
Heartbeat CPU 0 instructions: 849000000 cycles: 2407128238 heartbeat IPC: 0.574733 cumulative IPC: 0.356694 (Simulation time: 2 hr 6 min 59 sec) 
Heartbeat CPU 0 instructions: 850000001 cycles: 2408892419 heartbeat IPC: 0.566836 cumulative IPC: 0.357024 (Simulation time: 2 hr 7 min 7 sec) 
Heartbeat CPU 0 instructions: 851000001 cycles: 2410660361 heartbeat IPC: 0.565629 cumulative IPC: 0.357353 (Simulation time: 2 hr 7 min 14 sec) 
Heartbeat CPU 0 instructions: 852000001 cycles: 2412584183 heartbeat IPC: 0.519799 cumulative IPC: 0.357631 (Simulation time: 2 hr 7 min 22 sec) 
Heartbeat CPU 0 instructions: 853000001 cycles: 2414739743 heartbeat IPC: 0.463917 cumulative IPC: 0.357835 (Simulation time: 2 hr 7 min 29 sec) 
Heartbeat CPU 0 instructions: 854000002 cycles: 2420659193 heartbeat IPC: 0.168935 cumulative IPC: 0.356847 (Simulation time: 2 hr 7 min 44 sec) 
Heartbeat CPU 0 instructions: 855000002 cycles: 2427582998 heartbeat IPC: 0.144429 cumulative IPC: 0.355556 (Simulation time: 2 hr 8 min 0 sec) 
Heartbeat CPU 0 instructions: 856000000 cycles: 2430509234 heartbeat IPC: 0.341735 cumulative IPC: 0.35552 (Simulation time: 2 hr 8 min 9 sec) 
Heartbeat CPU 0 instructions: 857000002 cycles: 2432917028 heartbeat IPC: 0.415319 cumulative IPC: 0.355646 (Simulation time: 2 hr 8 min 17 sec) 
Heartbeat CPU 0 instructions: 858000000 cycles: 2435248961 heartbeat IPC: 0.428828 cumulative IPC: 0.355795 (Simulation time: 2 hr 8 min 25 sec) 
Heartbeat CPU 0 instructions: 859000000 cycles: 2437318330 heartbeat IPC: 0.483239 cumulative IPC: 0.356024 (Simulation time: 2 hr 8 min 33 sec) 
Heartbeat CPU 0 instructions: 860000003 cycles: 2439311259 heartbeat IPC: 0.501776 cumulative IPC: 0.356277 (Simulation time: 2 hr 8 min 41 sec) 
Heartbeat CPU 0 instructions: 861000002 cycles: 2441636262 heartbeat IPC: 0.430107 cumulative IPC: 0.356426 (Simulation time: 2 hr 8 min 49 sec) 
Heartbeat CPU 0 instructions: 862000000 cycles: 2443719444 heartbeat IPC: 0.480034 cumulative IPC: 0.356649 (Simulation time: 2 hr 8 min 57 sec) 
Heartbeat CPU 0 instructions: 863000001 cycles: 2447731335 heartbeat IPC: 0.249259 cumulative IPC: 0.356277 (Simulation time: 2 hr 9 min 8 sec) 
Heartbeat CPU 0 instructions: 864000001 cycles: 2449628736 heartbeat IPC: 0.527037 cumulative IPC: 0.356556 (Simulation time: 2 hr 9 min 16 sec) 
Heartbeat CPU 0 instructions: 865000000 cycles: 2451740670 heartbeat IPC: 0.473499 cumulative IPC: 0.356768 (Simulation time: 2 hr 9 min 24 sec) 
Heartbeat CPU 0 instructions: 866000001 cycles: 2453819803 heartbeat IPC: 0.48097 cumulative IPC: 0.35699 (Simulation time: 2 hr 9 min 31 sec) 
Heartbeat CPU 0 instructions: 867000000 cycles: 2455665330 heartbeat IPC: 0.54185 cumulative IPC: 0.357282 (Simulation time: 2 hr 9 min 39 sec) 
Heartbeat CPU 0 instructions: 868000002 cycles: 2457497901 heartbeat IPC: 0.545683 cumulative IPC: 0.357578 (Simulation time: 2 hr 9 min 46 sec) 
Heartbeat CPU 0 instructions: 869000000 cycles: 2461415138 heartbeat IPC: 0.255281 cumulative IPC: 0.357236 (Simulation time: 2 hr 9 min 57 sec) 
Heartbeat CPU 0 instructions: 870000002 cycles: 2464610774 heartbeat IPC: 0.312927 cumulative IPC: 0.357116 (Simulation time: 2 hr 10 min 6 sec) 
Heartbeat CPU 0 instructions: 871000000 cycles: 2466726822 heartbeat IPC: 0.472578 cumulative IPC: 0.357323 (Simulation time: 2 hr 10 min 14 sec) 
Heartbeat CPU 0 instructions: 872000000 cycles: 2469157695 heartbeat IPC: 0.411375 cumulative IPC: 0.357434 (Simulation time: 2 hr 10 min 22 sec) 
Heartbeat CPU 0 instructions: 873000000 cycles: 2471395668 heartbeat IPC: 0.446833 cumulative IPC: 0.357603 (Simulation time: 2 hr 10 min 30 sec) 
Heartbeat CPU 0 instructions: 874000002 cycles: 2474430669 heartbeat IPC: 0.32949 cumulative IPC: 0.357531 (Simulation time: 2 hr 10 min 39 sec) 
Heartbeat CPU 0 instructions: 875000002 cycles: 2476952957 heartbeat IPC: 0.396465 cumulative IPC: 0.357614 (Simulation time: 2 hr 10 min 48 sec) 
Heartbeat CPU 0 instructions: 876000002 cycles: 2480186570 heartbeat IPC: 0.309252 cumulative IPC: 0.357483 (Simulation time: 2 hr 10 min 57 sec) 
Heartbeat CPU 0 instructions: 877000001 cycles: 2487239620 heartbeat IPC: 0.141782 cumulative IPC: 0.356214 (Simulation time: 2 hr 11 min 13 sec) 
Heartbeat CPU 0 instructions: 878000001 cycles: 2490039068 heartbeat IPC: 0.357213 cumulative IPC: 0.356216 (Simulation time: 2 hr 11 min 21 sec) 
Heartbeat CPU 0 instructions: 879000000 cycles: 2492340139 heartbeat IPC: 0.43458 cumulative IPC: 0.356366 (Simulation time: 2 hr 11 min 29 sec) 
Heartbeat CPU 0 instructions: 880000000 cycles: 2494604660 heartbeat IPC: 0.441594 cumulative IPC: 0.356526 (Simulation time: 2 hr 11 min 38 sec) 
Heartbeat CPU 0 instructions: 881000002 cycles: 2497808774 heartbeat IPC: 0.312099 cumulative IPC: 0.356408 (Simulation time: 2 hr 11 min 47 sec) 
Heartbeat CPU 0 instructions: 882000001 cycles: 2500411798 heartbeat IPC: 0.384168 cumulative IPC: 0.356468 (Simulation time: 2 hr 11 min 56 sec) 
Heartbeat CPU 0 instructions: 883000000 cycles: 2503025542 heartbeat IPC: 0.382593 cumulative IPC: 0.356524 (Simulation time: 2 hr 12 min 5 sec) 
Heartbeat CPU 0 instructions: 884000002 cycles: 2505744997 heartbeat IPC: 0.367721 cumulative IPC: 0.356549 (Simulation time: 2 hr 12 min 14 sec) 
Heartbeat CPU 0 instructions: 885000000 cycles: 2509716984 heartbeat IPC: 0.251763 cumulative IPC: 0.356208 (Simulation time: 2 hr 12 min 25 sec) 
Heartbeat CPU 0 instructions: 886000000 cycles: 2511394066 heartbeat IPC: 0.596274 cumulative IPC: 0.356537 (Simulation time: 2 hr 12 min 32 sec) 
Heartbeat CPU 0 instructions: 887000001 cycles: 2512932865 heartbeat IPC: 0.649858 cumulative IPC: 0.356906 (Simulation time: 2 hr 12 min 39 sec) 
Heartbeat CPU 0 instructions: 888000001 cycles: 2514530229 heartbeat IPC: 0.626031 cumulative IPC: 0.357257 (Simulation time: 2 hr 12 min 47 sec) 
Heartbeat CPU 0 instructions: 889000003 cycles: 2516141367 heartbeat IPC: 0.620681 cumulative IPC: 0.357602 (Simulation time: 2 hr 12 min 54 sec) 
Heartbeat CPU 0 instructions: 890000001 cycles: 2517837068 heartbeat IPC: 0.589725 cumulative IPC: 0.357923 (Simulation time: 2 hr 13 min 2 sec) 
Heartbeat CPU 0 instructions: 891000000 cycles: 2519922171 heartbeat IPC: 0.479592 cumulative IPC: 0.358129 (Simulation time: 2 hr 13 min 10 sec) 
Heartbeat CPU 0 instructions: 892000000 cycles: 2524139862 heartbeat IPC: 0.237097 cumulative IPC: 0.357715 (Simulation time: 2 hr 13 min 21 sec) 
Heartbeat CPU 0 instructions: 893000001 cycles: 2526401253 heartbeat IPC: 0.442206 cumulative IPC: 0.35787 (Simulation time: 2 hr 13 min 29 sec) 
Heartbeat CPU 0 instructions: 894000000 cycles: 2528511393 heartbeat IPC: 0.473902 cumulative IPC: 0.358067 (Simulation time: 2 hr 13 min 37 sec) 
Heartbeat CPU 0 instructions: 895000000 cycles: 2530806251 heartbeat IPC: 0.435757 cumulative IPC: 0.358211 (Simulation time: 2 hr 13 min 46 sec) 
Heartbeat CPU 0 instructions: 896000001 cycles: 2533385619 heartbeat IPC: 0.387692 cumulative IPC: 0.358272 (Simulation time: 2 hr 13 min 55 sec) 
Heartbeat CPU 0 instructions: 897000003 cycles: 2535416760 heartbeat IPC: 0.492335 cumulative IPC: 0.35849 (Simulation time: 2 hr 14 min 3 sec) 
Heartbeat CPU 0 instructions: 898000000 cycles: 2537200900 heartbeat IPC: 0.560492 cumulative IPC: 0.358779 (Simulation time: 2 hr 14 min 11 sec) 
Heartbeat CPU 0 instructions: 899000003 cycles: 2539064075 heartbeat IPC: 0.53672 cumulative IPC: 0.359044 (Simulation time: 2 hr 14 min 18 sec) 
Heartbeat CPU 0 instructions: 900000002 cycles: 2543057163 heartbeat IPC: 0.250432 cumulative IPC: 0.358698 (Simulation time: 2 hr 14 min 29 sec) 
Heartbeat CPU 0 instructions: 901000001 cycles: 2545336401 heartbeat IPC: 0.438743 cumulative IPC: 0.358843 (Simulation time: 2 hr 14 min 37 sec) 
Heartbeat CPU 0 instructions: 902000000 cycles: 2547182835 heartbeat IPC: 0.541584 cumulative IPC: 0.359111 (Simulation time: 2 hr 14 min 45 sec) 
Heartbeat CPU 0 instructions: 903000001 cycles: 2549316389 heartbeat IPC: 0.468702 cumulative IPC: 0.359297 (Simulation time: 2 hr 14 min 52 sec) 
Heartbeat CPU 0 instructions: 904000001 cycles: 2552373946 heartbeat IPC: 0.327058 cumulative IPC: 0.359219 (Simulation time: 2 hr 15 min 1 sec) 
Heartbeat CPU 0 instructions: 905000000 cycles: 2555035367 heartbeat IPC: 0.375739 cumulative IPC: 0.359254 (Simulation time: 2 hr 15 min 10 sec) 
Heartbeat CPU 0 instructions: 906000003 cycles: 2557161866 heartbeat IPC: 0.470258 cumulative IPC: 0.35944 (Simulation time: 2 hr 15 min 18 sec) 
Heartbeat CPU 0 instructions: 907000002 cycles: 2561761277 heartbeat IPC: 0.217419 cumulative IPC: 0.358927 (Simulation time: 2 hr 15 min 30 sec) 
Heartbeat CPU 0 instructions: 908000001 cycles: 2564388330 heartbeat IPC: 0.380654 cumulative IPC: 0.358971 (Simulation time: 2 hr 15 min 38 sec) 
Heartbeat CPU 0 instructions: 909000000 cycles: 2566755120 heartbeat IPC: 0.422513 cumulative IPC: 0.359089 (Simulation time: 2 hr 15 min 46 sec) 
Heartbeat CPU 0 instructions: 910000000 cycles: 2568683524 heartbeat IPC: 0.518564 cumulative IPC: 0.359329 (Simulation time: 2 hr 15 min 54 sec) 
Heartbeat CPU 0 instructions: 911000003 cycles: 2570859597 heartbeat IPC: 0.459545 cumulative IPC: 0.359499 (Simulation time: 2 hr 16 min 2 sec) 
Heartbeat CPU 0 instructions: 912000000 cycles: 2573026419 heartbeat IPC: 0.461504 cumulative IPC: 0.359671 (Simulation time: 2 hr 16 min 10 sec) 
Heartbeat CPU 0 instructions: 913000000 cycles: 2575161347 heartbeat IPC: 0.4684 cumulative IPC: 0.359852 (Simulation time: 2 hr 16 min 18 sec) 
Heartbeat CPU 0 instructions: 914000001 cycles: 2580412955 heartbeat IPC: 0.190418 cumulative IPC: 0.359163 (Simulation time: 2 hr 16 min 30 sec) 
Heartbeat CPU 0 instructions: 915000001 cycles: 2586444567 heartbeat IPC: 0.165793 cumulative IPC: 0.358265 (Simulation time: 2 hr 16 min 44 sec) 
Heartbeat CPU 0 instructions: 916000003 cycles: 2588657190 heartbeat IPC: 0.451953 cumulative IPC: 0.358424 (Simulation time: 2 hr 16 min 52 sec) 
Heartbeat CPU 0 instructions: 917000000 cycles: 2591009469 heartbeat IPC: 0.425118 cumulative IPC: 0.358544 (Simulation time: 2 hr 17 min 0 sec) 
Heartbeat CPU 0 instructions: 918000000 cycles: 2593071929 heartbeat IPC: 0.484858 cumulative IPC: 0.358744 (Simulation time: 2 hr 17 min 8 sec) 
Heartbeat CPU 0 instructions: 919000002 cycles: 2596092493 heartbeat IPC: 0.331065 cumulative IPC: 0.35868 (Simulation time: 2 hr 17 min 17 sec) 
Heartbeat CPU 0 instructions: 920000000 cycles: 2599037480 heartbeat IPC: 0.339559 cumulative IPC: 0.358637 (Simulation time: 2 hr 17 min 25 sec) 
Heartbeat CPU 0 instructions: 921000003 cycles: 2602163723 heartbeat IPC: 0.319874 cumulative IPC: 0.358545 (Simulation time: 2 hr 17 min 35 sec) 
Heartbeat CPU 0 instructions: 922000001 cycles: 2605897161 heartbeat IPC: 0.267849 cumulative IPC: 0.358288 (Simulation time: 2 hr 17 min 45 sec) 
Heartbeat CPU 0 instructions: 923000000 cycles: 2609511021 heartbeat IPC: 0.276712 cumulative IPC: 0.358065 (Simulation time: 2 hr 17 min 55 sec) 
Heartbeat CPU 0 instructions: 924000000 cycles: 2612168231 heartbeat IPC: 0.376335 cumulative IPC: 0.358101 (Simulation time: 2 hr 18 min 3 sec) 
Heartbeat CPU 0 instructions: 925000000 cycles: 2614056103 heartbeat IPC: 0.529697 cumulative IPC: 0.358346 (Simulation time: 2 hr 18 min 11 sec) 
Heartbeat CPU 0 instructions: 926000002 cycles: 2616069987 heartbeat IPC: 0.496554 cumulative IPC: 0.358555 (Simulation time: 2 hr 18 min 18 sec) 
Heartbeat CPU 0 instructions: 927000003 cycles: 2618327205 heartbeat IPC: 0.443024 cumulative IPC: 0.358699 (Simulation time: 2 hr 18 min 26 sec) 
Heartbeat CPU 0 instructions: 928000000 cycles: 2620929446 heartbeat IPC: 0.384283 cumulative IPC: 0.358749 (Simulation time: 2 hr 18 min 35 sec) 
Heartbeat CPU 0 instructions: 929000001 cycles: 2623571160 heartbeat IPC: 0.378542 cumulative IPC: 0.358788 (Simulation time: 2 hr 18 min 43 sec) 
Heartbeat CPU 0 instructions: 930000000 cycles: 2628157201 heartbeat IPC: 0.218053 cumulative IPC: 0.358306 (Simulation time: 2 hr 18 min 55 sec) 
Heartbeat CPU 0 instructions: 931000000 cycles: 2630534525 heartbeat IPC: 0.420641 cumulative IPC: 0.358417 (Simulation time: 2 hr 19 min 3 sec) 
Heartbeat CPU 0 instructions: 932000001 cycles: 2632322418 heartbeat IPC: 0.559318 cumulative IPC: 0.358684 (Simulation time: 2 hr 19 min 10 sec) 
Heartbeat CPU 0 instructions: 933000002 cycles: 2634397598 heartbeat IPC: 0.481886 cumulative IPC: 0.358874 (Simulation time: 2 hr 19 min 18 sec) 
Heartbeat CPU 0 instructions: 934000002 cycles: 2636197307 heartbeat IPC: 0.555645 cumulative IPC: 0.359137 (Simulation time: 2 hr 19 min 25 sec) 
Heartbeat CPU 0 instructions: 935000000 cycles: 2638089973 heartbeat IPC: 0.528354 cumulative IPC: 0.359374 (Simulation time: 2 hr 19 min 33 sec) 
Heartbeat CPU 0 instructions: 936000000 cycles: 2641017841 heartbeat IPC: 0.341545 cumulative IPC: 0.359335 (Simulation time: 2 hr 19 min 41 sec) 
Heartbeat CPU 0 instructions: 937000002 cycles: 2644297108 heartbeat IPC: 0.304947 cumulative IPC: 0.359204 (Simulation time: 2 hr 19 min 51 sec) 
Heartbeat CPU 0 instructions: 938000000 cycles: 2646353782 heartbeat IPC: 0.486221 cumulative IPC: 0.359396 (Simulation time: 2 hr 19 min 59 sec) 
Heartbeat CPU 0 instructions: 939000001 cycles: 2648370093 heartbeat IPC: 0.495956 cumulative IPC: 0.359599 (Simulation time: 2 hr 20 min 6 sec) 
Heartbeat CPU 0 instructions: 940000003 cycles: 2650598419 heartbeat IPC: 0.448768 cumulative IPC: 0.359745 (Simulation time: 2 hr 20 min 14 sec) 
Heartbeat CPU 0 instructions: 941000001 cycles: 2652756317 heartbeat IPC: 0.463413 cumulative IPC: 0.359909 (Simulation time: 2 hr 20 min 21 sec) 
Heartbeat CPU 0 instructions: 942000002 cycles: 2656762848 heartbeat IPC: 0.249593 cumulative IPC: 0.359585 (Simulation time: 2 hr 20 min 32 sec) 
Heartbeat CPU 0 instructions: 943000003 cycles: 2663151824 heartbeat IPC: 0.15652 cumulative IPC: 0.358642 (Simulation time: 2 hr 20 min 46 sec) 
Heartbeat CPU 0 instructions: 944000003 cycles: 2665384414 heartbeat IPC: 0.44791 cumulative IPC: 0.358786 (Simulation time: 2 hr 20 min 54 sec) 
Heartbeat CPU 0 instructions: 945000000 cycles: 2667215557 heartbeat IPC: 0.546105 cumulative IPC: 0.359035 (Simulation time: 2 hr 21 min 1 sec) 
Heartbeat CPU 0 instructions: 946000000 cycles: 2669047329 heartbeat IPC: 0.545919 cumulative IPC: 0.359283 (Simulation time: 2 hr 21 min 8 sec) 
Heartbeat CPU 0 instructions: 947000000 cycles: 2671177857 heartbeat IPC: 0.469367 cumulative IPC: 0.359453 (Simulation time: 2 hr 21 min 16 sec) 
Heartbeat CPU 0 instructions: 948000000 cycles: 2673692076 heartbeat IPC: 0.397738 cumulative IPC: 0.359522 (Simulation time: 2 hr 21 min 24 sec) 
Heartbeat CPU 0 instructions: 949000001 cycles: 2675950799 heartbeat IPC: 0.442728 cumulative IPC: 0.359658 (Simulation time: 2 hr 21 min 32 sec) 
Heartbeat CPU 0 instructions: 950000000 cycles: 2680819419 heartbeat IPC: 0.205397 cumulative IPC: 0.359118 (Simulation time: 2 hr 21 min 43 sec) 
Finished CPU 0 instructions: 500000000 cycles: 1392298593 cumulative IPC: 0.359118 (Simulation time: 2 hr 21 min 43 sec) 

ChampSim completed all CPUs

Region of Interest Statistics

CPU 0 cumulative IPC: 0.359118 instructions: 500000000 cycles: 1392298593
L1D TOTAL     ACCESS:  230329724  HIT:  217697689  MISS:   12632035
L1D LOAD      ACCESS:   91393448  HIT:   79906108  MISS:   11487340
L1D RFO       ACCESS:  138936276  HIT:  137791581  MISS:    1144695
L1D PREFETCH  ACCESS:          0  HIT:          0  MISS:          0
L1D WRITEBACK ACCESS:          0  HIT:          0  MISS:          0
L1D PREFETCH  REQUESTED:          0  ISSUED:          0  USEFUL:          0  USELESS:          0
L1D AVERAGE MISS LATENCY: 204.984 cycles
L1I TOTAL     ACCESS:  103646435  HIT:  103646435  MISS:          0
L1I LOAD      ACCESS:  103646435  HIT:  103646435  MISS:          0
L1I RFO       ACCESS:          0  HIT:          0  MISS:          0
L1I PREFETCH  ACCESS:          0  HIT:          0  MISS:          0
L1I WRITEBACK ACCESS:          0  HIT:          0  MISS:          0
L1I PREFETCH  REQUESTED:          0  ISSUED:          0  USEFUL:          0  USELESS:          0
L1I AVERAGE MISS LATENCY: -nan cycles
L2C TOTAL     ACCESS:   15627823  HIT:    3217612  MISS:   12410211
L2C LOAD      ACCESS:   11487265  HIT:     219489  MISS:   11267776
L2C RFO       ACCESS:    1144689  HIT:       9154  MISS:    1135535
L2C PREFETCH  ACCESS:          0  HIT:          0  MISS:          0
L2C WRITEBACK ACCESS:    2995869  HIT:    2988969  MISS:       6900
L2C PREFETCH  REQUESTED:          0  ISSUED:          0  USEFUL:          0  USELESS:          0
L2C AVERAGE MISS LATENCY: 192.12 cycles
LLC TOTAL     ACCESS:   15233374  HIT:    2842772  MISS:   12390602
LLC LOAD      ACCESS:   11267776  HIT:      17286  MISS:   11250490
LLC RFO       ACCESS:    1135535  HIT:        228  MISS:    1135307
LLC PREFETCH  ACCESS:          0  HIT:          0  MISS:          0
LLC WRITEBACK ACCESS:    2830063  HIT:    2825258  MISS:       4805
LLC PREFETCH  REQUESTED:          0  ISSUED:          0  USEFUL:          0  USELESS:          0
LLC AVERAGE MISS LATENCY: 161.263 cycles
Major fault: 0 Minor fault: 224018

DRAM Statistics
 CHANNEL 0
 RQ ROW_BUFFER_HIT:    3945484  ROW_BUFFER_MISS:    8440306
 DBUS_CONGESTED:    6828405
 WQ ROW_BUFFER_HIT:    1245861  ROW_BUFFER_MISS:    1572995  FULL:          0

 AVG_CONGESTED_CYCLE: 6

CPU 0 Branch Prediction Accuracy: 99.1681% MPKI: 0.815588 Average ROB Occupancy at Mispredict: 283.008

Branch types
NOT_BRANCH: 450981411 90.1963%
BRANCH_DIRECT_JUMP: 2292060 0.458412%
BRANCH_INDIRECT: 0 0%
BRANCH_CONDITIONAL: 46725815 9.34516%
BRANCH_DIRECT_CALL: 214 4.28e-05%
BRANCH_INDIRECT_CALL: 0 0%
BRANCH_RETURN: 214 4.28e-05%
BRANCH_OTHER: 0 0%

