
*** ChampSim Multicore Out-of-Order Simulator ***

Warmup Instructions: 1000000
Prefetch Warmup Instructions: 10000000
Simulation Instructions: 300000000
Number of CPUs: 1
LLC sets: 2048
LLC ways: 16
Off-chip DRAM Size: 4096 MB Channels: 1 Width: 64-bit Data Rate: 3200 MT/s

CPU 0 runs /scratch/cluster/cmolder/ML-DPC/data/champsim_traces/spec17/605.mcf-s0.trace.xz
Read seed: 267
CPU 0 LLC from_file prefetcher

Warmup complete CPU 0 instructions: 1000001 cycles: 419014 (Simulation time: 0 hr 0 min 5 sec) 

Heartbeat CPU 0 instructions: 10000002 cycles: 25707781 heartbeat IPC: 0.388987 cumulative IPC: 0.355889 (Simulation time: 0 hr 0 min 32 sec) 

Warmup complete CPU 0 instructions: 10000002 cycles: 25707781 (Simulation time: 0 hr 0 min 32 sec) 

Heartbeat CPU 0 instructions: 20000001 cycles: 54348279 heartbeat IPC: 0.349156 cumulative IPC: 0.349156 (Simulation time: 0 hr 1 min 11 sec) 
Heartbeat CPU 0 instructions: 30000000 cycles: 82559839 heartbeat IPC: 0.354465 cumulative IPC: 0.35179 (Simulation time: 0 hr 1 min 44 sec) 
Heartbeat CPU 0 instructions: 40000001 cycles: 110794561 heartbeat IPC: 0.354174 cumulative IPC: 0.352581 (Simulation time: 0 hr 2 min 26 sec) 
Heartbeat CPU 0 instructions: 50000001 cycles: 139314721 heartbeat IPC: 0.350629 cumulative IPC: 0.352091 (Simulation time: 0 hr 3 min 4 sec) 
Heartbeat CPU 0 instructions: 60000001 cycles: 167471447 heartbeat IPC: 0.355155 cumulative IPC: 0.3527 (Simulation time: 0 hr 3 min 37 sec) 
Heartbeat CPU 0 instructions: 70000001 cycles: 196249363 heartbeat IPC: 0.347489 cumulative IPC: 0.35182 (Simulation time: 0 hr 4 min 7 sec) 
Heartbeat CPU 0 instructions: 80000003 cycles: 224365465 heartbeat IPC: 0.355668 cumulative IPC: 0.352365 (Simulation time: 0 hr 4 min 41 sec) 
Heartbeat CPU 0 instructions: 90000003 cycles: 252879118 heartbeat IPC: 0.350709 cumulative IPC: 0.352157 (Simulation time: 0 hr 5 min 22 sec) 
Heartbeat CPU 0 instructions: 100000001 cycles: 281734866 heartbeat IPC: 0.346551 cumulative IPC: 0.351525 (Simulation time: 0 hr 5 min 56 sec) 
Heartbeat CPU 0 instructions: 110000000 cycles: 310607660 heartbeat IPC: 0.346347 cumulative IPC: 0.351 (Simulation time: 0 hr 6 min 46 sec) 
Heartbeat CPU 0 instructions: 120000002 cycles: 339779735 heartbeat IPC: 0.342794 cumulative IPC: 0.350238 (Simulation time: 0 hr 7 min 24 sec) 
Heartbeat CPU 0 instructions: 130000002 cycles: 369719848 heartbeat IPC: 0.334 cumulative IPC: 0.348825 (Simulation time: 0 hr 8 min 9 sec) 
Heartbeat CPU 0 instructions: 140000002 cycles: 400479476 heartbeat IPC: 0.325101 cumulative IPC: 0.346878 (Simulation time: 0 hr 9 min 1 sec) 
Heartbeat CPU 0 instructions: 150000001 cycles: 431919342 heartbeat IPC: 0.318067 cumulative IPC: 0.344648 (Simulation time: 0 hr 9 min 54 sec) 
Heartbeat CPU 0 instructions: 160000001 cycles: 464455598 heartbeat IPC: 0.307349 cumulative IPC: 0.341882 (Simulation time: 0 hr 10 min 47 sec) 
Heartbeat CPU 0 instructions: 170000001 cycles: 498310290 heartbeat IPC: 0.29538 cumulative IPC: 0.338551 (Simulation time: 0 hr 11 min 35 sec) 
Heartbeat CPU 0 instructions: 180000003 cycles: 532637905 heartbeat IPC: 0.291311 cumulative IPC: 0.335352 (Simulation time: 0 hr 12 min 18 sec) 
Heartbeat CPU 0 instructions: 190000002 cycles: 567636130 heartbeat IPC: 0.285729 cumulative IPC: 0.332147 (Simulation time: 0 hr 13 min 9 sec) 
Heartbeat CPU 0 instructions: 200000001 cycles: 603304543 heartbeat IPC: 0.28036 cumulative IPC: 0.328949 (Simulation time: 0 hr 14 min 8 sec) 
Heartbeat CPU 0 instructions: 210000002 cycles: 638688095 heartbeat IPC: 0.282617 cumulative IPC: 0.326275 (Simulation time: 0 hr 15 min 0 sec) 
Heartbeat CPU 0 instructions: 220000000 cycles: 672938682 heartbeat IPC: 0.291966 cumulative IPC: 0.324459 (Simulation time: 0 hr 15 min 54 sec) 
Heartbeat CPU 0 instructions: 230000001 cycles: 706943723 heartbeat IPC: 0.294074 cumulative IPC: 0.322942 (Simulation time: 0 hr 16 min 48 sec) 
Heartbeat CPU 0 instructions: 240000001 cycles: 745143854 heartbeat IPC: 0.261779 cumulative IPC: 0.319695 (Simulation time: 0 hr 17 min 32 sec) 
Heartbeat CPU 0 instructions: 250000001 cycles: 780083020 heartbeat IPC: 0.286212 cumulative IPC: 0.318144 (Simulation time: 0 hr 18 min 23 sec) 
Heartbeat CPU 0 instructions: 260000000 cycles: 811920335 heartbeat IPC: 0.314097 cumulative IPC: 0.31798 (Simulation time: 0 hr 18 min 57 sec) 
Heartbeat CPU 0 instructions: 270000000 cycles: 844380384 heartbeat IPC: 0.308071 cumulative IPC: 0.317587 (Simulation time: 0 hr 19 min 32 sec) 
Heartbeat CPU 0 instructions: 280000000 cycles: 876385873 heartbeat IPC: 0.312446 cumulative IPC: 0.317394 (Simulation time: 0 hr 20 min 8 sec) 
Heartbeat CPU 0 instructions: 290000000 cycles: 908732628 heartbeat IPC: 0.30915 cumulative IPC: 0.317092 (Simulation time: 0 hr 20 min 42 sec) 
Heartbeat CPU 0 instructions: 300000000 cycles: 940674163 heartbeat IPC: 0.313072 cumulative IPC: 0.316952 (Simulation time: 0 hr 21 min 15 sec) 
Heartbeat CPU 0 instructions: 310000000 cycles: 973027664 heartbeat IPC: 0.309086 cumulative IPC: 0.316683 (Simulation time: 0 hr 21 min 46 sec) 
Finished CPU 0 instructions: 300000002 cycles: 947319884 cumulative IPC: 0.316683 (Simulation time: 0 hr 21 min 46 sec) 

ChampSim completed all CPUs

Region of Interest Statistics

CPU 0 cumulative IPC: 0.316683 instructions: 300000002 cycles: 947319884
L1D TOTAL     ACCESS:   97762863  HIT:   77600596  MISS:   20162267
L1D LOAD      ACCESS:   72405280  HIT:   53177447  MISS:   19227833
L1D RFO       ACCESS:   25357583  HIT:   24423149  MISS:     934434
L1D PREFETCH  ACCESS:          0  HIT:          0  MISS:          0
L1D WRITEBACK ACCESS:          0  HIT:          0  MISS:          0
L1D PREFETCH  REQUESTED:          0  ISSUED:          0  USEFUL:          0  USELESS:          0
L1D AVERAGE MISS LATENCY: 87.6811 cycles
L1I TOTAL     ACCESS:   54179562  HIT:   54179560  MISS:          2
L1I LOAD      ACCESS:   54179562  HIT:   54179560  MISS:          2
L1I RFO       ACCESS:          0  HIT:          0  MISS:          0
L1I PREFETCH  ACCESS:          0  HIT:          0  MISS:          0
L1I WRITEBACK ACCESS:          0  HIT:          0  MISS:          0
L1I PREFETCH  REQUESTED:          0  ISSUED:          0  USEFUL:          0  USELESS:          0
L1I AVERAGE MISS LATENCY: 218.5 cycles
L2C TOTAL     ACCESS:   21568774  HIT:    5225184  MISS:   16343590
L2C LOAD      ACCESS:   19227768  HIT:    3297291  MISS:   15930477
L2C RFO       ACCESS:     934430  HIT:     523655  MISS:     410775
L2C PREFETCH  ACCESS:          0  HIT:          0  MISS:          0
L2C WRITEBACK ACCESS:    1406576  HIT:    1404238  MISS:       2338
L2C PREFETCH  REQUESTED:          0  ISSUED:          0  USEFUL:          0  USELESS:          0
L2C AVERAGE MISS LATENCY: 89.1724 cycles
LLC TOTAL     ACCESS:   17235359  HIT:    9283377  MISS:    7951982
LLC LOAD      ACCESS:   15930469  HIT:    8001198  MISS:    7929271
LLC RFO       ACCESS:     410774  HIT:     402115  MISS:       8659
LLC PREFETCH  ACCESS:          0  HIT:          0  MISS:          0
LLC WRITEBACK ACCESS:     894116  HIT:     880064  MISS:      14052
LLC PREFETCH  REQUESTED:          0  ISSUED:          0  USEFUL:          0  USELESS:          0
LLC AVERAGE MISS LATENCY: 120.417 cycles
Major fault: 0 Minor fault: 100209
CPU 0 LLC from file prefetcher final stats

DRAM Statistics
 CHANNEL 0
 RQ ROW_BUFFER_HIT:    4563820  ROW_BUFFER_MISS:    3374064
 DBUS_CONGESTED:    1916425
 WQ ROW_BUFFER_HIT:      31519  ROW_BUFFER_MISS:      55585  FULL:          0

 AVG_CONGESTED_CYCLE: 5

CPU 0 Branch Prediction Accuracy: 94.418% MPKI: 14.3602 Average ROB Occupancy at Mispredict: 33.2702

Branch types
NOT_BRANCH: 222822661 74.2742%
BRANCH_DIRECT_JUMP: 8642200 2.88073%
BRANCH_INDIRECT: 0 0%
BRANCH_CONDITIONAL: 56515884 18.8386%
BRANCH_DIRECT_CALL: 5627373 1.87579%
BRANCH_INDIRECT_CALL: 382236 0.127412%
BRANCH_RETURN: 6009608 2.0032%
BRANCH_OTHER: 0 0%

