
*** ChampSim Multicore Out-of-Order Simulator ***

Warmup Instructions: 1000000
Prefetch Warmup Instructions: 450000000
Simulation Instructions: 500000000
Stat Printing Period: 1000000
Number of CPUs: 1
LLC sets: 2048
LLC ways: 16
Off-chip DRAM Size: 4096 MB Channels: 1 Width: 64-bit Data Rate: 3200 MT/s

CPU 0 runs /scratch/cluster/cmolder/ML-DPC/data/champsim_traces/spec17/605.mcf-s0.trace.xz
Read seed: 267
CPU 0 LLC from_file prefetcher
Heartbeat CPU 0 instructions: 1000001 cycles: 419014 heartbeat IPC: 2.38656 cumulative IPC: 2.38656 (Simulation time: 0 hr 0 min 6 sec) 

Warmup complete CPU 0 instructions: 1000001 cycles: 419014 (Simulation time: 0 hr 0 min 6 sec) 

Heartbeat CPU 0 instructions: 2000001 cycles: 3220467 heartbeat IPC: 0.356958 cumulative IPC: 0.356958 (Simulation time: 0 hr 0 min 10 sec) 
Heartbeat CPU 0 instructions: 3000000 cycles: 6020107 heartbeat IPC: 0.357188 cumulative IPC: 0.357073 (Simulation time: 0 hr 0 min 16 sec) 
Heartbeat CPU 0 instructions: 4000001 cycles: 8826417 heartbeat IPC: 0.35634 cumulative IPC: 0.356828 (Simulation time: 0 hr 0 min 20 sec) 
Heartbeat CPU 0 instructions: 5000003 cycles: 11622502 heartbeat IPC: 0.357644 cumulative IPC: 0.357032 (Simulation time: 0 hr 0 min 23 sec) 
Heartbeat CPU 0 instructions: 6000000 cycles: 14412705 heartbeat IPC: 0.358396 cumulative IPC: 0.357304 (Simulation time: 0 hr 0 min 26 sec) 
Heartbeat CPU 0 instructions: 7000001 cycles: 17387072 heartbeat IPC: 0.336206 cumulative IPC: 0.353606 (Simulation time: 0 hr 0 min 29 sec) 
Heartbeat CPU 0 instructions: 8000003 cycles: 20212527 heartbeat IPC: 0.353926 cumulative IPC: 0.353651 (Simulation time: 0 hr 0 min 32 sec) 
Heartbeat CPU 0 instructions: 9000002 cycles: 22975092 heartbeat IPC: 0.361982 cumulative IPC: 0.354672 (Simulation time: 0 hr 0 min 35 sec) 
Heartbeat CPU 0 instructions: 10000002 cycles: 25707781 heartbeat IPC: 0.36594 cumulative IPC: 0.355889 (Simulation time: 0 hr 0 min 39 sec) 
Heartbeat CPU 0 instructions: 11000000 cycles: 28571375 heartbeat IPC: 0.349211 cumulative IPC: 0.35521 (Simulation time: 0 hr 0 min 42 sec) 
Heartbeat CPU 0 instructions: 12000003 cycles: 31572614 heartbeat IPC: 0.333197 cumulative IPC: 0.353089 (Simulation time: 0 hr 0 min 46 sec) 
Heartbeat CPU 0 instructions: 13000003 cycles: 34468902 heartbeat IPC: 0.34527 cumulative IPC: 0.352424 (Simulation time: 0 hr 0 min 49 sec) 
Heartbeat CPU 0 instructions: 14000002 cycles: 37224645 heartbeat IPC: 0.362878 cumulative IPC: 0.353207 (Simulation time: 0 hr 0 min 53 sec) 
Heartbeat CPU 0 instructions: 15000001 cycles: 39963617 heartbeat IPC: 0.3651 cumulative IPC: 0.354031 (Simulation time: 0 hr 0 min 56 sec) 
Heartbeat CPU 0 instructions: 16000000 cycles: 42703985 heartbeat IPC: 0.364914 cumulative IPC: 0.354736 (Simulation time: 0 hr 1 min 0 sec) 
Heartbeat CPU 0 instructions: 17000001 cycles: 45583556 heartbeat IPC: 0.347274 cumulative IPC: 0.35426 (Simulation time: 0 hr 1 min 4 sec) 
Heartbeat CPU 0 instructions: 18000000 cycles: 48664976 heartbeat IPC: 0.324525 cumulative IPC: 0.352361 (Simulation time: 0 hr 1 min 7 sec) 
Heartbeat CPU 0 instructions: 19000000 cycles: 51540173 heartbeat IPC: 0.347802 cumulative IPC: 0.352105 (Simulation time: 0 hr 1 min 11 sec) 
Heartbeat CPU 0 instructions: 20000001 cycles: 54348279 heartbeat IPC: 0.356112 cumulative IPC: 0.352313 (Simulation time: 0 hr 1 min 16 sec) 
Heartbeat CPU 0 instructions: 21000003 cycles: 57129320 heartbeat IPC: 0.359578 cumulative IPC: 0.35267 (Simulation time: 0 hr 1 min 21 sec) 
Heartbeat CPU 0 instructions: 22000000 cycles: 59898727 heartbeat IPC: 0.361087 cumulative IPC: 0.353062 (Simulation time: 0 hr 1 min 25 sec) 
Heartbeat CPU 0 instructions: 23000001 cycles: 62737931 heartbeat IPC: 0.352212 cumulative IPC: 0.353023 (Simulation time: 0 hr 1 min 30 sec) 
Heartbeat CPU 0 instructions: 24000001 cycles: 65810259 heartbeat IPC: 0.325486 cumulative IPC: 0.351729 (Simulation time: 0 hr 1 min 34 sec) 
Heartbeat CPU 0 instructions: 25000002 cycles: 68667738 heartbeat IPC: 0.349959 cumulative IPC: 0.351655 (Simulation time: 0 hr 1 min 37 sec) 
Heartbeat CPU 0 instructions: 26000001 cycles: 71423391 heartbeat IPC: 0.36289 cumulative IPC: 0.352091 (Simulation time: 0 hr 1 min 40 sec) 
Heartbeat CPU 0 instructions: 27000000 cycles: 74195867 heartbeat IPC: 0.360688 cumulative IPC: 0.352414 (Simulation time: 0 hr 1 min 43 sec) 
Heartbeat CPU 0 instructions: 28000000 cycles: 76964619 heartbeat IPC: 0.361174 cumulative IPC: 0.352731 (Simulation time: 0 hr 1 min 48 sec) 
Heartbeat CPU 0 instructions: 29000001 cycles: 79793138 heartbeat IPC: 0.353542 cumulative IPC: 0.35276 (Simulation time: 0 hr 1 min 53 sec) 
Heartbeat CPU 0 instructions: 30000000 cycles: 82559839 heartbeat IPC: 0.361441 cumulative IPC: 0.353052 (Simulation time: 0 hr 1 min 57 sec) 
Heartbeat CPU 0 instructions: 31000002 cycles: 85339357 heartbeat IPC: 0.359775 cumulative IPC: 0.353272 (Simulation time: 0 hr 2 min 0 sec) 
Heartbeat CPU 0 instructions: 32000001 cycles: 88132624 heartbeat IPC: 0.358003 cumulative IPC: 0.353423 (Simulation time: 0 hr 2 min 3 sec) 
Heartbeat CPU 0 instructions: 33000000 cycles: 90898495 heartbeat IPC: 0.361549 cumulative IPC: 0.353671 (Simulation time: 0 hr 2 min 8 sec) 
Heartbeat CPU 0 instructions: 34000000 cycles: 93695741 heartbeat IPC: 0.357494 cumulative IPC: 0.353786 (Simulation time: 0 hr 2 min 12 sec) 
Heartbeat CPU 0 instructions: 35000001 cycles: 96464383 heartbeat IPC: 0.361188 cumulative IPC: 0.353999 (Simulation time: 0 hr 2 min 17 sec) 
Heartbeat CPU 0 instructions: 36000001 cycles: 99349463 heartbeat IPC: 0.346611 cumulative IPC: 0.353784 (Simulation time: 0 hr 2 min 21 sec) 
Heartbeat CPU 0 instructions: 37000000 cycles: 102456621 heartbeat IPC: 0.321837 cumulative IPC: 0.352811 (Simulation time: 0 hr 2 min 24 sec) 
Heartbeat CPU 0 instructions: 38000003 cycles: 105216674 heartbeat IPC: 0.362313 cumulative IPC: 0.353061 (Simulation time: 0 hr 2 min 27 sec) 
Heartbeat CPU 0 instructions: 39000000 cycles: 107996246 heartbeat IPC: 0.359767 cumulative IPC: 0.353235 (Simulation time: 0 hr 2 min 31 sec) 
Heartbeat CPU 0 instructions: 40000001 cycles: 110794561 heartbeat IPC: 0.357358 cumulative IPC: 0.353339 (Simulation time: 0 hr 2 min 35 sec) 
Heartbeat CPU 0 instructions: 41000000 cycles: 113576546 heartbeat IPC: 0.359455 cumulative IPC: 0.353489 (Simulation time: 0 hr 2 min 38 sec) 
Heartbeat CPU 0 instructions: 42000000 cycles: 116462352 heartbeat IPC: 0.346524 cumulative IPC: 0.353316 (Simulation time: 0 hr 2 min 41 sec) 
Heartbeat CPU 0 instructions: 43000000 cycles: 119569440 heartbeat IPC: 0.321845 cumulative IPC: 0.352496 (Simulation time: 0 hr 2 min 44 sec) 
Heartbeat CPU 0 instructions: 44000000 cycles: 122367803 heartbeat IPC: 0.357352 cumulative IPC: 0.352607 (Simulation time: 0 hr 2 min 49 sec) 
Heartbeat CPU 0 instructions: 45000002 cycles: 125098323 heartbeat IPC: 0.366231 cumulative IPC: 0.352905 (Simulation time: 0 hr 2 min 53 sec) 
Heartbeat CPU 0 instructions: 46000000 cycles: 127879147 heartbeat IPC: 0.359605 cumulative IPC: 0.353052 (Simulation time: 0 hr 2 min 56 sec) 
Heartbeat CPU 0 instructions: 47000000 cycles: 130624471 heartbeat IPC: 0.364256 cumulative IPC: 0.353288 (Simulation time: 0 hr 2 min 59 sec) 
Heartbeat CPU 0 instructions: 48000000 cycles: 133502627 heartbeat IPC: 0.347445 cumulative IPC: 0.353161 (Simulation time: 0 hr 3 min 4 sec) 
Heartbeat CPU 0 instructions: 49000001 cycles: 136545912 heartbeat IPC: 0.328593 cumulative IPC: 0.352612 (Simulation time: 0 hr 3 min 8 sec) 
Heartbeat CPU 0 instructions: 50000001 cycles: 139314721 heartbeat IPC: 0.361166 cumulative IPC: 0.352783 (Simulation time: 0 hr 3 min 11 sec) 
Heartbeat CPU 0 instructions: 51000003 cycles: 142057582 heartbeat IPC: 0.364584 cumulative IPC: 0.353011 (Simulation time: 0 hr 3 min 15 sec) 
Heartbeat CPU 0 instructions: 52000000 cycles: 144815048 heartbeat IPC: 0.362651 cumulative IPC: 0.353195 (Simulation time: 0 hr 3 min 19 sec) 
Heartbeat CPU 0 instructions: 53000000 cycles: 147694616 heartbeat IPC: 0.347274 cumulative IPC: 0.35308 (Simulation time: 0 hr 3 min 23 sec) 
Heartbeat CPU 0 instructions: 54000003 cycles: 150671005 heartbeat IPC: 0.335979 cumulative IPC: 0.352741 (Simulation time: 0 hr 3 min 27 sec) 
Heartbeat CPU 0 instructions: 55000000 cycles: 153407568 heartbeat IPC: 0.365421 cumulative IPC: 0.352968 (Simulation time: 0 hr 3 min 32 sec) 
Heartbeat CPU 0 instructions: 56000000 cycles: 156142607 heartbeat IPC: 0.365626 cumulative IPC: 0.35319 (Simulation time: 0 hr 3 min 38 sec) 
Heartbeat CPU 0 instructions: 57000000 cycles: 158937354 heartbeat IPC: 0.357814 cumulative IPC: 0.353271 (Simulation time: 0 hr 3 min 42 sec) 
Heartbeat CPU 0 instructions: 58000000 cycles: 162018092 heartbeat IPC: 0.324598 cumulative IPC: 0.352725 (Simulation time: 0 hr 3 min 48 sec) 
Heartbeat CPU 0 instructions: 59000000 cycles: 164746889 heartbeat IPC: 0.366462 cumulative IPC: 0.352953 (Simulation time: 0 hr 3 min 53 sec) 
Heartbeat CPU 0 instructions: 60000001 cycles: 167471447 heartbeat IPC: 0.367032 cumulative IPC: 0.353183 (Simulation time: 0 hr 3 min 59 sec) 
Heartbeat CPU 0 instructions: 61000002 cycles: 170173994 heartbeat IPC: 0.370022 cumulative IPC: 0.353451 (Simulation time: 0 hr 4 min 4 sec) 
Heartbeat CPU 0 instructions: 62000000 cycles: 173316895 heartbeat IPC: 0.318177 cumulative IPC: 0.352809 (Simulation time: 0 hr 4 min 10 sec) 
Heartbeat CPU 0 instructions: 63000000 cycles: 176081685 heartbeat IPC: 0.361691 cumulative IPC: 0.352949 (Simulation time: 0 hr 4 min 16 sec) 
Heartbeat CPU 0 instructions: 64000000 cycles: 178836551 heartbeat IPC: 0.362994 cumulative IPC: 0.353104 (Simulation time: 0 hr 4 min 21 sec) 
Heartbeat CPU 0 instructions: 65000001 cycles: 181624975 heartbeat IPC: 0.358626 cumulative IPC: 0.353189 (Simulation time: 0 hr 4 min 26 sec) 
Heartbeat CPU 0 instructions: 66000000 cycles: 184804590 heartbeat IPC: 0.314503 cumulative IPC: 0.352522 (Simulation time: 0 hr 4 min 32 sec) 
Heartbeat CPU 0 instructions: 67000002 cycles: 187546495 heartbeat IPC: 0.364711 cumulative IPC: 0.352701 (Simulation time: 0 hr 4 min 37 sec) 
Heartbeat CPU 0 instructions: 68000000 cycles: 190312331 heartbeat IPC: 0.361554 cumulative IPC: 0.35283 (Simulation time: 0 hr 4 min 42 sec) 
Heartbeat CPU 0 instructions: 69000002 cycles: 193127414 heartbeat IPC: 0.35523 cumulative IPC: 0.352865 (Simulation time: 0 hr 4 min 47 sec) 
Heartbeat CPU 0 instructions: 70000001 cycles: 196249363 heartbeat IPC: 0.320312 cumulative IPC: 0.352346 (Simulation time: 0 hr 4 min 53 sec) 
Heartbeat CPU 0 instructions: 71000002 cycles: 198993678 heartbeat IPC: 0.36439 cumulative IPC: 0.352512 (Simulation time: 0 hr 4 min 59 sec) 
Heartbeat CPU 0 instructions: 72000001 cycles: 201704592 heartbeat IPC: 0.368879 cumulative IPC: 0.352733 (Simulation time: 0 hr 5 min 5 sec) 
Heartbeat CPU 0 instructions: 73000003 cycles: 204410001 heartbeat IPC: 0.369631 cumulative IPC: 0.352957 (Simulation time: 0 hr 5 min 10 sec) 
Heartbeat CPU 0 instructions: 74000000 cycles: 207380164 heartbeat IPC: 0.336681 cumulative IPC: 0.352723 (Simulation time: 0 hr 5 min 16 sec) 
Heartbeat CPU 0 instructions: 75000001 cycles: 210297783 heartbeat IPC: 0.342746 cumulative IPC: 0.352584 (Simulation time: 0 hr 5 min 20 sec) 
Heartbeat CPU 0 instructions: 76000002 cycles: 213001534 heartbeat IPC: 0.369857 cumulative IPC: 0.352804 (Simulation time: 0 hr 5 min 25 sec) 
Heartbeat CPU 0 instructions: 77000000 cycles: 215738114 heartbeat IPC: 0.365419 cumulative IPC: 0.352964 (Simulation time: 0 hr 5 min 31 sec) 
Heartbeat CPU 0 instructions: 78000002 cycles: 218473764 heartbeat IPC: 0.365545 cumulative IPC: 0.353122 (Simulation time: 0 hr 5 min 36 sec) 
Heartbeat CPU 0 instructions: 79000001 cycles: 221648100 heartbeat IPC: 0.315026 cumulative IPC: 0.352576 (Simulation time: 0 hr 5 min 42 sec) 
Heartbeat CPU 0 instructions: 80000003 cycles: 224365465 heartbeat IPC: 0.368004 cumulative IPC: 0.352763 (Simulation time: 0 hr 5 min 47 sec) 
Heartbeat CPU 0 instructions: 81000000 cycles: 227079529 heartbeat IPC: 0.36845 cumulative IPC: 0.352951 (Simulation time: 0 hr 5 min 52 sec) 
Heartbeat CPU 0 instructions: 82000000 cycles: 229948496 heartbeat IPC: 0.348558 cumulative IPC: 0.352896 (Simulation time: 0 hr 5 min 58 sec) 
Heartbeat CPU 0 instructions: 83000000 cycles: 233009161 heartbeat IPC: 0.326726 cumulative IPC: 0.352551 (Simulation time: 0 hr 6 min 4 sec) 
Heartbeat CPU 0 instructions: 84000000 cycles: 235730912 heartbeat IPC: 0.367411 cumulative IPC: 0.352723 (Simulation time: 0 hr 6 min 9 sec) 
Heartbeat CPU 0 instructions: 85000002 cycles: 238761228 heartbeat IPC: 0.329999 cumulative IPC: 0.352434 (Simulation time: 0 hr 6 min 15 sec) 
Heartbeat CPU 0 instructions: 86000002 cycles: 241552750 heartbeat IPC: 0.358228 cumulative IPC: 0.352501 (Simulation time: 0 hr 6 min 20 sec) 
Heartbeat CPU 0 instructions: 87000000 cycles: 244262813 heartbeat IPC: 0.368994 cumulative IPC: 0.352685 (Simulation time: 0 hr 6 min 26 sec) 
Heartbeat CPU 0 instructions: 88000000 cycles: 247381170 heartbeat IPC: 0.320682 cumulative IPC: 0.352281 (Simulation time: 0 hr 6 min 31 sec) 
Heartbeat CPU 0 instructions: 89000000 cycles: 250133865 heartbeat IPC: 0.36328 cumulative IPC: 0.352402 (Simulation time: 0 hr 6 min 37 sec) 
Heartbeat CPU 0 instructions: 90000003 cycles: 252879118 heartbeat IPC: 0.364266 cumulative IPC: 0.352531 (Simulation time: 0 hr 6 min 42 sec) 
Heartbeat CPU 0 instructions: 91000002 cycles: 255721273 heartbeat IPC: 0.351845 cumulative IPC: 0.352523 (Simulation time: 0 hr 6 min 48 sec) 
Heartbeat CPU 0 instructions: 92000001 cycles: 258763949 heartbeat IPC: 0.328658 cumulative IPC: 0.352242 (Simulation time: 0 hr 6 min 53 sec) 
Heartbeat CPU 0 instructions: 93000000 cycles: 261496578 heartbeat IPC: 0.365948 cumulative IPC: 0.352386 (Simulation time: 0 hr 6 min 59 sec) 
Heartbeat CPU 0 instructions: 94000000 cycles: 264280166 heartbeat IPC: 0.359249 cumulative IPC: 0.352458 (Simulation time: 0 hr 7 min 5 sec) 
Heartbeat CPU 0 instructions: 95000001 cycles: 267307759 heartbeat IPC: 0.330296 cumulative IPC: 0.352207 (Simulation time: 0 hr 7 min 10 sec) 
Heartbeat CPU 0 instructions: 96000002 cycles: 270038283 heartbeat IPC: 0.36623 cumulative IPC: 0.352349 (Simulation time: 0 hr 7 min 16 sec) 
Heartbeat CPU 0 instructions: 97000000 cycles: 272940362 heartbeat IPC: 0.34458 cumulative IPC: 0.352266 (Simulation time: 0 hr 7 min 21 sec) 
Heartbeat CPU 0 instructions: 98000000 cycles: 275923303 heartbeat IPC: 0.33524 cumulative IPC: 0.352082 (Simulation time: 0 hr 7 min 26 sec) 
Heartbeat CPU 0 instructions: 99000000 cycles: 278731006 heartbeat IPC: 0.356163 cumulative IPC: 0.352123 (Simulation time: 0 hr 7 min 32 sec) 
Heartbeat CPU 0 instructions: 100000001 cycles: 281734866 heartbeat IPC: 0.332905 cumulative IPC: 0.351918 (Simulation time: 0 hr 7 min 38 sec) 
Heartbeat CPU 0 instructions: 101000003 cycles: 284433453 heartbeat IPC: 0.370565 cumulative IPC: 0.352095 (Simulation time: 0 hr 7 min 43 sec) 
Heartbeat CPU 0 instructions: 102000001 cycles: 287540878 heartbeat IPC: 0.321809 cumulative IPC: 0.351767 (Simulation time: 0 hr 7 min 48 sec) 
Heartbeat CPU 0 instructions: 103000001 cycles: 290258451 heartbeat IPC: 0.367975 cumulative IPC: 0.351919 (Simulation time: 0 hr 7 min 54 sec) 
Heartbeat CPU 0 instructions: 104000001 cycles: 293365339 heartbeat IPC: 0.321865 cumulative IPC: 0.3516 (Simulation time: 0 hr 7 min 59 sec) 
Heartbeat CPU 0 instructions: 105000001 cycles: 296184774 heartbeat IPC: 0.354681 cumulative IPC: 0.35163 (Simulation time: 0 hr 8 min 5 sec) 
Heartbeat CPU 0 instructions: 106000000 cycles: 299149868 heartbeat IPC: 0.337257 cumulative IPC: 0.351487 (Simulation time: 0 hr 8 min 10 sec) 
Heartbeat CPU 0 instructions: 107000000 cycles: 301927092 heartbeat IPC: 0.360072 cumulative IPC: 0.351566 (Simulation time: 0 hr 8 min 16 sec) 
Heartbeat CPU 0 instructions: 108000002 cycles: 304840125 heartbeat IPC: 0.343286 cumulative IPC: 0.351487 (Simulation time: 0 hr 8 min 22 sec) 
Heartbeat CPU 0 instructions: 109000000 cycles: 307950384 heartbeat IPC: 0.321516 cumulative IPC: 0.351184 (Simulation time: 0 hr 8 min 28 sec) 
Heartbeat CPU 0 instructions: 110000000 cycles: 310607660 heartbeat IPC: 0.376325 cumulative IPC: 0.351399 (Simulation time: 0 hr 8 min 33 sec) 
Heartbeat CPU 0 instructions: 111000000 cycles: 313690144 heartbeat IPC: 0.324414 cumulative IPC: 0.351134 (Simulation time: 0 hr 8 min 38 sec) 
Heartbeat CPU 0 instructions: 112000001 cycles: 316525900 heartbeat IPC: 0.35264 cumulative IPC: 0.351147 (Simulation time: 0 hr 8 min 44 sec) 
Heartbeat CPU 0 instructions: 113000000 cycles: 319466817 heartbeat IPC: 0.34003 cumulative IPC: 0.351045 (Simulation time: 0 hr 8 min 49 sec) 
Heartbeat CPU 0 instructions: 114000000 cycles: 322526204 heartbeat IPC: 0.326863 cumulative IPC: 0.350815 (Simulation time: 0 hr 8 min 55 sec) 
Heartbeat CPU 0 instructions: 115000001 cycles: 325190760 heartbeat IPC: 0.375297 cumulative IPC: 0.351016 (Simulation time: 0 hr 9 min 0 sec) 
Heartbeat CPU 0 instructions: 116000000 cycles: 328267057 heartbeat IPC: 0.325066 cumulative IPC: 0.350772 (Simulation time: 0 hr 9 min 6 sec) 
Heartbeat CPU 0 instructions: 117000000 cycles: 330904270 heartbeat IPC: 0.379188 cumulative IPC: 0.350999 (Simulation time: 0 hr 9 min 12 sec) 
Heartbeat CPU 0 instructions: 118000000 cycles: 334005323 heartbeat IPC: 0.322471 cumulative IPC: 0.350734 (Simulation time: 0 hr 9 min 17 sec) 
Heartbeat CPU 0 instructions: 119000000 cycles: 336789028 heartbeat IPC: 0.359233 cumulative IPC: 0.350804 (Simulation time: 0 hr 9 min 23 sec) 
Heartbeat CPU 0 instructions: 120000002 cycles: 339779735 heartbeat IPC: 0.33437 cumulative IPC: 0.350659 (Simulation time: 0 hr 9 min 29 sec) 
Heartbeat CPU 0 instructions: 121000000 cycles: 342831680 heartbeat IPC: 0.327659 cumulative IPC: 0.350454 (Simulation time: 0 hr 9 min 35 sec) 
Heartbeat CPU 0 instructions: 122000000 cycles: 345761057 heartbeat IPC: 0.34137 cumulative IPC: 0.350377 (Simulation time: 0 hr 9 min 40 sec) 
Heartbeat CPU 0 instructions: 123000002 cycles: 348535138 heartbeat IPC: 0.36048 cumulative IPC: 0.350458 (Simulation time: 0 hr 9 min 46 sec) 
Heartbeat CPU 0 instructions: 124000001 cycles: 351579308 heartbeat IPC: 0.328496 cumulative IPC: 0.350267 (Simulation time: 0 hr 9 min 52 sec) 
Heartbeat CPU 0 instructions: 125000001 cycles: 354604546 heartbeat IPC: 0.330553 cumulative IPC: 0.350099 (Simulation time: 0 hr 9 min 58 sec) 
Heartbeat CPU 0 instructions: 126000003 cycles: 357668732 heartbeat IPC: 0.326352 cumulative IPC: 0.349895 (Simulation time: 0 hr 10 min 3 sec) 
Heartbeat CPU 0 instructions: 127000001 cycles: 360682810 heartbeat IPC: 0.331776 cumulative IPC: 0.349744 (Simulation time: 0 hr 10 min 9 sec) 
Heartbeat CPU 0 instructions: 128000002 cycles: 363673518 heartbeat IPC: 0.334369 cumulative IPC: 0.349617 (Simulation time: 0 hr 10 min 15 sec) 
Heartbeat CPU 0 instructions: 129000000 cycles: 366676483 heartbeat IPC: 0.333004 cumulative IPC: 0.349481 (Simulation time: 0 hr 10 min 21 sec) 
Heartbeat CPU 0 instructions: 130000002 cycles: 369719848 heartbeat IPC: 0.328584 cumulative IPC: 0.349309 (Simulation time: 0 hr 10 min 27 sec) 
Heartbeat CPU 0 instructions: 131000000 cycles: 372987903 heartbeat IPC: 0.305992 cumulative IPC: 0.348929 (Simulation time: 0 hr 10 min 33 sec) 
Heartbeat CPU 0 instructions: 132000000 cycles: 375982050 heartbeat IPC: 0.333985 cumulative IPC: 0.34881 (Simulation time: 0 hr 10 min 39 sec) 
Heartbeat CPU 0 instructions: 133000001 cycles: 378989458 heartbeat IPC: 0.332513 cumulative IPC: 0.34868 (Simulation time: 0 hr 10 min 45 sec) 
Heartbeat CPU 0 instructions: 134000003 cycles: 381971082 heartbeat IPC: 0.335388 cumulative IPC: 0.348576 (Simulation time: 0 hr 10 min 51 sec) 
Heartbeat CPU 0 instructions: 135000000 cycles: 384987833 heartbeat IPC: 0.331481 cumulative IPC: 0.348442 (Simulation time: 0 hr 10 min 57 sec) 
Heartbeat CPU 0 instructions: 136000002 cycles: 387965393 heartbeat IPC: 0.335846 cumulative IPC: 0.348345 (Simulation time: 0 hr 11 min 3 sec) 
Heartbeat CPU 0 instructions: 137000000 cycles: 390940206 heartbeat IPC: 0.336155 cumulative IPC: 0.348253 (Simulation time: 0 hr 11 min 9 sec) 
Heartbeat CPU 0 instructions: 138000000 cycles: 393959605 heartbeat IPC: 0.331192 cumulative IPC: 0.348122 (Simulation time: 0 hr 11 min 15 sec) 
Heartbeat CPU 0 instructions: 139000001 cycles: 397287088 heartbeat IPC: 0.300528 cumulative IPC: 0.347723 (Simulation time: 0 hr 11 min 21 sec) 
Heartbeat CPU 0 instructions: 140000002 cycles: 400479476 heartbeat IPC: 0.313245 cumulative IPC: 0.347447 (Simulation time: 0 hr 11 min 27 sec) 
Heartbeat CPU 0 instructions: 141000000 cycles: 403746855 heartbeat IPC: 0.306055 cumulative IPC: 0.347112 (Simulation time: 0 hr 11 min 34 sec) 
Heartbeat CPU 0 instructions: 142000003 cycles: 406747630 heartbeat IPC: 0.333248 cumulative IPC: 0.34701 (Simulation time: 0 hr 11 min 40 sec) 
Heartbeat CPU 0 instructions: 143000000 cycles: 409800725 heartbeat IPC: 0.327536 cumulative IPC: 0.346865 (Simulation time: 0 hr 11 min 47 sec) 
Heartbeat CPU 0 instructions: 144000000 cycles: 412999584 heartbeat IPC: 0.312611 cumulative IPC: 0.346599 (Simulation time: 0 hr 11 min 53 sec) 
Heartbeat CPU 0 instructions: 145000003 cycles: 416175778 heartbeat IPC: 0.314843 cumulative IPC: 0.346356 (Simulation time: 0 hr 12 min 0 sec) 
Heartbeat CPU 0 instructions: 146000000 cycles: 419362377 heartbeat IPC: 0.313813 cumulative IPC: 0.346109 (Simulation time: 0 hr 12 min 6 sec) 
Heartbeat CPU 0 instructions: 147000001 cycles: 422367866 heartbeat IPC: 0.332725 cumulative IPC: 0.346014 (Simulation time: 0 hr 12 min 13 sec) 
Heartbeat CPU 0 instructions: 148000002 cycles: 425441514 heartbeat IPC: 0.325347 cumulative IPC: 0.345864 (Simulation time: 0 hr 12 min 19 sec) 
Heartbeat CPU 0 instructions: 149000000 cycles: 428706317 heartbeat IPC: 0.306297 cumulative IPC: 0.345562 (Simulation time: 0 hr 12 min 25 sec) 
Heartbeat CPU 0 instructions: 150000001 cycles: 431919342 heartbeat IPC: 0.311233 cumulative IPC: 0.345307 (Simulation time: 0 hr 12 min 32 sec) 
Heartbeat CPU 0 instructions: 151000001 cycles: 435303715 heartbeat IPC: 0.295476 cumulative IPC: 0.344919 (Simulation time: 0 hr 12 min 38 sec) 
Heartbeat CPU 0 instructions: 152000000 cycles: 438469168 heartbeat IPC: 0.31591 cumulative IPC: 0.344709 (Simulation time: 0 hr 12 min 45 sec) 
Heartbeat CPU 0 instructions: 153000000 cycles: 441584122 heartbeat IPC: 0.321032 cumulative IPC: 0.344542 (Simulation time: 0 hr 12 min 52 sec) 
Heartbeat CPU 0 instructions: 154000000 cycles: 444986503 heartbeat IPC: 0.293912 cumulative IPC: 0.344155 (Simulation time: 0 hr 12 min 58 sec) 
Heartbeat CPU 0 instructions: 155000002 cycles: 448131541 heartbeat IPC: 0.317962 cumulative IPC: 0.343971 (Simulation time: 0 hr 13 min 5 sec) 
Heartbeat CPU 0 instructions: 156000000 cycles: 451553540 heartbeat IPC: 0.292226 cumulative IPC: 0.343578 (Simulation time: 0 hr 13 min 11 sec) 
Heartbeat CPU 0 instructions: 157000000 cycles: 454647410 heartbeat IPC: 0.32322 cumulative IPC: 0.34344 (Simulation time: 0 hr 13 min 18 sec) 
Heartbeat CPU 0 instructions: 158000001 cycles: 458033563 heartbeat IPC: 0.295321 cumulative IPC: 0.343084 (Simulation time: 0 hr 13 min 25 sec) 
Heartbeat CPU 0 instructions: 159000001 cycles: 461071922 heartbeat IPC: 0.329125 cumulative IPC: 0.342991 (Simulation time: 0 hr 13 min 31 sec) 
Heartbeat CPU 0 instructions: 160000001 cycles: 464455598 heartbeat IPC: 0.295537 cumulative IPC: 0.342645 (Simulation time: 0 hr 13 min 38 sec) 
Heartbeat CPU 0 instructions: 161000001 cycles: 467520539 heartbeat IPC: 0.326271 cumulative IPC: 0.342538 (Simulation time: 0 hr 13 min 44 sec) 
Heartbeat CPU 0 instructions: 162000000 cycles: 470967951 heartbeat IPC: 0.290072 cumulative IPC: 0.342154 (Simulation time: 0 hr 13 min 51 sec) 
Heartbeat CPU 0 instructions: 163000002 cycles: 474147524 heartbeat IPC: 0.314508 cumulative IPC: 0.341968 (Simulation time: 0 hr 13 min 58 sec) 
Heartbeat CPU 0 instructions: 164000003 cycles: 477556837 heartbeat IPC: 0.293315 cumulative IPC: 0.34162 (Simulation time: 0 hr 14 min 4 sec) 
Heartbeat CPU 0 instructions: 165000000 cycles: 480826234 heartbeat IPC: 0.305866 cumulative IPC: 0.341377 (Simulation time: 0 hr 14 min 11 sec) 
Heartbeat CPU 0 instructions: 166000002 cycles: 484089225 heartbeat IPC: 0.306468 cumulative IPC: 0.341142 (Simulation time: 0 hr 14 min 18 sec) 
Heartbeat CPU 0 instructions: 167000001 cycles: 487656397 heartbeat IPC: 0.280334 cumulative IPC: 0.340696 (Simulation time: 0 hr 14 min 25 sec) 
Heartbeat CPU 0 instructions: 168000001 cycles: 491292556 heartbeat IPC: 0.275015 cumulative IPC: 0.34021 (Simulation time: 0 hr 14 min 33 sec) 
Heartbeat CPU 0 instructions: 169000000 cycles: 494685721 heartbeat IPC: 0.29471 cumulative IPC: 0.339897 (Simulation time: 0 hr 14 min 40 sec) 
Heartbeat CPU 0 instructions: 170000001 cycles: 498310290 heartbeat IPC: 0.275895 cumulative IPC: 0.339432 (Simulation time: 0 hr 14 min 47 sec) 
Heartbeat CPU 0 instructions: 171000000 cycles: 501692652 heartbeat IPC: 0.295651 cumulative IPC: 0.339136 (Simulation time: 0 hr 14 min 54 sec) 
Heartbeat CPU 0 instructions: 172000000 cycles: 505287989 heartbeat IPC: 0.278138 cumulative IPC: 0.338702 (Simulation time: 0 hr 15 min 1 sec) 
Heartbeat CPU 0 instructions: 173000000 cycles: 508606865 heartbeat IPC: 0.301307 cumulative IPC: 0.338458 (Simulation time: 0 hr 15 min 8 sec) 
Heartbeat CPU 0 instructions: 174000001 cycles: 512084159 heartbeat IPC: 0.28758 cumulative IPC: 0.338112 (Simulation time: 0 hr 15 min 15 sec) 
Heartbeat CPU 0 instructions: 175000001 cycles: 515607351 heartbeat IPC: 0.283834 cumulative IPC: 0.337741 (Simulation time: 0 hr 15 min 22 sec) 
Heartbeat CPU 0 instructions: 176000000 cycles: 518889517 heartbeat IPC: 0.304677 cumulative IPC: 0.337531 (Simulation time: 0 hr 15 min 29 sec) 
Heartbeat CPU 0 instructions: 177000001 cycles: 522230955 heartbeat IPC: 0.299273 cumulative IPC: 0.337286 (Simulation time: 0 hr 15 min 36 sec) 
Heartbeat CPU 0 instructions: 178000001 cycles: 525731804 heartbeat IPC: 0.285645 cumulative IPC: 0.336942 (Simulation time: 0 hr 15 min 44 sec) 
Heartbeat CPU 0 instructions: 179000000 cycles: 529149180 heartbeat IPC: 0.292622 cumulative IPC: 0.336656 (Simulation time: 0 hr 15 min 51 sec) 
Heartbeat CPU 0 instructions: 180000003 cycles: 532637905 heartbeat IPC: 0.286639 cumulative IPC: 0.336328 (Simulation time: 0 hr 15 min 58 sec) 
Heartbeat CPU 0 instructions: 181000001 cycles: 536128825 heartbeat IPC: 0.286457 cumulative IPC: 0.336003 (Simulation time: 0 hr 16 min 5 sec) 
Heartbeat CPU 0 instructions: 182000003 cycles: 539575967 heartbeat IPC: 0.290096 cumulative IPC: 0.335709 (Simulation time: 0 hr 16 min 13 sec) 
Heartbeat CPU 0 instructions: 183000000 cycles: 543137926 heartbeat IPC: 0.280744 cumulative IPC: 0.335349 (Simulation time: 0 hr 16 min 20 sec) 
Heartbeat CPU 0 instructions: 184000002 cycles: 546498999 heartbeat IPC: 0.297525 cumulative IPC: 0.335116 (Simulation time: 0 hr 16 min 27 sec) 
Heartbeat CPU 0 instructions: 185000001 cycles: 550351619 heartbeat IPC: 0.259563 cumulative IPC: 0.334586 (Simulation time: 0 hr 16 min 34 sec) 
Heartbeat CPU 0 instructions: 186000003 cycles: 553721064 heartbeat IPC: 0.296785 cumulative IPC: 0.334356 (Simulation time: 0 hr 16 min 41 sec) 
Heartbeat CPU 0 instructions: 187000000 cycles: 557208088 heartbeat IPC: 0.286777 cumulative IPC: 0.334058 (Simulation time: 0 hr 16 min 48 sec) 
Heartbeat CPU 0 instructions: 188000002 cycles: 560787188 heartbeat IPC: 0.2794 cumulative IPC: 0.333709 (Simulation time: 0 hr 16 min 55 sec) 
Heartbeat CPU 0 instructions: 189000002 cycles: 564156209 heartbeat IPC: 0.296822 cumulative IPC: 0.333489 (Simulation time: 0 hr 17 min 1 sec) 
Heartbeat CPU 0 instructions: 190000002 cycles: 567636130 heartbeat IPC: 0.287363 cumulative IPC: 0.333206 (Simulation time: 0 hr 17 min 8 sec) 
Heartbeat CPU 0 instructions: 191000001 cycles: 571166827 heartbeat IPC: 0.28323 cumulative IPC: 0.332897 (Simulation time: 0 hr 17 min 15 sec) 
Heartbeat CPU 0 instructions: 192000001 cycles: 574546869 heartbeat IPC: 0.295854 cumulative IPC: 0.332678 (Simulation time: 0 hr 17 min 22 sec) 
Heartbeat CPU 0 instructions: 193000000 cycles: 578161856 heartbeat IPC: 0.276626 cumulative IPC: 0.332328 (Simulation time: 0 hr 17 min 29 sec) 
Heartbeat CPU 0 instructions: 194000002 cycles: 581678783 heartbeat IPC: 0.28434 cumulative IPC: 0.332037 (Simulation time: 0 hr 17 min 36 sec) 
Heartbeat CPU 0 instructions: 195000000 cycles: 585493392 heartbeat IPC: 0.26215 cumulative IPC: 0.331582 (Simulation time: 0 hr 17 min 43 sec) 
Heartbeat CPU 0 instructions: 196000002 cycles: 588931122 heartbeat IPC: 0.29089 cumulative IPC: 0.331344 (Simulation time: 0 hr 17 min 50 sec) 
Heartbeat CPU 0 instructions: 197000001 cycles: 592641661 heartbeat IPC: 0.269502 cumulative IPC: 0.330957 (Simulation time: 0 hr 17 min 57 sec) 
Heartbeat CPU 0 instructions: 198000000 cycles: 596102142 heartbeat IPC: 0.288977 cumulative IPC: 0.330713 (Simulation time: 0 hr 18 min 4 sec) 
Heartbeat CPU 0 instructions: 199000000 cycles: 599765794 heartbeat IPC: 0.272952 cumulative IPC: 0.33036 (Simulation time: 0 hr 18 min 11 sec) 
Heartbeat CPU 0 instructions: 200000001 cycles: 603304543 heartbeat IPC: 0.282586 cumulative IPC: 0.330079 (Simulation time: 0 hr 18 min 18 sec) 
Heartbeat CPU 0 instructions: 201000000 cycles: 606782764 heartbeat IPC: 0.287503 cumulative IPC: 0.329835 (Simulation time: 0 hr 18 min 25 sec) 
Heartbeat CPU 0 instructions: 202000003 cycles: 610285690 heartbeat IPC: 0.285476 cumulative IPC: 0.32958 (Simulation time: 0 hr 18 min 32 sec) 
Heartbeat CPU 0 instructions: 203000002 cycles: 613786588 heartbeat IPC: 0.285641 cumulative IPC: 0.329329 (Simulation time: 0 hr 18 min 38 sec) 
Heartbeat CPU 0 instructions: 204000000 cycles: 617311559 heartbeat IPC: 0.28369 cumulative IPC: 0.329069 (Simulation time: 0 hr 18 min 45 sec) 
Heartbeat CPU 0 instructions: 205000002 cycles: 620788721 heartbeat IPC: 0.287591 cumulative IPC: 0.328836 (Simulation time: 0 hr 18 min 50 sec) 
Heartbeat CPU 0 instructions: 206000000 cycles: 624380291 heartbeat IPC: 0.278429 cumulative IPC: 0.328546 (Simulation time: 0 hr 18 min 57 sec) 
Heartbeat CPU 0 instructions: 207000001 cycles: 628055115 heartbeat IPC: 0.272122 cumulative IPC: 0.328216 (Simulation time: 0 hr 19 min 4 sec) 
Heartbeat CPU 0 instructions: 208000003 cycles: 631535350 heartbeat IPC: 0.287337 cumulative IPC: 0.32799 (Simulation time: 0 hr 19 min 11 sec) 
Heartbeat CPU 0 instructions: 209000000 cycles: 635004321 heartbeat IPC: 0.288269 cumulative IPC: 0.327773 (Simulation time: 0 hr 19 min 15 sec) 
Heartbeat CPU 0 instructions: 210000002 cycles: 638688095 heartbeat IPC: 0.271461 cumulative IPC: 0.327448 (Simulation time: 0 hr 19 min 22 sec) 
Heartbeat CPU 0 instructions: 211000003 cycles: 642179947 heartbeat IPC: 0.286381 cumulative IPC: 0.327225 (Simulation time: 0 hr 19 min 29 sec) 
Heartbeat CPU 0 instructions: 212000001 cycles: 645625502 heartbeat IPC: 0.290228 cumulative IPC: 0.327027 (Simulation time: 0 hr 19 min 36 sec) 
Heartbeat CPU 0 instructions: 213000003 cycles: 649120003 heartbeat IPC: 0.286164 cumulative IPC: 0.326807 (Simulation time: 0 hr 19 min 43 sec) 
Heartbeat CPU 0 instructions: 214000002 cycles: 652549499 heartbeat IPC: 0.291588 cumulative IPC: 0.326622 (Simulation time: 0 hr 19 min 50 sec) 
Heartbeat CPU 0 instructions: 215000000 cycles: 656172644 heartbeat IPC: 0.276003 cumulative IPC: 0.326342 (Simulation time: 0 hr 19 min 57 sec) 
Heartbeat CPU 0 instructions: 216000001 cycles: 659423166 heartbeat IPC: 0.307643 cumulative IPC: 0.32625 (Simulation time: 0 hr 20 min 4 sec) 
Heartbeat CPU 0 instructions: 217000001 cycles: 662822963 heartbeat IPC: 0.294135 cumulative IPC: 0.326085 (Simulation time: 0 hr 20 min 11 sec) 
Heartbeat CPU 0 instructions: 218000003 cycles: 666304632 heartbeat IPC: 0.287219 cumulative IPC: 0.325882 (Simulation time: 0 hr 20 min 18 sec) 
Heartbeat CPU 0 instructions: 219000000 cycles: 669734613 heartbeat IPC: 0.291546 cumulative IPC: 0.325706 (Simulation time: 0 hr 20 min 25 sec) 
Heartbeat CPU 0 instructions: 220000000 cycles: 672938682 heartbeat IPC: 0.312103 cumulative IPC: 0.325641 (Simulation time: 0 hr 20 min 32 sec) 
Heartbeat CPU 0 instructions: 221000001 cycles: 676329843 heartbeat IPC: 0.294885 cumulative IPC: 0.325487 (Simulation time: 0 hr 20 min 38 sec) 
Heartbeat CPU 0 instructions: 222000000 cycles: 679834235 heartbeat IPC: 0.285356 cumulative IPC: 0.32528 (Simulation time: 0 hr 20 min 46 sec) 
Heartbeat CPU 0 instructions: 223000000 cycles: 683121869 heartbeat IPC: 0.30417 cumulative IPC: 0.325178 (Simulation time: 0 hr 20 min 52 sec) 
Heartbeat CPU 0 instructions: 224000000 cycles: 686420285 heartbeat IPC: 0.303176 cumulative IPC: 0.325072 (Simulation time: 0 hr 20 min 59 sec) 
Heartbeat CPU 0 instructions: 225000000 cycles: 689908913 heartbeat IPC: 0.286646 cumulative IPC: 0.324878 (Simulation time: 0 hr 21 min 6 sec) 
Heartbeat CPU 0 instructions: 226000002 cycles: 693430907 heartbeat IPC: 0.283931 cumulative IPC: 0.32467 (Simulation time: 0 hr 21 min 13 sec) 
Heartbeat CPU 0 instructions: 227000003 cycles: 696760109 heartbeat IPC: 0.300373 cumulative IPC: 0.324554 (Simulation time: 0 hr 21 min 19 sec) 
Heartbeat CPU 0 instructions: 228000000 cycles: 700104461 heartbeat IPC: 0.299011 cumulative IPC: 0.324432 (Simulation time: 0 hr 21 min 26 sec) 
Heartbeat CPU 0 instructions: 229000003 cycles: 703604635 heartbeat IPC: 0.285701 cumulative IPC: 0.324239 (Simulation time: 0 hr 21 min 33 sec) 
Heartbeat CPU 0 instructions: 230000001 cycles: 706943723 heartbeat IPC: 0.299482 cumulative IPC: 0.324122 (Simulation time: 0 hr 21 min 40 sec) 
Heartbeat CPU 0 instructions: 231000000 cycles: 710275675 heartbeat IPC: 0.300124 cumulative IPC: 0.324009 (Simulation time: 0 hr 21 min 47 sec) 
Heartbeat CPU 0 instructions: 232000000 cycles: 713783996 heartbeat IPC: 0.285037 cumulative IPC: 0.323817 (Simulation time: 0 hr 21 min 54 sec) 
Heartbeat CPU 0 instructions: 233000000 cycles: 717276142 heartbeat IPC: 0.286357 cumulative IPC: 0.323635 (Simulation time: 0 hr 22 min 1 sec) 
Heartbeat CPU 0 instructions: 234000002 cycles: 720556512 heartbeat IPC: 0.304844 cumulative IPC: 0.323549 (Simulation time: 0 hr 22 min 8 sec) 
Heartbeat CPU 0 instructions: 235000001 cycles: 723965542 heartbeat IPC: 0.293338 cumulative IPC: 0.323407 (Simulation time: 0 hr 22 min 14 sec) 
Heartbeat CPU 0 instructions: 236000001 cycles: 727433446 heartbeat IPC: 0.288359 cumulative IPC: 0.32324 (Simulation time: 0 hr 22 min 21 sec) 
Heartbeat CPU 0 instructions: 237000001 cycles: 734988866 heartbeat IPC: 0.132355 cumulative IPC: 0.321276 (Simulation time: 0 hr 22 min 31 sec) 
Heartbeat CPU 0 instructions: 238000001 cycles: 738334999 heartbeat IPC: 0.298852 cumulative IPC: 0.321175 (Simulation time: 0 hr 22 min 37 sec) 
Heartbeat CPU 0 instructions: 239000003 cycles: 741639551 heartbeat IPC: 0.302613 cumulative IPC: 0.321092 (Simulation time: 0 hr 22 min 44 sec) 
Heartbeat CPU 0 instructions: 240000001 cycles: 745143854 heartbeat IPC: 0.285363 cumulative IPC: 0.320924 (Simulation time: 0 hr 22 min 50 sec) 
Heartbeat CPU 0 instructions: 241000000 cycles: 748304994 heartbeat IPC: 0.316341 cumulative IPC: 0.320905 (Simulation time: 0 hr 22 min 57 sec) 
Heartbeat CPU 0 instructions: 242000000 cycles: 751530963 heartbeat IPC: 0.309984 cumulative IPC: 0.320858 (Simulation time: 0 hr 23 min 3 sec) 
Heartbeat CPU 0 instructions: 243000001 cycles: 754734554 heartbeat IPC: 0.31215 cumulative IPC: 0.320821 (Simulation time: 0 hr 23 min 10 sec) 
Heartbeat CPU 0 instructions: 244000000 cycles: 757978009 heartbeat IPC: 0.308313 cumulative IPC: 0.320767 (Simulation time: 0 hr 23 min 16 sec) 
Heartbeat CPU 0 instructions: 245000002 cycles: 761497515 heartbeat IPC: 0.284131 cumulative IPC: 0.320598 (Simulation time: 0 hr 23 min 23 sec) 
Heartbeat CPU 0 instructions: 246000000 cycles: 764650141 heartbeat IPC: 0.317195 cumulative IPC: 0.320584 (Simulation time: 0 hr 23 min 29 sec) 
Heartbeat CPU 0 instructions: 247000002 cycles: 770468301 heartbeat IPC: 0.171876 cumulative IPC: 0.31946 (Simulation time: 0 hr 23 min 38 sec) 
Heartbeat CPU 0 instructions: 248000001 cycles: 773765498 heartbeat IPC: 0.303288 cumulative IPC: 0.319391 (Simulation time: 0 hr 23 min 44 sec) 
Heartbeat CPU 0 instructions: 249000002 cycles: 777156856 heartbeat IPC: 0.294867 cumulative IPC: 0.319284 (Simulation time: 0 hr 23 min 51 sec) 
Heartbeat CPU 0 instructions: 250000001 cycles: 780083020 heartbeat IPC: 0.341744 cumulative IPC: 0.319368 (Simulation time: 0 hr 23 min 57 sec) 
Heartbeat CPU 0 instructions: 251000001 cycles: 783374913 heartbeat IPC: 0.303777 cumulative IPC: 0.319303 (Simulation time: 0 hr 24 min 3 sec) 
Heartbeat CPU 0 instructions: 252000000 cycles: 786378839 heartbeat IPC: 0.332897 cumulative IPC: 0.319355 (Simulation time: 0 hr 24 min 9 sec) 
Heartbeat CPU 0 instructions: 253000000 cycles: 789628892 heartbeat IPC: 0.307687 cumulative IPC: 0.319307 (Simulation time: 0 hr 24 min 16 sec) 
Heartbeat CPU 0 instructions: 254000001 cycles: 792880375 heartbeat IPC: 0.307552 cumulative IPC: 0.319258 (Simulation time: 0 hr 24 min 22 sec) 
Heartbeat CPU 0 instructions: 255000001 cycles: 795963695 heartbeat IPC: 0.324326 cumulative IPC: 0.319278 (Simulation time: 0 hr 24 min 29 sec) 
Heartbeat CPU 0 instructions: 256000002 cycles: 798979811 heartbeat IPC: 0.331553 cumulative IPC: 0.319324 (Simulation time: 0 hr 24 min 35 sec) 
Heartbeat CPU 0 instructions: 257000002 cycles: 802320861 heartbeat IPC: 0.299307 cumulative IPC: 0.319241 (Simulation time: 0 hr 24 min 41 sec) 
Heartbeat CPU 0 instructions: 258000000 cycles: 805583681 heartbeat IPC: 0.306483 cumulative IPC: 0.319189 (Simulation time: 0 hr 24 min 48 sec) 
Heartbeat CPU 0 instructions: 259000002 cycles: 808892373 heartbeat IPC: 0.302235 cumulative IPC: 0.31912 (Simulation time: 0 hr 24 min 54 sec) 
Heartbeat CPU 0 instructions: 260000000 cycles: 811920335 heartbeat IPC: 0.330254 cumulative IPC: 0.319162 (Simulation time: 0 hr 25 min 0 sec) 
Heartbeat CPU 0 instructions: 261000003 cycles: 815115273 heartbeat IPC: 0.312996 cumulative IPC: 0.319137 (Simulation time: 0 hr 25 min 7 sec) 
Heartbeat CPU 0 instructions: 262000000 cycles: 818414145 heartbeat IPC: 0.303133 cumulative IPC: 0.319073 (Simulation time: 0 hr 25 min 13 sec) 
Heartbeat CPU 0 instructions: 263000001 cycles: 821731803 heartbeat IPC: 0.301418 cumulative IPC: 0.319001 (Simulation time: 0 hr 25 min 20 sec) 
Heartbeat CPU 0 instructions: 264000000 cycles: 825048974 heartbeat IPC: 0.301461 cumulative IPC: 0.318931 (Simulation time: 0 hr 25 min 26 sec) 
Heartbeat CPU 0 instructions: 265000002 cycles: 828344165 heartbeat IPC: 0.303473 cumulative IPC: 0.318869 (Simulation time: 0 hr 25 min 33 sec) 
Heartbeat CPU 0 instructions: 266000000 cycles: 831449934 heartbeat IPC: 0.321981 cumulative IPC: 0.318881 (Simulation time: 0 hr 25 min 39 sec) 
Heartbeat CPU 0 instructions: 267000000 cycles: 834610116 heartbeat IPC: 0.316437 cumulative IPC: 0.318872 (Simulation time: 0 hr 25 min 45 sec) 
Heartbeat CPU 0 instructions: 268000002 cycles: 837906910 heartbeat IPC: 0.303326 cumulative IPC: 0.318811 (Simulation time: 0 hr 25 min 52 sec) 
Heartbeat CPU 0 instructions: 269000002 cycles: 841236586 heartbeat IPC: 0.30033 cumulative IPC: 0.318737 (Simulation time: 0 hr 25 min 58 sec) 
Heartbeat CPU 0 instructions: 270000000 cycles: 844380384 heartbeat IPC: 0.318086 cumulative IPC: 0.318735 (Simulation time: 0 hr 26 min 5 sec) 
Heartbeat CPU 0 instructions: 271000002 cycles: 847540372 heartbeat IPC: 0.316458 cumulative IPC: 0.318726 (Simulation time: 0 hr 26 min 11 sec) 
Heartbeat CPU 0 instructions: 272000003 cycles: 850892580 heartbeat IPC: 0.298311 cumulative IPC: 0.318646 (Simulation time: 0 hr 26 min 18 sec) 
Heartbeat CPU 0 instructions: 273000001 cycles: 854232157 heartbeat IPC: 0.299439 cumulative IPC: 0.318571 (Simulation time: 0 hr 26 min 24 sec) 
Heartbeat CPU 0 instructions: 274000001 cycles: 857180424 heartbeat IPC: 0.339182 cumulative IPC: 0.318642 (Simulation time: 0 hr 26 min 30 sec) 
Heartbeat CPU 0 instructions: 275000000 cycles: 860482609 heartbeat IPC: 0.30283 cumulative IPC: 0.318581 (Simulation time: 0 hr 26 min 36 sec) 
Heartbeat CPU 0 instructions: 276000000 cycles: 863731619 heartbeat IPC: 0.307786 cumulative IPC: 0.31854 (Simulation time: 0 hr 26 min 42 sec) 
Heartbeat CPU 0 instructions: 277000002 cycles: 866783215 heartbeat IPC: 0.327698 cumulative IPC: 0.318573 (Simulation time: 0 hr 26 min 48 sec) 
Heartbeat CPU 0 instructions: 278000002 cycles: 870081845 heartbeat IPC: 0.303156 cumulative IPC: 0.318514 (Simulation time: 0 hr 26 min 55 sec) 
Heartbeat CPU 0 instructions: 279000000 cycles: 873411908 heartbeat IPC: 0.300294 cumulative IPC: 0.318445 (Simulation time: 0 hr 27 min 1 sec) 
Heartbeat CPU 0 instructions: 280000000 cycles: 876385873 heartbeat IPC: 0.336251 cumulative IPC: 0.318505 (Simulation time: 0 hr 27 min 7 sec) 
Heartbeat CPU 0 instructions: 281000000 cycles: 879621690 heartbeat IPC: 0.309041 cumulative IPC: 0.31847 (Simulation time: 0 hr 27 min 13 sec) 
Heartbeat CPU 0 instructions: 282000000 cycles: 882890440 heartbeat IPC: 0.305927 cumulative IPC: 0.318424 (Simulation time: 0 hr 27 min 19 sec) 
Heartbeat CPU 0 instructions: 283000003 cycles: 886193528 heartbeat IPC: 0.302748 cumulative IPC: 0.318365 (Simulation time: 0 hr 27 min 25 sec) 
Heartbeat CPU 0 instructions: 284000002 cycles: 889523640 heartbeat IPC: 0.30029 cumulative IPC: 0.318298 (Simulation time: 0 hr 27 min 31 sec) 
Heartbeat CPU 0 instructions: 285000002 cycles: 892500937 heartbeat IPC: 0.335875 cumulative IPC: 0.318356 (Simulation time: 0 hr 27 min 37 sec) 
Heartbeat CPU 0 instructions: 286000000 cycles: 895774891 heartbeat IPC: 0.30544 cumulative IPC: 0.318309 (Simulation time: 0 hr 27 min 43 sec) 
Heartbeat CPU 0 instructions: 287000000 cycles: 899124788 heartbeat IPC: 0.298517 cumulative IPC: 0.318235 (Simulation time: 0 hr 27 min 50 sec) 
Heartbeat CPU 0 instructions: 288000001 cycles: 902291737 heartbeat IPC: 0.315762 cumulative IPC: 0.318227 (Simulation time: 0 hr 27 min 56 sec) 
Heartbeat CPU 0 instructions: 289000000 cycles: 905397001 heartbeat IPC: 0.322033 cumulative IPC: 0.31824 (Simulation time: 0 hr 28 min 2 sec) 
Heartbeat CPU 0 instructions: 290000000 cycles: 908732628 heartbeat IPC: 0.299794 cumulative IPC: 0.318172 (Simulation time: 0 hr 28 min 8 sec) 
Heartbeat CPU 0 instructions: 291000000 cycles: 911848677 heartbeat IPC: 0.320919 cumulative IPC: 0.318181 (Simulation time: 0 hr 28 min 14 sec) 
Heartbeat CPU 0 instructions: 292000001 cycles: 915042642 heartbeat IPC: 0.313091 cumulative IPC: 0.318164 (Simulation time: 0 hr 28 min 20 sec) 
Heartbeat CPU 0 instructions: 293000003 cycles: 918413805 heartbeat IPC: 0.296634 cumulative IPC: 0.318085 (Simulation time: 0 hr 28 min 26 sec) 
Heartbeat CPU 0 instructions: 294000001 cycles: 921465273 heartbeat IPC: 0.32771 cumulative IPC: 0.318116 (Simulation time: 0 hr 28 min 32 sec) 
Heartbeat CPU 0 instructions: 295000000 cycles: 924720758 heartbeat IPC: 0.307174 cumulative IPC: 0.318078 (Simulation time: 0 hr 28 min 38 sec) 
Heartbeat CPU 0 instructions: 296000000 cycles: 928027019 heartbeat IPC: 0.302456 cumulative IPC: 0.318022 (Simulation time: 0 hr 28 min 44 sec) 
Heartbeat CPU 0 instructions: 297000000 cycles: 931021644 heartbeat IPC: 0.333932 cumulative IPC: 0.318073 (Simulation time: 0 hr 28 min 50 sec) 
Heartbeat CPU 0 instructions: 298000000 cycles: 934362459 heartbeat IPC: 0.299328 cumulative IPC: 0.318006 (Simulation time: 0 hr 28 min 57 sec) 
Heartbeat CPU 0 instructions: 299000001 cycles: 937463394 heartbeat IPC: 0.322484 cumulative IPC: 0.318021 (Simulation time: 0 hr 29 min 3 sec) 
Heartbeat CPU 0 instructions: 300000000 cycles: 940674163 heartbeat IPC: 0.311452 cumulative IPC: 0.317999 (Simulation time: 0 hr 29 min 9 sec) 
Heartbeat CPU 0 instructions: 301000001 cycles: 944008036 heartbeat IPC: 0.299952 cumulative IPC: 0.317935 (Simulation time: 0 hr 29 min 15 sec) 
Heartbeat CPU 0 instructions: 302000002 cycles: 947198496 heartbeat IPC: 0.313435 cumulative IPC: 0.31792 (Simulation time: 0 hr 29 min 21 sec) 
Heartbeat CPU 0 instructions: 303000001 cycles: 950277554 heartbeat IPC: 0.324774 cumulative IPC: 0.317942 (Simulation time: 0 hr 29 min 27 sec) 
Heartbeat CPU 0 instructions: 304000001 cycles: 953704812 heartbeat IPC: 0.291778 cumulative IPC: 0.317848 (Simulation time: 0 hr 29 min 34 sec) 
Heartbeat CPU 0 instructions: 305000000 cycles: 956937347 heartbeat IPC: 0.309354 cumulative IPC: 0.317819 (Simulation time: 0 hr 29 min 40 sec) 
Heartbeat CPU 0 instructions: 306000003 cycles: 959980934 heartbeat IPC: 0.328561 cumulative IPC: 0.317853 (Simulation time: 0 hr 29 min 46 sec) 
Heartbeat CPU 0 instructions: 307000000 cycles: 963330923 heartbeat IPC: 0.298508 cumulative IPC: 0.317786 (Simulation time: 0 hr 29 min 53 sec) 
Heartbeat CPU 0 instructions: 308000000 cycles: 966598784 heartbeat IPC: 0.306011 cumulative IPC: 0.317746 (Simulation time: 0 hr 29 min 59 sec) 
Heartbeat CPU 0 instructions: 309000000 cycles: 969681047 heartbeat IPC: 0.324437 cumulative IPC: 0.317768 (Simulation time: 0 hr 30 min 5 sec) 
Heartbeat CPU 0 instructions: 310000000 cycles: 973027664 heartbeat IPC: 0.298809 cumulative IPC: 0.317702 (Simulation time: 0 hr 30 min 12 sec) 
Heartbeat CPU 0 instructions: 311000002 cycles: 976402702 heartbeat IPC: 0.296294 cumulative IPC: 0.317628 (Simulation time: 0 hr 30 min 19 sec) 
Heartbeat CPU 0 instructions: 312000000 cycles: 979355011 heartbeat IPC: 0.338717 cumulative IPC: 0.317692 (Simulation time: 0 hr 30 min 25 sec) 
Heartbeat CPU 0 instructions: 313000000 cycles: 982678721 heartbeat IPC: 0.300869 cumulative IPC: 0.317635 (Simulation time: 0 hr 30 min 31 sec) 
Heartbeat CPU 0 instructions: 314000000 cycles: 985760577 heartbeat IPC: 0.32448 cumulative IPC: 0.317656 (Simulation time: 0 hr 30 min 37 sec) 
Heartbeat CPU 0 instructions: 315000002 cycles: 988999824 heartbeat IPC: 0.308714 cumulative IPC: 0.317627 (Simulation time: 0 hr 30 min 44 sec) 
Heartbeat CPU 0 instructions: 316000002 cycles: 992343171 heartbeat IPC: 0.299101 cumulative IPC: 0.317565 (Simulation time: 0 hr 30 min 50 sec) 
Heartbeat CPU 0 instructions: 317000002 cycles: 995368990 heartbeat IPC: 0.330489 cumulative IPC: 0.317604 (Simulation time: 0 hr 30 min 56 sec) 
Heartbeat CPU 0 instructions: 318000001 cycles: 998666234 heartbeat IPC: 0.303283 cumulative IPC: 0.317557 (Simulation time: 0 hr 31 min 3 sec) 
Heartbeat CPU 0 instructions: 319000000 cycles: 1002016555 heartbeat IPC: 0.298479 cumulative IPC: 0.317493 (Simulation time: 0 hr 31 min 9 sec) 
Heartbeat CPU 0 instructions: 320000000 cycles: 1005305909 heartbeat IPC: 0.304011 cumulative IPC: 0.317449 (Simulation time: 0 hr 31 min 15 sec) 
Heartbeat CPU 0 instructions: 321000003 cycles: 1008338036 heartbeat IPC: 0.329802 cumulative IPC: 0.317486 (Simulation time: 0 hr 31 min 21 sec) 
Heartbeat CPU 0 instructions: 322000002 cycles: 1011652690 heartbeat IPC: 0.30169 cumulative IPC: 0.317434 (Simulation time: 0 hr 31 min 27 sec) 
Heartbeat CPU 0 instructions: 323000002 cycles: 1014954219 heartbeat IPC: 0.30289 cumulative IPC: 0.317387 (Simulation time: 0 hr 31 min 34 sec) 
Heartbeat CPU 0 instructions: 324000002 cycles: 1018144895 heartbeat IPC: 0.313413 cumulative IPC: 0.317374 (Simulation time: 0 hr 31 min 40 sec) 
Heartbeat CPU 0 instructions: 325000000 cycles: 1021319582 heartbeat IPC: 0.314991 cumulative IPC: 0.317367 (Simulation time: 0 hr 31 min 46 sec) 
Heartbeat CPU 0 instructions: 326000001 cycles: 1024626379 heartbeat IPC: 0.302408 cumulative IPC: 0.317319 (Simulation time: 0 hr 31 min 52 sec) 
Heartbeat CPU 0 instructions: 327000002 cycles: 1027808645 heartbeat IPC: 0.314242 cumulative IPC: 0.317309 (Simulation time: 0 hr 31 min 59 sec) 
Heartbeat CPU 0 instructions: 328000001 cycles: 1030837630 heartbeat IPC: 0.330143 cumulative IPC: 0.317347 (Simulation time: 0 hr 32 min 5 sec) 
Heartbeat CPU 0 instructions: 329000000 cycles: 1034127875 heartbeat IPC: 0.303928 cumulative IPC: 0.317304 (Simulation time: 0 hr 32 min 11 sec) 
Heartbeat CPU 0 instructions: 330000000 cycles: 1037361455 heartbeat IPC: 0.309255 cumulative IPC: 0.317279 (Simulation time: 0 hr 32 min 17 sec) 
Heartbeat CPU 0 instructions: 331000000 cycles: 1040663872 heartbeat IPC: 0.302809 cumulative IPC: 0.317233 (Simulation time: 0 hr 32 min 23 sec) 
Heartbeat CPU 0 instructions: 332000000 cycles: 1043919269 heartbeat IPC: 0.307182 cumulative IPC: 0.317202 (Simulation time: 0 hr 32 min 30 sec) 
Heartbeat CPU 0 instructions: 333000000 cycles: 1047091163 heartbeat IPC: 0.315269 cumulative IPC: 0.317196 (Simulation time: 0 hr 32 min 36 sec) 
Heartbeat CPU 0 instructions: 334000001 cycles: 1050235104 heartbeat IPC: 0.318072 cumulative IPC: 0.317198 (Simulation time: 0 hr 32 min 42 sec) 
Heartbeat CPU 0 instructions: 335000000 cycles: 1053583893 heartbeat IPC: 0.298615 cumulative IPC: 0.317139 (Simulation time: 0 hr 32 min 49 sec) 
Heartbeat CPU 0 instructions: 336000000 cycles: 1056782935 heartbeat IPC: 0.312594 cumulative IPC: 0.317126 (Simulation time: 0 hr 32 min 55 sec) 
Heartbeat CPU 0 instructions: 337000003 cycles: 1060034337 heartbeat IPC: 0.307561 cumulative IPC: 0.317096 (Simulation time: 0 hr 33 min 1 sec) 
Heartbeat CPU 0 instructions: 338000002 cycles: 1063327696 heartbeat IPC: 0.303641 cumulative IPC: 0.317055 (Simulation time: 0 hr 33 min 7 sec) 
Heartbeat CPU 0 instructions: 339000003 cycles: 1066614720 heartbeat IPC: 0.304227 cumulative IPC: 0.317015 (Simulation time: 0 hr 33 min 14 sec) 
Heartbeat CPU 0 instructions: 340000003 cycles: 1069901250 heartbeat IPC: 0.304272 cumulative IPC: 0.316976 (Simulation time: 0 hr 33 min 20 sec) 
Heartbeat CPU 0 instructions: 341000000 cycles: 1073176413 heartbeat IPC: 0.305327 cumulative IPC: 0.31694 (Simulation time: 0 hr 33 min 27 sec) 
Heartbeat CPU 0 instructions: 342000001 cycles: 1076486086 heartbeat IPC: 0.302145 cumulative IPC: 0.316895 (Simulation time: 0 hr 33 min 33 sec) 
Heartbeat CPU 0 instructions: 343000000 cycles: 1079798530 heartbeat IPC: 0.301892 cumulative IPC: 0.316849 (Simulation time: 0 hr 33 min 40 sec) 
Heartbeat CPU 0 instructions: 344000003 cycles: 1083087639 heartbeat IPC: 0.304035 cumulative IPC: 0.31681 (Simulation time: 0 hr 33 min 46 sec) 
Heartbeat CPU 0 instructions: 345000001 cycles: 1086353692 heartbeat IPC: 0.306179 cumulative IPC: 0.316778 (Simulation time: 0 hr 33 min 52 sec) 
Heartbeat CPU 0 instructions: 346000000 cycles: 1089641547 heartbeat IPC: 0.304149 cumulative IPC: 0.31674 (Simulation time: 0 hr 33 min 59 sec) 
Heartbeat CPU 0 instructions: 347000000 cycles: 1092898670 heartbeat IPC: 0.307019 cumulative IPC: 0.316711 (Simulation time: 0 hr 34 min 6 sec) 
Heartbeat CPU 0 instructions: 348000000 cycles: 1096005436 heartbeat IPC: 0.321878 cumulative IPC: 0.316725 (Simulation time: 0 hr 34 min 12 sec) 
Heartbeat CPU 0 instructions: 349000002 cycles: 1099272098 heartbeat IPC: 0.306123 cumulative IPC: 0.316694 (Simulation time: 0 hr 34 min 19 sec) 
Heartbeat CPU 0 instructions: 350000000 cycles: 1102552962 heartbeat IPC: 0.304797 cumulative IPC: 0.316658 (Simulation time: 0 hr 34 min 25 sec) 
Heartbeat CPU 0 instructions: 351000002 cycles: 1105725120 heartbeat IPC: 0.315243 cumulative IPC: 0.316654 (Simulation time: 0 hr 34 min 31 sec) 
Heartbeat CPU 0 instructions: 352000000 cycles: 1109070974 heartbeat IPC: 0.298877 cumulative IPC: 0.316601 (Simulation time: 0 hr 34 min 38 sec) 
Heartbeat CPU 0 instructions: 353000002 cycles: 1112358122 heartbeat IPC: 0.304216 cumulative IPC: 0.316564 (Simulation time: 0 hr 34 min 45 sec) 
Heartbeat CPU 0 instructions: 354000000 cycles: 1115575413 heartbeat IPC: 0.31082 cumulative IPC: 0.316548 (Simulation time: 0 hr 34 min 51 sec) 
Heartbeat CPU 0 instructions: 355000000 cycles: 1118714761 heartbeat IPC: 0.318537 cumulative IPC: 0.316553 (Simulation time: 0 hr 34 min 57 sec) 
Heartbeat CPU 0 instructions: 356000000 cycles: 1122098273 heartbeat IPC: 0.295551 cumulative IPC: 0.31649 (Simulation time: 0 hr 35 min 4 sec) 
Heartbeat CPU 0 instructions: 357000000 cycles: 1125152370 heartbeat IPC: 0.327429 cumulative IPC: 0.316519 (Simulation time: 0 hr 35 min 11 sec) 
Heartbeat CPU 0 instructions: 358000001 cycles: 1128286745 heartbeat IPC: 0.319043 cumulative IPC: 0.316526 (Simulation time: 0 hr 35 min 17 sec) 
Heartbeat CPU 0 instructions: 359000000 cycles: 1131515536 heartbeat IPC: 0.309713 cumulative IPC: 0.316507 (Simulation time: 0 hr 35 min 24 sec) 
Heartbeat CPU 0 instructions: 360000001 cycles: 1134806081 heartbeat IPC: 0.303901 cumulative IPC: 0.31647 (Simulation time: 0 hr 35 min 31 sec) 
Heartbeat CPU 0 instructions: 361000001 cycles: 1138093458 heartbeat IPC: 0.304194 cumulative IPC: 0.316435 (Simulation time: 0 hr 35 min 37 sec) 
Heartbeat CPU 0 instructions: 362000001 cycles: 1141361690 heartbeat IPC: 0.305976 cumulative IPC: 0.316405 (Simulation time: 0 hr 35 min 44 sec) 
Heartbeat CPU 0 instructions: 363000000 cycles: 1144375372 heartbeat IPC: 0.33182 cumulative IPC: 0.316446 (Simulation time: 0 hr 35 min 50 sec) 
Heartbeat CPU 0 instructions: 364000003 cycles: 1147640747 heartbeat IPC: 0.306244 cumulative IPC: 0.316417 (Simulation time: 0 hr 35 min 57 sec) 
Heartbeat CPU 0 instructions: 365000001 cycles: 1150829135 heartbeat IPC: 0.313637 cumulative IPC: 0.316409 (Simulation time: 0 hr 36 min 3 sec) 
Heartbeat CPU 0 instructions: 366000000 cycles: 1154054167 heartbeat IPC: 0.310074 cumulative IPC: 0.316391 (Simulation time: 0 hr 36 min 10 sec) 
Heartbeat CPU 0 instructions: 367000000 cycles: 1157336823 heartbeat IPC: 0.304631 cumulative IPC: 0.316358 (Simulation time: 0 hr 36 min 16 sec) 
Heartbeat CPU 0 instructions: 368000000 cycles: 1160742012 heartbeat IPC: 0.293669 cumulative IPC: 0.316291 (Simulation time: 0 hr 36 min 22 sec) 
Heartbeat CPU 0 instructions: 369000003 cycles: 1164171981 heartbeat IPC: 0.291549 cumulative IPC: 0.316218 (Simulation time: 0 hr 36 min 29 sec) 
Heartbeat CPU 0 instructions: 370000002 cycles: 1167564320 heartbeat IPC: 0.294782 cumulative IPC: 0.316156 (Simulation time: 0 hr 36 min 36 sec) 
Heartbeat CPU 0 instructions: 371000000 cycles: 1170759815 heartbeat IPC: 0.31294 cumulative IPC: 0.316147 (Simulation time: 0 hr 36 min 42 sec) 
Heartbeat CPU 0 instructions: 372000003 cycles: 1174276050 heartbeat IPC: 0.284396 cumulative IPC: 0.316052 (Simulation time: 0 hr 36 min 49 sec) 
Heartbeat CPU 0 instructions: 373000003 cycles: 1177573201 heartbeat IPC: 0.303292 cumulative IPC: 0.316016 (Simulation time: 0 hr 36 min 56 sec) 
Heartbeat CPU 0 instructions: 374000000 cycles: 1181010567 heartbeat IPC: 0.29092 cumulative IPC: 0.315943 (Simulation time: 0 hr 37 min 2 sec) 
Heartbeat CPU 0 instructions: 375000001 cycles: 1184445831 heartbeat IPC: 0.291099 cumulative IPC: 0.315871 (Simulation time: 0 hr 37 min 8 sec) 
Heartbeat CPU 0 instructions: 376000000 cycles: 1187684380 heartbeat IPC: 0.30878 cumulative IPC: 0.315852 (Simulation time: 0 hr 37 min 15 sec) 
Heartbeat CPU 0 instructions: 377000000 cycles: 1191241984 heartbeat IPC: 0.281088 cumulative IPC: 0.315748 (Simulation time: 0 hr 37 min 22 sec) 
Heartbeat CPU 0 instructions: 378000001 cycles: 1194534184 heartbeat IPC: 0.303749 cumulative IPC: 0.315715 (Simulation time: 0 hr 37 min 29 sec) 
Heartbeat CPU 0 instructions: 379000000 cycles: 1198098287 heartbeat IPC: 0.280575 cumulative IPC: 0.31561 (Simulation time: 0 hr 37 min 36 sec) 
Heartbeat CPU 0 instructions: 380000000 cycles: 1201329439 heartbeat IPC: 0.309487 cumulative IPC: 0.315594 (Simulation time: 0 hr 37 min 43 sec) 
Heartbeat CPU 0 instructions: 381000001 cycles: 1204764007 heartbeat IPC: 0.291158 cumulative IPC: 0.315524 (Simulation time: 0 hr 37 min 50 sec) 
Heartbeat CPU 0 instructions: 382000003 cycles: 1208180894 heartbeat IPC: 0.292665 cumulative IPC: 0.31546 (Simulation time: 0 hr 37 min 56 sec) 
Heartbeat CPU 0 instructions: 383000000 cycles: 1211412054 heartbeat IPC: 0.309485 cumulative IPC: 0.315444 (Simulation time: 0 hr 38 min 3 sec) 
Heartbeat CPU 0 instructions: 384000000 cycles: 1214988808 heartbeat IPC: 0.279583 cumulative IPC: 0.315338 (Simulation time: 0 hr 38 min 10 sec) 
Heartbeat CPU 0 instructions: 385000000 cycles: 1218203049 heartbeat IPC: 0.311115 cumulative IPC: 0.315327 (Simulation time: 0 hr 38 min 17 sec) 
Heartbeat CPU 0 instructions: 386000000 cycles: 1221713133 heartbeat IPC: 0.284893 cumulative IPC: 0.315239 (Simulation time: 0 hr 38 min 24 sec) 
Heartbeat CPU 0 instructions: 387000000 cycles: 1224922959 heartbeat IPC: 0.311543 cumulative IPC: 0.31523 (Simulation time: 0 hr 38 min 30 sec) 
Heartbeat CPU 0 instructions: 388000000 cycles: 1228482212 heartbeat IPC: 0.280958 cumulative IPC: 0.31513 (Simulation time: 0 hr 38 min 38 sec) 
Heartbeat CPU 0 instructions: 389000002 cycles: 1231649242 heartbeat IPC: 0.315754 cumulative IPC: 0.315132 (Simulation time: 0 hr 38 min 45 sec) 
Heartbeat CPU 0 instructions: 390000002 cycles: 1235189908 heartbeat IPC: 0.282433 cumulative IPC: 0.315038 (Simulation time: 0 hr 38 min 51 sec) 
Heartbeat CPU 0 instructions: 391000001 cycles: 1238491886 heartbeat IPC: 0.302848 cumulative IPC: 0.315006 (Simulation time: 0 hr 38 min 58 sec) 
Heartbeat CPU 0 instructions: 392000000 cycles: 1242109502 heartbeat IPC: 0.276425 cumulative IPC: 0.314893 (Simulation time: 0 hr 39 min 6 sec) 
Heartbeat CPU 0 instructions: 393000001 cycles: 1245704041 heartbeat IPC: 0.2782 cumulative IPC: 0.314787 (Simulation time: 0 hr 39 min 13 sec) 
Heartbeat CPU 0 instructions: 394000000 cycles: 1249441695 heartbeat IPC: 0.267547 cumulative IPC: 0.314646 (Simulation time: 0 hr 39 min 20 sec) 
Heartbeat CPU 0 instructions: 395000001 cycles: 1252962370 heartbeat IPC: 0.284037 cumulative IPC: 0.31456 (Simulation time: 0 hr 39 min 28 sec) 
Heartbeat CPU 0 instructions: 396000000 cycles: 1256526989 heartbeat IPC: 0.280535 cumulative IPC: 0.314463 (Simulation time: 0 hr 39 min 35 sec) 
Heartbeat CPU 0 instructions: 397000000 cycles: 1260090862 heartbeat IPC: 0.280594 cumulative IPC: 0.314368 (Simulation time: 0 hr 39 min 42 sec) 
Heartbeat CPU 0 instructions: 398000001 cycles: 1263683532 heartbeat IPC: 0.278345 cumulative IPC: 0.314265 (Simulation time: 0 hr 39 min 49 sec) 
Heartbeat CPU 0 instructions: 399000000 cycles: 1267165075 heartbeat IPC: 0.287229 cumulative IPC: 0.314191 (Simulation time: 0 hr 39 min 56 sec) 
Heartbeat CPU 0 instructions: 400000001 cycles: 1270614932 heartbeat IPC: 0.289867 cumulative IPC: 0.314125 (Simulation time: 0 hr 40 min 3 sec) 
Heartbeat CPU 0 instructions: 401000002 cycles: 1274313207 heartbeat IPC: 0.270397 cumulative IPC: 0.313998 (Simulation time: 0 hr 40 min 11 sec) 
Heartbeat CPU 0 instructions: 402000002 cycles: 1277820673 heartbeat IPC: 0.285106 cumulative IPC: 0.313919 (Simulation time: 0 hr 40 min 18 sec) 
Heartbeat CPU 0 instructions: 403000001 cycles: 1281276950 heartbeat IPC: 0.289328 cumulative IPC: 0.313852 (Simulation time: 0 hr 40 min 25 sec) 
Heartbeat CPU 0 instructions: 404000000 cycles: 1284783737 heartbeat IPC: 0.285161 cumulative IPC: 0.313774 (Simulation time: 0 hr 40 min 32 sec) 
Heartbeat CPU 0 instructions: 405000001 cycles: 1294843659 heartbeat IPC: 0.0994044 cumulative IPC: 0.312108 (Simulation time: 0 hr 40 min 45 sec) 
Heartbeat CPU 0 instructions: 406000002 cycles: 1298218027 heartbeat IPC: 0.296352 cumulative IPC: 0.312067 (Simulation time: 0 hr 40 min 52 sec) 
Heartbeat CPU 0 instructions: 407000000 cycles: 1301440699 heartbeat IPC: 0.310301 cumulative IPC: 0.312062 (Simulation time: 0 hr 40 min 58 sec) 
Heartbeat CPU 0 instructions: 408000002 cycles: 1304667860 heartbeat IPC: 0.309871 cumulative IPC: 0.312057 (Simulation time: 0 hr 41 min 5 sec) 
Heartbeat CPU 0 instructions: 409000000 cycles: 1307852613 heartbeat IPC: 0.313995 cumulative IPC: 0.312062 (Simulation time: 0 hr 41 min 12 sec) 
Heartbeat CPU 0 instructions: 410000003 cycles: 1311161975 heartbeat IPC: 0.302174 cumulative IPC: 0.312037 (Simulation time: 0 hr 41 min 19 sec) 
Heartbeat CPU 0 instructions: 411000000 cycles: 1314352386 heartbeat IPC: 0.313438 cumulative IPC: 0.31204 (Simulation time: 0 hr 41 min 25 sec) 
Heartbeat CPU 0 instructions: 412000001 cycles: 1317553621 heartbeat IPC: 0.31238 cumulative IPC: 0.312041 (Simulation time: 0 hr 41 min 32 sec) 
Heartbeat CPU 0 instructions: 413000000 cycles: 1320940282 heartbeat IPC: 0.295276 cumulative IPC: 0.311998 (Simulation time: 0 hr 41 min 39 sec) 
Heartbeat CPU 0 instructions: 414000002 cycles: 1324179601 heartbeat IPC: 0.308707 cumulative IPC: 0.31199 (Simulation time: 0 hr 41 min 45 sec) 
Heartbeat CPU 0 instructions: 415000001 cycles: 1327434973 heartbeat IPC: 0.307184 cumulative IPC: 0.311978 (Simulation time: 0 hr 41 min 52 sec) 
Heartbeat CPU 0 instructions: 416000000 cycles: 1330680338 heartbeat IPC: 0.308131 cumulative IPC: 0.311969 (Simulation time: 0 hr 41 min 59 sec) 
Heartbeat CPU 0 instructions: 417000000 cycles: 1333924059 heartbeat IPC: 0.308288 cumulative IPC: 0.31196 (Simulation time: 0 hr 42 min 5 sec) 
Heartbeat CPU 0 instructions: 418000000 cycles: 1337164352 heartbeat IPC: 0.308614 cumulative IPC: 0.311952 (Simulation time: 0 hr 42 min 12 sec) 
Heartbeat CPU 0 instructions: 419000000 cycles: 1340402769 heartbeat IPC: 0.308793 cumulative IPC: 0.311944 (Simulation time: 0 hr 42 min 19 sec) 
Heartbeat CPU 0 instructions: 420000001 cycles: 1344001942 heartbeat IPC: 0.277842 cumulative IPC: 0.311853 (Simulation time: 0 hr 42 min 26 sec) 
Heartbeat CPU 0 instructions: 421000001 cycles: 1347578765 heartbeat IPC: 0.279578 cumulative IPC: 0.311767 (Simulation time: 0 hr 42 min 33 sec) 
Heartbeat CPU 0 instructions: 422000002 cycles: 1351156170 heartbeat IPC: 0.279533 cumulative IPC: 0.311682 (Simulation time: 0 hr 42 min 40 sec) 
Heartbeat CPU 0 instructions: 423000000 cycles: 1354505989 heartbeat IPC: 0.298523 cumulative IPC: 0.311649 (Simulation time: 0 hr 42 min 47 sec) 
Heartbeat CPU 0 instructions: 424000003 cycles: 1358005709 heartbeat IPC: 0.285738 cumulative IPC: 0.311582 (Simulation time: 0 hr 42 min 54 sec) 
Heartbeat CPU 0 instructions: 425000002 cycles: 1361486259 heartbeat IPC: 0.287311 cumulative IPC: 0.31152 (Simulation time: 0 hr 43 min 0 sec) 
Heartbeat CPU 0 instructions: 426000002 cycles: 1365045671 heartbeat IPC: 0.280945 cumulative IPC: 0.31144 (Simulation time: 0 hr 43 min 8 sec) 
Heartbeat CPU 0 instructions: 427000001 cycles: 1368605474 heartbeat IPC: 0.280914 cumulative IPC: 0.311361 (Simulation time: 0 hr 43 min 15 sec) 
Heartbeat CPU 0 instructions: 428000000 cycles: 1371796645 heartbeat IPC: 0.313364 cumulative IPC: 0.311366 (Simulation time: 0 hr 43 min 21 sec) 
Heartbeat CPU 0 instructions: 429000000 cycles: 1375367574 heartbeat IPC: 0.280039 cumulative IPC: 0.311284 (Simulation time: 0 hr 43 min 28 sec) 
Heartbeat CPU 0 instructions: 430000001 cycles: 1378514075 heartbeat IPC: 0.317814 cumulative IPC: 0.311299 (Simulation time: 0 hr 43 min 35 sec) 
Heartbeat CPU 0 instructions: 431000001 cycles: 1381885454 heartbeat IPC: 0.296615 cumulative IPC: 0.311263 (Simulation time: 0 hr 43 min 42 sec) 
Heartbeat CPU 0 instructions: 432000000 cycles: 1385248059 heartbeat IPC: 0.297388 cumulative IPC: 0.31123 (Simulation time: 0 hr 43 min 48 sec) 
Heartbeat CPU 0 instructions: 433000000 cycles: 1388791668 heartbeat IPC: 0.282198 cumulative IPC: 0.311156 (Simulation time: 0 hr 43 min 55 sec) 
Heartbeat CPU 0 instructions: 434000000 cycles: 1392140007 heartbeat IPC: 0.298656 cumulative IPC: 0.311126 (Simulation time: 0 hr 44 min 2 sec) 
Heartbeat CPU 0 instructions: 435000001 cycles: 1395602297 heartbeat IPC: 0.288826 cumulative IPC: 0.31107 (Simulation time: 0 hr 44 min 8 sec) 
Heartbeat CPU 0 instructions: 436000001 cycles: 1399159852 heartbeat IPC: 0.281092 cumulative IPC: 0.310994 (Simulation time: 0 hr 44 min 15 sec) 
Heartbeat CPU 0 instructions: 437000002 cycles: 1402524028 heartbeat IPC: 0.29725 cumulative IPC: 0.310961 (Simulation time: 0 hr 44 min 22 sec) 
Heartbeat CPU 0 instructions: 438000001 cycles: 1405961245 heartbeat IPC: 0.290933 cumulative IPC: 0.310912 (Simulation time: 0 hr 44 min 28 sec) 
Heartbeat CPU 0 instructions: 439000000 cycles: 1409567184 heartbeat IPC: 0.27732 cumulative IPC: 0.310826 (Simulation time: 0 hr 44 min 35 sec) 
Heartbeat CPU 0 instructions: 440000000 cycles: 1412772557 heartbeat IPC: 0.311976 cumulative IPC: 0.310829 (Simulation time: 0 hr 44 min 41 sec) 
Heartbeat CPU 0 instructions: 441000001 cycles: 1416328626 heartbeat IPC: 0.28121 cumulative IPC: 0.310754 (Simulation time: 0 hr 44 min 48 sec) 
Heartbeat CPU 0 instructions: 442000001 cycles: 1419598756 heartbeat IPC: 0.305798 cumulative IPC: 0.310743 (Simulation time: 0 hr 44 min 55 sec) 
Heartbeat CPU 0 instructions: 443000002 cycles: 1423054251 heartbeat IPC: 0.289394 cumulative IPC: 0.310691 (Simulation time: 0 hr 45 min 1 sec) 
Heartbeat CPU 0 instructions: 444000000 cycles: 1426576750 heartbeat IPC: 0.283889 cumulative IPC: 0.310625 (Simulation time: 0 hr 45 min 8 sec) 
Heartbeat CPU 0 instructions: 445000000 cycles: 1429784085 heartbeat IPC: 0.311785 cumulative IPC: 0.310627 (Simulation time: 0 hr 45 min 15 sec) 
Heartbeat CPU 0 instructions: 446000000 cycles: 1433261800 heartbeat IPC: 0.287545 cumulative IPC: 0.310571 (Simulation time: 0 hr 45 min 20 sec) 
Heartbeat CPU 0 instructions: 447000002 cycles: 1436740576 heartbeat IPC: 0.287458 cumulative IPC: 0.310515 (Simulation time: 0 hr 45 min 26 sec) 
Heartbeat CPU 0 instructions: 448000002 cycles: 1439938569 heartbeat IPC: 0.312696 cumulative IPC: 0.31052 (Simulation time: 0 hr 45 min 33 sec) 
Heartbeat CPU 0 instructions: 449000000 cycles: 1443462643 heartbeat IPC: 0.283762 cumulative IPC: 0.310455 (Simulation time: 0 hr 45 min 40 sec) 
Heartbeat CPU 0 instructions: 450000001 cycles: 1447011115 heartbeat IPC: 0.281812 cumulative IPC: 0.310385 (Simulation time: 0 hr 45 min 46 sec) 

Warmup complete CPU 0 instructions: 450000001 cycles: 1447011115 (Simulation time: 0 hr 45 min 46 sec) 

Heartbeat CPU 0 instructions: 451000000 cycles: 1450244705 heartbeat IPC: 0.309253 cumulative IPC: 0.309253 (Simulation time: 0 hr 45 min 53 sec) 
Heartbeat CPU 0 instructions: 452000002 cycles: 1453735174 heartbeat IPC: 0.286495 cumulative IPC: 0.29744 (Simulation time: 0 hr 46 min 0 sec) 
Heartbeat CPU 0 instructions: 453000003 cycles: 1457240607 heartbeat IPC: 0.285272 cumulative IPC: 0.29327 (Simulation time: 0 hr 46 min 6 sec) 
Heartbeat CPU 0 instructions: 454000001 cycles: 1460452301 heartbeat IPC: 0.311362 cumulative IPC: 0.297593 (Simulation time: 0 hr 46 min 13 sec) 
Heartbeat CPU 0 instructions: 455000002 cycles: 1464084168 heartbeat IPC: 0.275341 cumulative IPC: 0.292859 (Simulation time: 0 hr 46 min 20 sec) 
Heartbeat CPU 0 instructions: 456000001 cycles: 1468193908 heartbeat IPC: 0.243324 cumulative IPC: 0.283249 (Simulation time: 0 hr 46 min 28 sec) 
Heartbeat CPU 0 instructions: 457000000 cycles: 1472577850 heartbeat IPC: 0.228105 cumulative IPC: 0.273793 (Simulation time: 0 hr 46 min 36 sec) 
Heartbeat CPU 0 instructions: 458000000 cycles: 1476993776 heartbeat IPC: 0.226453 cumulative IPC: 0.266821 (Simulation time: 0 hr 46 min 45 sec) 
Heartbeat CPU 0 instructions: 459000002 cycles: 1481246813 heartbeat IPC: 0.235127 cumulative IPC: 0.262884 (Simulation time: 0 hr 46 min 53 sec) 
Heartbeat CPU 0 instructions: 460000000 cycles: 1485634715 heartbeat IPC: 0.227899 cumulative IPC: 0.258909 (Simulation time: 0 hr 47 min 2 sec) 
Heartbeat CPU 0 instructions: 461000002 cycles: 1489793116 heartbeat IPC: 0.240478 cumulative IPC: 0.257118 (Simulation time: 0 hr 47 min 10 sec) 
Heartbeat CPU 0 instructions: 462000000 cycles: 1494535638 heartbeat IPC: 0.210858 cumulative IPC: 0.252501 (Simulation time: 0 hr 47 min 19 sec) 
Heartbeat CPU 0 instructions: 463000000 cycles: 1498611650 heartbeat IPC: 0.245338 cumulative IPC: 0.251935 (Simulation time: 0 hr 47 min 27 sec) 
Heartbeat CPU 0 instructions: 464000001 cycles: 1502833881 heartbeat IPC: 0.236842 cumulative IPC: 0.250794 (Simulation time: 0 hr 47 min 36 sec) 
Heartbeat CPU 0 instructions: 465000003 cycles: 1507199120 heartbeat IPC: 0.229083 cumulative IPC: 0.249219 (Simulation time: 0 hr 47 min 44 sec) 
Heartbeat CPU 0 instructions: 466000003 cycles: 1511311407 heartbeat IPC: 0.243174 cumulative IPC: 0.248832 (Simulation time: 0 hr 47 min 53 sec) 
Heartbeat CPU 0 instructions: 467000000 cycles: 1515788532 heartbeat IPC: 0.223357 cumulative IPC: 0.247174 (Simulation time: 0 hr 48 min 1 sec) 
Heartbeat CPU 0 instructions: 468000001 cycles: 1519872750 heartbeat IPC: 0.244845 cumulative IPC: 0.247044 (Simulation time: 0 hr 48 min 10 sec) 
Heartbeat CPU 0 instructions: 469000002 cycles: 1524073366 heartbeat IPC: 0.238061 cumulative IPC: 0.246554 (Simulation time: 0 hr 48 min 18 sec) 
Heartbeat CPU 0 instructions: 470000002 cycles: 1528489583 heartbeat IPC: 0.226438 cumulative IPC: 0.245464 (Simulation time: 0 hr 48 min 27 sec) 
Heartbeat CPU 0 instructions: 471000002 cycles: 1532547276 heartbeat IPC: 0.246445 cumulative IPC: 0.24551 (Simulation time: 0 hr 48 min 35 sec) 
Heartbeat CPU 0 instructions: 472000000 cycles: 1536853877 heartbeat IPC: 0.232201 cumulative IPC: 0.244872 (Simulation time: 0 hr 48 min 44 sec) 
Heartbeat CPU 0 instructions: 473000000 cycles: 1541203088 heartbeat IPC: 0.229927 cumulative IPC: 0.244182 (Simulation time: 0 hr 48 min 52 sec) 
Heartbeat CPU 0 instructions: 474000001 cycles: 1545464582 heartbeat IPC: 0.23466 cumulative IPC: 0.24377 (Simulation time: 0 hr 49 min 1 sec) 
Heartbeat CPU 0 instructions: 475000000 cycles: 1549848697 heartbeat IPC: 0.228096 cumulative IPC: 0.243102 (Simulation time: 0 hr 49 min 9 sec) 
Heartbeat CPU 0 instructions: 476000002 cycles: 1553953057 heartbeat IPC: 0.243644 cumulative IPC: 0.243123 (Simulation time: 0 hr 49 min 17 sec) 
Heartbeat CPU 0 instructions: 477000000 cycles: 1558494347 heartbeat IPC: 0.220201 cumulative IPC: 0.242189 (Simulation time: 0 hr 49 min 26 sec) 
Heartbeat CPU 0 instructions: 478000002 cycles: 1562924356 heartbeat IPC: 0.225734 cumulative IPC: 0.24156 (Simulation time: 0 hr 49 min 34 sec) 
Heartbeat CPU 0 instructions: 479000003 cycles: 1567014330 heartbeat IPC: 0.244501 cumulative IPC: 0.24166 (Simulation time: 0 hr 49 min 42 sec) 
Heartbeat CPU 0 instructions: 480000000 cycles: 1571143069 heartbeat IPC: 0.242204 cumulative IPC: 0.241678 (Simulation time: 0 hr 49 min 50 sec) 
Heartbeat CPU 0 instructions: 481000000 cycles: 1575283201 heartbeat IPC: 0.241538 cumulative IPC: 0.241674 (Simulation time: 0 hr 49 min 59 sec) 
Heartbeat CPU 0 instructions: 482000002 cycles: 1580323113 heartbeat IPC: 0.198417 cumulative IPC: 0.240038 (Simulation time: 0 hr 50 min 8 sec) 
Heartbeat CPU 0 instructions: 483000002 cycles: 1584424701 heartbeat IPC: 0.243808 cumulative IPC: 0.240151 (Simulation time: 0 hr 50 min 16 sec) 
Heartbeat CPU 0 instructions: 484000000 cycles: 1589055837 heartbeat IPC: 0.215929 cumulative IPC: 0.239361 (Simulation time: 0 hr 50 min 25 sec) 
Heartbeat CPU 0 instructions: 485000000 cycles: 1593140993 heartbeat IPC: 0.244789 cumulative IPC: 0.239513 (Simulation time: 0 hr 50 min 33 sec) 
Heartbeat CPU 0 instructions: 486000000 cycles: 1597720620 heartbeat IPC: 0.218358 cumulative IPC: 0.23887 (Simulation time: 0 hr 50 min 41 sec) 
Heartbeat CPU 0 instructions: 487000001 cycles: 1601782335 heartbeat IPC: 0.246202 cumulative IPC: 0.239063 (Simulation time: 0 hr 50 min 50 sec) 
Heartbeat CPU 0 instructions: 488000002 cycles: 1606287166 heartbeat IPC: 0.221984 cumulative IPC: 0.238579 (Simulation time: 0 hr 50 min 58 sec) 
Heartbeat CPU 0 instructions: 489000000 cycles: 1610543067 heartbeat IPC: 0.234967 cumulative IPC: 0.238486 (Simulation time: 0 hr 51 min 7 sec) 
Heartbeat CPU 0 instructions: 490000003 cycles: 1614619378 heartbeat IPC: 0.245321 cumulative IPC: 0.238652 (Simulation time: 0 hr 51 min 13 sec) 
Heartbeat CPU 0 instructions: 491000000 cycles: 1618777275 heartbeat IPC: 0.240505 cumulative IPC: 0.238697 (Simulation time: 0 hr 51 min 21 sec) 
Heartbeat CPU 0 instructions: 492000000 cycles: 1623203468 heartbeat IPC: 0.225928 cumulative IPC: 0.238376 (Simulation time: 0 hr 51 min 30 sec) 
Heartbeat CPU 0 instructions: 493000003 cycles: 1627470579 heartbeat IPC: 0.234351 cumulative IPC: 0.238281 (Simulation time: 0 hr 51 min 38 sec) 
Heartbeat CPU 0 instructions: 494000000 cycles: 1631514773 heartbeat IPC: 0.247267 cumulative IPC: 0.238478 (Simulation time: 0 hr 51 min 46 sec) 
Heartbeat CPU 0 instructions: 495000000 cycles: 1635696645 heartbeat IPC: 0.239127 cumulative IPC: 0.238492 (Simulation time: 0 hr 51 min 54 sec) 
Heartbeat CPU 0 instructions: 496000003 cycles: 1640238367 heartbeat IPC: 0.220181 cumulative IPC: 0.238062 (Simulation time: 0 hr 52 min 3 sec) 
Heartbeat CPU 0 instructions: 497000002 cycles: 1644340166 heartbeat IPC: 0.243795 cumulative IPC: 0.238181 (Simulation time: 0 hr 52 min 11 sec) 
Heartbeat CPU 0 instructions: 498000003 cycles: 1648559316 heartbeat IPC: 0.237015 cumulative IPC: 0.238156 (Simulation time: 0 hr 52 min 19 sec) 
Heartbeat CPU 0 instructions: 499000000 cycles: 1653013769 heartbeat IPC: 0.224494 cumulative IPC: 0.237861 (Simulation time: 0 hr 52 min 28 sec) 
Heartbeat CPU 0 instructions: 500000002 cycles: 1657168931 heartbeat IPC: 0.240665 cumulative IPC: 0.237916 (Simulation time: 0 hr 52 min 36 sec) 
Heartbeat CPU 0 instructions: 501000000 cycles: 1660493902 heartbeat IPC: 0.300754 cumulative IPC: 0.238895 (Simulation time: 0 hr 52 min 43 sec) 
Heartbeat CPU 0 instructions: 502000002 cycles: 1663753145 heartbeat IPC: 0.30682 cumulative IPC: 0.239917 (Simulation time: 0 hr 52 min 49 sec) 
Heartbeat CPU 0 instructions: 503000001 cycles: 1666993238 heartbeat IPC: 0.308633 cumulative IPC: 0.240929 (Simulation time: 0 hr 52 min 56 sec) 
Heartbeat CPU 0 instructions: 504000002 cycles: 1670252108 heartbeat IPC: 0.306855 cumulative IPC: 0.241891 (Simulation time: 0 hr 53 min 2 sec) 
Heartbeat CPU 0 instructions: 505000001 cycles: 1673564277 heartbeat IPC: 0.301917 cumulative IPC: 0.242769 (Simulation time: 0 hr 53 min 9 sec) 
Heartbeat CPU 0 instructions: 506000000 cycles: 1677066316 heartbeat IPC: 0.285548 cumulative IPC: 0.24342 (Simulation time: 0 hr 53 min 16 sec) 
Heartbeat CPU 0 instructions: 507000000 cycles: 1681200607 heartbeat IPC: 0.241879 cumulative IPC: 0.243393 (Simulation time: 0 hr 53 min 23 sec) 
Heartbeat CPU 0 instructions: 508000001 cycles: 1684599858 heartbeat IPC: 0.294183 cumulative IPC: 0.244119 (Simulation time: 0 hr 53 min 29 sec) 
Heartbeat CPU 0 instructions: 509000000 cycles: 1687986430 heartbeat IPC: 0.295284 cumulative IPC: 0.244838 (Simulation time: 0 hr 53 min 36 sec) 
Heartbeat CPU 0 instructions: 510000000 cycles: 1691220053 heartbeat IPC: 0.309251 cumulative IPC: 0.245691 (Simulation time: 0 hr 53 min 42 sec) 
Heartbeat CPU 0 instructions: 511000000 cycles: 1694430481 heartbeat IPC: 0.311485 cumulative IPC: 0.246545 (Simulation time: 0 hr 53 min 49 sec) 
Heartbeat CPU 0 instructions: 512000002 cycles: 1697623121 heartbeat IPC: 0.313221 cumulative IPC: 0.247394 (Simulation time: 0 hr 53 min 55 sec) 
Heartbeat CPU 0 instructions: 513000002 cycles: 1700887310 heartbeat IPC: 0.306355 cumulative IPC: 0.248152 (Simulation time: 0 hr 54 min 2 sec) 
Heartbeat CPU 0 instructions: 514000000 cycles: 1704172048 heartbeat IPC: 0.304438 cumulative IPC: 0.248871 (Simulation time: 0 hr 54 min 8 sec) 
Heartbeat CPU 0 instructions: 515000000 cycles: 1707457416 heartbeat IPC: 0.30438 cumulative IPC: 0.249572 (Simulation time: 0 hr 54 min 15 sec) 
Heartbeat CPU 0 instructions: 516000003 cycles: 1710787310 heartbeat IPC: 0.300311 cumulative IPC: 0.250212 (Simulation time: 0 hr 54 min 21 sec) 
Heartbeat CPU 0 instructions: 517000000 cycles: 1714077809 heartbeat IPC: 0.303904 cumulative IPC: 0.250874 (Simulation time: 0 hr 54 min 28 sec) 
Heartbeat CPU 0 instructions: 518000003 cycles: 1717057947 heartbeat IPC: 0.335556 cumulative IPC: 0.251808 (Simulation time: 0 hr 54 min 34 sec) 
Heartbeat CPU 0 instructions: 519000003 cycles: 1720329905 heartbeat IPC: 0.305627 cumulative IPC: 0.252452 (Simulation time: 0 hr 54 min 41 sec) 
Heartbeat CPU 0 instructions: 520000000 cycles: 1723639819 heartbeat IPC: 0.302122 cumulative IPC: 0.253047 (Simulation time: 0 hr 54 min 48 sec) 
Heartbeat CPU 0 instructions: 521000002 cycles: 1726955098 heartbeat IPC: 0.301634 cumulative IPC: 0.253622 (Simulation time: 0 hr 54 min 54 sec) 
Heartbeat CPU 0 instructions: 522000000 cycles: 1730212499 heartbeat IPC: 0.306993 cumulative IPC: 0.254236 (Simulation time: 0 hr 55 min 1 sec) 
Heartbeat CPU 0 instructions: 523000000 cycles: 1733530310 heartbeat IPC: 0.301404 cumulative IPC: 0.254782 (Simulation time: 0 hr 55 min 8 sec) 
Heartbeat CPU 0 instructions: 524000000 cycles: 1736872619 heartbeat IPC: 0.299194 cumulative IPC: 0.255294 (Simulation time: 0 hr 55 min 14 sec) 
Heartbeat CPU 0 instructions: 525000000 cycles: 1740065087 heartbeat IPC: 0.313237 cumulative IPC: 0.255926 (Simulation time: 0 hr 55 min 21 sec) 
Heartbeat CPU 0 instructions: 526000002 cycles: 1743289577 heartbeat IPC: 0.310127 cumulative IPC: 0.256515 (Simulation time: 0 hr 55 min 28 sec) 
Heartbeat CPU 0 instructions: 527000001 cycles: 1746537338 heartbeat IPC: 0.307904 cumulative IPC: 0.257073 (Simulation time: 0 hr 55 min 34 sec) 
Heartbeat CPU 0 instructions: 528000000 cycles: 1749713771 heartbeat IPC: 0.314818 cumulative IPC: 0.257679 (Simulation time: 0 hr 55 min 41 sec) 
Heartbeat CPU 0 instructions: 529000000 cycles: 1753039691 heartbeat IPC: 0.300669 cumulative IPC: 0.258146 (Simulation time: 0 hr 55 min 47 sec) 
Heartbeat CPU 0 instructions: 530000002 cycles: 1756451162 heartbeat IPC: 0.293129 cumulative IPC: 0.258532 (Simulation time: 0 hr 55 min 54 sec) 
Heartbeat CPU 0 instructions: 531000002 cycles: 1759450067 heartbeat IPC: 0.333455 cumulative IPC: 0.259251 (Simulation time: 0 hr 56 min 0 sec) 
Heartbeat CPU 0 instructions: 532000000 cycles: 1762739579 heartbeat IPC: 0.303996 cumulative IPC: 0.259717 (Simulation time: 0 hr 56 min 6 sec) 
Heartbeat CPU 0 instructions: 533000000 cycles: 1766102218 heartbeat IPC: 0.297385 cumulative IPC: 0.260114 (Simulation time: 0 hr 56 min 12 sec) 
Heartbeat CPU 0 instructions: 534000002 cycles: 1769103339 heartbeat IPC: 0.333209 cumulative IPC: 0.260795 (Simulation time: 0 hr 56 min 19 sec) 
Heartbeat CPU 0 instructions: 535000000 cycles: 1772387715 heartbeat IPC: 0.304471 cumulative IPC: 0.261236 (Simulation time: 0 hr 56 min 25 sec) 
Heartbeat CPU 0 instructions: 536000001 cycles: 1775737583 heartbeat IPC: 0.29852 cumulative IPC: 0.261616 (Simulation time: 0 hr 56 min 31 sec) 
Heartbeat CPU 0 instructions: 537000000 cycles: 1779025739 heartbeat IPC: 0.304122 cumulative IPC: 0.262037 (Simulation time: 0 hr 56 min 38 sec) 
Heartbeat CPU 0 instructions: 538000002 cycles: 1782075200 heartbeat IPC: 0.327927 cumulative IPC: 0.262636 (Simulation time: 0 hr 56 min 44 sec) 
Heartbeat CPU 0 instructions: 539000000 cycles: 1785372444 heartbeat IPC: 0.303283 cumulative IPC: 0.263032 (Simulation time: 0 hr 56 min 50 sec) 
Heartbeat CPU 0 instructions: 540000000 cycles: 1788720349 heartbeat IPC: 0.298694 cumulative IPC: 0.263382 (Simulation time: 0 hr 56 min 57 sec) 
Heartbeat CPU 0 instructions: 541000001 cycles: 1791782339 heartbeat IPC: 0.326585 cumulative IPC: 0.263943 (Simulation time: 0 hr 57 min 4 sec) 
Heartbeat CPU 0 instructions: 542000000 cycles: 1795000112 heartbeat IPC: 0.310774 cumulative IPC: 0.264376 (Simulation time: 0 hr 57 min 10 sec) 
Heartbeat CPU 0 instructions: 543000001 cycles: 1798376348 heartbeat IPC: 0.296188 cumulative IPC: 0.264682 (Simulation time: 0 hr 57 min 16 sec) 
Heartbeat CPU 0 instructions: 544000000 cycles: 1801523623 heartbeat IPC: 0.317735 cumulative IPC: 0.265153 (Simulation time: 0 hr 57 min 22 sec) 
Heartbeat CPU 0 instructions: 545000002 cycles: 1804768481 heartbeat IPC: 0.308181 cumulative IPC: 0.265543 (Simulation time: 0 hr 57 min 28 sec) 
[...]
Heartbeat CPU 0 instructions: 834000003 cycles: 2693335365 heartbeat IPC: 0.297665 cumulative IPC: 0.308106 (Simulation time: 1 hr 26 min 36 sec) 
Heartbeat CPU 0 instructions: 835000000 cycles: 2696694057 heartbeat IPC: 0.297734 cumulative IPC: 0.308078 (Simulation time: 1 hr 26 min 43 sec) 
Heartbeat CPU 0 instructions: 836000000 cycles: 2699821071 heartbeat IPC: 0.319794 cumulative IPC: 0.308107 (Simulation time: 1 hr 26 min 49 sec) 
Heartbeat CPU 0 instructions: 837000002 cycles: 2703047808 heartbeat IPC: 0.309911 cumulative IPC: 0.308112 (Simulation time: 1 hr 26 min 56 sec) 
Heartbeat CPU 0 instructions: 838000000 cycles: 2706477547 heartbeat IPC: 0.291567 cumulative IPC: 0.308067 (Simulation time: 1 hr 27 min 2 sec) 
Heartbeat CPU 0 instructions: 839000000 cycles: 2709700957 heartbeat IPC: 0.31023 cumulative IPC: 0.308072 (Simulation time: 1 hr 27 min 9 sec) 
Heartbeat CPU 0 instructions: 840000001 cycles: 2712986608 heartbeat IPC: 0.304354 cumulative IPC: 0.308063 (Simulation time: 1 hr 27 min 15 sec) 
Heartbeat CPU 0 instructions: 841000000 cycles: 2716400136 heartbeat IPC: 0.292952 cumulative IPC: 0.308022 (Simulation time: 1 hr 27 min 22 sec) 
Heartbeat CPU 0 instructions: 842000002 cycles: 2719549425 heartbeat IPC: 0.317533 cumulative IPC: 0.308046 (Simulation time: 1 hr 27 min 29 sec) 
Heartbeat CPU 0 instructions: 843000000 cycles: 2722808082 heartbeat IPC: 0.306874 cumulative IPC: 0.308043 (Simulation time: 1 hr 27 min 35 sec) 
Heartbeat CPU 0 instructions: 844000001 cycles: 2726170823 heartbeat IPC: 0.297377 cumulative IPC: 0.308015 (Simulation time: 1 hr 27 min 41 sec) 
Heartbeat CPU 0 instructions: 845000001 cycles: 2729523320 heartbeat IPC: 0.298285 cumulative IPC: 0.307989 (Simulation time: 1 hr 27 min 47 sec) 
Heartbeat CPU 0 instructions: 846000001 cycles: 2732936373 heartbeat IPC: 0.292993 cumulative IPC: 0.307949 (Simulation time: 1 hr 27 min 54 sec) 
Heartbeat CPU 0 instructions: 847000000 cycles: 2736011824 heartbeat IPC: 0.325155 cumulative IPC: 0.307991 (Simulation time: 1 hr 28 min 0 sec) 
Heartbeat CPU 0 instructions: 848000003 cycles: 2739299722 heartbeat IPC: 0.304147 cumulative IPC: 0.307981 (Simulation time: 1 hr 28 min 6 sec) 
Heartbeat CPU 0 instructions: 849000003 cycles: 2742618114 heartbeat IPC: 0.301351 cumulative IPC: 0.307964 (Simulation time: 1 hr 28 min 12 sec) 
Heartbeat CPU 0 instructions: 850000001 cycles: 2746005419 heartbeat IPC: 0.295219 cumulative IPC: 0.307931 (Simulation time: 1 hr 28 min 19 sec) 
Heartbeat CPU 0 instructions: 851000001 cycles: 2749277714 heartbeat IPC: 0.305596 cumulative IPC: 0.307925 (Simulation time: 1 hr 28 min 25 sec) 
Heartbeat CPU 0 instructions: 852000000 cycles: 2752411695 heartbeat IPC: 0.319083 cumulative IPC: 0.307951 (Simulation time: 1 hr 28 min 31 sec) 
Heartbeat CPU 0 instructions: 853000002 cycles: 2755756429 heartbeat IPC: 0.298978 cumulative IPC: 0.307929 (Simulation time: 1 hr 28 min 37 sec) 
Heartbeat CPU 0 instructions: 854000002 cycles: 2759302970 heartbeat IPC: 0.281965 cumulative IPC: 0.307858 (Simulation time: 1 hr 28 min 44 sec) 
Heartbeat CPU 0 instructions: 855000000 cycles: 2762647347 heartbeat IPC: 0.299009 cumulative IPC: 0.307836 (Simulation time: 1 hr 28 min 50 sec) 
Heartbeat CPU 0 instructions: 856000001 cycles: 2765789753 heartbeat IPC: 0.318228 cumulative IPC: 0.307861 (Simulation time: 1 hr 28 min 57 sec) 
Heartbeat CPU 0 instructions: 857000002 cycles: 2769094639 heartbeat IPC: 0.302583 cumulative IPC: 0.307847 (Simulation time: 1 hr 29 min 3 sec) 
Heartbeat CPU 0 instructions: 858000000 cycles: 2772405820 heartbeat IPC: 0.302006 cumulative IPC: 0.307833 (Simulation time: 1 hr 29 min 10 sec) 
Heartbeat CPU 0 instructions: 859000002 cycles: 2775782086 heartbeat IPC: 0.296186 cumulative IPC: 0.307803 (Simulation time: 1 hr 29 min 16 sec) 
Heartbeat CPU 0 instructions: 860000000 cycles: 2779112623 heartbeat IPC: 0.300251 cumulative IPC: 0.307784 (Simulation time: 1 hr 29 min 23 sec) 
Heartbeat CPU 0 instructions: 861000000 cycles: 2782450712 heartbeat IPC: 0.299573 cumulative IPC: 0.307764 (Simulation time: 1 hr 29 min 30 sec) 
Heartbeat CPU 0 instructions: 862000000 cycles: 2785440201 heartbeat IPC: 0.334505 cumulative IPC: 0.307824 (Simulation time: 1 hr 29 min 36 sec) 
Heartbeat CPU 0 instructions: 863000000 cycles: 2788758199 heartbeat IPC: 0.301387 cumulative IPC: 0.307808 (Simulation time: 1 hr 29 min 42 sec) 
Heartbeat CPU 0 instructions: 864000002 cycles: 2792071965 heartbeat IPC: 0.301772 cumulative IPC: 0.307793 (Simulation time: 1 hr 29 min 49 sec) 
Heartbeat CPU 0 instructions: 865000000 cycles: 2795087199 heartbeat IPC: 0.331649 cumulative IPC: 0.307846 (Simulation time: 1 hr 29 min 55 sec) 
Heartbeat CPU 0 instructions: 866000000 cycles: 2798354438 heartbeat IPC: 0.306069 cumulative IPC: 0.307842 (Simulation time: 1 hr 30 min 1 sec) 
Heartbeat CPU 0 instructions: 867000003 cycles: 2801722692 heartbeat IPC: 0.296891 cumulative IPC: 0.307815 (Simulation time: 1 hr 30 min 8 sec) 
Heartbeat CPU 0 instructions: 868000001 cycles: 2805069290 heartbeat IPC: 0.29881 cumulative IPC: 0.307792 (Simulation time: 1 hr 30 min 15 sec) 
Heartbeat CPU 0 instructions: 869000000 cycles: 2808418953 heartbeat IPC: 0.298537 cumulative IPC: 0.30777 (Simulation time: 1 hr 30 min 21 sec) 
Heartbeat CPU 0 instructions: 870000003 cycles: 2811757463 heartbeat IPC: 0.299536 cumulative IPC: 0.30775 (Simulation time: 1 hr 30 min 28 sec) 
Heartbeat CPU 0 instructions: 871000002 cycles: 2815076975 heartbeat IPC: 0.301249 cumulative IPC: 0.307734 (Simulation time: 1 hr 30 min 34 sec) 
Heartbeat CPU 0 instructions: 872000000 cycles: 2818411448 heartbeat IPC: 0.299897 cumulative IPC: 0.307715 (Simulation time: 1 hr 30 min 41 sec) 
Heartbeat CPU 0 instructions: 873000002 cycles: 2821802468 heartbeat IPC: 0.294897 cumulative IPC: 0.307683 (Simulation time: 1 hr 30 min 48 sec) 
Heartbeat CPU 0 instructions: 874000000 cycles: 2825131071 heartbeat IPC: 0.300426 cumulative IPC: 0.307666 (Simulation time: 1 hr 30 min 55 sec) 
Heartbeat CPU 0 instructions: 875000001 cycles: 2828455402 heartbeat IPC: 0.300813 cumulative IPC: 0.307649 (Simulation time: 1 hr 31 min 1 sec) 
Heartbeat CPU 0 instructions: 876000000 cycles: 2831743285 heartbeat IPC: 0.304147 cumulative IPC: 0.307641 (Simulation time: 1 hr 31 min 8 sec) 
Heartbeat CPU 0 instructions: 877000002 cycles: 2835062025 heartbeat IPC: 0.30132 cumulative IPC: 0.307626 (Simulation time: 1 hr 31 min 15 sec) 
Heartbeat CPU 0 instructions: 878000001 cycles: 2838389382 heartbeat IPC: 0.300539 cumulative IPC: 0.307609 (Simulation time: 1 hr 31 min 21 sec) 
Heartbeat CPU 0 instructions: 879000003 cycles: 2841716827 heartbeat IPC: 0.300531 cumulative IPC: 0.307592 (Simulation time: 1 hr 31 min 28 sec) 
Heartbeat CPU 0 instructions: 880000000 cycles: 2845062119 heartbeat IPC: 0.298927 cumulative IPC: 0.307571 (Simulation time: 1 hr 31 min 35 sec) 
Heartbeat CPU 0 instructions: 881000000 cycles: 2848424955 heartbeat IPC: 0.297368 cumulative IPC: 0.307547 (Simulation time: 1 hr 31 min 41 sec) 
Heartbeat CPU 0 instructions: 882000002 cycles: 2851757237 heartbeat IPC: 0.300095 cumulative IPC: 0.307529 (Simulation time: 1 hr 31 min 48 sec) 
Heartbeat CPU 0 instructions: 883000002 cycles: 2855016973 heartbeat IPC: 0.306773 cumulative IPC: 0.307527 (Simulation time: 1 hr 31 min 55 sec) 
Heartbeat CPU 0 instructions: 884000003 cycles: 2858280233 heartbeat IPC: 0.306442 cumulative IPC: 0.307525 (Simulation time: 1 hr 32 min 1 sec) 
Heartbeat CPU 0 instructions: 885000000 cycles: 2861528930 heartbeat IPC: 0.307815 cumulative IPC: 0.307525 (Simulation time: 1 hr 32 min 8 sec) 
Heartbeat CPU 0 instructions: 886000000 cycles: 2864797423 heartbeat IPC: 0.305951 cumulative IPC: 0.307522 (Simulation time: 1 hr 32 min 15 sec) 
Heartbeat CPU 0 instructions: 887000000 cycles: 2868091175 heartbeat IPC: 0.303605 cumulative IPC: 0.307513 (Simulation time: 1 hr 32 min 21 sec) 
Heartbeat CPU 0 instructions: 888000001 cycles: 2871309359 heartbeat IPC: 0.310735 cumulative IPC: 0.30752 (Simulation time: 1 hr 32 min 28 sec) 
Heartbeat CPU 0 instructions: 889000002 cycles: 2874780007 heartbeat IPC: 0.288131 cumulative IPC: 0.307473 (Simulation time: 1 hr 32 min 34 sec) 
Heartbeat CPU 0 instructions: 890000000 cycles: 2878384181 heartbeat IPC: 0.277456 cumulative IPC: 0.307397 (Simulation time: 1 hr 32 min 40 sec) 
Heartbeat CPU 0 instructions: 891000000 cycles: 2881617850 heartbeat IPC: 0.309246 cumulative IPC: 0.307401 (Simulation time: 1 hr 32 min 47 sec) 
Heartbeat CPU 0 instructions: 892000001 cycles: 2884673449 heartbeat IPC: 0.327268 cumulative IPC: 0.307444 (Simulation time: 1 hr 32 min 53 sec) 
Heartbeat CPU 0 instructions: 893000001 cycles: 2887940414 heartbeat IPC: 0.306094 cumulative IPC: 0.30744 (Simulation time: 1 hr 32 min 59 sec) 
Heartbeat CPU 0 instructions: 894000002 cycles: 2891270071 heartbeat IPC: 0.300332 cumulative IPC: 0.307424 (Simulation time: 1 hr 33 min 6 sec) 
Heartbeat CPU 0 instructions: 895000003 cycles: 2894607599 heartbeat IPC: 0.299623 cumulative IPC: 0.307406 (Simulation time: 1 hr 33 min 12 sec) 
Heartbeat CPU 0 instructions: 896000001 cycles: 2897937222 heartbeat IPC: 0.300334 cumulative IPC: 0.30739 (Simulation time: 1 hr 33 min 19 sec) 
Heartbeat CPU 0 instructions: 897000001 cycles: 2901260057 heartbeat IPC: 0.300948 cumulative IPC: 0.307375 (Simulation time: 1 hr 33 min 25 sec) 
Heartbeat CPU 0 instructions: 898000000 cycles: 2904311657 heartbeat IPC: 0.327697 cumulative IPC: 0.307418 (Simulation time: 1 hr 33 min 32 sec) 
Heartbeat CPU 0 instructions: 899000002 cycles: 2907485848 heartbeat IPC: 0.315042 cumulative IPC: 0.307434 (Simulation time: 1 hr 33 min 39 sec) 
Heartbeat CPU 0 instructions: 900000000 cycles: 2910760362 heartbeat IPC: 0.305388 cumulative IPC: 0.30743 (Simulation time: 1 hr 33 min 45 sec) 
Heartbeat CPU 0 instructions: 901000002 cycles: 2914070875 heartbeat IPC: 0.302069 cumulative IPC: 0.307418 (Simulation time: 1 hr 33 min 52 sec) 
Heartbeat CPU 0 instructions: 902000000 cycles: 2917356980 heartbeat IPC: 0.304311 cumulative IPC: 0.307411 (Simulation time: 1 hr 33 min 58 sec) 
Heartbeat CPU 0 instructions: 903000001 cycles: 2920676393 heartbeat IPC: 0.301258 cumulative IPC: 0.307397 (Simulation time: 1 hr 34 min 4 sec) 
Heartbeat CPU 0 instructions: 904000002 cycles: 2923974539 heartbeat IPC: 0.303201 cumulative IPC: 0.307387 (Simulation time: 1 hr 34 min 10 sec) 
Heartbeat CPU 0 instructions: 905000000 cycles: 2927288006 heartbeat IPC: 0.301798 cumulative IPC: 0.307375 (Simulation time: 1 hr 34 min 16 sec) 
Heartbeat CPU 0 instructions: 906000001 cycles: 2930615919 heartbeat IPC: 0.300489 cumulative IPC: 0.307359 (Simulation time: 1 hr 34 min 22 sec) 
Heartbeat CPU 0 instructions: 907000000 cycles: 2933662526 heartbeat IPC: 0.328234 cumulative IPC: 0.307402 (Simulation time: 1 hr 34 min 29 sec) 
Heartbeat CPU 0 instructions: 908000000 cycles: 2936978838 heartbeat IPC: 0.30154 cumulative IPC: 0.307389 (Simulation time: 1 hr 34 min 35 sec) 
Heartbeat CPU 0 instructions: 909000001 cycles: 2940441750 heartbeat IPC: 0.288775 cumulative IPC: 0.307346 (Simulation time: 1 hr 34 min 42 sec) 
Heartbeat CPU 0 instructions: 910000001 cycles: 2943726189 heartbeat IPC: 0.304466 cumulative IPC: 0.30734 (Simulation time: 1 hr 34 min 49 sec) 
Heartbeat CPU 0 instructions: 911000002 cycles: 2946997292 heartbeat IPC: 0.305708 cumulative IPC: 0.307336 (Simulation time: 1 hr 34 min 55 sec) 
Heartbeat CPU 0 instructions: 912000001 cycles: 2950278080 heartbeat IPC: 0.304805 cumulative IPC: 0.307331 (Simulation time: 1 hr 35 min 2 sec) 
Heartbeat CPU 0 instructions: 913000000 cycles: 2953505210 heartbeat IPC: 0.309873 cumulative IPC: 0.307336 (Simulation time: 1 hr 35 min 9 sec) 
Heartbeat CPU 0 instructions: 914000000 cycles: 2956687944 heartbeat IPC: 0.314195 cumulative IPC: 0.307351 (Simulation time: 1 hr 35 min 15 sec) 
Heartbeat CPU 0 instructions: 915000001 cycles: 2959857185 heartbeat IPC: 0.315533 cumulative IPC: 0.307368 (Simulation time: 1 hr 35 min 22 sec) 
Heartbeat CPU 0 instructions: 916000001 cycles: 2963117066 heartbeat IPC: 0.30676 cumulative IPC: 0.307366 (Simulation time: 1 hr 35 min 28 sec) 
Heartbeat CPU 0 instructions: 917000003 cycles: 2966398108 heartbeat IPC: 0.304782 cumulative IPC: 0.307361 (Simulation time: 1 hr 35 min 35 sec) 
Heartbeat CPU 0 instructions: 918000000 cycles: 2969681068 heartbeat IPC: 0.304602 cumulative IPC: 0.307355 (Simulation time: 1 hr 35 min 41 sec) 
Heartbeat CPU 0 instructions: 919000003 cycles: 2972979732 heartbeat IPC: 0.303154 cumulative IPC: 0.307346 (Simulation time: 1 hr 35 min 48 sec) 
Heartbeat CPU 0 instructions: 920000000 cycles: 2976245522 heartbeat IPC: 0.306204 cumulative IPC: 0.307343 (Simulation time: 1 hr 35 min 55 sec) 
Heartbeat CPU 0 instructions: 921000003 cycles: 2979490673 heartbeat IPC: 0.308153 cumulative IPC: 0.307345 (Simulation time: 1 hr 36 min 1 sec) 
Heartbeat CPU 0 instructions: 922000000 cycles: 2982725792 heartbeat IPC: 0.309107 cumulative IPC: 0.307349 (Simulation time: 1 hr 36 min 8 sec) 
Heartbeat CPU 0 instructions: 923000003 cycles: 2985966955 heartbeat IPC: 0.308532 cumulative IPC: 0.307351 (Simulation time: 1 hr 36 min 14 sec) 
Heartbeat CPU 0 instructions: 924000000 cycles: 2989325668 heartbeat IPC: 0.297732 cumulative IPC: 0.30733 (Simulation time: 1 hr 36 min 20 sec) 
Heartbeat CPU 0 instructions: 925000001 cycles: 2992621848 heartbeat IPC: 0.303382 cumulative IPC: 0.307322 (Simulation time: 1 hr 36 min 25 sec) 
Heartbeat CPU 0 instructions: 926000000 cycles: 2995938086 heartbeat IPC: 0.301546 cumulative IPC: 0.30731 (Simulation time: 1 hr 36 min 30 sec) 
Heartbeat CPU 0 instructions: 927000000 cycles: 2999222559 heartbeat IPC: 0.304463 cumulative IPC: 0.307303 (Simulation time: 1 hr 36 min 35 sec) 
Heartbeat CPU 0 instructions: 928000000 cycles: 3002556429 heartbeat IPC: 0.299952 cumulative IPC: 0.307288 (Simulation time: 1 hr 36 min 42 sec) 
Heartbeat CPU 0 instructions: 929000002 cycles: 3005973000 heartbeat IPC: 0.292692 cumulative IPC: 0.307256 (Simulation time: 1 hr 36 min 48 sec) 
Heartbeat CPU 0 instructions: 930000000 cycles: 3009330534 heartbeat IPC: 0.297837 cumulative IPC: 0.307236 (Simulation time: 1 hr 36 min 55 sec) 
Heartbeat CPU 0 instructions: 931000000 cycles: 3012732740 heartbeat IPC: 0.293927 cumulative IPC: 0.307207 (Simulation time: 1 hr 37 min 1 sec) 
Heartbeat CPU 0 instructions: 932000003 cycles: 3015930650 heartbeat IPC: 0.312705 cumulative IPC: 0.307218 (Simulation time: 1 hr 37 min 8 sec) 
Heartbeat CPU 0 instructions: 933000001 cycles: 3019523694 heartbeat IPC: 0.278315 cumulative IPC: 0.307152 (Simulation time: 1 hr 37 min 14 sec) 
Heartbeat CPU 0 instructions: 934000000 cycles: 3023008846 heartbeat IPC: 0.286931 cumulative IPC: 0.307107 (Simulation time: 1 hr 37 min 20 sec) 
Heartbeat CPU 0 instructions: 935000000 cycles: 3026228606 heartbeat IPC: 0.310582 cumulative IPC: 0.307114 (Simulation time: 1 hr 37 min 26 sec) 
Heartbeat CPU 0 instructions: 936000001 cycles: 3029482540 heartbeat IPC: 0.307321 cumulative IPC: 0.307115 (Simulation time: 1 hr 37 min 33 sec) 
Heartbeat CPU 0 instructions: 937000000 cycles: 3032821318 heartbeat IPC: 0.29951 cumulative IPC: 0.307099 (Simulation time: 1 hr 37 min 40 sec) 
Heartbeat CPU 0 instructions: 938000000 cycles: 3036384401 heartbeat IPC: 0.280656 cumulative IPC: 0.307039 (Simulation time: 1 hr 37 min 47 sec) 
Heartbeat CPU 0 instructions: 939000000 cycles: 3039662343 heartbeat IPC: 0.305069 cumulative IPC: 0.307035 (Simulation time: 1 hr 37 min 53 sec) 
Heartbeat CPU 0 instructions: 940000000 cycles: 3042894946 heartbeat IPC: 0.309348 cumulative IPC: 0.30704 (Simulation time: 1 hr 37 min 59 sec) 
Heartbeat CPU 0 instructions: 941000000 cycles: 3046226066 heartbeat IPC: 0.300199 cumulative IPC: 0.307026 (Simulation time: 1 hr 38 min 6 sec) 
Heartbeat CPU 0 instructions: 942000000 cycles: 3049804236 heartbeat IPC: 0.279472 cumulative IPC: 0.306964 (Simulation time: 1 hr 38 min 12 sec) 
Heartbeat CPU 0 instructions: 943000002 cycles: 3053083850 heartbeat IPC: 0.304915 cumulative IPC: 0.30696 (Simulation time: 1 hr 38 min 19 sec) 
Heartbeat CPU 0 instructions: 944000002 cycles: 3056393083 heartbeat IPC: 0.302185 cumulative IPC: 0.30695 (Simulation time: 1 hr 38 min 25 sec) 
Heartbeat CPU 0 instructions: 945000002 cycles: 3059870971 heartbeat IPC: 0.287531 cumulative IPC: 0.306908 (Simulation time: 1 hr 38 min 32 sec) 
Heartbeat CPU 0 instructions: 946000000 cycles: 3063469463 heartbeat IPC: 0.277894 cumulative IPC: 0.306844 (Simulation time: 1 hr 38 min 39 sec) 
Heartbeat CPU 0 instructions: 947000002 cycles: 3066875406 heartbeat IPC: 0.293605 cumulative IPC: 0.306816 (Simulation time: 1 hr 38 min 45 sec) 
Heartbeat CPU 0 instructions: 948000002 cycles: 3070469591 heartbeat IPC: 0.278227 cumulative IPC: 0.306753 (Simulation time: 1 hr 38 min 52 sec) 
Heartbeat CPU 0 instructions: 949000002 cycles: 3073717043 heartbeat IPC: 0.307934 cumulative IPC: 0.306755 (Simulation time: 1 hr 38 min 58 sec) 
Heartbeat CPU 0 instructions: 950000000 cycles: 3077178228 heartbeat IPC: 0.288918 cumulative IPC: 0.306717 (Simulation time: 1 hr 39 min 4 sec) 
Finished CPU 0 instructions: 500000000 cycles: 1630167114 cumulative IPC: 0.306717 (Simulation time: 1 hr 39 min 4 sec) 

ChampSim completed all CPUs

Region of Interest Statistics

CPU 0 cumulative IPC: 0.306717 instructions: 500000000 cycles: 1630167114
L1D TOTAL     ACCESS:  164215981  HIT:  131649897  MISS:   32566084
L1D LOAD      ACCESS:  121482129  HIT:   90492847  MISS:   30989282
L1D RFO       ACCESS:   42733852  HIT:   41157050  MISS:    1576802
L1D PREFETCH  ACCESS:          0  HIT:          0  MISS:          0
L1D WRITEBACK ACCESS:          0  HIT:          0  MISS:          0
L1D PREFETCH  REQUESTED:          0  ISSUED:          0  USEFUL:          0  USELESS:          0
L1D AVERAGE MISS LATENCY: 90.5889 cycles
L1I TOTAL     ACCESS:   90209291  HIT:   90209291  MISS:          0
L1I LOAD      ACCESS:   90209291  HIT:   90209291  MISS:          0
L1I RFO       ACCESS:          0  HIT:          0  MISS:          0
L1I PREFETCH  ACCESS:          0  HIT:          0  MISS:          0
L1I WRITEBACK ACCESS:          0  HIT:          0  MISS:          0
L1I PREFETCH  REQUESTED:          0  ISSUED:          0  USEFUL:          0  USELESS:          0
L1I AVERAGE MISS LATENCY: -nan cycles
L2C TOTAL     ACCESS:   34973924  HIT:    8761904  MISS:   26212020
L2C LOAD      ACCESS:   30989135  HIT:    5547005  MISS:   25442130
L2C RFO       ACCESS:    1576794  HIT:     810198  MISS:     766596
L2C PREFETCH  ACCESS:          0  HIT:          0  MISS:          0
L2C WRITEBACK ACCESS:    2407995  HIT:    2404701  MISS:       3294
L2C PREFETCH  REQUESTED:          0  ISSUED:          0  USEFUL:          0  USELESS:          0
L2C AVERAGE MISS LATENCY: 93.4502 cycles
LLC TOTAL     ACCESS:   30213115  HIT:   16188844  MISS:   14024271
LLC LOAD      ACCESS:   25442120  HIT:   12659994  MISS:   12782126
LLC RFO       ACCESS:     766594  HIT:     748588  MISS:      18006
LLC PREFETCH  ACCESS:    2460378  HIT:    1266647  MISS:    1193731
LLC WRITEBACK ACCESS:    1544023  HIT:    1513615  MISS:      30408
LLC PREFETCH  REQUESTED:    2713696  ISSUED:    2713696  USEFUL:      39731  USELESS:    1154000
LLC AVERAGE MISS LATENCY: 140.381 cycles
Major fault: 0 Minor fault: 303883
CPU 0 LLC from file prefetcher final stats

DRAM Statistics
 CHANNEL 0
 RQ ROW_BUFFER_HIT:    6770465  ROW_BUFFER_MISS:    7223312
 DBUS_CONGESTED:    6136936
 WQ ROW_BUFFER_HIT:      61890  ROW_BUFFER_MISS:      94126  FULL:          0

 AVG_CONGESTED_CYCLE: 5

CPU 0 Branch Prediction Accuracy: 94.4017% MPKI: 14.3155 Average ROB Occupancy at Mispredict: 32.876

Branch types
NOT_BRANCH: 372143845 74.4288%
BRANCH_DIRECT_JUMP: 14238481 2.8477%
BRANCH_INDIRECT: 0 0%
BRANCH_CONDITIONAL: 93325958 18.6652%
BRANCH_DIRECT_CALL: 9505113 1.90102%
BRANCH_INDIRECT_CALL: 640558 0.128112%
BRANCH_RETURN: 10145672 2.02913%
BRANCH_OTHER: 0 0%

