
*** ChampSim Multicore Out-of-Order Simulator ***

Warmup Instructions: 1000000
Prefetch Warmup Instructions: 450000000
Simulation Instructions: 500000000
Stat Printing Period: 1000000
Number of CPUs: 1
LLC sets: 2048
LLC ways: 16
Off-chip DRAM Size: 4096 MB Channels: 1 Width: 64-bit Data Rate: 3200 MT/s

CPU 0 runs /scratch/cluster/cmolder/ML-DPC/ChampSimTraces/spec06/429.mcf-s2.trace.gz
Read seed: 577
Heartbeat CPU 0 instructions: 1000003 cycles: 435287 heartbeat IPC: 2.29734 cumulative IPC: 2.29734 (Simulation time: 0 hr 0 min 5 sec) 

Warmup complete CPU 0 instructions: 1000003 cycles: 435287 (Simulation time: 0 hr 0 min 5 sec) 

Heartbeat CPU 0 instructions: 2000000 cycles: 6829863 heartbeat IPC: 0.156382 cumulative IPC: 0.156382 (Simulation time: 0 hr 0 min 14 sec) 
Heartbeat CPU 0 instructions: 3000001 cycles: 19643671 heartbeat IPC: 0.0780409 cumulative IPC: 0.104121 (Simulation time: 0 hr 0 min 28 sec) 
Heartbeat CPU 0 instructions: 4000001 cycles: 31105497 heartbeat IPC: 0.0872461 cumulative IPC: 0.0978147 (Simulation time: 0 hr 0 min 42 sec) 
Heartbeat CPU 0 instructions: 5000001 cycles: 37296302 heartbeat IPC: 0.16153 cumulative IPC: 0.108516 (Simulation time: 0 hr 0 min 53 sec) 
Heartbeat CPU 0 instructions: 6000000 cycles: 45555388 heartbeat IPC: 0.121079 cumulative IPC: 0.110815 (Simulation time: 0 hr 1 min 3 sec) 
Heartbeat CPU 0 instructions: 7000003 cycles: 61714564 heartbeat IPC: 0.0618845 cumulative IPC: 0.0979124 (Simulation time: 0 hr 1 min 13 sec) 
Heartbeat CPU 0 instructions: 8000000 cycles: 68526668 heartbeat IPC: 0.146797 cumulative IPC: 0.102803 (Simulation time: 0 hr 1 min 20 sec) 
Heartbeat CPU 0 instructions: 9000002 cycles: 74790636 heartbeat IPC: 0.159644 cumulative IPC: 0.107591 (Simulation time: 0 hr 1 min 26 sec) 
Heartbeat CPU 0 instructions: 10000002 cycles: 89807229 heartbeat IPC: 0.066593 cumulative IPC: 0.100703 (Simulation time: 0 hr 1 min 35 sec) 
Heartbeat CPU 0 instructions: 11000000 cycles: 104311834 heartbeat IPC: 0.0689435 cumulative IPC: 0.0962681 (Simulation time: 0 hr 1 min 49 sec) 
Heartbeat CPU 0 instructions: 12000000 cycles: 111113309 heartbeat IPC: 0.147027 cumulative IPC: 0.0993874 (Simulation time: 0 hr 1 min 56 sec) 
Heartbeat CPU 0 instructions: 13000001 cycles: 120197421 heartbeat IPC: 0.110082 cumulative IPC: 0.100199 (Simulation time: 0 hr 2 min 3 sec) 
Heartbeat CPU 0 instructions: 14000000 cycles: 136434188 heartbeat IPC: 0.0615886 cumulative IPC: 0.095589 (Simulation time: 0 hr 2 min 13 sec) 
Heartbeat CPU 0 instructions: 15000000 cycles: 143086046 heartbeat IPC: 0.150334 cumulative IPC: 0.0981418 (Simulation time: 0 hr 2 min 21 sec) 
Heartbeat CPU 0 instructions: 16000001 cycles: 149235853 heartbeat IPC: 0.162607 cumulative IPC: 0.100806 (Simulation time: 0 hr 2 min 27 sec) 
Heartbeat CPU 0 instructions: 17000000 cycles: 165462680 heartbeat IPC: 0.0616263 cumulative IPC: 0.0969536 (Simulation time: 0 hr 2 min 37 sec) 
Heartbeat CPU 0 instructions: 18000001 cycles: 172971889 heartbeat IPC: 0.13317 cumulative IPC: 0.0985298 (Simulation time: 0 hr 2 min 44 sec) 
Heartbeat CPU 0 instructions: 19000002 cycles: 179892116 heartbeat IPC: 0.144504 cumulative IPC: 0.100303 (Simulation time: 0 hr 2 min 50 sec) 
Heartbeat CPU 0 instructions: 20000002 cycles: 196501092 heartbeat IPC: 0.0602084 cumulative IPC: 0.0969062 (Simulation time: 0 hr 3 min 1 sec) 
Heartbeat CPU 0 instructions: 21000000 cycles: 213013669 heartbeat IPC: 0.0605598 cumulative IPC: 0.0940829 (Simulation time: 0 hr 3 min 11 sec) 
Heartbeat CPU 0 instructions: 22000000 cycles: 219539754 heartbeat IPC: 0.153231 cumulative IPC: 0.0958447 (Simulation time: 0 hr 3 min 17 sec) 
Heartbeat CPU 0 instructions: 23000000 cycles: 225726702 heartbeat IPC: 0.161631 cumulative IPC: 0.0976513 (Simulation time: 0 hr 3 min 23 sec) 
Heartbeat CPU 0 instructions: 24000001 cycles: 239828680 heartbeat IPC: 0.0709121 cumulative IPC: 0.0960762 (Simulation time: 0 hr 3 min 32 sec) 
Heartbeat CPU 0 instructions: 25000003 cycles: 249450820 heartbeat IPC: 0.103927 cumulative IPC: 0.0963795 (Simulation time: 0 hr 3 min 39 sec) 
Heartbeat CPU 0 instructions: 26000003 cycles: 255607551 heartbeat IPC: 0.162424 cumulative IPC: 0.097973 (Simulation time: 0 hr 3 min 45 sec) 
Heartbeat CPU 0 instructions: 27000000 cycles: 266829026 heartbeat IPC: 0.0891146 cumulative IPC: 0.0975999 (Simulation time: 0 hr 3 min 52 sec) 
Heartbeat CPU 0 instructions: 28000000 cycles: 279652534 heartbeat IPC: 0.0779818 cumulative IPC: 0.0966989 (Simulation time: 0 hr 4 min 1 sec) 
Heartbeat CPU 0 instructions: 29000000 cycles: 286441570 heartbeat IPC: 0.147296 cumulative IPC: 0.0978999 (Simulation time: 0 hr 4 min 7 sec) 
Heartbeat CPU 0 instructions: 30000001 cycles: 295587729 heartbeat IPC: 0.109336 cumulative IPC: 0.0982543 (Simulation time: 0 hr 4 min 14 sec) 
Heartbeat CPU 0 instructions: 31000002 cycles: 310543529 heartbeat IPC: 0.0668638 cumulative IPC: 0.0967404 (Simulation time: 0 hr 4 min 23 sec) 
Heartbeat CPU 0 instructions: 32000000 cycles: 317347557 heartbeat IPC: 0.146971 cumulative IPC: 0.0978189 (Simulation time: 0 hr 4 min 30 sec) 
Heartbeat CPU 0 instructions: 33000000 cycles: 325916192 heartbeat IPC: 0.116705 cumulative IPC: 0.0983161 (Simulation time: 0 hr 4 min 36 sec) 
Heartbeat CPU 0 instructions: 34000001 cycles: 341901661 heartbeat IPC: 0.0625569 cumulative IPC: 0.096642 (Simulation time: 0 hr 4 min 45 sec) 
Heartbeat CPU 0 instructions: 35000001 cycles: 350225577 heartbeat IPC: 0.120136 cumulative IPC: 0.0972011 (Simulation time: 0 hr 4 min 52 sec) 
Heartbeat CPU 0 instructions: 36000000 cycles: 358865710 heartbeat IPC: 0.115739 cumulative IPC: 0.097648 (Simulation time: 0 hr 4 min 59 sec) 
Heartbeat CPU 0 instructions: 37000003 cycles: 370644873 heartbeat IPC: 0.0848959 cumulative IPC: 0.0972422 (Simulation time: 0 hr 5 min 7 sec) 
Heartbeat CPU 0 instructions: 38000001 cycles: 383007893 heartbeat IPC: 0.0808862 cumulative IPC: 0.0967137 (Simulation time: 0 hr 5 min 17 sec) 
Heartbeat CPU 0 instructions: 39000000 cycles: 389372857 heartbeat IPC: 0.15711 cumulative IPC: 0.097702 (Simulation time: 0 hr 5 min 22 sec) 
Heartbeat CPU 0 instructions: 40000002 cycles: 397239395 heartbeat IPC: 0.127121 cumulative IPC: 0.0982853 (Simulation time: 0 hr 5 min 28 sec) 
Heartbeat CPU 0 instructions: 41000002 cycles: 413090632 heartbeat IPC: 0.0630866 cumulative IPC: 0.0969332 (Simulation time: 0 hr 5 min 38 sec) 
Heartbeat CPU 0 instructions: 42000002 cycles: 420207031 heartbeat IPC: 0.140521 cumulative IPC: 0.0976721 (Simulation time: 0 hr 5 min 44 sec) 
Heartbeat CPU 0 instructions: 43000001 cycles: 426540210 heartbeat IPC: 0.157898 cumulative IPC: 0.0985673 (Simulation time: 0 hr 5 min 50 sec) 
Heartbeat CPU 0 instructions: 44000000 cycles: 441102880 heartbeat IPC: 0.0686687 cumulative IPC: 0.0975792 (Simulation time: 0 hr 5 min 59 sec) 
Heartbeat CPU 0 instructions: 45000000 cycles: 450445071 heartbeat IPC: 0.107041 cumulative IPC: 0.0977756 (Simulation time: 0 hr 6 min 6 sec) 
Heartbeat CPU 0 instructions: 46000002 cycles: 456836781 heartbeat IPC: 0.156453 cumulative IPC: 0.0985974 (Simulation time: 0 hr 6 min 11 sec) 
Heartbeat CPU 0 instructions: 47000003 cycles: 467925013 heartbeat IPC: 0.0901858 cumulative IPC: 0.0983979 (Simulation time: 0 hr 6 min 21 sec) 
Heartbeat CPU 0 instructions: 48000001 cycles: 480972203 heartbeat IPC: 0.0766447 cumulative IPC: 0.0978073 (Simulation time: 0 hr 6 min 30 sec) 
Heartbeat CPU 0 instructions: 49000002 cycles: 487779248 heartbeat IPC: 0.146907 cumulative IPC: 0.0984931 (Simulation time: 0 hr 6 min 36 sec) 
Heartbeat CPU 0 instructions: 50000002 cycles: 496054953 heartbeat IPC: 0.120836 cumulative IPC: 0.0988661 (Simulation time: 0 hr 6 min 45 sec) 
Heartbeat CPU 0 instructions: 51000002 cycles: 511811807 heartbeat IPC: 0.0634644 cumulative IPC: 0.0977753 (Simulation time: 0 hr 7 min 1 sec) 
Heartbeat CPU 0 instructions: 52000000 cycles: 518801440 heartbeat IPC: 0.143069 cumulative IPC: 0.098386 (Simulation time: 0 hr 7 min 7 sec) 
Heartbeat CPU 0 instructions: 53000001 cycles: 525418473 heartbeat IPC: 0.151125 cumulative IPC: 0.0990508 (Simulation time: 0 hr 7 min 13 sec) 
Heartbeat CPU 0 instructions: 54000003 cycles: 541956368 heartbeat IPC: 0.0604673 cumulative IPC: 0.0978725 (Simulation time: 0 hr 7 min 23 sec) 
Heartbeat CPU 0 instructions: 55000000 cycles: 549531874 heartbeat IPC: 0.132004 cumulative IPC: 0.0983433 (Simulation time: 0 hr 7 min 30 sec) 
Heartbeat CPU 0 instructions: 56000000 cycles: 556269542 heartbeat IPC: 0.148419 cumulative IPC: 0.0989504 (Simulation time: 0 hr 7 min 36 sec) 
Heartbeat CPU 0 instructions: 57000001 cycles: 570926805 heartbeat IPC: 0.0682256 cumulative IPC: 0.098161 (Simulation time: 0 hr 7 min 45 sec) 
Heartbeat CPU 0 instructions: 58000001 cycles: 580493192 heartbeat IPC: 0.104533 cumulative IPC: 0.0982661 (Simulation time: 0 hr 7 min 52 sec) 
Heartbeat CPU 0 instructions: 59000000 cycles: 587214205 heartbeat IPC: 0.148787 cumulative IPC: 0.0988447 (Simulation time: 0 hr 7 min 58 sec) 
Heartbeat CPU 0 instructions: 60000000 cycles: 600439498 heartbeat IPC: 0.0756127 cumulative IPC: 0.0983326 (Simulation time: 0 hr 8 min 7 sec) 
Heartbeat CPU 0 instructions: 61000001 cycles: 611781467 heartbeat IPC: 0.0881682 cumulative IPC: 0.0981441 (Simulation time: 0 hr 8 min 15 sec) 
Heartbeat CPU 0 instructions: 62000000 cycles: 618525949 heartbeat IPC: 0.148269 cumulative IPC: 0.098691 (Simulation time: 0 hr 8 min 21 sec) 
Heartbeat CPU 0 instructions: 63000001 cycles: 630406706 heartbeat IPC: 0.0841698 cumulative IPC: 0.0984172 (Simulation time: 0 hr 8 min 29 sec) 
Heartbeat CPU 0 instructions: 64000002 cycles: 643398511 heartbeat IPC: 0.0769717 cumulative IPC: 0.0979838 (Simulation time: 0 hr 8 min 38 sec) 
Heartbeat CPU 0 instructions: 65000000 cycles: 650754397 heartbeat IPC: 0.135945 cumulative IPC: 0.0984132 (Simulation time: 0 hr 8 min 44 sec) 
Heartbeat CPU 0 instructions: 66000000 cycles: 659840994 heartbeat IPC: 0.110052 cumulative IPC: 0.0985736 (Simulation time: 0 hr 8 min 51 sec) 
Heartbeat CPU 0 instructions: 67000003 cycles: 676729434 heartbeat IPC: 0.0592123 cumulative IPC: 0.0975907 (Simulation time: 0 hr 9 min 1 sec) 
Heartbeat CPU 0 instructions: 68000000 cycles: 683634947 heartbeat IPC: 0.144811 cumulative IPC: 0.098068 (Simulation time: 0 hr 9 min 7 sec) 
Heartbeat CPU 0 instructions: 69000001 cycles: 690105347 heartbeat IPC: 0.15455 cumulative IPC: 0.0985979 (Simulation time: 0 hr 9 min 13 sec) 
Heartbeat CPU 0 instructions: 70000003 cycles: 705450176 heartbeat IPC: 0.0651687 cumulative IPC: 0.0978703 (Simulation time: 0 hr 9 min 23 sec) 
Heartbeat CPU 0 instructions: 71000000 cycles: 716699782 heartbeat IPC: 0.0888917 cumulative IPC: 0.0977293 (Simulation time: 0 hr 9 min 31 sec) 
Heartbeat CPU 0 instructions: 72000002 cycles: 723994257 heartbeat IPC: 0.13709 cumulative IPC: 0.0981261 (Simulation time: 0 hr 9 min 37 sec) 
Heartbeat CPU 0 instructions: 73000003 cycles: 734707351 heartbeat IPC: 0.0933438 cumulative IPC: 0.0980563 (Simulation time: 0 hr 9 min 45 sec) 
Heartbeat CPU 0 instructions: 74000003 cycles: 748113392 heartbeat IPC: 0.0745932 cumulative IPC: 0.0976356 (Simulation time: 0 hr 9 min 54 sec) 
Heartbeat CPU 0 instructions: 75000002 cycles: 754966739 heartbeat IPC: 0.145914 cumulative IPC: 0.0980741 (Simulation time: 0 hr 10 min 0 sec) 
Heartbeat CPU 0 instructions: 76000002 cycles: 762887892 heartbeat IPC: 0.126244 cumulative IPC: 0.0983668 (Simulation time: 0 hr 10 min 6 sec) 
Heartbeat CPU 0 instructions: 77000000 cycles: 780769674 heartbeat IPC: 0.0559227 cumulative IPC: 0.0973941 (Simulation time: 0 hr 10 min 17 sec) 
Heartbeat CPU 0 instructions: 78000002 cycles: 788191816 heartbeat IPC: 0.134732 cumulative IPC: 0.0977459 (Simulation time: 0 hr 10 min 24 sec) 
Heartbeat CPU 0 instructions: 79000002 cycles: 794949838 heartbeat IPC: 0.147972 cumulative IPC: 0.0981732 (Simulation time: 0 hr 10 min 34 sec) 
Heartbeat CPU 0 instructions: 80000000 cycles: 809462277 heartbeat IPC: 0.0689063 cumulative IPC: 0.0976482 (Simulation time: 0 hr 10 min 50 sec) 
Heartbeat CPU 0 instructions: 81000001 cycles: 818915465 heartbeat IPC: 0.105785 cumulative IPC: 0.0977421 (Simulation time: 0 hr 11 min 1 sec) 
Heartbeat CPU 0 instructions: 82000000 cycles: 826177133 heartbeat IPC: 0.137709 cumulative IPC: 0.0980936 (Simulation time: 0 hr 11 min 8 sec) 
Heartbeat CPU 0 instructions: 83000002 cycles: 837688170 heartbeat IPC: 0.0868733 cumulative IPC: 0.0979393 (Simulation time: 0 hr 11 min 15 sec) 
Heartbeat CPU 0 instructions: 84000003 cycles: 850533172 heartbeat IPC: 0.0778514 cumulative IPC: 0.0976358 (Simulation time: 0 hr 11 min 24 sec) 
Heartbeat CPU 0 instructions: 85000000 cycles: 857120900 heartbeat IPC: 0.151797 cumulative IPC: 0.0980523 (Simulation time: 0 hr 11 min 30 sec) 
Heartbeat CPU 0 instructions: 86000003 cycles: 868471727 heartbeat IPC: 0.0880996 cumulative IPC: 0.0979222 (Simulation time: 0 hr 11 min 37 sec) 
Heartbeat CPU 0 instructions: 87000000 cycles: 884360002 heartbeat IPC: 0.0629393 cumulative IPC: 0.0972933 (Simulation time: 0 hr 11 min 47 sec) 
Heartbeat CPU 0 instructions: 88000000 cycles: 892670723 heartbeat IPC: 0.120327 cumulative IPC: 0.0975079 (Simulation time: 0 hr 11 min 53 sec) 
Heartbeat CPU 0 instructions: 89000001 cycles: 899189324 heartbeat IPC: 0.153407 cumulative IPC: 0.0979133 (Simulation time: 0 hr 11 min 59 sec) 
Heartbeat CPU 0 instructions: 90000000 cycles: 912375195 heartbeat IPC: 0.0758387 cumulative IPC: 0.0975941 (Simulation time: 0 hr 12 min 8 sec) 
Heartbeat CPU 0 instructions: 91000001 cycles: 923162091 heartbeat IPC: 0.0927052 cumulative IPC: 0.097537 (Simulation time: 0 hr 12 min 15 sec) 
Heartbeat CPU 0 instructions: 92000000 cycles: 929696029 heartbeat IPC: 0.153047 cumulative IPC: 0.0979273 (Simulation time: 0 hr 12 min 21 sec) 
Heartbeat CPU 0 instructions: 93000003 cycles: 940236555 heartbeat IPC: 0.0948722 cumulative IPC: 0.097893 (Simulation time: 0 hr 12 min 29 sec) 
Heartbeat CPU 0 instructions: 94000000 cycles: 953537252 heartbeat IPC: 0.0751838 cumulative IPC: 0.0975761 (Simulation time: 0 hr 12 min 38 sec) 
Heartbeat CPU 0 instructions: 95000000 cycles: 961949223 heartbeat IPC: 0.118878 cumulative IPC: 0.0977625 (Simulation time: 0 hr 12 min 45 sec) 
Heartbeat CPU 0 instructions: 96000002 cycles: 969778278 heartbeat IPC: 0.12773 cumulative IPC: 0.0980045 (Simulation time: 0 hr 12 min 51 sec) 
Heartbeat CPU 0 instructions: 97000002 cycles: 986057899 heartbeat IPC: 0.0614265 cumulative IPC: 0.0974004 (Simulation time: 0 hr 13 min 1 sec) 
Heartbeat CPU 0 instructions: 98000000 cycles: 993268912 heartbeat IPC: 0.138676 cumulative IPC: 0.0977002 (Simulation time: 0 hr 13 min 8 sec) 
Heartbeat CPU 0 instructions: 99000000 cycles: 1000229825 heartbeat IPC: 0.143659 cumulative IPC: 0.0980201 (Simulation time: 0 hr 13 min 14 sec) 
Heartbeat CPU 0 instructions: 100000000 cycles: 1015470750 heartbeat IPC: 0.0656128 cumulative IPC: 0.0975335 (Simulation time: 0 hr 13 min 23 sec) 
Heartbeat CPU 0 instructions: 101000000 cycles: 1024370346 heartbeat IPC: 0.112365 cumulative IPC: 0.0976624 (Simulation time: 0 hr 13 min 30 sec) 
Heartbeat CPU 0 instructions: 102000000 cycles: 1030993385 heartbeat IPC: 0.150988 cumulative IPC: 0.0980051 (Simulation time: 0 hr 13 min 36 sec) 
Heartbeat CPU 0 instructions: 103000000 cycles: 1044354599 heartbeat IPC: 0.0748435 cumulative IPC: 0.0977087 (Simulation time: 0 hr 13 min 44 sec) 
Heartbeat CPU 0 instructions: 104000000 cycles: 1058511982 heartbeat IPC: 0.0706345 cumulative IPC: 0.0973464 (Simulation time: 0 hr 13 min 53 sec) 
Heartbeat CPU 0 instructions: 105000000 cycles: 1065372904 heartbeat IPC: 0.145753 cumulative IPC: 0.0976583 (Simulation time: 0 hr 13 min 59 sec) 
Heartbeat CPU 0 instructions: 106000001 cycles: 1071537883 heartbeat IPC: 0.162207 cumulative IPC: 0.0980298 (Simulation time: 0 hr 14 min 5 sec) 
Heartbeat CPU 0 instructions: 107000003 cycles: 1087947366 heartbeat IPC: 0.0609405 cumulative IPC: 0.0974702 (Simulation time: 0 hr 14 min 14 sec) 
Heartbeat CPU 0 instructions: 108000000 cycles: 1095279443 heartbeat IPC: 0.136387 cumulative IPC: 0.0977308 (Simulation time: 0 hr 14 min 20 sec) 
Heartbeat CPU 0 instructions: 109000002 cycles: 1101613096 heartbeat IPC: 0.157887 cumulative IPC: 0.0980768 (Simulation time: 0 hr 14 min 26 sec) 
Heartbeat CPU 0 instructions: 110000000 cycles: 1112985665 heartbeat IPC: 0.0879307 cumulative IPC: 0.0979731 (Simulation time: 0 hr 14 min 33 sec) 
Heartbeat CPU 0 instructions: 111000000 cycles: 1125441911 heartbeat IPC: 0.080281 cumulative IPC: 0.0977772 (Simulation time: 0 hr 14 min 42 sec) 
Heartbeat CPU 0 instructions: 112000000 cycles: 1131626890 heartbeat IPC: 0.161682 cumulative IPC: 0.0981266 (Simulation time: 0 hr 14 min 48 sec) 
Heartbeat CPU 0 instructions: 113000000 cycles: 1141981381 heartbeat IPC: 0.0965765 cumulative IPC: 0.0981125 (Simulation time: 0 hr 14 min 54 sec) 
Heartbeat CPU 0 instructions: 114000001 cycles: 1157412938 heartbeat IPC: 0.0648023 cumulative IPC: 0.0976683 (Simulation time: 0 hr 15 min 4 sec) 
Heartbeat CPU 0 instructions: 115000000 cycles: 1167001018 heartbeat IPC: 0.104296 cumulative IPC: 0.0977227 (Simulation time: 0 hr 15 min 12 sec) 
Heartbeat CPU 0 instructions: 116000003 cycles: 1173261231 heartbeat IPC: 0.159739 cumulative IPC: 0.0980538 (Simulation time: 0 hr 15 min 17 sec) 
Heartbeat CPU 0 instructions: 117000001 cycles: 1185051513 heartbeat IPC: 0.0848154 cumulative IPC: 0.097922 (Simulation time: 0 hr 15 min 25 sec) 
Heartbeat CPU 0 instructions: 118000000 cycles: 1197042727 heartbeat IPC: 0.0833943 cumulative IPC: 0.0977764 (Simulation time: 0 hr 15 min 34 sec) 
Heartbeat CPU 0 instructions: 119000001 cycles: 1203349179 heartbeat IPC: 0.158568 cumulative IPC: 0.0980951 (Simulation time: 0 hr 15 min 39 sec) 
Heartbeat CPU 0 instructions: 120000002 cycles: 1211712103 heartbeat IPC: 0.119576 cumulative IPC: 0.0982434 (Simulation time: 0 hr 15 min 46 sec) 
Heartbeat CPU 0 instructions: 121000000 cycles: 1226981051 heartbeat IPC: 0.0654923 cumulative IPC: 0.0978357 (Simulation time: 0 hr 15 min 55 sec) 
Heartbeat CPU 0 instructions: 122000001 cycles: 1233377298 heartbeat IPC: 0.156342 cumulative IPC: 0.0981392 (Simulation time: 0 hr 16 min 1 sec) 
Heartbeat CPU 0 instructions: 123000000 cycles: 1239873208 heartbeat IPC: 0.153943 cumulative IPC: 0.0984317 (Simulation time: 0 hr 16 min 7 sec) 
Heartbeat CPU 0 instructions: 124000003 cycles: 1255714956 heartbeat IPC: 0.0631245 cumulative IPC: 0.0979861 (Simulation time: 0 hr 16 min 16 sec) 
Heartbeat CPU 0 instructions: 125000000 cycles: 1263741939 heartbeat IPC: 0.124579 cumulative IPC: 0.0981551 (Simulation time: 0 hr 16 min 23 sec) 
Heartbeat CPU 0 instructions: 126000001 cycles: 1270179630 heartbeat IPC: 0.155335 cumulative IPC: 0.098445 (Simulation time: 0 hr 16 min 29 sec) 
Heartbeat CPU 0 instructions: 127000003 cycles: 1283633948 heartbeat IPC: 0.0743257 cumulative IPC: 0.0981921 (Simulation time: 0 hr 16 min 38 sec) 
Heartbeat CPU 0 instructions: 128000000 cycles: 1294036021 heartbeat IPC: 0.0961344 cumulative IPC: 0.0981756 (Simulation time: 0 hr 16 min 45 sec) 
Heartbeat CPU 0 instructions: 129000001 cycles: 1300285000 heartbeat IPC: 0.160026 cumulative IPC: 0.0984729 (Simulation time: 0 hr 16 min 51 sec) 
Heartbeat CPU 0 instructions: 130000001 cycles: 1310791881 heartbeat IPC: 0.0951757 cumulative IPC: 0.0984465 (Simulation time: 0 hr 16 min 58 sec) 
Heartbeat CPU 0 instructions: 131000001 cycles: 1325231445 heartbeat IPC: 0.0692542 cumulative IPC: 0.0981283 (Simulation time: 0 hr 17 min 8 sec) 
Heartbeat CPU 0 instructions: 132000000 cycles: 1332552772 heartbeat IPC: 0.136587 cumulative IPC: 0.0983397 (Simulation time: 0 hr 17 min 14 sec) 
Heartbeat CPU 0 instructions: 133000003 cycles: 1339541812 heartbeat IPC: 0.143082 cumulative IPC: 0.0985732 (Simulation time: 0 hr 17 min 20 sec) 
Heartbeat CPU 0 instructions: 134000002 cycles: 1356180577 heartbeat IPC: 0.0601006 cumulative IPC: 0.098101 (Simulation time: 0 hr 17 min 29 sec) 
Heartbeat CPU 0 instructions: 135000000 cycles: 1363012386 heartbeat IPC: 0.146374 cumulative IPC: 0.0983431 (Simulation time: 0 hr 17 min 35 sec) 
Heartbeat CPU 0 instructions: 136000001 cycles: 1374578659 heartbeat IPC: 0.0864584 cumulative IPC: 0.098243 (Simulation time: 0 hr 17 min 43 sec) 
Heartbeat CPU 0 instructions: 137000001 cycles: 1386478233 heartbeat IPC: 0.0840366 cumulative IPC: 0.0981211 (Simulation time: 0 hr 17 min 51 sec) 
Heartbeat CPU 0 instructions: 138000002 cycles: 1399083292 heartbeat IPC: 0.0793333 cumulative IPC: 0.0979517 (Simulation time: 0 hr 18 min 0 sec) 
Heartbeat CPU 0 instructions: 139000003 cycles: 1405511338 heartbeat IPC: 0.155568 cumulative IPC: 0.0982153 (Simulation time: 0 hr 18 min 6 sec) 
Heartbeat CPU 0 instructions: 140000002 cycles: 1413507801 heartbeat IPC: 0.125055 cumulative IPC: 0.0983672 (Simulation time: 0 hr 18 min 12 sec) 
Heartbeat CPU 0 instructions: 141000003 cycles: 1429012808 heartbeat IPC: 0.0644954 cumulative IPC: 0.0979996 (Simulation time: 0 hr 18 min 22 sec) 
Heartbeat CPU 0 instructions: 142000000 cycles: 1435364765 heartbeat IPC: 0.157431 cumulative IPC: 0.0982627 (Simulation time: 0 hr 18 min 28 sec) 
Heartbeat CPU 0 instructions: 143000000 cycles: 1441585995 heartbeat IPC: 0.16074 cumulative IPC: 0.0985324 (Simulation time: 0 hr 18 min 36 sec) 
Heartbeat CPU 0 instructions: 144000001 cycles: 1457778066 heartbeat IPC: 0.0617587 cumulative IPC: 0.0981238 (Simulation time: 0 hr 18 min 54 sec) 
Heartbeat CPU 0 instructions: 145000000 cycles: 1465195015 heartbeat IPC: 0.134826 cumulative IPC: 0.0983096 (Simulation time: 0 hr 19 min 6 sec) 
Heartbeat CPU 0 instructions: 146000002 cycles: 1471713118 heartbeat IPC: 0.153419 cumulative IPC: 0.0985538 (Simulation time: 0 hr 19 min 17 sec) 
Heartbeat CPU 0 instructions: 147000001 cycles: 1485936454 heartbeat IPC: 0.0703069 cumulative IPC: 0.0982833 (Simulation time: 0 hr 19 min 33 sec) 
Heartbeat CPU 0 instructions: 148000001 cycles: 1495470570 heartbeat IPC: 0.104886 cumulative IPC: 0.0983254 (Simulation time: 0 hr 19 min 46 sec) 
Heartbeat CPU 0 instructions: 149000003 cycles: 1502075447 heartbeat IPC: 0.151404 cumulative IPC: 0.0985589 (Simulation time: 0 hr 19 min 57 sec) 
Heartbeat CPU 0 instructions: 150000001 cycles: 1514284754 heartbeat IPC: 0.0819046 cumulative IPC: 0.0984246 (Simulation time: 0 hr 20 min 12 sec) 
Heartbeat CPU 0 instructions: 151000003 cycles: 1526586917 heartbeat IPC: 0.0812867 cumulative IPC: 0.0982864 (Simulation time: 0 hr 20 min 27 sec) 
Heartbeat CPU 0 instructions: 152000001 cycles: 1533019457 heartbeat IPC: 0.155459 cumulative IPC: 0.0985264 (Simulation time: 0 hr 20 min 38 sec) 
Heartbeat CPU 0 instructions: 153000003 cycles: 1543167836 heartbeat IPC: 0.0985381 cumulative IPC: 0.0985265 (Simulation time: 0 hr 20 min 52 sec) 
Heartbeat CPU 0 instructions: 154000000 cycles: 1556764754 heartbeat IPC: 0.0735459 cumulative IPC: 0.0983082 (Simulation time: 0 hr 21 min 7 sec) 
Heartbeat CPU 0 instructions: 155000003 cycles: 1563262443 heartbeat IPC: 0.153901 cumulative IPC: 0.0985394 (Simulation time: 0 hr 21 min 13 sec) 
Heartbeat CPU 0 instructions: 156000001 cycles: 1577650559 heartbeat IPC: 0.0695017 cumulative IPC: 0.0982745 (Simulation time: 0 hr 21 min 23 sec) 
Heartbeat CPU 0 instructions: 157000001 cycles: 1593145792 heartbeat IPC: 0.064536 cumulative IPC: 0.0979462 (Simulation time: 0 hr 21 min 33 sec) 
Heartbeat CPU 0 instructions: 158000001 cycles: 1603671444 heartbeat IPC: 0.095006 cumulative IPC: 0.0979269 (Simulation time: 0 hr 21 min 41 sec) 
Heartbeat CPU 0 instructions: 159000000 cycles: 1613140759 heartbeat IPC: 0.105604 cumulative IPC: 0.097972 (Simulation time: 0 hr 21 min 48 sec) 
Heartbeat CPU 0 instructions: 160000001 cycles: 1624465976 heartbeat IPC: 0.0882986 cumulative IPC: 0.0979046 (Simulation time: 0 hr 21 min 56 sec) 
Heartbeat CPU 0 instructions: 161000001 cycles: 1639924354 heartbeat IPC: 0.0646898 cumulative IPC: 0.0975914 (Simulation time: 0 hr 22 min 6 sec) 
Heartbeat CPU 0 instructions: 162000000 cycles: 1646955733 heartbeat IPC: 0.142219 cumulative IPC: 0.097782 (Simulation time: 0 hr 22 min 12 sec) 
Heartbeat CPU 0 instructions: 163000001 cycles: 1658418222 heartbeat IPC: 0.0872412 cumulative IPC: 0.0977091 (Simulation time: 0 hr 22 min 20 sec) 
Heartbeat CPU 0 instructions: 164000000 cycles: 1673258734 heartbeat IPC: 0.0673831 cumulative IPC: 0.09744 (Simulation time: 0 hr 22 min 30 sec) 
Heartbeat CPU 0 instructions: 165000000 cycles: 1685117041 heartbeat IPC: 0.0843291 cumulative IPC: 0.0973478 (Simulation time: 0 hr 22 min 38 sec) 
Heartbeat CPU 0 instructions: 166000000 cycles: 1691976541 heartbeat IPC: 0.145783 cumulative IPC: 0.0975442 (Simulation time: 0 hr 22 min 45 sec) 
Heartbeat CPU 0 instructions: 167000000 cycles: 1703789286 heartbeat IPC: 0.0846543 cumulative IPC: 0.0974548 (Simulation time: 0 hr 22 min 53 sec) 
Heartbeat CPU 0 instructions: 168000001 cycles: 1716938184 heartbeat IPC: 0.0760521 cumulative IPC: 0.0972908 (Simulation time: 0 hr 23 min 2 sec) 
Heartbeat CPU 0 instructions: 169000002 cycles: 1729259372 heartbeat IPC: 0.0811611 cumulative IPC: 0.0971759 (Simulation time: 0 hr 23 min 11 sec) 
Heartbeat CPU 0 instructions: 170000001 cycles: 1742295272 heartbeat IPC: 0.0767112 cumulative IPC: 0.0970227 (Simulation time: 0 hr 23 min 21 sec) 
Heartbeat CPU 0 instructions: 171000001 cycles: 1756554082 heartbeat IPC: 0.0701321 cumulative IPC: 0.0968044 (Simulation time: 0 hr 23 min 30 sec) 
Heartbeat CPU 0 instructions: 172000000 cycles: 1766539217 heartbeat IPC: 0.100149 cumulative IPC: 0.0968233 (Simulation time: 0 hr 23 min 38 sec) 
Heartbeat CPU 0 instructions: 173000000 cycles: 1775027014 heartbeat IPC: 0.117816 cumulative IPC: 0.0969237 (Simulation time: 0 hr 23 min 45 sec) 
Heartbeat CPU 0 instructions: 174000003 cycles: 1786538966 heartbeat IPC: 0.0868665 cumulative IPC: 0.0968589 (Simulation time: 0 hr 23 min 53 sec) 
Heartbeat CPU 0 instructions: 175000001 cycles: 1802330379 heartbeat IPC: 0.0633254 cumulative IPC: 0.096565 (Simulation time: 0 hr 24 min 3 sec) 
Heartbeat CPU 0 instructions: 176000000 cycles: 1809106746 heartbeat IPC: 0.147572 cumulative IPC: 0.0967561 (Simulation time: 0 hr 24 min 8 sec) 
Heartbeat CPU 0 instructions: 177000001 cycles: 1815582858 heartbeat IPC: 0.154414 cumulative IPC: 0.0969618 (Simulation time: 0 hr 24 min 13 sec) 
Heartbeat CPU 0 instructions: 178000000 cycles: 1830682987 heartbeat IPC: 0.0662245 cumulative IPC: 0.0967082 (Simulation time: 0 hr 24 min 27 sec) 
Heartbeat CPU 0 instructions: 179000000 cycles: 1842689015 heartbeat IPC: 0.0832915 cumulative IPC: 0.0966208 (Simulation time: 0 hr 24 min 37 sec) 
Heartbeat CPU 0 instructions: 180000000 cycles: 1849720091 heartbeat IPC: 0.142226 cumulative IPC: 0.0967942 (Simulation time: 0 hr 24 min 44 sec) 
Heartbeat CPU 0 instructions: 181000001 cycles: 1861675051 heartbeat IPC: 0.0836474 cumulative IPC: 0.0967097 (Simulation time: 0 hr 24 min 52 sec) 
Heartbeat CPU 0 instructions: 182000000 cycles: 1878145256 heartbeat IPC: 0.0607156 cumulative IPC: 0.096394 (Simulation time: 0 hr 25 min 2 sec) 
Heartbeat CPU 0 instructions: 183000001 cycles: 1885547781 heartbeat IPC: 0.135089 cumulative IPC: 0.096546 (Simulation time: 0 hr 25 min 9 sec) 
Heartbeat CPU 0 instructions: 184000001 cycles: 1893027408 heartbeat IPC: 0.133697 cumulative IPC: 0.0966928 (Simulation time: 0 hr 25 min 18 sec) 
Heartbeat CPU 0 instructions: 185000000 cycles: 1907047530 heartbeat IPC: 0.071326 cumulative IPC: 0.0965063 (Simulation time: 0 hr 25 min 33 sec) 
Heartbeat CPU 0 instructions: 186000003 cycles: 1920550456 heartbeat IPC: 0.0740582 cumulative IPC: 0.0963484 (Simulation time: 0 hr 25 min 44 sec) 
Heartbeat CPU 0 instructions: 187000000 cycles: 1928838701 heartbeat IPC: 0.120652 cumulative IPC: 0.0964528 (Simulation time: 0 hr 25 min 51 sec) 
Heartbeat CPU 0 instructions: 188000000 cycles: 1939323068 heartbeat IPC: 0.0953801 cumulative IPC: 0.096447 (Simulation time: 0 hr 25 min 59 sec) 
Heartbeat CPU 0 instructions: 189000001 cycles: 1953206011 heartbeat IPC: 0.0720309 cumulative IPC: 0.0962735 (Simulation time: 0 hr 26 min 7 sec) 
Heartbeat CPU 0 instructions: 190000000 cycles: 1963818169 heartbeat IPC: 0.0942314 cumulative IPC: 0.0962624 (Simulation time: 0 hr 26 min 14 sec) 
Heartbeat CPU 0 instructions: 191000002 cycles: 1970500136 heartbeat IPC: 0.149657 cumulative IPC: 0.0964435 (Simulation time: 0 hr 26 min 19 sec) 
Heartbeat CPU 0 instructions: 192000002 cycles: 1978818329 heartbeat IPC: 0.120218 cumulative IPC: 0.0965435 (Simulation time: 0 hr 26 min 25 sec) 
Heartbeat CPU 0 instructions: 193000002 cycles: 1995579352 heartbeat IPC: 0.0596622 cumulative IPC: 0.0962337 (Simulation time: 0 hr 26 min 35 sec) 
Heartbeat CPU 0 instructions: 194000001 cycles: 2002805304 heartbeat IPC: 0.13839 cumulative IPC: 0.0963858 (Simulation time: 0 hr 26 min 43 sec) 
Heartbeat CPU 0 instructions: 195000001 cycles: 2009302738 heartbeat IPC: 0.153907 cumulative IPC: 0.0965718 (Simulation time: 0 hr 26 min 54 sec) 
Heartbeat CPU 0 instructions: 196000000 cycles: 2024568189 heartbeat IPC: 0.0655073 cumulative IPC: 0.0963375 (Simulation time: 0 hr 27 min 9 sec) 
Heartbeat CPU 0 instructions: 197000003 cycles: 2035460814 heartbeat IPC: 0.0918055 cumulative IPC: 0.0963133 (Simulation time: 0 hr 27 min 17 sec) 
Heartbeat CPU 0 instructions: 198000000 cycles: 2042079739 heartbeat IPC: 0.151081 cumulative IPC: 0.0964908 (Simulation time: 0 hr 27 min 23 sec) 
Heartbeat CPU 0 instructions: 199000002 cycles: 2053517954 heartbeat IPC: 0.0874264 cumulative IPC: 0.0964403 (Simulation time: 0 hr 27 min 31 sec) 
Heartbeat CPU 0 instructions: 200000000 cycles: 2066213245 heartbeat IPC: 0.0787692 cumulative IPC: 0.0963317 (Simulation time: 0 hr 27 min 40 sec) 
Heartbeat CPU 0 instructions: 201000001 cycles: 2072659584 heartbeat IPC: 0.155127 cumulative IPC: 0.0965146 (Simulation time: 0 hr 27 min 46 sec) 
Heartbeat CPU 0 instructions: 202000002 cycles: 2082171480 heartbeat IPC: 0.105132 cumulative IPC: 0.096554 (Simulation time: 0 hr 27 min 54 sec) 
Heartbeat CPU 0 instructions: 203000002 cycles: 2096557367 heartbeat IPC: 0.0695126 cumulative IPC: 0.0963684 (Simulation time: 0 hr 28 min 3 sec) 
Heartbeat CPU 0 instructions: 204000000 cycles: 2103215606 heartbeat IPC: 0.15019 cumulative IPC: 0.0965388 (Simulation time: 0 hr 28 min 10 sec) 
Heartbeat CPU 0 instructions: 205000002 cycles: 2111414365 heartbeat IPC: 0.12197 cumulative IPC: 0.0966376 (Simulation time: 0 hr 28 min 16 sec) 
Heartbeat CPU 0 instructions: 206000000 cycles: 2127071975 heartbeat IPC: 0.0638666 cumulative IPC: 0.0963963 (Simulation time: 0 hr 28 min 26 sec) 
Heartbeat CPU 0 instructions: 207000001 cycles: 2133796477 heartbeat IPC: 0.14871 cumulative IPC: 0.0965612 (Simulation time: 0 hr 28 min 32 sec) 
Heartbeat CPU 0 instructions: 208000002 cycles: 2140723787 heartbeat IPC: 0.144356 cumulative IPC: 0.0967159 (Simulation time: 0 hr 28 min 38 sec) 
Heartbeat CPU 0 instructions: 209000000 cycles: 2157451727 heartbeat IPC: 0.0597801 cumulative IPC: 0.0964295 (Simulation time: 0 hr 28 min 48 sec) 
Heartbeat CPU 0 instructions: 210000000 cycles: 2164419862 heartbeat IPC: 0.14351 cumulative IPC: 0.0965811 (Simulation time: 0 hr 28 min 55 sec) 
Heartbeat CPU 0 instructions: 211000003 cycles: 2171520877 heartbeat IPC: 0.140825 cumulative IPC: 0.0967258 (Simulation time: 0 hr 29 min 1 sec) 
Heartbeat CPU 0 instructions: 212000003 cycles: 2187175420 heartbeat IPC: 0.0638792 cumulative IPC: 0.0964907 (Simulation time: 0 hr 29 min 10 sec) 
Heartbeat CPU 0 instructions: 213000001 cycles: 2196640622 heartbeat IPC: 0.10565 cumulative IPC: 0.0965301 (Simulation time: 0 hr 29 min 18 sec) 
Heartbeat CPU 0 instructions: 214000000 cycles: 2202945045 heartbeat IPC: 0.158619 cumulative IPC: 0.0967079 (Simulation time: 0 hr 29 min 24 sec) 
Heartbeat CPU 0 instructions: 215000002 cycles: 2215163519 heartbeat IPC: 0.0818434 cumulative IPC: 0.0966258 (Simulation time: 0 hr 29 min 32 sec) 
Heartbeat CPU 0 instructions: 216000000 cycles: 2229068999 heartbeat IPC: 0.071914 cumulative IPC: 0.0964717 (Simulation time: 0 hr 29 min 41 sec) 
Heartbeat CPU 0 instructions: 217000001 cycles: 2238356604 heartbeat IPC: 0.10767 cumulative IPC: 0.0965181 (Simulation time: 0 hr 29 min 48 sec) 
Heartbeat CPU 0 instructions: 218000003 cycles: 2245102772 heartbeat IPC: 0.148233 cumulative IPC: 0.0966736 (Simulation time: 0 hr 29 min 54 sec) 
Heartbeat CPU 0 instructions: 219000001 cycles: 2261936338 heartbeat IPC: 0.059405 cumulative IPC: 0.0963961 (Simulation time: 0 hr 30 min 4 sec) 
Heartbeat CPU 0 instructions: 220000000 cycles: 2269132167 heartbeat IPC: 0.138969 cumulative IPC: 0.0965312 (Simulation time: 0 hr 30 min 10 sec) 
Heartbeat CPU 0 instructions: 221000000 cycles: 2275963045 heartbeat IPC: 0.146394 cumulative IPC: 0.0966809 (Simulation time: 0 hr 30 min 16 sec) 
Heartbeat CPU 0 instructions: 222000003 cycles: 2291077778 heartbeat IPC: 0.0661608 cumulative IPC: 0.0964795 (Simulation time: 0 hr 30 min 26 sec) 
Heartbeat CPU 0 instructions: 223000000 cycles: 2302899626 heartbeat IPC: 0.0845889 cumulative IPC: 0.0964184 (Simulation time: 0 hr 30 min 34 sec) 
Heartbeat CPU 0 instructions: 224000002 cycles: 2318321698 heartbeat IPC: 0.0648423 cumulative IPC: 0.0962083 (Simulation time: 0 hr 30 min 44 sec) 
Heartbeat CPU 0 instructions: 225000000 cycles: 2325668601 heartbeat IPC: 0.136111 cumulative IPC: 0.0963344 (Simulation time: 0 hr 30 min 50 sec) 
Heartbeat CPU 0 instructions: 226000001 cycles: 2341471065 heartbeat IPC: 0.0632813 cumulative IPC: 0.0961113 (Simulation time: 0 hr 30 min 59 sec) 
Heartbeat CPU 0 instructions: 227000002 cycles: 2352435604 heartbeat IPC: 0.0912032 cumulative IPC: 0.0960884 (Simulation time: 0 hr 31 min 7 sec) 
Heartbeat CPU 0 instructions: 228000000 cycles: 2360060143 heartbeat IPC: 0.131155 cumulative IPC: 0.0962017 (Simulation time: 0 hr 31 min 13 sec) 
Heartbeat CPU 0 instructions: 229000000 cycles: 2369130502 heartbeat IPC: 0.110249 cumulative IPC: 0.0962555 (Simulation time: 0 hr 31 min 20 sec) 
Heartbeat CPU 0 instructions: 230000001 cycles: 2384010945 heartbeat IPC: 0.0672024 cumulative IPC: 0.0960741 (Simulation time: 0 hr 31 min 30 sec) 
Heartbeat CPU 0 instructions: 231000000 cycles: 2393020653 heartbeat IPC: 0.110991 cumulative IPC: 0.0961303 (Simulation time: 0 hr 31 min 37 sec) 
Heartbeat CPU 0 instructions: 232000001 cycles: 2399747756 heartbeat IPC: 0.148653 cumulative IPC: 0.0962776 (Simulation time: 0 hr 31 min 42 sec) 
Heartbeat CPU 0 instructions: 233000001 cycles: 2413378457 heartbeat IPC: 0.0733638 cumulative IPC: 0.0961481 (Simulation time: 0 hr 31 min 51 sec) 
Heartbeat CPU 0 instructions: 234000002 cycles: 2423784848 heartbeat IPC: 0.0960949 cumulative IPC: 0.0961479 (Simulation time: 0 hr 31 min 58 sec) 
Heartbeat CPU 0 instructions: 235000000 cycles: 2430314169 heartbeat IPC: 0.153155 cumulative IPC: 0.0963011 (Simulation time: 0 hr 32 min 4 sec) 
Heartbeat CPU 0 instructions: 236000002 cycles: 2438767916 heartbeat IPC: 0.118291 cumulative IPC: 0.0963773 (Simulation time: 0 hr 32 min 10 sec) 
Heartbeat CPU 0 instructions: 237000002 cycles: 2454086382 heartbeat IPC: 0.0652807 cumulative IPC: 0.0961832 (Simulation time: 0 hr 32 min 19 sec) 
Heartbeat CPU 0 instructions: 238000000 cycles: 2460666234 heartbeat IPC: 0.151979 cumulative IPC: 0.0963324 (Simulation time: 0 hr 32 min 25 sec) 
Heartbeat CPU 0 instructions: 239000000 cycles: 2468387662 heartbeat IPC: 0.12951 cumulative IPC: 0.0964362 (Simulation time: 0 hr 32 min 31 sec) 
Heartbeat CPU 0 instructions: 240000001 cycles: 2483042152 heartbeat IPC: 0.0682385 cumulative IPC: 0.0962698 (Simulation time: 0 hr 32 min 41 sec) 
Heartbeat CPU 0 instructions: 241000003 cycles: 2492572811 heartbeat IPC: 0.104925 cumulative IPC: 0.0963029 (Simulation time: 0 hr 32 min 48 sec) 
Heartbeat CPU 0 instructions: 242000000 cycles: 2499265312 heartbeat IPC: 0.149421 cumulative IPC: 0.0964451 (Simulation time: 0 hr 32 min 54 sec) 
Heartbeat CPU 0 instructions: 243000001 cycles: 2512162697 heartbeat IPC: 0.0775352 cumulative IPC: 0.096348 (Simulation time: 0 hr 33 min 3 sec) 
Heartbeat CPU 0 instructions: 244000001 cycles: 2523477531 heartbeat IPC: 0.0883796 cumulative IPC: 0.0963123 (Simulation time: 0 hr 33 min 11 sec) 
Heartbeat CPU 0 instructions: 245000000 cycles: 2530227674 heartbeat IPC: 0.148145 cumulative IPC: 0.0964506 (Simulation time: 0 hr 33 min 17 sec) 
Heartbeat CPU 0 instructions: 246000001 cycles: 2541513986 heartbeat IPC: 0.088603 cumulative IPC: 0.0964157 (Simulation time: 0 hr 33 min 29 sec) 
Heartbeat CPU 0 instructions: 247000001 cycles: 2554696537 heartbeat IPC: 0.0758579 cumulative IPC: 0.0963096 (Simulation time: 0 hr 33 min 43 sec) 
Heartbeat CPU 0 instructions: 248000001 cycles: 2561429470 heartbeat IPC: 0.148524 cumulative IPC: 0.0964469 (Simulation time: 0 hr 33 min 50 sec) 
Heartbeat CPU 0 instructions: 249000003 cycles: 2570000840 heartbeat IPC: 0.116668 cumulative IPC: 0.0965144 (Simulation time: 0 hr 34 min 0 sec) 
Heartbeat CPU 0 instructions: 250000000 cycles: 2586309297 heartbeat IPC: 0.0613177 cumulative IPC: 0.0962924 (Simulation time: 0 hr 34 min 11 sec) 
Heartbeat CPU 0 instructions: 251000003 cycles: 2593026944 heartbeat IPC: 0.148862 cumulative IPC: 0.0964286 (Simulation time: 0 hr 34 min 17 sec) 
Heartbeat CPU 0 instructions: 252000000 cycles: 2599420224 heartbeat IPC: 0.156414 cumulative IPC: 0.0965762 (Simulation time: 0 hr 34 min 23 sec) 
Heartbeat CPU 0 instructions: 253000000 cycles: 2614813641 heartbeat IPC: 0.0649628 cumulative IPC: 0.09639 (Simulation time: 0 hr 34 min 32 sec) 
Heartbeat CPU 0 instructions: 254000000 cycles: 2623342069 heartbeat IPC: 0.117255 cumulative IPC: 0.0964579 (Simulation time: 0 hr 34 min 42 sec) 
Heartbeat CPU 0 instructions: 255000000 cycles: 2629781763 heartbeat IPC: 0.155287 cumulative IPC: 0.0966019 (Simulation time: 0 hr 34 min 47 sec) 
Heartbeat CPU 0 instructions: 256000000 cycles: 2642215826 heartbeat IPC: 0.0804242 cumulative IPC: 0.0965258 (Simulation time: 0 hr 34 min 55 sec) 
Heartbeat CPU 0 instructions: 257000000 cycles: 2653751990 heartbeat IPC: 0.0866839 cumulative IPC: 0.096483 (Simulation time: 0 hr 35 min 4 sec) 
Heartbeat CPU 0 instructions: 258000000 cycles: 2662603684 heartbeat IPC: 0.112973 cumulative IPC: 0.0965378 (Simulation time: 0 hr 35 min 10 sec) 
Heartbeat CPU 0 instructions: 259000003 cycles: 2670030016 heartbeat IPC: 0.134656 cumulative IPC: 0.0966439 (Simulation time: 0 hr 35 min 16 sec) 
Heartbeat CPU 0 instructions: 260000000 cycles: 2686433515 heartbeat IPC: 0.0609624 cumulative IPC: 0.096426 (Simulation time: 0 hr 35 min 26 sec) 
Heartbeat CPU 0 instructions: 261000001 cycles: 2693367247 heartbeat IPC: 0.144223 cumulative IPC: 0.096549 (Simulation time: 0 hr 35 min 32 sec) 
Heartbeat CPU 0 instructions: 262000000 cycles: 2700767709 heartbeat IPC: 0.135127 cumulative IPC: 0.0966548 (Simulation time: 0 hr 35 min 38 sec) 
Heartbeat CPU 0 instructions: 263000001 cycles: 2715098136 heartbeat IPC: 0.0697817 cumulative IPC: 0.0965129 (Simulation time: 0 hr 35 min 47 sec) 
Heartbeat CPU 0 instructions: 264000000 cycles: 2725162171 heartbeat IPC: 0.0993636 cumulative IPC: 0.0965234 (Simulation time: 0 hr 35 min 54 sec) 
Heartbeat CPU 0 instructions: 265000003 cycles: 2732328184 heartbeat IPC: 0.139548 cumulative IPC: 0.0966363 (Simulation time: 0 hr 36 min 0 sec) 
Heartbeat CPU 0 instructions: 266000003 cycles: 2742767216 heartbeat IPC: 0.0957943 cumulative IPC: 0.0966331 (Simulation time: 0 hr 36 min 8 sec) 
Heartbeat CPU 0 instructions: 267000000 cycles: 2756398409 heartbeat IPC: 0.0733609 cumulative IPC: 0.096518 (Simulation time: 0 hr 36 min 17 sec) 
Heartbeat CPU 0 instructions: 268000001 cycles: 2763232739 heartbeat IPC: 0.14632 cumulative IPC: 0.0966412 (Simulation time: 0 hr 36 min 23 sec) 
Heartbeat CPU 0 instructions: 269000000 cycles: 2770775298 heartbeat IPC: 0.132581 cumulative IPC: 0.096739 (Simulation time: 0 hr 36 min 31 sec) 
Heartbeat CPU 0 instructions: 270000001 cycles: 2787140713 heartbeat IPC: 0.0611045 cumulative IPC: 0.0965298 (Simulation time: 0 hr 36 min 41 sec) 
Heartbeat CPU 0 instructions: 271000003 cycles: 2793622559 heartbeat IPC: 0.154277 cumulative IPC: 0.0966638 (Simulation time: 0 hr 36 min 48 sec) 
Heartbeat CPU 0 instructions: 272000002 cycles: 2800451153 heartbeat IPC: 0.146443 cumulative IPC: 0.0967852 (Simulation time: 0 hr 36 min 53 sec) 
Heartbeat CPU 0 instructions: 273000001 cycles: 2814002044 heartbeat IPC: 0.0737958 cumulative IPC: 0.0966744 (Simulation time: 0 hr 37 min 2 sec) 
Heartbeat CPU 0 instructions: 274000001 cycles: 2824528167 heartbeat IPC: 0.0950017 cumulative IPC: 0.0966682 (Simulation time: 0 hr 37 min 9 sec) 
Heartbeat CPU 0 instructions: 275000000 cycles: 2831043307 heartbeat IPC: 0.153488 cumulative IPC: 0.096799 (Simulation time: 0 hr 37 min 14 sec) 
Heartbeat CPU 0 instructions: 276000000 cycles: 2839539362 heartbeat IPC: 0.117702 cumulative IPC: 0.0968615 (Simulation time: 0 hr 37 min 21 sec) 
Heartbeat CPU 0 instructions: 277000000 cycles: 2855294429 heartbeat IPC: 0.0634716 cumulative IPC: 0.0966773 (Simulation time: 0 hr 37 min 30 sec) 
Heartbeat CPU 0 instructions: 278000000 cycles: 2861779171 heartbeat IPC: 0.154208 cumulative IPC: 0.0968077 (Simulation time: 0 hr 37 min 36 sec) 
Heartbeat CPU 0 instructions: 279000000 cycles: 2868063603 heartbeat IPC: 0.159123 cumulative IPC: 0.0969442 (Simulation time: 0 hr 37 min 41 sec) 
Heartbeat CPU 0 instructions: 280000002 cycles: 2881279218 heartbeat IPC: 0.0756682 cumulative IPC: 0.0968466 (Simulation time: 0 hr 37 min 49 sec) 
Heartbeat CPU 0 instructions: 281000001 cycles: 2891806841 heartbeat IPC: 0.0949881 cumulative IPC: 0.0968399 (Simulation time: 0 hr 37 min 57 sec) 
Heartbeat CPU 0 instructions: 282000000 cycles: 2898013454 heartbeat IPC: 0.161118 cumulative IPC: 0.0969775 (Simulation time: 0 hr 38 min 2 sec) 
Heartbeat CPU 0 instructions: 283000001 cycles: 2905553489 heartbeat IPC: 0.132626 cumulative IPC: 0.0970701 (Simulation time: 0 hr 38 min 8 sec) 
Heartbeat CPU 0 instructions: 284000001 cycles: 2921492076 heartbeat IPC: 0.0627408 cumulative IPC: 0.0968827 (Simulation time: 0 hr 38 min 17 sec) 
Heartbeat CPU 0 instructions: 285000001 cycles: 2928125941 heartbeat IPC: 0.150742 cumulative IPC: 0.0970048 (Simulation time: 0 hr 38 min 23 sec) 
Heartbeat CPU 0 instructions: 286000000 cycles: 2934965229 heartbeat IPC: 0.146214 cumulative IPC: 0.0971195 (Simulation time: 0 hr 38 min 29 sec) 
Heartbeat CPU 0 instructions: 287000002 cycles: 2946728419 heartbeat IPC: 0.0850111 cumulative IPC: 0.0970711 (Simulation time: 0 hr 38 min 36 sec) 
Heartbeat CPU 0 instructions: 288000000 cycles: 2958814615 heartbeat IPC: 0.0827389 cumulative IPC: 0.0970126 (Simulation time: 0 hr 38 min 45 sec) 
Heartbeat CPU 0 instructions: 289000001 cycles: 2965507728 heartbeat IPC: 0.149407 cumulative IPC: 0.0971308 (Simulation time: 0 hr 38 min 50 sec) 
Heartbeat CPU 0 instructions: 290000003 cycles: 2975734187 heartbeat IPC: 0.0977858 cumulative IPC: 0.0971331 (Simulation time: 0 hr 38 min 58 sec) 
Heartbeat CPU 0 instructions: 291000002 cycles: 2991429353 heartbeat IPC: 0.0637138 cumulative IPC: 0.0969577 (Simulation time: 0 hr 39 min 7 sec) 
Heartbeat CPU 0 instructions: 292000002 cycles: 3000166530 heartbeat IPC: 0.114453 cumulative IPC: 0.0970087 (Simulation time: 0 hr 39 min 14 sec) 
Heartbeat CPU 0 instructions: 293000000 cycles: 3012130147 heartbeat IPC: 0.0835866 cumulative IPC: 0.0969554 (Simulation time: 0 hr 39 min 22 sec) 
Heartbeat CPU 0 instructions: 294000001 cycles: 3021619590 heartbeat IPC: 0.10538 cumulative IPC: 0.0969818 (Simulation time: 0 hr 39 min 29 sec) 
Heartbeat CPU 0 instructions: 295000001 cycles: 3036396065 heartbeat IPC: 0.0676751 cumulative IPC: 0.0968392 (Simulation time: 0 hr 39 min 38 sec) 
Heartbeat CPU 0 instructions: 296000001 cycles: 3043819577 heartbeat IPC: 0.134707 cumulative IPC: 0.0969316 (Simulation time: 0 hr 39 min 44 sec) 
Heartbeat CPU 0 instructions: 297000000 cycles: 3050598925 heartbeat IPC: 0.147507 cumulative IPC: 0.097044 (Simulation time: 0 hr 39 min 50 sec) 
Heartbeat CPU 0 instructions: 298000001 cycles: 3067028380 heartbeat IPC: 0.0608664 cumulative IPC: 0.0968501 (Simulation time: 0 hr 40 min 0 sec) 
Heartbeat CPU 0 instructions: 299000001 cycles: 3078847257 heartbeat IPC: 0.0846104 cumulative IPC: 0.0968032 (Simulation time: 0 hr 40 min 7 sec) 
Heartbeat CPU 0 instructions: 300000000 cycles: 3085937981 heartbeat IPC: 0.141029 cumulative IPC: 0.0969048 (Simulation time: 0 hr 40 min 13 sec) 
Heartbeat CPU 0 instructions: 301000003 cycles: 3094005929 heartbeat IPC: 0.123948 cumulative IPC: 0.0969753 (Simulation time: 0 hr 40 min 18 sec) 
Heartbeat CPU 0 instructions: 302000001 cycles: 3110314520 heartbeat IPC: 0.0613173 cumulative IPC: 0.0967883 (Simulation time: 0 hr 40 min 28 sec) 
Heartbeat CPU 0 instructions: 303000000 cycles: 3117372283 heartbeat IPC: 0.141688 cumulative IPC: 0.09689 (Simulation time: 0 hr 40 min 33 sec) 
Heartbeat CPU 0 instructions: 304000001 cycles: 3125229742 heartbeat IPC: 0.127268 cumulative IPC: 0.0969664 (Simulation time: 0 hr 40 min 38 sec) 
Heartbeat CPU 0 instructions: 305000002 cycles: 3138298409 heartbeat IPC: 0.076519 cumulative IPC: 0.0968812 (Simulation time: 0 hr 40 min 47 sec) 
Heartbeat CPU 0 instructions: 306000001 cycles: 3149893599 heartbeat IPC: 0.0862426 cumulative IPC: 0.0968421 (Simulation time: 0 hr 40 min 55 sec) 
Heartbeat CPU 0 instructions: 307000002 cycles: 3156583359 heartbeat IPC: 0.149482 cumulative IPC: 0.0969536 (Simulation time: 0 hr 41 min 1 sec) 
Heartbeat CPU 0 instructions: 308000000 cycles: 3167892042 heartbeat IPC: 0.0884274 cumulative IPC: 0.0969232 (Simulation time: 0 hr 41 min 8 sec) 
Heartbeat CPU 0 instructions: 309000002 cycles: 3182040470 heartbeat IPC: 0.0706794 cumulative IPC: 0.0968065 (Simulation time: 0 hr 41 min 17 sec) 
Heartbeat CPU 0 instructions: 310000000 cycles: 3188625868 heartbeat IPC: 0.151851 cumulative IPC: 0.0969202 (Simulation time: 0 hr 41 min 23 sec) 
Heartbeat CPU 0 instructions: 311000000 cycles: 3198422600 heartbeat IPC: 0.102075 cumulative IPC: 0.096936 (Simulation time: 0 hr 41 min 29 sec) 
Heartbeat CPU 0 instructions: 312000002 cycles: 3214175045 heartbeat IPC: 0.0634823 cumulative IPC: 0.096772 (Simulation time: 0 hr 41 min 39 sec) 
Heartbeat CPU 0 instructions: 313000000 cycles: 3222481761 heartbeat IPC: 0.120384 cumulative IPC: 0.0968329 (Simulation time: 0 hr 41 min 45 sec) 
Heartbeat CPU 0 instructions: 314000001 cycles: 3229104972 heartbeat IPC: 0.150984 cumulative IPC: 0.096944 (Simulation time: 0 hr 41 min 51 sec) 
Heartbeat CPU 0 instructions: 315000002 cycles: 3241844160 heartbeat IPC: 0.078498 cumulative IPC: 0.0968715 (Simulation time: 0 hr 41 min 59 sec) 
Heartbeat CPU 0 instructions: 316000001 cycles: 3254228232 heartbeat IPC: 0.0807488 cumulative IPC: 0.0968101 (Simulation time: 0 hr 42 min 10 sec) 
Heartbeat CPU 0 instructions: 317000002 cycles: 3262388371 heartbeat IPC: 0.122547 cumulative IPC: 0.0968745 (Simulation time: 0 hr 42 min 21 sec) 
Heartbeat CPU 0 instructions: 318000001 cycles: 3271815366 heartbeat IPC: 0.106078 cumulative IPC: 0.096901 (Simulation time: 0 hr 42 min 34 sec) 
Heartbeat CPU 0 instructions: 319000000 cycles: 3287085273 heartbeat IPC: 0.0654882 cumulative IPC: 0.0967551 (Simulation time: 0 hr 42 min 52 sec) 
Heartbeat CPU 0 instructions: 320000000 cycles: 3294783133 heartbeat IPC: 0.129906 cumulative IPC: 0.0968325 (Simulation time: 0 hr 43 min 2 sec) 
Heartbeat CPU 0 instructions: 321000000 cycles: 3301960642 heartbeat IPC: 0.139324 cumulative IPC: 0.0969249 (Simulation time: 0 hr 43 min 8 sec) 
Heartbeat CPU 0 instructions: 322000002 cycles: 3315398580 heartbeat IPC: 0.0744163 cumulative IPC: 0.0968337 (Simulation time: 0 hr 43 min 16 sec) 
Heartbeat CPU 0 instructions: 323000001 cycles: 3326348912 heartbeat IPC: 0.0913213 cumulative IPC: 0.0968155 (Simulation time: 0 hr 43 min 23 sec) 
Heartbeat CPU 0 instructions: 324000000 cycles: 3333766194 heartbeat IPC: 0.13482 cumulative IPC: 0.0969001 (Simulation time: 0 hr 43 min 28 sec) 
Heartbeat CPU 0 instructions: 325000000 cycles: 3341945694 heartbeat IPC: 0.122257 cumulative IPC: 0.0969621 (Simulation time: 0 hr 43 min 34 sec) 
Heartbeat CPU 0 instructions: 326000000 cycles: 3357970538 heartbeat IPC: 0.0624031 cumulative IPC: 0.0967972 (Simulation time: 0 hr 43 min 44 sec) 
Heartbeat CPU 0 instructions: 327000000 cycles: 3364785288 heartbeat IPC: 0.146741 cumulative IPC: 0.0968984 (Simulation time: 0 hr 43 min 49 sec) 
Heartbeat CPU 0 instructions: 328000000 cycles: 3374224403 heartbeat IPC: 0.105942 cumulative IPC: 0.0969237 (Simulation time: 0 hr 43 min 55 sec) 
Heartbeat CPU 0 instructions: 329000000 cycles: 3387439717 heartbeat IPC: 0.0756698 cumulative IPC: 0.0968407 (Simulation time: 0 hr 44 min 3 sec) 
Heartbeat CPU 0 instructions: 330000000 cycles: 3398989467 heartbeat IPC: 0.086582 cumulative IPC: 0.0968059 (Simulation time: 0 hr 44 min 11 sec) 
Heartbeat CPU 0 instructions: 331000003 cycles: 3405672883 heartbeat IPC: 0.149625 cumulative IPC: 0.0969095 (Simulation time: 0 hr 44 min 16 sec) 
Heartbeat CPU 0 instructions: 332000000 cycles: 3413167269 heartbeat IPC: 0.133433 cumulative IPC: 0.0969897 (Simulation time: 0 hr 44 min 21 sec) 
Heartbeat CPU 0 instructions: 333000000 cycles: 3429711137 heartbeat IPC: 0.0604454 cumulative IPC: 0.0968134 (Simulation time: 0 hr 44 min 31 sec) 
Heartbeat CPU 0 instructions: 334000000 cycles: 3438159765 heartbeat IPC: 0.118362 cumulative IPC: 0.0968664 (Simulation time: 0 hr 44 min 37 sec) 
Heartbeat CPU 0 instructions: 335000000 cycles: 3444765702 heartbeat IPC: 0.151379 cumulative IPC: 0.096971 (Simulation time: 0 hr 44 min 43 sec) 
Heartbeat CPU 0 instructions: 336000002 cycles: 3457576348 heartbeat IPC: 0.0780602 cumulative IPC: 0.0969009 (Simulation time: 0 hr 44 min 51 sec) 
Heartbeat CPU 0 instructions: 337000001 cycles: 3468817291 heartbeat IPC: 0.0889604 cumulative IPC: 0.0968751 (Simulation time: 0 hr 44 min 59 sec) 
Heartbeat CPU 0 instructions: 338000000 cycles: 3475403633 heartbeat IPC: 0.151829 cumulative IPC: 0.0969793 (Simulation time: 0 hr 45 min 4 sec) 
Heartbeat CPU 0 instructions: 339000001 cycles: 3484623731 heartbeat IPC: 0.108459 cumulative IPC: 0.0970097 (Simulation time: 0 hr 45 min 11 sec) 
Heartbeat CPU 0 instructions: 340000001 cycles: 3499397320 heartbeat IPC: 0.0676884 cumulative IPC: 0.0968859 (Simulation time: 0 hr 45 min 20 sec) 
Heartbeat CPU 0 instructions: 341000000 cycles: 3506045391 heartbeat IPC: 0.150419 cumulative IPC: 0.0969874 (Simulation time: 0 hr 45 min 26 sec) 
Heartbeat CPU 0 instructions: 342000002 cycles: 3512548520 heartbeat IPC: 0.153772 cumulative IPC: 0.0970925 (Simulation time: 0 hr 45 min 31 sec) 
Heartbeat CPU 0 instructions: 343000003 cycles: 3529403822 heartbeat IPC: 0.0593286 cumulative IPC: 0.0969122 (Simulation time: 0 hr 45 min 41 sec) 
Heartbeat CPU 0 instructions: 344000000 cycles: 3536749688 heartbeat IPC: 0.136131 cumulative IPC: 0.0969936 (Simulation time: 0 hr 45 min 47 sec) 
Heartbeat CPU 0 instructions: 345000003 cycles: 3543363518 heartbeat IPC: 0.151199 cumulative IPC: 0.0970948 (Simulation time: 0 hr 45 min 53 sec) 
Heartbeat CPU 0 instructions: 346000000 cycles: 3557449666 heartbeat IPC: 0.0709915 cumulative IPC: 0.0969915 (Simulation time: 0 hr 46 min 1 sec) 
Heartbeat CPU 0 instructions: 347000000 cycles: 3567636157 heartbeat IPC: 0.0981692 cumulative IPC: 0.0969948 (Simulation time: 0 hr 46 min 9 sec) 
Heartbeat CPU 0 instructions: 348000002 cycles: 3574294559 heartbeat IPC: 0.150186 cumulative IPC: 0.0970939 (Simulation time: 0 hr 46 min 14 sec) 
Heartbeat CPU 0 instructions: 349000001 cycles: 3586114886 heartbeat IPC: 0.0845999 cumulative IPC: 0.0970527 (Simulation time: 0 hr 46 min 22 sec) 
Heartbeat CPU 0 instructions: 350000002 cycles: 3598826509 heartbeat IPC: 0.0786682 cumulative IPC: 0.0969878 (Simulation time: 0 hr 46 min 31 sec) 
Heartbeat CPU 0 instructions: 351000002 cycles: 3605889972 heartbeat IPC: 0.141574 cumulative IPC: 0.0970751 (Simulation time: 0 hr 46 min 37 sec) 
Heartbeat CPU 0 instructions: 352000000 cycles: 3615491773 heartbeat IPC: 0.104147 cumulative IPC: 0.0970939 (Simulation time: 0 hr 46 min 44 sec) 
Heartbeat CPU 0 instructions: 353000002 cycles: 3630281619 heartbeat IPC: 0.0676141 cumulative IPC: 0.0969738 (Simulation time: 0 hr 46 min 53 sec) 
Heartbeat CPU 0 instructions: 354000000 cycles: 3637149675 heartbeat IPC: 0.145601 cumulative IPC: 0.0970656 (Simulation time: 0 hr 46 min 59 sec) 
Heartbeat CPU 0 instructions: 355000000 cycles: 3644601988 heartbeat IPC: 0.134187 cumulative IPC: 0.0971415 (Simulation time: 0 hr 47 min 5 sec) 
Heartbeat CPU 0 instructions: 356000002 cycles: 3661172947 heartbeat IPC: 0.0603467 cumulative IPC: 0.096975 (Simulation time: 0 hr 47 min 15 sec) 
Heartbeat CPU 0 instructions: 357000000 cycles: 3668274871 heartbeat IPC: 0.140807 cumulative IPC: 0.0970599 (Simulation time: 0 hr 47 min 21 sec) 
Heartbeat CPU 0 instructions: 358000001 cycles: 3674741482 heartbeat IPC: 0.154641 cumulative IPC: 0.0971612 (Simulation time: 0 hr 47 min 26 sec) 
Heartbeat CPU 0 instructions: 359000002 cycles: 3688861878 heartbeat IPC: 0.0708196 cumulative IPC: 0.0970604 (Simulation time: 0 hr 47 min 35 sec) 
Heartbeat CPU 0 instructions: 360000000 cycles: 3700360940 heartbeat IPC: 0.0869634 cumulative IPC: 0.097029 (Simulation time: 0 hr 47 min 42 sec) 
Heartbeat CPU 0 instructions: 361000000 cycles: 3707753558 heartbeat IPC: 0.13527 cumulative IPC: 0.0971052 (Simulation time: 0 hr 47 min 49 sec) 
Heartbeat CPU 0 instructions: 362000002 cycles: 3715814458 heartbeat IPC: 0.124056 cumulative IPC: 0.0971637 (Simulation time: 0 hr 47 min 55 sec) 
Heartbeat CPU 0 instructions: 363000000 cycles: 3731594820 heartbeat IPC: 0.0633698 cumulative IPC: 0.0970208 (Simulation time: 0 hr 48 min 5 sec) 
Heartbeat CPU 0 instructions: 364000000 cycles: 3738209723 heartbeat IPC: 0.151174 cumulative IPC: 0.0971166 (Simulation time: 0 hr 48 min 10 sec) 
Heartbeat CPU 0 instructions: 365000000 cycles: 3744646192 heartbeat IPC: 0.155365 cumulative IPC: 0.0972167 (Simulation time: 0 hr 48 min 16 sec) 
Heartbeat CPU 0 instructions: 366000002 cycles: 3759292894 heartbeat IPC: 0.0682749 cumulative IPC: 0.097104 (Simulation time: 0 hr 48 min 25 sec) 
Heartbeat CPU 0 instructions: 367000002 cycles: 3768880646 heartbeat IPC: 0.1043 cumulative IPC: 0.0971223 (Simulation time: 0 hr 48 min 32 sec) 
Heartbeat CPU 0 instructions: 368000002 cycles: 3775323570 heartbeat IPC: 0.155209 cumulative IPC: 0.0972214 (Simulation time: 0 hr 48 min 37 sec) 
Heartbeat CPU 0 instructions: 369000001 cycles: 3785613795 heartbeat IPC: 0.0971795 cumulative IPC: 0.0972213 (Simulation time: 0 hr 48 min 44 sec) 
Heartbeat CPU 0 instructions: 370000000 cycles: 3799351380 heartbeat IPC: 0.0727929 cumulative IPC: 0.097133 (Simulation time: 0 hr 48 min 53 sec) 
Heartbeat CPU 0 instructions: 371000002 cycles: 3806540758 heartbeat IPC: 0.139094 cumulative IPC: 0.0972122 (Simulation time: 0 hr 48 min 59 sec) 
Heartbeat CPU 0 instructions: 372000000 cycles: 3816882536 heartbeat IPC: 0.096695 cumulative IPC: 0.0972108 (Simulation time: 0 hr 49 min 6 sec) 
Heartbeat CPU 0 instructions: 373000003 cycles: 3828129379 heartbeat IPC: 0.0889141 cumulative IPC: 0.0971864 (Simulation time: 0 hr 49 min 13 sec) 
Heartbeat CPU 0 instructions: 374000000 cycles: 3841439575 heartbeat IPC: 0.0751301 cumulative IPC: 0.09711 (Simulation time: 0 hr 49 min 21 sec) 
Heartbeat CPU 0 instructions: 375000001 cycles: 3849056321 heartbeat IPC: 0.13129 cumulative IPC: 0.0971777 (Simulation time: 0 hr 49 min 26 sec) 
Heartbeat CPU 0 instructions: 376000000 cycles: 3855678242 heartbeat IPC: 0.151013 cumulative IPC: 0.0972701 (Simulation time: 0 hr 49 min 31 sec) 
Heartbeat CPU 0 instructions: 377000000 cycles: 3868677976 heartbeat IPC: 0.0769247 cumulative IPC: 0.0972018 (Simulation time: 0 hr 49 min 38 sec) 
Heartbeat CPU 0 instructions: 378000001 cycles: 3879986898 heartbeat IPC: 0.0884258 cumulative IPC: 0.0971762 (Simulation time: 0 hr 49 min 46 sec) 
Heartbeat CPU 0 instructions: 379000000 cycles: 3888360072 heartbeat IPC: 0.119429 cumulative IPC: 0.0972241 (Simulation time: 0 hr 49 min 51 sec) 
Heartbeat CPU 0 instructions: 380000003 cycles: 3894923034 heartbeat IPC: 0.152371 cumulative IPC: 0.097317 (Simulation time: 0 hr 49 min 57 sec) 
Heartbeat CPU 0 instructions: 381000003 cycles: 3911228228 heartbeat IPC: 0.0613302 cumulative IPC: 0.097167 (Simulation time: 0 hr 50 min 7 sec) 
Heartbeat CPU 0 instructions: 382000000 cycles: 3919197439 heartbeat IPC: 0.125483 cumulative IPC: 0.0972246 (Simulation time: 0 hr 50 min 14 sec) 
Heartbeat CPU 0 instructions: 383000000 cycles: 3925415216 heartbeat IPC: 0.160829 cumulative IPC: 0.0973253 (Simulation time: 0 hr 50 min 20 sec) 
Heartbeat CPU 0 instructions: 384000000 cycles: 3937346040 heartbeat IPC: 0.0838165 cumulative IPC: 0.0972844 (Simulation time: 0 hr 50 min 27 sec) 
Heartbeat CPU 0 instructions: 385000000 cycles: 3949312433 heartbeat IPC: 0.0835674 cumulative IPC: 0.0972428 (Simulation time: 0 hr 50 min 36 sec) 
Heartbeat CPU 0 instructions: 386000001 cycles: 3955541718 heartbeat IPC: 0.160532 cumulative IPC: 0.0973425 (Simulation time: 0 hr 50 min 41 sec) 
Heartbeat CPU 0 instructions: 387000003 cycles: 3963182415 heartbeat IPC: 0.130878 cumulative IPC: 0.0974072 (Simulation time: 0 hr 50 min 47 sec) 
Heartbeat CPU 0 instructions: 388000002 cycles: 3979172318 heartbeat IPC: 0.0625394 cumulative IPC: 0.097267 (Simulation time: 0 hr 50 min 57 sec) 
Heartbeat CPU 0 instructions: 389000002 cycles: 3985660660 heartbeat IPC: 0.154123 cumulative IPC: 0.0973596 (Simulation time: 0 hr 51 min 3 sec) 
Heartbeat CPU 0 instructions: 390000003 cycles: 3992055953 heartbeat IPC: 0.156365 cumulative IPC: 0.0974542 (Simulation time: 0 hr 51 min 9 sec) 
Heartbeat CPU 0 instructions: 391000003 cycles: 4006570248 heartbeat IPC: 0.0688976 cumulative IPC: 0.0973507 (Simulation time: 0 hr 51 min 18 sec) 
Heartbeat CPU 0 instructions: 392000000 cycles: 4015944696 heartbeat IPC: 0.106673 cumulative IPC: 0.0973724 (Simulation time: 0 hr 51 min 25 sec) 
Heartbeat CPU 0 instructions: 393000003 cycles: 4022069770 heartbeat IPC: 0.163264 cumulative IPC: 0.0974728 (Simulation time: 0 hr 51 min 31 sec) 
Heartbeat CPU 0 instructions: 394000003 cycles: 4032178500 heartbeat IPC: 0.0989244 cumulative IPC: 0.0974764 (Simulation time: 0 hr 51 min 38 sec) 
Heartbeat CPU 0 instructions: 395000000 cycles: 4045761602 heartbeat IPC: 0.0736207 cumulative IPC: 0.0973963 (Simulation time: 0 hr 51 min 47 sec) 
Heartbeat CPU 0 instructions: 396000000 cycles: 4052099863 heartbeat IPC: 0.157772 cumulative IPC: 0.0974908 (Simulation time: 0 hr 51 min 53 sec) 
Heartbeat CPU 0 instructions: 397000000 cycles: 4058759816 heartbeat IPC: 0.150151 cumulative IPC: 0.0975772 (Simulation time: 0 hr 51 min 58 sec) 
Heartbeat CPU 0 instructions: 398000002 cycles: 4074379116 heartbeat IPC: 0.0640235 cumulative IPC: 0.0974486 (Simulation time: 0 hr 52 min 7 sec) 
Heartbeat CPU 0 instructions: 399000002 cycles: 4083209307 heartbeat IPC: 0.113248 cumulative IPC: 0.0974827 (Simulation time: 0 hr 52 min 14 sec) 
Heartbeat CPU 0 instructions: 400000000 cycles: 4089608370 heartbeat IPC: 0.156273 cumulative IPC: 0.0975747 (Simulation time: 0 hr 52 min 19 sec) 
Heartbeat CPU 0 instructions: 401000002 cycles: 4097698908 heartbeat IPC: 0.123601 cumulative IPC: 0.0976261 (Simulation time: 0 hr 52 min 24 sec) 
Heartbeat CPU 0 instructions: 402000001 cycles: 4113591098 heartbeat IPC: 0.0629239 cumulative IPC: 0.0974921 (Simulation time: 0 hr 52 min 34 sec) 
Heartbeat CPU 0 instructions: 403000000 cycles: 4120214925 heartbeat IPC: 0.15097 cumulative IPC: 0.097578 (Simulation time: 0 hr 52 min 39 sec) 
Heartbeat CPU 0 instructions: 404000000 cycles: 4126709739 heartbeat IPC: 0.153969 cumulative IPC: 0.0976668 (Simulation time: 0 hr 52 min 44 sec) 
Heartbeat CPU 0 instructions: 405000002 cycles: 4137924312 heartbeat IPC: 0.0891699 cumulative IPC: 0.0976438 (Simulation time: 0 hr 52 min 51 sec) 
Heartbeat CPU 0 instructions: 406000000 cycles: 4151020332 heartbeat IPC: 0.0763589 cumulative IPC: 0.0975766 (Simulation time: 0 hr 52 min 59 sec) 
Heartbeat CPU 0 instructions: 407000000 cycles: 4157735892 heartbeat IPC: 0.148908 cumulative IPC: 0.0976595 (Simulation time: 0 hr 53 min 4 sec) 
Heartbeat CPU 0 instructions: 408000000 cycles: 4167831168 heartbeat IPC: 0.0990562 cumulative IPC: 0.0976629 (Simulation time: 0 hr 53 min 11 sec) 
Heartbeat CPU 0 instructions: 409000002 cycles: 4181655299 heartbeat IPC: 0.0723374 cumulative IPC: 0.0975792 (Simulation time: 0 hr 53 min 20 sec) 
Heartbeat CPU 0 instructions: 410000000 cycles: 4193038911 heartbeat IPC: 0.0878454 cumulative IPC: 0.0975527 (Simulation time: 0 hr 53 min 28 sec) 
Heartbeat CPU 0 instructions: 411000000 cycles: 4199857867 heartbeat IPC: 0.14665 cumulative IPC: 0.0976325 (Simulation time: 0 hr 53 min 33 sec) 
Heartbeat CPU 0 instructions: 412000000 cycles: 4208766679 heartbeat IPC: 0.112248 cumulative IPC: 0.0976634 (Simulation time: 0 hr 53 min 40 sec) 
Heartbeat CPU 0 instructions: 413000000 cycles: 4224333306 heartbeat IPC: 0.06424 cumulative IPC: 0.0975402 (Simulation time: 0 hr 53 min 49 sec) 
Heartbeat CPU 0 instructions: 414000002 cycles: 4231000272 heartbeat IPC: 0.149994 cumulative IPC: 0.0976229 (Simulation time: 0 hr 53 min 55 sec) 
Heartbeat CPU 0 instructions: 415000003 cycles: 4237352953 heartbeat IPC: 0.157414 cumulative IPC: 0.0977125 (Simulation time: 0 hr 54 min 0 sec) 
Heartbeat CPU 0 instructions: 416000001 cycles: 4251322008 heartbeat IPC: 0.0715867 cumulative IPC: 0.0976267 (Simulation time: 0 hr 54 min 9 sec) 
Heartbeat CPU 0 instructions: 417000000 cycles: 4261549937 heartbeat IPC: 0.0977714 cumulative IPC: 0.097627 (Simulation time: 0 hr 54 min 17 sec) 
Heartbeat CPU 0 instructions: 418000000 cycles: 4268286522 heartbeat IPC: 0.148443 cumulative IPC: 0.0977072 (Simulation time: 0 hr 54 min 23 sec) 
Heartbeat CPU 0 instructions: 419000003 cycles: 4279151643 heartbeat IPC: 0.0920379 cumulative IPC: 0.0976929 (Simulation time: 0 hr 54 min 31 sec) 
Heartbeat CPU 0 instructions: 420000000 cycles: 4292396772 heartbeat IPC: 0.0754992 cumulative IPC: 0.0976244 (Simulation time: 0 hr 54 min 40 sec) 
Heartbeat CPU 0 instructions: 421000000 cycles: 4299074288 heartbeat IPC: 0.149756 cumulative IPC: 0.0977053 (Simulation time: 0 hr 54 min 47 sec) 
Heartbeat CPU 0 instructions: 422000001 cycles: 4307129061 heartbeat IPC: 0.12415 cumulative IPC: 0.0977548 (Simulation time: 0 hr 54 min 54 sec) 
Heartbeat CPU 0 instructions: 423000001 cycles: 4324651904 heartbeat IPC: 0.0570684 cumulative IPC: 0.0975899 (Simulation time: 0 hr 55 min 4 sec) 
Heartbeat CPU 0 instructions: 424000002 cycles: 4333839970 heartbeat IPC: 0.108837 cumulative IPC: 0.0976138 (Simulation time: 0 hr 55 min 12 sec) 
Heartbeat CPU 0 instructions: 425000000 cycles: 4340187251 heartbeat IPC: 0.157547 cumulative IPC: 0.0977014 (Simulation time: 0 hr 55 min 18 sec) 
Heartbeat CPU 0 instructions: 426000000 cycles: 4352853603 heartbeat IPC: 0.0789493 cumulative IPC: 0.0976469 (Simulation time: 0 hr 55 min 27 sec) 
Heartbeat CPU 0 instructions: 427000000 cycles: 4364127706 heartbeat IPC: 0.0886988 cumulative IPC: 0.0976237 (Simulation time: 0 hr 55 min 35 sec) 
Heartbeat CPU 0 instructions: 428000000 cycles: 4370505732 heartbeat IPC: 0.156788 cumulative IPC: 0.0977101 (Simulation time: 0 hr 55 min 41 sec) 
Heartbeat CPU 0 instructions: 429000000 cycles: 4379245145 heartbeat IPC: 0.114424 cumulative IPC: 0.0977435 (Simulation time: 0 hr 55 min 47 sec) 
Heartbeat CPU 0 instructions: 430000001 cycles: 4395205352 heartbeat IPC: 0.0626559 cumulative IPC: 0.097616 (Simulation time: 0 hr 55 min 57 sec) 
Heartbeat CPU 0 instructions: 431000001 cycles: 4402072853 heartbeat IPC: 0.145613 cumulative IPC: 0.0976909 (Simulation time: 0 hr 56 min 3 sec) 
Heartbeat CPU 0 instructions: 432000000 cycles: 4408641722 heartbeat IPC: 0.152233 cumulative IPC: 0.0977722 (Simulation time: 0 hr 56 min 7 sec) 
Heartbeat CPU 0 instructions: 433000000 cycles: 4421874271 heartbeat IPC: 0.0755712 cumulative IPC: 0.0977057 (Simulation time: 0 hr 56 min 15 sec) 
Heartbeat CPU 0 instructions: 434000002 cycles: 4433093820 heartbeat IPC: 0.0891303 cumulative IPC: 0.097684 (Simulation time: 0 hr 56 min 23 sec) 
Heartbeat CPU 0 instructions: 435000003 cycles: 4439956329 heartbeat IPC: 0.145719 cumulative IPC: 0.0977583 (Simulation time: 0 hr 56 min 28 sec) 
Heartbeat CPU 0 instructions: 436000000 cycles: 4448974730 heartbeat IPC: 0.110884 cumulative IPC: 0.0977849 (Simulation time: 0 hr 56 min 33 sec) 
Heartbeat CPU 0 instructions: 437000001 cycles: 4465650208 heartbeat IPC: 0.0599684 cumulative IPC: 0.0976437 (Simulation time: 0 hr 56 min 43 sec) 
Heartbeat CPU 0 instructions: 438000000 cycles: 4472957359 heartbeat IPC: 0.136852 cumulative IPC: 0.0977077 (Simulation time: 0 hr 56 min 49 sec) 
Heartbeat CPU 0 instructions: 439000002 cycles: 4479947690 heartbeat IPC: 0.143055 cumulative IPC: 0.0977785 (Simulation time: 0 hr 56 min 54 sec) 
Heartbeat CPU 0 instructions: 440000000 cycles: 4493464192 heartbeat IPC: 0.0739835 cumulative IPC: 0.0977069 (Simulation time: 0 hr 57 min 2 sec) 
Heartbeat CPU 0 instructions: 441000001 cycles: 4504439590 heartbeat IPC: 0.091113 cumulative IPC: 0.0976909 (Simulation time: 0 hr 57 min 9 sec) 
Heartbeat CPU 0 instructions: 442000000 cycles: 4511934310 heartbeat IPC: 0.133427 cumulative IPC: 0.0977502 (Simulation time: 0 hr 57 min 14 sec) 
Heartbeat CPU 0 instructions: 443000003 cycles: 4520984041 heartbeat IPC: 0.110501 cumulative IPC: 0.0977757 (Simulation time: 0 hr 57 min 21 sec) 
Heartbeat CPU 0 instructions: 444000003 cycles: 4536366392 heartbeat IPC: 0.0650096 cumulative IPC: 0.0976646 (Simulation time: 0 hr 57 min 31 sec) 
Heartbeat CPU 0 instructions: 445000000 cycles: 4543171017 heartbeat IPC: 0.146958 cumulative IPC: 0.0977385 (Simulation time: 0 hr 57 min 37 sec) 
Heartbeat CPU 0 instructions: 446000003 cycles: 4551913582 heartbeat IPC: 0.114383 cumulative IPC: 0.0977704 (Simulation time: 0 hr 57 min 43 sec) 
Heartbeat CPU 0 instructions: 447000000 cycles: 4567383022 heartbeat IPC: 0.0646434 cumulative IPC: 0.0976582 (Simulation time: 0 hr 57 min 52 sec) 
Heartbeat CPU 0 instructions: 448000002 cycles: 4577448128 heartbeat IPC: 0.0993534 cumulative IPC: 0.0976619 (Simulation time: 0 hr 57 min 59 sec) 
Heartbeat CPU 0 instructions: 449000002 cycles: 4588047697 heartbeat IPC: 0.0943435 cumulative IPC: 0.0976543 (Simulation time: 0 hr 58 min 7 sec) 
Heartbeat CPU 0 instructions: 450000002 cycles: 4598540473 heartbeat IPC: 0.0953037 cumulative IPC: 0.0976489 (Simulation time: 0 hr 58 min 14 sec) 

Warmup complete CPU 0 instructions: 450000002 cycles: 4598540473 (Simulation time: 0 hr 58 min 14 sec) 

Heartbeat CPU 0 instructions: 451000000 cycles: 4608715346 heartbeat IPC: 0.0982811 cumulative IPC: 0.0982811 (Simulation time: 0 hr 58 min 22 sec) 
Heartbeat CPU 0 instructions: 452000003 cycles: 4618267278 heartbeat IPC: 0.104691 cumulative IPC: 0.101385 (Simulation time: 0 hr 58 min 29 sec) 
Heartbeat CPU 0 instructions: 453000000 cycles: 4624910107 heartbeat IPC: 0.150538 cumulative IPC: 0.113767 (Simulation time: 0 hr 58 min 35 sec) 
Heartbeat CPU 0 instructions: 454000003 cycles: 4635318396 heartbeat IPC: 0.0960776 cumulative IPC: 0.108761 (Simulation time: 0 hr 58 min 42 sec) 
Heartbeat CPU 0 instructions: 455000001 cycles: 4642955605 heartbeat IPC: 0.130938 cumulative IPC: 0.112574 (Simulation time: 0 hr 58 min 49 sec) 
Heartbeat CPU 0 instructions: 456000000 cycles: 4649382349 heartbeat IPC: 0.1556 cumulative IPC: 0.118013 (Simulation time: 0 hr 58 min 55 sec) 
Heartbeat CPU 0 instructions: 457000002 cycles: 4658868122 heartbeat IPC: 0.105421 cumulative IPC: 0.116033 (Simulation time: 0 hr 59 min 1 sec) 
Heartbeat CPU 0 instructions: 458000002 cycles: 4667336749 heartbeat IPC: 0.118083 cumulative IPC: 0.116285 (Simulation time: 0 hr 59 min 8 sec) 
Heartbeat CPU 0 instructions: 459000002 cycles: 4673653291 heartbeat IPC: 0.158314 cumulative IPC: 0.11982 (Simulation time: 0 hr 59 min 14 sec) 
Heartbeat CPU 0 instructions: 460000000 cycles: 4681876041 heartbeat IPC: 0.121614 cumulative IPC: 0.119997 (Simulation time: 0 hr 59 min 20 sec) 
Heartbeat CPU 0 instructions: 461000002 cycles: 4691462795 heartbeat IPC: 0.104311 cumulative IPC: 0.118378 (Simulation time: 0 hr 59 min 28 sec) 
Heartbeat CPU 0 instructions: 462000000 cycles: 4697733019 heartbeat IPC: 0.159484 cumulative IPC: 0.120977 (Simulation time: 0 hr 59 min 33 sec) 
Heartbeat CPU 0 instructions: 463000000 cycles: 4704603037 heartbeat IPC: 0.14556 cumulative IPC: 0.122569 (Simulation time: 0 hr 59 min 39 sec) 
Heartbeat CPU 0 instructions: 464000002 cycles: 4715335645 heartbeat IPC: 0.0931742 cumulative IPC: 0.119868 (Simulation time: 0 hr 59 min 47 sec) 
Heartbeat CPU 0 instructions: 465000000 cycles: 4722851561 heartbeat IPC: 0.133051 cumulative IPC: 0.120665 (Simulation time: 0 hr 59 min 53 sec) 
Heartbeat CPU 0 instructions: 466000001 cycles: 4732395444 heartbeat IPC: 0.104779 cumulative IPC: 0.119532 (Simulation time: 1 hr 0 min 1 sec) 
Heartbeat CPU 0 instructions: 467000000 cycles: 4741225293 heartbeat IPC: 0.113252 cumulative IPC: 0.119144 (Simulation time: 1 hr 0 min 7 sec) 
Heartbeat CPU 0 instructions: 468000001 cycles: 4750516305 heartbeat IPC: 0.107631 cumulative IPC: 0.11844 (Simulation time: 1 hr 0 min 14 sec) 
Heartbeat CPU 0 instructions: 469000003 cycles: 4758130461 heartbeat IPC: 0.131335 cumulative IPC: 0.119055 (Simulation time: 1 hr 0 min 20 sec) 
Heartbeat CPU 0 instructions: 470000003 cycles: 4765323767 heartbeat IPC: 0.139018 cumulative IPC: 0.119916 (Simulation time: 1 hr 0 min 26 sec) 
Heartbeat CPU 0 instructions: 471000001 cycles: 4775683743 heartbeat IPC: 0.0965251 cumulative IPC: 0.118548 (Simulation time: 1 hr 0 min 33 sec) 
Heartbeat CPU 0 instructions: 472000001 cycles: 4783496925 heartbeat IPC: 0.127989 cumulative IPC: 0.118947 (Simulation time: 1 hr 0 min 40 sec) 
Heartbeat CPU 0 instructions: 473000000 cycles: 4793127181 heartbeat IPC: 0.103839 cumulative IPC: 0.118199 (Simulation time: 1 hr 0 min 47 sec) 
Heartbeat CPU 0 instructions: 474000001 cycles: 4801015010 heartbeat IPC: 0.126778 cumulative IPC: 0.118533 (Simulation time: 1 hr 0 min 53 sec) 
Heartbeat CPU 0 instructions: 475000000 cycles: 4811160192 heartbeat IPC: 0.0985689 cumulative IPC: 0.117581 (Simulation time: 1 hr 1 min 1 sec) 
Heartbeat CPU 0 instructions: 476000001 cycles: 4817537642 heartbeat IPC: 0.156803 cumulative IPC: 0.118723 (Simulation time: 1 hr 1 min 7 sec) 
Heartbeat CPU 0 instructions: 477000002 cycles: 4824163550 heartbeat IPC: 0.150923 cumulative IPC: 0.119669 (Simulation time: 1 hr 1 min 12 sec) 
Heartbeat CPU 0 instructions: 478000002 cycles: 4835225507 heartbeat IPC: 0.0903999 cumulative IPC: 0.118301 (Simulation time: 1 hr 1 min 20 sec) 
Heartbeat CPU 0 instructions: 479000001 cycles: 4841682260 heartbeat IPC: 0.154876 cumulative IPC: 0.119272 (Simulation time: 1 hr 1 min 26 sec) 
Heartbeat CPU 0 instructions: 480000000 cycles: 4850999613 heartbeat IPC: 0.107327 cumulative IPC: 0.118831 (Simulation time: 1 hr 1 min 33 sec) 
Heartbeat CPU 0 instructions: 481000003 cycles: 4860366664 heartbeat IPC: 0.106758 cumulative IPC: 0.118399 (Simulation time: 1 hr 1 min 40 sec) 
Heartbeat CPU 0 instructions: 482000000 cycles: 4870356889 heartbeat IPC: 0.100098 cumulative IPC: 0.117727 (Simulation time: 1 hr 1 min 48 sec) 
Heartbeat CPU 0 instructions: 483000000 cycles: 4877725126 heartbeat IPC: 0.135718 cumulative IPC: 0.118201 (Simulation time: 1 hr 1 min 54 sec) 
Heartbeat CPU 0 instructions: 484000000 cycles: 4887715455 heartbeat IPC: 0.100097 cumulative IPC: 0.117576 (Simulation time: 1 hr 2 min 1 sec) 
Heartbeat CPU 0 instructions: 485000000 cycles: 4897707788 heartbeat IPC: 0.100077 cumulative IPC: 0.116991 (Simulation time: 1 hr 2 min 8 sec) 
Heartbeat CPU 0 instructions: 486000000 cycles: 4905629488 heartbeat IPC: 0.126236 cumulative IPC: 0.11723 (Simulation time: 1 hr 2 min 15 sec) 
Heartbeat CPU 0 instructions: 487000002 cycles: 4912180349 heartbeat IPC: 0.152652 cumulative IPC: 0.11797 (Simulation time: 1 hr 2 min 21 sec) 
Heartbeat CPU 0 instructions: 488000000 cycles: 4921263949 heartbeat IPC: 0.110088 cumulative IPC: 0.117748 (Simulation time: 1 hr 2 min 27 sec) 
Heartbeat CPU 0 instructions: 489000000 cycles: 4930365559 heartbeat IPC: 0.109871 cumulative IPC: 0.117532 (Simulation time: 1 hr 2 min 34 sec) 
Heartbeat CPU 0 instructions: 490000001 cycles: 4936762449 heartbeat IPC: 0.156326 cumulative IPC: 0.118266 (Simulation time: 1 hr 2 min 40 sec) 
Heartbeat CPU 0 instructions: 491000000 cycles: 4944899579 heartbeat IPC: 0.122893 cumulative IPC: 0.118374 (Simulation time: 1 hr 2 min 47 sec) 
Heartbeat CPU 0 instructions: 492000003 cycles: 4954885888 heartbeat IPC: 0.100137 cumulative IPC: 0.117863 (Simulation time: 1 hr 2 min 54 sec) 
Heartbeat CPU 0 instructions: 493000000 cycles: 4961800814 heartbeat IPC: 0.144614 cumulative IPC: 0.118372 (Simulation time: 1 hr 3 min 0 sec) 
Heartbeat CPU 0 instructions: 494000002 cycles: 4968710237 heartbeat IPC: 0.14473 cumulative IPC: 0.118864 (Simulation time: 1 hr 3 min 6 sec) 
Heartbeat CPU 0 instructions: 495000000 cycles: 4979560308 heartbeat IPC: 0.0921651 cumulative IPC: 0.118104 (Simulation time: 1 hr 3 min 14 sec) 
Heartbeat CPU 0 instructions: 496000001 cycles: 4986213242 heartbeat IPC: 0.15031 cumulative IPC: 0.118657 (Simulation time: 1 hr 3 min 20 sec) 
Heartbeat CPU 0 instructions: 497000001 cycles: 4992696605 heartbeat IPC: 0.154241 cumulative IPC: 0.119242 (Simulation time: 1 hr 3 min 26 sec) 
Heartbeat CPU 0 instructions: 498000000 cycles: 5003174658 heartbeat IPC: 0.0954375 cumulative IPC: 0.118626 (Simulation time: 1 hr 3 min 33 sec) 
Heartbeat CPU 0 instructions: 499000000 cycles: 5011523750 heartbeat IPC: 0.119774 cumulative IPC: 0.118649 (Simulation time: 1 hr 3 min 40 sec) 
Heartbeat CPU 0 instructions: 500000000 cycles: 5018465402 heartbeat IPC: 0.144058 cumulative IPC: 0.119069 (Simulation time: 1 hr 3 min 46 sec) 
Heartbeat CPU 0 instructions: 501000001 cycles: 5027176118 heartbeat IPC: 0.114801 cumulative IPC: 0.118982 (Simulation time: 1 hr 3 min 52 sec) 
Heartbeat CPU 0 instructions: 502000002 cycles: 5036270677 heartbeat IPC: 0.109956 cumulative IPC: 0.118795 (Simulation time: 1 hr 3 min 59 sec) 
Heartbeat CPU 0 instructions: 503000001 cycles: 5042533085 heartbeat IPC: 0.159683 cumulative IPC: 0.119371 (Simulation time: 1 hr 4 min 5 sec) 
Heartbeat CPU 0 instructions: 504000000 cycles: 5050228583 heartbeat IPC: 0.129946 cumulative IPC: 0.119552 (Simulation time: 1 hr 4 min 11 sec) 
Heartbeat CPU 0 instructions: 505000001 cycles: 5060281820 heartbeat IPC: 0.0994705 cumulative IPC: 0.119114 (Simulation time: 1 hr 4 min 19 sec) 
Heartbeat CPU 0 instructions: 506000000 cycles: 5066728784 heartbeat IPC: 0.155112 cumulative IPC: 0.11961 (Simulation time: 1 hr 4 min 24 sec) 
Heartbeat CPU 0 instructions: 507000001 cycles: 5073534008 heartbeat IPC: 0.146946 cumulative IPC: 0.120002 (Simulation time: 1 hr 4 min 30 sec) 
Heartbeat CPU 0 instructions: 508000002 cycles: 5084283681 heartbeat IPC: 0.0930262 cumulative IPC: 0.119405 (Simulation time: 1 hr 4 min 38 sec) 
Heartbeat CPU 0 instructions: 509000001 cycles: 5090837716 heartbeat IPC: 0.152578 cumulative IPC: 0.119846 (Simulation time: 1 hr 4 min 44 sec) 
Heartbeat CPU 0 instructions: 510000002 cycles: 5098873254 heartbeat IPC: 0.124447 cumulative IPC: 0.11992 (Simulation time: 1 hr 4 min 50 sec) 
Heartbeat CPU 0 instructions: 511000000 cycles: 5108778873 heartbeat IPC: 0.100953 cumulative IPC: 0.119552 (Simulation time: 1 hr 4 min 57 sec) 
Heartbeat CPU 0 instructions: 512000000 cycles: 5117005297 heartbeat IPC: 0.12156 cumulative IPC: 0.119584 (Simulation time: 1 hr 5 min 4 sec) 
Heartbeat CPU 0 instructions: 513000000 cycles: 5123780686 heartbeat IPC: 0.147593 cumulative IPC: 0.119945 (Simulation time: 1 hr 5 min 9 sec) 
Heartbeat CPU 0 instructions: 514000000 cycles: 5131698803 heartbeat IPC: 0.126293 cumulative IPC: 0.120039 (Simulation time: 1 hr 5 min 15 sec) 
Heartbeat CPU 0 instructions: 515000002 cycles: 5141910586 heartbeat IPC: 0.0979263 cumulative IPC: 0.119624 (Simulation time: 1 hr 5 min 22 sec) 
Heartbeat CPU 0 instructions: 516000000 cycles: 5148921468 heartbeat IPC: 0.142635 cumulative IPC: 0.119917 (Simulation time: 1 hr 5 min 27 sec) 
Heartbeat CPU 0 instructions: 517000000 cycles: 5155822349 heartbeat IPC: 0.144909 cumulative IPC: 0.120226 (Simulation time: 1 hr 5 min 32 sec) 
Heartbeat CPU 0 instructions: 518000002 cycles: 5165710807 heartbeat IPC: 0.101128 cumulative IPC: 0.119893 (Simulation time: 1 hr 5 min 38 sec) 
Heartbeat CPU 0 instructions: 519000001 cycles: 5174589813 heartbeat IPC: 0.112625 cumulative IPC: 0.119781 (Simulation time: 1 hr 5 min 44 sec) 
Heartbeat CPU 0 instructions: 520000002 cycles: 5181424444 heartbeat IPC: 0.146314 cumulative IPC: 0.120093 (Simulation time: 1 hr 5 min 49 sec) 
Heartbeat CPU 0 instructions: 521000003 cycles: 5188569700 heartbeat IPC: 0.139953 cumulative IPC: 0.120333 (Simulation time: 1 hr 5 min 53 sec) 
Heartbeat CPU 0 instructions: 522000001 cycles: 5199724604 heartbeat IPC: 0.0896465 cumulative IPC: 0.119764 (Simulation time: 1 hr 6 min 1 sec) 
Heartbeat CPU 0 instructions: 523000000 cycles: 5207199137 heartbeat IPC: 0.133787 cumulative IPC: 0.119936 (Simulation time: 1 hr 6 min 6 sec) 
Heartbeat CPU 0 instructions: 524000000 cycles: 5214156271 heartbeat IPC: 0.143737 cumulative IPC: 0.120205 (Simulation time: 1 hr 6 min 10 sec) 
Heartbeat CPU 0 instructions: 525000001 cycles: 5222950003 heartbeat IPC: 0.113717 cumulative IPC: 0.120113 (Simulation time: 1 hr 6 min 16 sec) 
Heartbeat CPU 0 instructions: 526000001 cycles: 5232709114 heartbeat IPC: 0.102468 cumulative IPC: 0.119842 (Simulation time: 1 hr 6 min 23 sec) 
Heartbeat CPU 0 instructions: 527000002 cycles: 5239694714 heartbeat IPC: 0.143152 cumulative IPC: 0.120096 (Simulation time: 1 hr 6 min 28 sec) 
Heartbeat CPU 0 instructions: 528000000 cycles: 5246562623 heartbeat IPC: 0.145604 cumulative IPC: 0.120366 (Simulation time: 1 hr 6 min 32 sec) 
Heartbeat CPU 0 instructions: 529000001 cycles: 5257473077 heartbeat IPC: 0.0916553 cumulative IPC: 0.119891 (Simulation time: 1 hr 6 min 39 sec) 
Heartbeat CPU 0 instructions: 530000003 cycles: 5266301470 heartbeat IPC: 0.113271 cumulative IPC: 0.119803 (Simulation time: 1 hr 6 min 46 sec) 
Heartbeat CPU 0 instructions: 531000002 cycles: 5272864382 heartbeat IPC: 0.152371 cumulative IPC: 0.12012 (Simulation time: 1 hr 6 min 51 sec) 
Heartbeat CPU 0 instructions: 532000000 cycles: 5280934501 heartbeat IPC: 0.123914 cumulative IPC: 0.120165 (Simulation time: 1 hr 6 min 57 sec) 
Heartbeat CPU 0 instructions: 533000002 cycles: 5290977484 heartbeat IPC: 0.0995722 cumulative IPC: 0.119866 (Simulation time: 1 hr 7 min 5 sec) 
Heartbeat CPU 0 instructions: 534000000 cycles: 5297457308 heartbeat IPC: 0.154325 cumulative IPC: 0.120186 (Simulation time: 1 hr 7 min 10 sec) 
Heartbeat CPU 0 instructions: 535000003 cycles: 5304223947 heartbeat IPC: 0.147784 cumulative IPC: 0.120451 (Simulation time: 1 hr 7 min 16 sec) 
Heartbeat CPU 0 instructions: 536000002 cycles: 5315289525 heartbeat IPC: 0.0903702 cumulative IPC: 0.119986 (Simulation time: 1 hr 7 min 23 sec) 
Heartbeat CPU 0 instructions: 537000001 cycles: 5322126035 heartbeat IPC: 0.146273 cumulative IPC: 0.120235 (Simulation time: 1 hr 7 min 29 sec) 
Heartbeat CPU 0 instructions: 538000000 cycles: 5328681598 heartbeat IPC: 0.152542 cumulative IPC: 0.120525 (Simulation time: 1 hr 7 min 35 sec) 
Heartbeat CPU 0 instructions: 539000000 cycles: 5339121560 heartbeat IPC: 0.0957858 cumulative IPC: 0.120176 (Simulation time: 1 hr 7 min 42 sec) 
[...]
Heartbeat CPU 0 instructions: 835000000 cycles: 7718229078 heartbeat IPC: 0.0923706 cumulative IPC: 0.12341 (Simulation time: 1 hr 39 min 12 sec) 
Heartbeat CPU 0 instructions: 836000000 cycles: 7724469598 heartbeat IPC: 0.160243 cumulative IPC: 0.123483 (Simulation time: 1 hr 39 min 18 sec) 
Heartbeat CPU 0 instructions: 837000000 cycles: 7730325596 heartbeat IPC: 0.170765 cumulative IPC: 0.123572 (Simulation time: 1 hr 39 min 23 sec) 
Heartbeat CPU 0 instructions: 838000000 cycles: 7738613197 heartbeat IPC: 0.120662 cumulative IPC: 0.123564 (Simulation time: 1 hr 39 min 29 sec) 
Heartbeat CPU 0 instructions: 839000000 cycles: 7747733761 heartbeat IPC: 0.109642 cumulative IPC: 0.123524 (Simulation time: 1 hr 39 min 36 sec) 
Heartbeat CPU 0 instructions: 840000003 cycles: 7753653442 heartbeat IPC: 0.168929 cumulative IPC: 0.123609 (Simulation time: 1 hr 39 min 42 sec) 
Heartbeat CPU 0 instructions: 841000000 cycles: 7759427563 heartbeat IPC: 0.173186 cumulative IPC: 0.123699 (Simulation time: 1 hr 39 min 47 sec) 
Heartbeat CPU 0 instructions: 842000000 cycles: 7769814262 heartbeat IPC: 0.096277 cumulative IPC: 0.12361 (Simulation time: 1 hr 39 min 54 sec) 
Heartbeat CPU 0 instructions: 843000002 cycles: 7776723706 heartbeat IPC: 0.14473 cumulative IPC: 0.123656 (Simulation time: 1 hr 40 min 0 sec) 
Heartbeat CPU 0 instructions: 844000001 cycles: 7782653589 heartbeat IPC: 0.168637 cumulative IPC: 0.123739 (Simulation time: 1 hr 40 min 5 sec) 
Heartbeat CPU 0 instructions: 845000000 cycles: 7790011997 heartbeat IPC: 0.135899 cumulative IPC: 0.123767 (Simulation time: 1 hr 40 min 11 sec) 
Heartbeat CPU 0 instructions: 846000003 cycles: 7799974665 heartbeat IPC: 0.100375 cumulative IPC: 0.123695 (Simulation time: 1 hr 40 min 19 sec) 
Heartbeat CPU 0 instructions: 847000000 cycles: 7806145461 heartbeat IPC: 0.162053 cumulative IPC: 0.123768 (Simulation time: 1 hr 40 min 24 sec) 
Heartbeat CPU 0 instructions: 848000001 cycles: 7812458795 heartbeat IPC: 0.158395 cumulative IPC: 0.123836 (Simulation time: 1 hr 40 min 30 sec) 
Heartbeat CPU 0 instructions: 849000000 cycles: 7822592321 heartbeat IPC: 0.0986822 cumulative IPC: 0.123757 (Simulation time: 1 hr 40 min 37 sec) 
Heartbeat CPU 0 instructions: 850000000 cycles: 7830610937 heartbeat IPC: 0.12471 cumulative IPC: 0.12376 (Simulation time: 1 hr 40 min 43 sec) 
Heartbeat CPU 0 instructions: 851000000 cycles: 7839011101 heartbeat IPC: 0.119045 cumulative IPC: 0.123747 (Simulation time: 1 hr 40 min 49 sec) 
Heartbeat CPU 0 instructions: 852000001 cycles: 7848504724 heartbeat IPC: 0.105334 cumulative IPC: 0.123694 (Simulation time: 1 hr 40 min 56 sec) 
Heartbeat CPU 0 instructions: 853000002 cycles: 7857994715 heartbeat IPC: 0.105374 cumulative IPC: 0.12364 (Simulation time: 1 hr 41 min 3 sec) 
Heartbeat CPU 0 instructions: 854000002 cycles: 7866351819 heartbeat IPC: 0.119659 cumulative IPC: 0.12363 (Simulation time: 1 hr 41 min 10 sec) 
Heartbeat CPU 0 instructions: 855000001 cycles: 7872494423 heartbeat IPC: 0.162797 cumulative IPC: 0.123704 (Simulation time: 1 hr 41 min 15 sec) 
Heartbeat CPU 0 instructions: 856000003 cycles: 7879402227 heartbeat IPC: 0.144764 cumulative IPC: 0.123748 (Simulation time: 1 hr 41 min 21 sec) 
Heartbeat CPU 0 instructions: 857000000 cycles: 7890019156 heartbeat IPC: 0.0941889 cumulative IPC: 0.123653 (Simulation time: 1 hr 41 min 28 sec) 
Heartbeat CPU 0 instructions: 858000000 cycles: 7896556453 heartbeat IPC: 0.152968 cumulative IPC: 0.123711 (Simulation time: 1 hr 41 min 34 sec) 
Heartbeat CPU 0 instructions: 859000001 cycles: 7902756157 heartbeat IPC: 0.161298 cumulative IPC: 0.123781 (Simulation time: 1 hr 41 min 39 sec) 
Heartbeat CPU 0 instructions: 860000000 cycles: 7912423666 heartbeat IPC: 0.103439 cumulative IPC: 0.123722 (Simulation time: 1 hr 41 min 46 sec) 
Heartbeat CPU 0 instructions: 861000003 cycles: 7920561524 heartbeat IPC: 0.122883 cumulative IPC: 0.12372 (Simulation time: 1 hr 41 min 53 sec) 
Heartbeat CPU 0 instructions: 862000000 cycles: 7926844825 heartbeat IPC: 0.159152 cumulative IPC: 0.123787 (Simulation time: 1 hr 41 min 58 sec) 
Heartbeat CPU 0 instructions: 863000000 cycles: 7934651555 heartbeat IPC: 0.128095 cumulative IPC: 0.123797 (Simulation time: 1 hr 42 min 4 sec) 
Heartbeat CPU 0 instructions: 864000000 cycles: 7944954794 heartbeat IPC: 0.0970569 cumulative IPC: 0.123715 (Simulation time: 1 hr 42 min 12 sec) 
Heartbeat CPU 0 instructions: 865000000 cycles: 7951625118 heartbeat IPC: 0.149918 cumulative IPC: 0.123767 (Simulation time: 1 hr 42 min 17 sec) 
Heartbeat CPU 0 instructions: 866000000 cycles: 7958190115 heartbeat IPC: 0.152323 cumulative IPC: 0.123822 (Simulation time: 1 hr 42 min 22 sec) 
Heartbeat CPU 0 instructions: 867000002 cycles: 7968388222 heartbeat IPC: 0.0980576 cumulative IPC: 0.123744 (Simulation time: 1 hr 42 min 30 sec) 
Heartbeat CPU 0 instructions: 868000002 cycles: 7976153245 heartbeat IPC: 0.128783 cumulative IPC: 0.123756 (Simulation time: 1 hr 42 min 36 sec) 
Heartbeat CPU 0 instructions: 869000000 cycles: 7982258186 heartbeat IPC: 0.163801 cumulative IPC: 0.123828 (Simulation time: 1 hr 42 min 40 sec) 
Heartbeat CPU 0 instructions: 870000003 cycles: 7988688979 heartbeat IPC: 0.155502 cumulative IPC: 0.123888 (Simulation time: 1 hr 42 min 45 sec) 
Heartbeat CPU 0 instructions: 871000001 cycles: 7999503371 heartbeat IPC: 0.0924692 cumulative IPC: 0.123788 (Simulation time: 1 hr 42 min 53 sec) 
Heartbeat CPU 0 instructions: 872000000 cycles: 8005787953 heartbeat IPC: 0.159119 cumulative IPC: 0.123854 (Simulation time: 1 hr 42 min 58 sec) 
Heartbeat CPU 0 instructions: 873000000 cycles: 8011861708 heartbeat IPC: 0.164643 cumulative IPC: 0.123926 (Simulation time: 1 hr 43 min 5 sec) 
Heartbeat CPU 0 instructions: 874000003 cycles: 8019144703 heartbeat IPC: 0.137307 cumulative IPC: 0.123955 (Simulation time: 1 hr 43 min 10 sec) 
Heartbeat CPU 0 instructions: 875000001 cycles: 8029169658 heartbeat IPC: 0.0997509 cumulative IPC: 0.123884 (Simulation time: 1 hr 43 min 18 sec) 
Heartbeat CPU 0 instructions: 876000001 cycles: 8035167892 heartbeat IPC: 0.166716 cumulative IPC: 0.123959 (Simulation time: 1 hr 43 min 23 sec) 
Heartbeat CPU 0 instructions: 877000000 cycles: 8042772655 heartbeat IPC: 0.131496 cumulative IPC: 0.123975 (Simulation time: 1 hr 43 min 29 sec) 
Heartbeat CPU 0 instructions: 878000000 cycles: 8050617082 heartbeat IPC: 0.127479 cumulative IPC: 0.123983 (Simulation time: 1 hr 43 min 35 sec) 
Heartbeat CPU 0 instructions: 879000002 cycles: 8060242915 heartbeat IPC: 0.103887 cumulative IPC: 0.123927 (Simulation time: 1 hr 43 min 42 sec) 
Heartbeat CPU 0 instructions: 880000000 cycles: 8067364128 heartbeat IPC: 0.140425 cumulative IPC: 0.123961 (Simulation time: 1 hr 43 min 48 sec) 
Heartbeat CPU 0 instructions: 881000000 cycles: 8073701561 heartbeat IPC: 0.157793 cumulative IPC: 0.124023 (Simulation time: 1 hr 43 min 54 sec) 
Heartbeat CPU 0 instructions: 882000000 cycles: 8083876848 heartbeat IPC: 0.0982773 cumulative IPC: 0.123948 (Simulation time: 1 hr 44 min 1 sec) 
Heartbeat CPU 0 instructions: 883000000 cycles: 8091559163 heartbeat IPC: 0.130169 cumulative IPC: 0.123962 (Simulation time: 1 hr 44 min 7 sec) 
Heartbeat CPU 0 instructions: 884000000 cycles: 8097953454 heartbeat IPC: 0.15639 cumulative IPC: 0.124021 (Simulation time: 1 hr 44 min 13 sec) 
Heartbeat CPU 0 instructions: 885000000 cycles: 8106498578 heartbeat IPC: 0.117026 cumulative IPC: 0.124004 (Simulation time: 1 hr 44 min 20 sec) 
Heartbeat CPU 0 instructions: 886000003 cycles: 8115978657 heartbeat IPC: 0.105485 cumulative IPC: 0.123954 (Simulation time: 1 hr 44 min 27 sec) 
Heartbeat CPU 0 instructions: 887000002 cycles: 8122614512 heartbeat IPC: 0.150696 cumulative IPC: 0.124004 (Simulation time: 1 hr 44 min 33 sec) 
Heartbeat CPU 0 instructions: 888000000 cycles: 8130014096 heartbeat IPC: 0.135142 cumulative IPC: 0.124028 (Simulation time: 1 hr 44 min 38 sec) 
Heartbeat CPU 0 instructions: 889000000 cycles: 8140574580 heartbeat IPC: 0.0946926 cumulative IPC: 0.12394 (Simulation time: 1 hr 44 min 46 sec) 
Heartbeat CPU 0 instructions: 890000000 cycles: 8147238710 heartbeat IPC: 0.150057 cumulative IPC: 0.123989 (Simulation time: 1 hr 44 min 51 sec) 
Heartbeat CPU 0 instructions: 891000000 cycles: 8153674572 heartbeat IPC: 0.155379 cumulative IPC: 0.124046 (Simulation time: 1 hr 44 min 57 sec) 
Heartbeat CPU 0 instructions: 892000000 cycles: 8164631545 heartbeat IPC: 0.0912661 cumulative IPC: 0.123945 (Simulation time: 1 hr 45 min 4 sec) 
Heartbeat CPU 0 instructions: 893000000 cycles: 8172865309 heartbeat IPC: 0.121451 cumulative IPC: 0.123939 (Simulation time: 1 hr 45 min 11 sec) 
Heartbeat CPU 0 instructions: 894000000 cycles: 8182147938 heartbeat IPC: 0.107728 cumulative IPC: 0.123898 (Simulation time: 1 hr 45 min 17 sec) 
Heartbeat CPU 0 instructions: 895000000 cycles: 8189952849 heartbeat IPC: 0.128124 cumulative IPC: 0.123907 (Simulation time: 1 hr 45 min 23 sec) 
Heartbeat CPU 0 instructions: 896000003 cycles: 8200191925 heartbeat IPC: 0.0976654 cumulative IPC: 0.123832 (Simulation time: 1 hr 45 min 31 sec) 
Heartbeat CPU 0 instructions: 897000001 cycles: 8206821784 heartbeat IPC: 0.150832 cumulative IPC: 0.123882 (Simulation time: 1 hr 45 min 36 sec) 
Heartbeat CPU 0 instructions: 898000001 cycles: 8213201658 heartbeat IPC: 0.156743 cumulative IPC: 0.12394 (Simulation time: 1 hr 45 min 42 sec) 
Heartbeat CPU 0 instructions: 899000002 cycles: 8224308352 heartbeat IPC: 0.0900359 cumulative IPC: 0.123836 (Simulation time: 1 hr 45 min 49 sec) 
Heartbeat CPU 0 instructions: 900000001 cycles: 8231098645 heartbeat IPC: 0.147269 cumulative IPC: 0.12388 (Simulation time: 1 hr 45 min 55 sec) 
Heartbeat CPU 0 instructions: 901000002 cycles: 8237327339 heartbeat IPC: 0.160547 cumulative IPC: 0.123942 (Simulation time: 1 hr 46 min 0 sec) 
Heartbeat CPU 0 instructions: 902000000 cycles: 8246558252 heartbeat IPC: 0.108331 cumulative IPC: 0.123903 (Simulation time: 1 hr 46 min 7 sec) 
Heartbeat CPU 0 instructions: 903000002 cycles: 8255068561 heartbeat IPC: 0.117505 cumulative IPC: 0.123888 (Simulation time: 1 hr 46 min 13 sec) 
Heartbeat CPU 0 instructions: 904000003 cycles: 8261211475 heartbeat IPC: 0.162789 cumulative IPC: 0.123953 (Simulation time: 1 hr 46 min 19 sec) 
Heartbeat CPU 0 instructions: 905000003 cycles: 8268647989 heartbeat IPC: 0.134472 cumulative IPC: 0.123975 (Simulation time: 1 hr 46 min 24 sec) 
Heartbeat CPU 0 instructions: 906000002 cycles: 8279360514 heartbeat IPC: 0.0933486 cumulative IPC: 0.123885 (Simulation time: 1 hr 46 min 31 sec) 
Heartbeat CPU 0 instructions: 907000000 cycles: 8287144101 heartbeat IPC: 0.128475 cumulative IPC: 0.123895 (Simulation time: 1 hr 46 min 37 sec) 
Heartbeat CPU 0 instructions: 908000000 cycles: 8295309106 heartbeat IPC: 0.122474 cumulative IPC: 0.123892 (Simulation time: 1 hr 46 min 43 sec) 
Heartbeat CPU 0 instructions: 909000001 cycles: 8301764549 heartbeat IPC: 0.154908 cumulative IPC: 0.123946 (Simulation time: 1 hr 46 min 47 sec) 
Heartbeat CPU 0 instructions: 910000000 cycles: 8312682724 heartbeat IPC: 0.0915903 cumulative IPC: 0.123851 (Simulation time: 1 hr 46 min 54 sec) 
Heartbeat CPU 0 instructions: 911000000 cycles: 8320267455 heartbeat IPC: 0.131844 cumulative IPC: 0.123867 (Simulation time: 1 hr 46 min 59 sec) 
Heartbeat CPU 0 instructions: 912000002 cycles: 8327891574 heartbeat IPC: 0.131163 cumulative IPC: 0.123882 (Simulation time: 1 hr 47 min 5 sec) 
Heartbeat CPU 0 instructions: 913000000 cycles: 8334743473 heartbeat IPC: 0.145945 cumulative IPC: 0.123923 (Simulation time: 1 hr 47 min 10 sec) 
Heartbeat CPU 0 instructions: 914000002 cycles: 8345638012 heartbeat IPC: 0.0917893 cumulative IPC: 0.123829 (Simulation time: 1 hr 47 min 18 sec) 
Heartbeat CPU 0 instructions: 915000000 cycles: 8352123331 heartbeat IPC: 0.154194 cumulative IPC: 0.123882 (Simulation time: 1 hr 47 min 23 sec) 
Heartbeat CPU 0 instructions: 916000001 cycles: 8358431910 heartbeat IPC: 0.158514 cumulative IPC: 0.12394 (Simulation time: 1 hr 47 min 28 sec) 
Heartbeat CPU 0 instructions: 917000000 cycles: 8368071366 heartbeat IPC: 0.10374 cumulative IPC: 0.123888 (Simulation time: 1 hr 47 min 35 sec) 
Heartbeat CPU 0 instructions: 918000003 cycles: 8376550396 heartbeat IPC: 0.117938 cumulative IPC: 0.123875 (Simulation time: 1 hr 47 min 41 sec) 
Heartbeat CPU 0 instructions: 919000003 cycles: 8383960090 heartbeat IPC: 0.134958 cumulative IPC: 0.123896 (Simulation time: 1 hr 47 min 46 sec) 
Heartbeat CPU 0 instructions: 920000002 cycles: 8391629405 heartbeat IPC: 0.13039 cumulative IPC: 0.12391 (Simulation time: 1 hr 47 min 52 sec) 
Heartbeat CPU 0 instructions: 921000000 cycles: 8402138774 heartbeat IPC: 0.095153 cumulative IPC: 0.12383 (Simulation time: 1 hr 47 min 59 sec) 
Heartbeat CPU 0 instructions: 922000000 cycles: 8408724928 heartbeat IPC: 0.151834 cumulative IPC: 0.123879 (Simulation time: 1 hr 48 min 5 sec) 
Heartbeat CPU 0 instructions: 923000000 cycles: 8415065086 heartbeat IPC: 0.157725 cumulative IPC: 0.123935 (Simulation time: 1 hr 48 min 10 sec) 
Heartbeat CPU 0 instructions: 924000000 cycles: 8425900103 heartbeat IPC: 0.0922934 cumulative IPC: 0.123845 (Simulation time: 1 hr 48 min 17 sec) 
Heartbeat CPU 0 instructions: 925000002 cycles: 8433228957 heartbeat IPC: 0.136447 cumulative IPC: 0.123869 (Simulation time: 1 hr 48 min 23 sec) 
Heartbeat CPU 0 instructions: 926000000 cycles: 8439690901 heartbeat IPC: 0.154752 cumulative IPC: 0.123921 (Simulation time: 1 hr 48 min 28 sec) 
Heartbeat CPU 0 instructions: 927000003 cycles: 8449300359 heartbeat IPC: 0.104064 cumulative IPC: 0.123872 (Simulation time: 1 hr 48 min 35 sec) 
Heartbeat CPU 0 instructions: 928000000 cycles: 8457995413 heartbeat IPC: 0.115008 cumulative IPC: 0.123852 (Simulation time: 1 hr 48 min 42 sec) 
Heartbeat CPU 0 instructions: 929000001 cycles: 8466104181 heartbeat IPC: 0.123323 cumulative IPC: 0.123851 (Simulation time: 1 hr 48 min 48 sec) 
Heartbeat CPU 0 instructions: 930000002 cycles: 8473190174 heartbeat IPC: 0.141124 cumulative IPC: 0.123882 (Simulation time: 1 hr 48 min 53 sec) 
Heartbeat CPU 0 instructions: 931000003 cycles: 8484016731 heartbeat IPC: 0.0923656 cumulative IPC: 0.123794 (Simulation time: 1 hr 49 min 1 sec) 
Heartbeat CPU 0 instructions: 932000000 cycles: 8490442342 heartbeat IPC: 0.155627 cumulative IPC: 0.123847 (Simulation time: 1 hr 49 min 7 sec) 
Heartbeat CPU 0 instructions: 933000000 cycles: 8496622449 heartbeat IPC: 0.161809 cumulative IPC: 0.123907 (Simulation time: 1 hr 49 min 12 sec) 
Heartbeat CPU 0 instructions: 934000001 cycles: 8506779615 heartbeat IPC: 0.0984528 cumulative IPC: 0.123841 (Simulation time: 1 hr 49 min 19 sec) 
Heartbeat CPU 0 instructions: 935000000 cycles: 8514494131 heartbeat IPC: 0.129626 cumulative IPC: 0.123852 (Simulation time: 1 hr 49 min 25 sec) 
Heartbeat CPU 0 instructions: 936000000 cycles: 8520667461 heartbeat IPC: 0.161987 cumulative IPC: 0.123912 (Simulation time: 1 hr 49 min 30 sec) 
Heartbeat CPU 0 instructions: 937000000 cycles: 8528747637 heartbeat IPC: 0.12376 cumulative IPC: 0.123912 (Simulation time: 1 hr 49 min 36 sec) 
Heartbeat CPU 0 instructions: 938000000 cycles: 8538582718 heartbeat IPC: 0.101677 cumulative IPC: 0.123857 (Simulation time: 1 hr 49 min 43 sec) 
Heartbeat CPU 0 instructions: 939000003 cycles: 8544803498 heartbeat IPC: 0.160752 cumulative IPC: 0.123915 (Simulation time: 1 hr 49 min 49 sec) 
Heartbeat CPU 0 instructions: 940000001 cycles: 8552450307 heartbeat IPC: 0.130773 cumulative IPC: 0.123928 (Simulation time: 1 hr 49 min 54 sec) 
Heartbeat CPU 0 instructions: 941000000 cycles: 8562620884 heartbeat IPC: 0.0983227 cumulative IPC: 0.123862 (Simulation time: 1 hr 50 min 1 sec) 
Heartbeat CPU 0 instructions: 942000002 cycles: 8570414076 heartbeat IPC: 0.128317 cumulative IPC: 0.123871 (Simulation time: 1 hr 50 min 8 sec) 
Heartbeat CPU 0 instructions: 943000001 cycles: 8576498251 heartbeat IPC: 0.164361 cumulative IPC: 0.123933 (Simulation time: 1 hr 50 min 13 sec) 
Heartbeat CPU 0 instructions: 944000000 cycles: 8584655686 heartbeat IPC: 0.122587 cumulative IPC: 0.12393 (Simulation time: 1 hr 50 min 19 sec) 
Heartbeat CPU 0 instructions: 945000001 cycles: 8594444954 heartbeat IPC: 0.102153 cumulative IPC: 0.123877 (Simulation time: 1 hr 50 min 26 sec) 
Heartbeat CPU 0 instructions: 946000000 cycles: 8600760279 heartbeat IPC: 0.158345 cumulative IPC: 0.123931 (Simulation time: 1 hr 50 min 32 sec) 
Heartbeat CPU 0 instructions: 947000002 cycles: 8607220035 heartbeat IPC: 0.154805 cumulative IPC: 0.123981 (Simulation time: 1 hr 50 min 37 sec) 
Heartbeat CPU 0 instructions: 948000002 cycles: 8618452941 heartbeat IPC: 0.0890242 cumulative IPC: 0.123883 (Simulation time: 1 hr 50 min 45 sec) 
Heartbeat CPU 0 instructions: 949000001 cycles: 8625364007 heartbeat IPC: 0.144695 cumulative IPC: 0.123919 (Simulation time: 1 hr 50 min 50 sec) 
Heartbeat CPU 0 instructions: 950000002 cycles: 8631656834 heartbeat IPC: 0.158911 cumulative IPC: 0.123974 (Simulation time: 1 hr 50 min 56 sec) 
Finished CPU 0 instructions: 500000000 cycles: 4033116361 cumulative IPC: 0.123974 (Simulation time: 1 hr 50 min 56 sec) 

ChampSim completed all CPUs

Region of Interest Statistics

CPU 0 cumulative IPC: 0.123974 instructions: 500000000 cycles: 4033116361
L1D TOTAL     ACCESS:  129161914  HIT:   72312217  MISS:   56849697
L1D LOAD      ACCESS:  103806377  HIT:   48519456  MISS:   55286921
L1D RFO       ACCESS:   25355537  HIT:   23792761  MISS:    1562776
L1D PREFETCH  ACCESS:          0  HIT:          0  MISS:          0
L1D WRITEBACK ACCESS:          0  HIT:          0  MISS:          0
L1D PREFETCH  REQUESTED:          0  ISSUED:          0  USEFUL:          0  USELESS:          0
L1D AVERAGE MISS LATENCY: 175.987 cycles
L1I TOTAL     ACCESS:   93895862  HIT:   93895862  MISS:          0
L1I LOAD      ACCESS:   93895862  HIT:   93895862  MISS:          0
L1I RFO       ACCESS:          0  HIT:          0  MISS:          0
L1I PREFETCH  ACCESS:          0  HIT:          0  MISS:          0
L1I WRITEBACK ACCESS:          0  HIT:          0  MISS:          0
L1I PREFETCH  REQUESTED:          0  ISSUED:          0  USEFUL:          0  USELESS:          0
L1I AVERAGE MISS LATENCY: -nan cycles
L2C TOTAL     ACCESS:   69597800  HIT:   28972464  MISS:   40625336
L2C LOAD      ACCESS:   55285337  HIT:   15515957  MISS:   39769380
L2C RFO       ACCESS:    1562708  HIT:     710087  MISS:     852621
L2C PREFETCH  ACCESS:          0  HIT:          0  MISS:          0
L2C WRITEBACK ACCESS:   12749755  HIT:   12746420  MISS:       3335
L2C PREFETCH  REQUESTED:          0  ISSUED:          0  USEFUL:          0  USELESS:          0
L2C AVERAGE MISS LATENCY: 220.034 cycles
LLC TOTAL     ACCESS:   77558865  HIT:   39230303  MISS:   38328562
LLC LOAD      ACCESS:   39769372  HIT:   19953527  MISS:   19815845
LLC RFO       ACCESS:     852621  HIT:     314101  MISS:     538520
LLC PREFETCH  ACCESS:   27461888  HIT:    9550413  MISS:   17911475
LLC WRITEBACK ACCESS:    9474984  HIT:    9412262  MISS:      62722
LLC PREFETCH  REQUESTED:   31476429  ISSUED:   31153157  USEFUL:   13836659  USELESS:    4071793
LLC AVERAGE MISS LATENCY: 299.777 cycles
Major fault: 0 Minor fault: 273840
performance stats:
mapping cache size: 16690298
divergence: 28815058

DRAM Statistics
 CHANNEL 0
 RQ ROW_BUFFER_HIT:     369665  ROW_BUFFER_MISS:   37888492
 DBUS_CONGESTED:   19931193
 WQ ROW_BUFFER_HIT:    3141120  ROW_BUFFER_MISS:    5982054  FULL:          0

 AVG_CONGESTED_CYCLE: 6

CPU 0 Branch Prediction Accuracy: 95.6661% MPKI: 11.6556 Average ROB Occupancy at Mispredict: 49.2211

Branch types
NOT_BRANCH: 365531192 73.1062%
BRANCH_DIRECT_JUMP: 10367818 2.07356%
BRANCH_INDIRECT: 0 0%
BRANCH_CONDITIONAL: 123869810 24.774%
BRANCH_DIRECT_CALL: 115589 0.0231178%
BRANCH_INDIRECT_CALL: 0 0%
BRANCH_RETURN: 115588 0.0231176%
BRANCH_OTHER: 0 0%


gzip: stdout: Broken pipe
