
*** ChampSim Multicore Out-of-Order Simulator ***

Warmup Instructions: 1000000
Prefetch Warmup Instructions: 450000000
Simulation Instructions: 500000000
Stat Printing Period: 1000000
Number of CPUs: 1
LLC sets: 2048
LLC ways: 16
Off-chip DRAM Size: 4096 MB Channels: 1 Width: 64-bit Data Rate: 3200 MT/s

CPU 0 runs /scratch/cluster/cmolder/ML-DPC/ChampSimTraces/spec06/429.mcf-s1.trace.gz
Read seed: 622
Heartbeat CPU 0 instructions: 1000001 cycles: 460266 heartbeat IPC: 2.17266 cumulative IPC: 2.17266 (Simulation time: 0 hr 0 min 3 sec) 

Warmup complete CPU 0 instructions: 1000001 cycles: 460266 (Simulation time: 0 hr 0 min 3 sec) 

Heartbeat CPU 0 instructions: 2000003 cycles: 15942968 heartbeat IPC: 0.0645883 cumulative IPC: 0.0645883 (Simulation time: 0 hr 0 min 12 sec) 
Heartbeat CPU 0 instructions: 3000000 cycles: 28710255 heartbeat IPC: 0.0783249 cumulative IPC: 0.0707965 (Simulation time: 0 hr 0 min 19 sec) 
Heartbeat CPU 0 instructions: 4000000 cycles: 44935729 heartbeat IPC: 0.0616315 cumulative IPC: 0.0674529 (Simulation time: 0 hr 0 min 27 sec) 
Heartbeat CPU 0 instructions: 5000002 cycles: 59437741 heartbeat IPC: 0.0689561 cumulative IPC: 0.0678225 (Simulation time: 0 hr 0 min 34 sec) 
Heartbeat CPU 0 instructions: 6000003 cycles: 74280205 heartbeat IPC: 0.0673743 cumulative IPC: 0.0677324 (Simulation time: 0 hr 0 min 42 sec) 
Heartbeat CPU 0 instructions: 7000000 cycles: 91723395 heartbeat IPC: 0.0573288 cumulative IPC: 0.065744 (Simulation time: 0 hr 0 min 51 sec) 
Heartbeat CPU 0 instructions: 8000000 cycles: 108736873 heartbeat IPC: 0.0587769 cumulative IPC: 0.0646492 (Simulation time: 0 hr 1 min 0 sec) 
Heartbeat CPU 0 instructions: 9000000 cycles: 125687546 heartbeat IPC: 0.0589947 cumulative IPC: 0.0638838 (Simulation time: 0 hr 1 min 8 sec) 
Heartbeat CPU 0 instructions: 10000001 cycles: 141990434 heartbeat IPC: 0.0613389 cumulative IPC: 0.0635907 (Simulation time: 0 hr 1 min 17 sec) 
Heartbeat CPU 0 instructions: 11000000 cycles: 158320605 heartbeat IPC: 0.0612363 cumulative IPC: 0.0633471 (Simulation time: 0 hr 1 min 25 sec) 
Heartbeat CPU 0 instructions: 12000000 cycles: 174214081 heartbeat IPC: 0.0629189 cumulative IPC: 0.063308 (Simulation time: 0 hr 1 min 34 sec) 
Heartbeat CPU 0 instructions: 13000000 cycles: 191176546 heartbeat IPC: 0.0589537 cumulative IPC: 0.0629207 (Simulation time: 0 hr 1 min 43 sec) 
Heartbeat CPU 0 instructions: 14000000 cycles: 207635673 heartbeat IPC: 0.0607566 cumulative IPC: 0.0627488 (Simulation time: 0 hr 1 min 52 sec) 
Heartbeat CPU 0 instructions: 15000000 cycles: 224142323 heartbeat IPC: 0.0605816 cumulative IPC: 0.0625888 (Simulation time: 0 hr 2 min 1 sec) 
Heartbeat CPU 0 instructions: 16000000 cycles: 239550501 heartbeat IPC: 0.0649006 cumulative IPC: 0.0627378 (Simulation time: 0 hr 2 min 9 sec) 
Heartbeat CPU 0 instructions: 17000000 cycles: 255605574 heartbeat IPC: 0.0622856 cumulative IPC: 0.0627094 (Simulation time: 0 hr 2 min 18 sec) 
Heartbeat CPU 0 instructions: 18000000 cycles: 270994631 heartbeat IPC: 0.0649812 cumulative IPC: 0.0628386 (Simulation time: 0 hr 2 min 26 sec) 
Heartbeat CPU 0 instructions: 19000002 cycles: 287025003 heartbeat IPC: 0.0623817 cumulative IPC: 0.062813 (Simulation time: 0 hr 2 min 35 sec) 
Heartbeat CPU 0 instructions: 20000000 cycles: 303002069 heartbeat IPC: 0.0625896 cumulative IPC: 0.0628012 (Simulation time: 0 hr 2 min 43 sec) 
Heartbeat CPU 0 instructions: 21000000 cycles: 318195728 heartbeat IPC: 0.0658169 cumulative IPC: 0.0629454 (Simulation time: 0 hr 2 min 52 sec) 
Heartbeat CPU 0 instructions: 22000000 cycles: 333073351 heartbeat IPC: 0.067215 cumulative IPC: 0.0631364 (Simulation time: 0 hr 3 min 0 sec) 
Heartbeat CPU 0 instructions: 23000000 cycles: 348986625 heartbeat IPC: 0.0628406 cumulative IPC: 0.0631229 (Simulation time: 0 hr 3 min 8 sec) 
Heartbeat CPU 0 instructions: 24000001 cycles: 364589650 heartbeat IPC: 0.0640902 cumulative IPC: 0.0631644 (Simulation time: 0 hr 3 min 16 sec) 
Heartbeat CPU 0 instructions: 25000000 cycles: 380794354 heartbeat IPC: 0.0617104 cumulative IPC: 0.0631024 (Simulation time: 0 hr 3 min 24 sec) 
Heartbeat CPU 0 instructions: 26000000 cycles: 397329155 heartbeat IPC: 0.0604785 cumulative IPC: 0.0629931 (Simulation time: 0 hr 3 min 33 sec) 
Heartbeat CPU 0 instructions: 27000000 cycles: 414138750 heartbeat IPC: 0.0594898 cumulative IPC: 0.0628507 (Simulation time: 0 hr 3 min 41 sec) 
Heartbeat CPU 0 instructions: 28000000 cycles: 431021462 heartbeat IPC: 0.0592322 cumulative IPC: 0.0627089 (Simulation time: 0 hr 3 min 50 sec) 
Heartbeat CPU 0 instructions: 29000001 cycles: 447910040 heartbeat IPC: 0.0592117 cumulative IPC: 0.0625769 (Simulation time: 0 hr 3 min 59 sec) 
Heartbeat CPU 0 instructions: 30000001 cycles: 464585075 heartbeat IPC: 0.0599699 cumulative IPC: 0.0624832 (Simulation time: 0 hr 4 min 7 sec) 
Heartbeat CPU 0 instructions: 31000001 cycles: 481041294 heartbeat IPC: 0.0607673 cumulative IPC: 0.0624244 (Simulation time: 0 hr 4 min 16 sec) 
Heartbeat CPU 0 instructions: 32000000 cycles: 496843755 heartbeat IPC: 0.0632812 cumulative IPC: 0.0624517 (Simulation time: 0 hr 4 min 24 sec) 
Heartbeat CPU 0 instructions: 33000000 cycles: 513325463 heartbeat IPC: 0.0606733 cumulative IPC: 0.0623946 (Simulation time: 0 hr 4 min 32 sec) 
Heartbeat CPU 0 instructions: 34000000 cycles: 529583152 heartbeat IPC: 0.0615094 cumulative IPC: 0.0623674 (Simulation time: 0 hr 4 min 40 sec) 
Heartbeat CPU 0 instructions: 35000001 cycles: 545646812 heartbeat IPC: 0.0622524 cumulative IPC: 0.062364 (Simulation time: 0 hr 4 min 49 sec) 
Heartbeat CPU 0 instructions: 36000002 cycles: 562040778 heartbeat IPC: 0.0609981 cumulative IPC: 0.0623241 (Simulation time: 0 hr 4 min 59 sec) 
Heartbeat CPU 0 instructions: 37000000 cycles: 578674174 heartbeat IPC: 0.0601199 cumulative IPC: 0.0622607 (Simulation time: 0 hr 5 min 7 sec) 
Heartbeat CPU 0 instructions: 38000000 cycles: 595235947 heartbeat IPC: 0.06038 cumulative IPC: 0.0622083 (Simulation time: 0 hr 5 min 15 sec) 
Heartbeat CPU 0 instructions: 39000000 cycles: 611820566 heartbeat IPC: 0.0602968 cumulative IPC: 0.0621565 (Simulation time: 0 hr 5 min 24 sec) 
Heartbeat CPU 0 instructions: 40000000 cycles: 628268410 heartbeat IPC: 0.0607982 cumulative IPC: 0.0621209 (Simulation time: 0 hr 5 min 32 sec) 
Heartbeat CPU 0 instructions: 41000000 cycles: 644443736 heartbeat IPC: 0.0618226 cumulative IPC: 0.0621134 (Simulation time: 0 hr 5 min 41 sec) 
Heartbeat CPU 0 instructions: 42000000 cycles: 660687130 heartbeat IPC: 0.0615635 cumulative IPC: 0.0620999 (Simulation time: 0 hr 5 min 49 sec) 
Heartbeat CPU 0 instructions: 43000001 cycles: 676980998 heartbeat IPC: 0.0613728 cumulative IPC: 0.0620824 (Simulation time: 0 hr 5 min 57 sec) 
Heartbeat CPU 0 instructions: 44000000 cycles: 693440036 heartbeat IPC: 0.0607568 cumulative IPC: 0.0620509 (Simulation time: 0 hr 6 min 6 sec) 
Heartbeat CPU 0 instructions: 45000001 cycles: 709618845 heartbeat IPC: 0.0618093 cumulative IPC: 0.0620454 (Simulation time: 0 hr 6 min 14 sec) 
Heartbeat CPU 0 instructions: 46000000 cycles: 725875639 heartbeat IPC: 0.0615127 cumulative IPC: 0.0620334 (Simulation time: 0 hr 6 min 22 sec) 
Heartbeat CPU 0 instructions: 47000000 cycles: 742071962 heartbeat IPC: 0.0617424 cumulative IPC: 0.0620271 (Simulation time: 0 hr 6 min 31 sec) 
Heartbeat CPU 0 instructions: 48000002 cycles: 757901320 heartbeat IPC: 0.0631739 cumulative IPC: 0.062051 (Simulation time: 0 hr 6 min 39 sec) 
Heartbeat CPU 0 instructions: 49000000 cycles: 774343465 heartbeat IPC: 0.0608192 cumulative IPC: 0.0620249 (Simulation time: 0 hr 6 min 47 sec) 
Heartbeat CPU 0 instructions: 50000000 cycles: 790823538 heartbeat IPC: 0.0606793 cumulative IPC: 0.0619968 (Simulation time: 0 hr 6 min 55 sec) 
Heartbeat CPU 0 instructions: 51000000 cycles: 807369585 heartbeat IPC: 0.0604374 cumulative IPC: 0.0619648 (Simulation time: 0 hr 7 min 3 sec) 
Heartbeat CPU 0 instructions: 52000000 cycles: 823880667 heartbeat IPC: 0.0605654 cumulative IPC: 0.0619368 (Simulation time: 0 hr 7 min 11 sec) 
Heartbeat CPU 0 instructions: 53000000 cycles: 840435532 heartbeat IPC: 0.0604052 cumulative IPC: 0.0619066 (Simulation time: 0 hr 7 min 19 sec) 
Heartbeat CPU 0 instructions: 54000001 cycles: 856922324 heartbeat IPC: 0.0606547 cumulative IPC: 0.0618825 (Simulation time: 0 hr 7 min 28 sec) 
Heartbeat CPU 0 instructions: 55000000 cycles: 873274237 heartbeat IPC: 0.0611549 cumulative IPC: 0.0618689 (Simulation time: 0 hr 7 min 36 sec) 
Heartbeat CPU 0 instructions: 56000000 cycles: 889670574 heartbeat IPC: 0.0609892 cumulative IPC: 0.0618526 (Simulation time: 0 hr 7 min 44 sec) 
Heartbeat CPU 0 instructions: 57000000 cycles: 906308044 heartbeat IPC: 0.0601053 cumulative IPC: 0.0618205 (Simulation time: 0 hr 7 min 52 sec) 
Heartbeat CPU 0 instructions: 58000001 cycles: 922598935 heartbeat IPC: 0.0613841 cumulative IPC: 0.0618128 (Simulation time: 0 hr 8 min 0 sec) 
Heartbeat CPU 0 instructions: 59000002 cycles: 938871908 heartbeat IPC: 0.0614516 cumulative IPC: 0.0618066 (Simulation time: 0 hr 8 min 8 sec) 
Heartbeat CPU 0 instructions: 60000000 cycles: 954884339 heartbeat IPC: 0.0624514 cumulative IPC: 0.0618174 (Simulation time: 0 hr 8 min 17 sec) 
Heartbeat CPU 0 instructions: 61000002 cycles: 971120452 heartbeat IPC: 0.0615912 cumulative IPC: 0.0618136 (Simulation time: 0 hr 8 min 25 sec) 
Heartbeat CPU 0 instructions: 62000001 cycles: 983816236 heartbeat IPC: 0.0787662 cumulative IPC: 0.0620325 (Simulation time: 0 hr 8 min 32 sec) 
Heartbeat CPU 0 instructions: 63000000 cycles: 999009441 heartbeat IPC: 0.0658188 cumulative IPC: 0.0620901 (Simulation time: 0 hr 8 min 39 sec) 
Heartbeat CPU 0 instructions: 64000000 cycles: 1015008384 heartbeat IPC: 0.0625041 cumulative IPC: 0.0620966 (Simulation time: 0 hr 8 min 47 sec) 
Heartbeat CPU 0 instructions: 65000001 cycles: 1029615165 heartbeat IPC: 0.0684614 cumulative IPC: 0.0621869 (Simulation time: 0 hr 8 min 55 sec) 
Heartbeat CPU 0 instructions: 66000000 cycles: 1045889049 heartbeat IPC: 0.0614481 cumulative IPC: 0.0621754 (Simulation time: 0 hr 9 min 3 sec) 
Heartbeat CPU 0 instructions: 67000001 cycles: 1062391394 heartbeat IPC: 0.0605975 cumulative IPC: 0.0621509 (Simulation time: 0 hr 9 min 11 sec) 
Heartbeat CPU 0 instructions: 68000002 cycles: 1078986303 heartbeat IPC: 0.0602595 cumulative IPC: 0.0621218 (Simulation time: 0 hr 9 min 19 sec) 
Heartbeat CPU 0 instructions: 69000000 cycles: 1094959303 heartbeat IPC: 0.0626055 cumulative IPC: 0.0621289 (Simulation time: 0 hr 9 min 27 sec) 
Heartbeat CPU 0 instructions: 70000000 cycles: 1111010113 heartbeat IPC: 0.0623022 cumulative IPC: 0.0621314 (Simulation time: 0 hr 9 min 35 sec) 
Heartbeat CPU 0 instructions: 71000000 cycles: 1127184640 heartbeat IPC: 0.0618256 cumulative IPC: 0.062127 (Simulation time: 0 hr 9 min 43 sec) 
Heartbeat CPU 0 instructions: 72000001 cycles: 1143400069 heartbeat IPC: 0.0616697 cumulative IPC: 0.0621205 (Simulation time: 0 hr 9 min 51 sec) 
Heartbeat CPU 0 instructions: 73000000 cycles: 1159824247 heartbeat IPC: 0.0608858 cumulative IPC: 0.062103 (Simulation time: 0 hr 9 min 59 sec) 
Heartbeat CPU 0 instructions: 74000000 cycles: 1175973045 heartbeat IPC: 0.0619241 cumulative IPC: 0.0621006 (Simulation time: 0 hr 10 min 7 sec) 
Heartbeat CPU 0 instructions: 75000000 cycles: 1191570036 heartbeat IPC: 0.0641149 cumulative IPC: 0.0621269 (Simulation time: 0 hr 10 min 15 sec) 
Heartbeat CPU 0 instructions: 76000000 cycles: 1207863845 heartbeat IPC: 0.061373 cumulative IPC: 0.0621168 (Simulation time: 0 hr 10 min 23 sec) 
Heartbeat CPU 0 instructions: 77000000 cycles: 1223708070 heartbeat IPC: 0.0631145 cumulative IPC: 0.0621297 (Simulation time: 0 hr 10 min 32 sec) 
Heartbeat CPU 0 instructions: 78000000 cycles: 1240313081 heartbeat IPC: 0.0602228 cumulative IPC: 0.0621041 (Simulation time: 0 hr 10 min 41 sec) 
Heartbeat CPU 0 instructions: 79000000 cycles: 1256254118 heartbeat IPC: 0.0627312 cumulative IPC: 0.0621121 (Simulation time: 0 hr 10 min 49 sec) 
Heartbeat CPU 0 instructions: 80000000 cycles: 1272165282 heartbeat IPC: 0.062849 cumulative IPC: 0.0621213 (Simulation time: 0 hr 10 min 57 sec) 
Heartbeat CPU 0 instructions: 81000001 cycles: 1287892323 heartbeat IPC: 0.0635848 cumulative IPC: 0.0621392 (Simulation time: 0 hr 11 min 5 sec) 
Heartbeat CPU 0 instructions: 82000003 cycles: 1301710209 heartbeat IPC: 0.0723701 cumulative IPC: 0.0622478 (Simulation time: 0 hr 11 min 13 sec) 
Heartbeat CPU 0 instructions: 83000000 cycles: 1314304783 heartbeat IPC: 0.079399 cumulative IPC: 0.0624123 (Simulation time: 0 hr 11 min 19 sec) 
Heartbeat CPU 0 instructions: 84000000 cycles: 1326629727 heartbeat IPC: 0.0811363 cumulative IPC: 0.0625863 (Simulation time: 0 hr 11 min 26 sec) 
Heartbeat CPU 0 instructions: 85000000 cycles: 1340107147 heartbeat IPC: 0.0741982 cumulative IPC: 0.0627031 (Simulation time: 0 hr 11 min 33 sec) 
Heartbeat CPU 0 instructions: 86000001 cycles: 1352914383 heartbeat IPC: 0.0780809 cumulative IPC: 0.0628487 (Simulation time: 0 hr 11 min 39 sec) 
Heartbeat CPU 0 instructions: 87000002 cycles: 1368135496 heartbeat IPC: 0.0656983 cumulative IPC: 0.0628804 (Simulation time: 0 hr 11 min 48 sec) 
Heartbeat CPU 0 instructions: 88000000 cycles: 1383081079 heartbeat IPC: 0.0669093 cumulative IPC: 0.062924 (Simulation time: 0 hr 11 min 56 sec) 
Heartbeat CPU 0 instructions: 89000002 cycles: 1396953633 heartbeat IPC: 0.0720849 cumulative IPC: 0.063015 (Simulation time: 0 hr 12 min 3 sec) 
Heartbeat CPU 0 instructions: 90000000 cycles: 1407962302 heartbeat IPC: 0.0908373 cumulative IPC: 0.0632326 (Simulation time: 0 hr 12 min 9 sec) 
Heartbeat CPU 0 instructions: 91000000 cycles: 1423274034 heartbeat IPC: 0.0653094 cumulative IPC: 0.0632549 (Simulation time: 0 hr 12 min 16 sec) 
Heartbeat CPU 0 instructions: 92000000 cycles: 1435441698 heartbeat IPC: 0.082185 cumulative IPC: 0.0634155 (Simulation time: 0 hr 12 min 23 sec) 
Heartbeat CPU 0 instructions: 93000000 cycles: 1451930394 heartbeat IPC: 0.0606476 cumulative IPC: 0.063384 (Simulation time: 0 hr 12 min 31 sec) 
Heartbeat CPU 0 instructions: 94000000 cycles: 1468412214 heartbeat IPC: 0.0606729 cumulative IPC: 0.0633536 (Simulation time: 0 hr 12 min 39 sec) 
Heartbeat CPU 0 instructions: 95000001 cycles: 1484825434 heartbeat IPC: 0.0609266 cumulative IPC: 0.0633267 (Simulation time: 0 hr 12 min 47 sec) 
Heartbeat CPU 0 instructions: 96000000 cycles: 1501284556 heartbeat IPC: 0.0607565 cumulative IPC: 0.0632985 (Simulation time: 0 hr 12 min 55 sec) 
Heartbeat CPU 0 instructions: 97000001 cycles: 1517849444 heartbeat IPC: 0.0603687 cumulative IPC: 0.0632666 (Simulation time: 0 hr 13 min 3 sec) 
Heartbeat CPU 0 instructions: 98000000 cycles: 1534341706 heartbeat IPC: 0.0606344 cumulative IPC: 0.0632383 (Simulation time: 0 hr 13 min 10 sec) 
Heartbeat CPU 0 instructions: 99000000 cycles: 1550443421 heartbeat IPC: 0.0621052 cumulative IPC: 0.0632265 (Simulation time: 0 hr 13 min 18 sec) 
Heartbeat CPU 0 instructions: 100000000 cycles: 1566755946 heartbeat IPC: 0.0613026 cumulative IPC: 0.0632065 (Simulation time: 0 hr 13 min 26 sec) 
Heartbeat CPU 0 instructions: 101000002 cycles: 1583188672 heartbeat IPC: 0.0608543 cumulative IPC: 0.063182 (Simulation time: 0 hr 13 min 34 sec) 
Heartbeat CPU 0 instructions: 102000000 cycles: 1599544996 heartbeat IPC: 0.0611383 cumulative IPC: 0.0631611 (Simulation time: 0 hr 13 min 42 sec) 
Heartbeat CPU 0 instructions: 103000000 cycles: 1616305272 heartbeat IPC: 0.0596649 cumulative IPC: 0.0631249 (Simulation time: 0 hr 13 min 50 sec) 
Heartbeat CPU 0 instructions: 104000000 cycles: 1633052343 heartbeat IPC: 0.0597119 cumulative IPC: 0.0630899 (Simulation time: 0 hr 13 min 58 sec) 
Heartbeat CPU 0 instructions: 105000001 cycles: 1649566845 heartbeat IPC: 0.0605529 cumulative IPC: 0.0630644 (Simulation time: 0 hr 14 min 5 sec) 
Heartbeat CPU 0 instructions: 106000000 cycles: 1665950094 heartbeat IPC: 0.0610379 cumulative IPC: 0.0630445 (Simulation time: 0 hr 14 min 13 sec) 
Heartbeat CPU 0 instructions: 107000000 cycles: 1682349108 heartbeat IPC: 0.0609793 cumulative IPC: 0.0630244 (Simulation time: 0 hr 14 min 21 sec) 
Heartbeat CPU 0 instructions: 108000001 cycles: 1698851707 heartbeat IPC: 0.0605966 cumulative IPC: 0.0630008 (Simulation time: 0 hr 14 min 29 sec) 
Heartbeat CPU 0 instructions: 109000000 cycles: 1715165845 heartbeat IPC: 0.0612965 cumulative IPC: 0.0629846 (Simulation time: 0 hr 14 min 36 sec) 
Heartbeat CPU 0 instructions: 110000000 cycles: 1731518076 heartbeat IPC: 0.0611537 cumulative IPC: 0.0629673 (Simulation time: 0 hr 14 min 44 sec) 
Heartbeat CPU 0 instructions: 111000000 cycles: 1747910838 heartbeat IPC: 0.0610025 cumulative IPC: 0.0629488 (Simulation time: 0 hr 14 min 52 sec) 
Heartbeat CPU 0 instructions: 112000002 cycles: 1764249920 heartbeat IPC: 0.0612031 cumulative IPC: 0.0629327 (Simulation time: 0 hr 15 min 0 sec) 
Heartbeat CPU 0 instructions: 113000002 cycles: 1780423076 heartbeat IPC: 0.0618309 cumulative IPC: 0.0629227 (Simulation time: 0 hr 15 min 8 sec) 
Heartbeat CPU 0 instructions: 114000001 cycles: 1796770563 heartbeat IPC: 0.0611714 cumulative IPC: 0.0629067 (Simulation time: 0 hr 15 min 16 sec) 
Heartbeat CPU 0 instructions: 115000000 cycles: 1813251881 heartbeat IPC: 0.0606747 cumulative IPC: 0.0628864 (Simulation time: 0 hr 15 min 23 sec) 
Heartbeat CPU 0 instructions: 116000002 cycles: 1829733402 heartbeat IPC: 0.0606741 cumulative IPC: 0.0628665 (Simulation time: 0 hr 15 min 31 sec) 
Heartbeat CPU 0 instructions: 117000001 cycles: 1846066646 heartbeat IPC: 0.0612248 cumulative IPC: 0.062852 (Simulation time: 0 hr 15 min 39 sec) 
Heartbeat CPU 0 instructions: 118000000 cycles: 1862334028 heartbeat IPC: 0.0614726 cumulative IPC: 0.0628399 (Simulation time: 0 hr 15 min 47 sec) 
Heartbeat CPU 0 instructions: 119000001 cycles: 1878566100 heartbeat IPC: 0.0616065 cumulative IPC: 0.0628293 (Simulation time: 0 hr 15 min 55 sec) 
Heartbeat CPU 0 instructions: 120000000 cycles: 1894737013 heartbeat IPC: 0.0618394 cumulative IPC: 0.0628208 (Simulation time: 0 hr 16 min 3 sec) 
Heartbeat CPU 0 instructions: 121000000 cycles: 1910698737 heartbeat IPC: 0.0626499 cumulative IPC: 0.0628194 (Simulation time: 0 hr 16 min 11 sec) 
Heartbeat CPU 0 instructions: 122000002 cycles: 1926940869 heartbeat IPC: 0.0615684 cumulative IPC: 0.0628088 (Simulation time: 0 hr 16 min 19 sec) 
Heartbeat CPU 0 instructions: 123000000 cycles: 1943325810 heartbeat IPC: 0.0610315 cumulative IPC: 0.0627938 (Simulation time: 0 hr 16 min 27 sec) 
Heartbeat CPU 0 instructions: 124000001 cycles: 1960004972 heartbeat IPC: 0.0599551 cumulative IPC: 0.0627697 (Simulation time: 0 hr 16 min 35 sec) 
Heartbeat CPU 0 instructions: 125000001 cycles: 1976662342 heartbeat IPC: 0.0600335 cumulative IPC: 0.0627466 (Simulation time: 0 hr 16 min 43 sec) 
Heartbeat CPU 0 instructions: 126000000 cycles: 1993261498 heartbeat IPC: 0.060244 cumulative IPC: 0.0627258 (Simulation time: 0 hr 16 min 50 sec) 
Heartbeat CPU 0 instructions: 127000001 cycles: 2009567177 heartbeat IPC: 0.0613284 cumulative IPC: 0.0627144 (Simulation time: 0 hr 16 min 58 sec) 
Heartbeat CPU 0 instructions: 128000000 cycles: 2025976861 heartbeat IPC: 0.0609396 cumulative IPC: 0.0627001 (Simulation time: 0 hr 17 min 6 sec) 
Heartbeat CPU 0 instructions: 129000002 cycles: 2042769627 heartbeat IPC: 0.0595496 cumulative IPC: 0.0626741 (Simulation time: 0 hr 17 min 14 sec) 
Heartbeat CPU 0 instructions: 130000000 cycles: 2059550057 heartbeat IPC: 0.0595931 cumulative IPC: 0.062649 (Simulation time: 0 hr 17 min 21 sec) 
Heartbeat CPU 0 instructions: 131000001 cycles: 2076181349 heartbeat IPC: 0.0601277 cumulative IPC: 0.0626288 (Simulation time: 0 hr 17 min 29 sec) 
Heartbeat CPU 0 instructions: 132000000 cycles: 2092432319 heartbeat IPC: 0.0615347 cumulative IPC: 0.0626203 (Simulation time: 0 hr 17 min 37 sec) 
Heartbeat CPU 0 instructions: 133000000 cycles: 2108773157 heartbeat IPC: 0.0611964 cumulative IPC: 0.0626093 (Simulation time: 0 hr 17 min 45 sec) 
Heartbeat CPU 0 instructions: 134000000 cycles: 2125189724 heartbeat IPC: 0.0609141 cumulative IPC: 0.0625962 (Simulation time: 0 hr 17 min 52 sec) 
Heartbeat CPU 0 instructions: 135000000 cycles: 2141675495 heartbeat IPC: 0.0606584 cumulative IPC: 0.0625813 (Simulation time: 0 hr 18 min 0 sec) 
Heartbeat CPU 0 instructions: 136000001 cycles: 2158090609 heartbeat IPC: 0.0609195 cumulative IPC: 0.0625686 (Simulation time: 0 hr 18 min 8 sec) 
Heartbeat CPU 0 instructions: 137000001 cycles: 2174441184 heartbeat IPC: 0.0611599 cumulative IPC: 0.062558 (Simulation time: 0 hr 18 min 16 sec) 
Heartbeat CPU 0 instructions: 138000000 cycles: 2190740144 heartbeat IPC: 0.0613535 cumulative IPC: 0.0625491 (Simulation time: 0 hr 18 min 24 sec) 
Heartbeat CPU 0 instructions: 139000001 cycles: 2207044271 heartbeat IPC: 0.0613342 cumulative IPC: 0.0625401 (Simulation time: 0 hr 18 min 31 sec) 
Heartbeat CPU 0 instructions: 140000000 cycles: 2223379698 heartbeat IPC: 0.0612166 cumulative IPC: 0.0625304 (Simulation time: 0 hr 18 min 39 sec) 
Heartbeat CPU 0 instructions: 141000003 cycles: 2238977991 heartbeat IPC: 0.0641098 cumulative IPC: 0.0625414 (Simulation time: 0 hr 18 min 48 sec) 
Heartbeat CPU 0 instructions: 142000000 cycles: 2254719795 heartbeat IPC: 0.0635249 cumulative IPC: 0.0625483 (Simulation time: 0 hr 18 min 56 sec) 
Heartbeat CPU 0 instructions: 143000000 cycles: 2270695701 heartbeat IPC: 0.0625943 cumulative IPC: 0.0625486 (Simulation time: 0 hr 19 min 4 sec) 
Heartbeat CPU 0 instructions: 144000000 cycles: 2286613420 heartbeat IPC: 0.0628231 cumulative IPC: 0.0625505 (Simulation time: 0 hr 19 min 11 sec) 
Heartbeat CPU 0 instructions: 145000000 cycles: 2302502557 heartbeat IPC: 0.0629361 cumulative IPC: 0.0625532 (Simulation time: 0 hr 19 min 19 sec) 
Heartbeat CPU 0 instructions: 146000002 cycles: 2317818120 heartbeat IPC: 0.0652932 cumulative IPC: 0.0625713 (Simulation time: 0 hr 19 min 27 sec) 
Heartbeat CPU 0 instructions: 147000001 cycles: 2332227992 heartbeat IPC: 0.0693968 cumulative IPC: 0.0626134 (Simulation time: 0 hr 19 min 34 sec) 
Heartbeat CPU 0 instructions: 148000002 cycles: 2347070042 heartbeat IPC: 0.0673762 cumulative IPC: 0.0626436 (Simulation time: 0 hr 19 min 41 sec) 
Heartbeat CPU 0 instructions: 149000000 cycles: 2361484303 heartbeat IPC: 0.0693756 cumulative IPC: 0.0626847 (Simulation time: 0 hr 19 min 48 sec) 
Heartbeat CPU 0 instructions: 150000002 cycles: 2376776400 heartbeat IPC: 0.0653934 cumulative IPC: 0.0627021 (Simulation time: 0 hr 19 min 55 sec) 
Heartbeat CPU 0 instructions: 151000001 cycles: 2391941009 heartbeat IPC: 0.0659429 cumulative IPC: 0.0627226 (Simulation time: 0 hr 20 min 3 sec) 
Heartbeat CPU 0 instructions: 152000000 cycles: 2408025912 heartbeat IPC: 0.06217 cumulative IPC: 0.062719 (Simulation time: 0 hr 20 min 11 sec) 
Heartbeat CPU 0 instructions: 153000002 cycles: 2424325193 heartbeat IPC: 0.0613525 cumulative IPC: 0.0627098 (Simulation time: 0 hr 20 min 19 sec) 
Heartbeat CPU 0 instructions: 154000000 cycles: 2440478303 heartbeat IPC: 0.0619075 cumulative IPC: 0.0627045 (Simulation time: 0 hr 20 min 26 sec) 
Heartbeat CPU 0 instructions: 155000002 cycles: 2456899354 heartbeat IPC: 0.0608976 cumulative IPC: 0.0626924 (Simulation time: 0 hr 20 min 34 sec) 
Heartbeat CPU 0 instructions: 156000002 cycles: 2473315900 heartbeat IPC: 0.0609142 cumulative IPC: 0.0626806 (Simulation time: 0 hr 20 min 42 sec) 
Heartbeat CPU 0 instructions: 157000000 cycles: 2489401399 heartbeat IPC: 0.0621677 cumulative IPC: 0.0626773 (Simulation time: 0 hr 20 min 50 sec) 
Heartbeat CPU 0 instructions: 158000001 cycles: 2505603502 heartbeat IPC: 0.0617204 cumulative IPC: 0.0626711 (Simulation time: 0 hr 20 min 58 sec) 
Heartbeat CPU 0 instructions: 159000000 cycles: 2521835410 heartbeat IPC: 0.061607 cumulative IPC: 0.0626642 (Simulation time: 0 hr 21 min 6 sec) 
Heartbeat CPU 0 instructions: 160000000 cycles: 2538095279 heartbeat IPC: 0.0615011 cumulative IPC: 0.0626568 (Simulation time: 0 hr 21 min 14 sec) 
Heartbeat CPU 0 instructions: 161000000 cycles: 2554430402 heartbeat IPC: 0.0612178 cumulative IPC: 0.0626476 (Simulation time: 0 hr 21 min 22 sec) 
Heartbeat CPU 0 instructions: 162000000 cycles: 2570450769 heartbeat IPC: 0.0624205 cumulative IPC: 0.0626461 (Simulation time: 0 hr 21 min 30 sec) 
Heartbeat CPU 0 instructions: 163000003 cycles: 2586498433 heartbeat IPC: 0.0623146 cumulative IPC: 0.0626441 (Simulation time: 0 hr 21 min 38 sec) 
Heartbeat CPU 0 instructions: 164000001 cycles: 2602879515 heartbeat IPC: 0.0610459 cumulative IPC: 0.062634 (Simulation time: 0 hr 21 min 46 sec) 
Heartbeat CPU 0 instructions: 165000000 cycles: 2619181976 heartbeat IPC: 0.0613404 cumulative IPC: 0.062626 (Simulation time: 0 hr 21 min 54 sec) 
Heartbeat CPU 0 instructions: 166000000 cycles: 2635711295 heartbeat IPC: 0.0604986 cumulative IPC: 0.0626126 (Simulation time: 0 hr 22 min 1 sec) 
Heartbeat CPU 0 instructions: 167000000 cycles: 2651721768 heartbeat IPC: 0.0624591 cumulative IPC: 0.0626117 (Simulation time: 0 hr 22 min 9 sec) 
Heartbeat CPU 0 instructions: 168000000 cycles: 2667961938 heartbeat IPC: 0.0615757 cumulative IPC: 0.0626054 (Simulation time: 0 hr 22 min 17 sec) 
Heartbeat CPU 0 instructions: 169000000 cycles: 2684157687 heartbeat IPC: 0.0617446 cumulative IPC: 0.0626002 (Simulation time: 0 hr 22 min 25 sec) 
Heartbeat CPU 0 instructions: 170000000 cycles: 2700408644 heartbeat IPC: 0.0615348 cumulative IPC: 0.0625938 (Simulation time: 0 hr 22 min 33 sec) 
Heartbeat CPU 0 instructions: 171000001 cycles: 2716454486 heartbeat IPC: 0.0623215 cumulative IPC: 0.0625922 (Simulation time: 0 hr 22 min 41 sec) 
Heartbeat CPU 0 instructions: 172000000 cycles: 2732234942 heartbeat IPC: 0.0633695 cumulative IPC: 0.0625967 (Simulation time: 0 hr 22 min 48 sec) 
Heartbeat CPU 0 instructions: 173000000 cycles: 2748481343 heartbeat IPC: 0.0615521 cumulative IPC: 0.0625905 (Simulation time: 0 hr 22 min 56 sec) 
Heartbeat CPU 0 instructions: 174000000 cycles: 2764822104 heartbeat IPC: 0.0611967 cumulative IPC: 0.0625823 (Simulation time: 0 hr 23 min 4 sec) 
Heartbeat CPU 0 instructions: 175000002 cycles: 2781253913 heartbeat IPC: 0.0608577 cumulative IPC: 0.0625721 (Simulation time: 0 hr 23 min 12 sec) 
Heartbeat CPU 0 instructions: 176000000 cycles: 2796526637 heartbeat IPC: 0.0654761 cumulative IPC: 0.0625879 (Simulation time: 0 hr 23 min 19 sec) 
Heartbeat CPU 0 instructions: 177000000 cycles: 2811671881 heartbeat IPC: 0.0660273 cumulative IPC: 0.0626065 (Simulation time: 0 hr 23 min 28 sec) 
Heartbeat CPU 0 instructions: 178000000 cycles: 2827776595 heartbeat IPC: 0.0620936 cumulative IPC: 0.0626035 (Simulation time: 0 hr 23 min 36 sec) 
Heartbeat CPU 0 instructions: 179000000 cycles: 2843997493 heartbeat IPC: 0.0616489 cumulative IPC: 0.0625981 (Simulation time: 0 hr 23 min 44 sec) 
Heartbeat CPU 0 instructions: 180000001 cycles: 2860383642 heartbeat IPC: 0.0610272 cumulative IPC: 0.0625891 (Simulation time: 0 hr 23 min 52 sec) 
Heartbeat CPU 0 instructions: 181000000 cycles: 2876684580 heartbeat IPC: 0.0613461 cumulative IPC: 0.062582 (Simulation time: 0 hr 24 min 0 sec) 
Heartbeat CPU 0 instructions: 182000000 cycles: 2893290595 heartbeat IPC: 0.0602191 cumulative IPC: 0.0625685 (Simulation time: 0 hr 24 min 7 sec) 
Heartbeat CPU 0 instructions: 183000000 cycles: 2909722445 heartbeat IPC: 0.0608574 cumulative IPC: 0.0625588 (Simulation time: 0 hr 24 min 15 sec) 
Heartbeat CPU 0 instructions: 184000000 cycles: 2926109966 heartbeat IPC: 0.061022 cumulative IPC: 0.0625502 (Simulation time: 0 hr 24 min 23 sec) 
Heartbeat CPU 0 instructions: 185000001 cycles: 2941539670 heartbeat IPC: 0.0648101 cumulative IPC: 0.0625621 (Simulation time: 0 hr 24 min 31 sec) 
Heartbeat CPU 0 instructions: 186000000 cycles: 2958029827 heartbeat IPC: 0.0606422 cumulative IPC: 0.0625514 (Simulation time: 0 hr 24 min 38 sec) 
Heartbeat CPU 0 instructions: 187000000 cycles: 2974474446 heartbeat IPC: 0.0608102 cumulative IPC: 0.0625417 (Simulation time: 0 hr 24 min 46 sec) 
Heartbeat CPU 0 instructions: 188000002 cycles: 2991227944 heartbeat IPC: 0.0596891 cumulative IPC: 0.0625258 (Simulation time: 0 hr 24 min 54 sec) 
Heartbeat CPU 0 instructions: 189000001 cycles: 3007933381 heartbeat IPC: 0.0598607 cumulative IPC: 0.062511 (Simulation time: 0 hr 25 min 2 sec) 
Heartbeat CPU 0 instructions: 190000003 cycles: 3024266072 heartbeat IPC: 0.061227 cumulative IPC: 0.062504 (Simulation time: 0 hr 25 min 10 sec) 
Heartbeat CPU 0 instructions: 191000000 cycles: 3040512046 heartbeat IPC: 0.0615535 cumulative IPC: 0.0624989 (Simulation time: 0 hr 25 min 18 sec) 
Heartbeat CPU 0 instructions: 192000002 cycles: 3056864080 heartbeat IPC: 0.0611546 cumulative IPC: 0.0624917 (Simulation time: 0 hr 25 min 25 sec) 
Heartbeat CPU 0 instructions: 193000000 cycles: 3073459925 heartbeat IPC: 0.0602559 cumulative IPC: 0.0624797 (Simulation time: 0 hr 25 min 33 sec) 
Heartbeat CPU 0 instructions: 194000001 cycles: 3089948113 heartbeat IPC: 0.0606495 cumulative IPC: 0.0624699 (Simulation time: 0 hr 25 min 41 sec) 
Heartbeat CPU 0 instructions: 195000000 cycles: 3106505097 heartbeat IPC: 0.0603974 cumulative IPC: 0.0624589 (Simulation time: 0 hr 25 min 49 sec) 
Heartbeat CPU 0 instructions: 196000002 cycles: 3122796412 heartbeat IPC: 0.0613825 cumulative IPC: 0.0624532 (Simulation time: 0 hr 25 min 57 sec) 
Heartbeat CPU 0 instructions: 197000002 cycles: 3139359667 heartbeat IPC: 0.0603746 cumulative IPC: 0.0624423 (Simulation time: 0 hr 26 min 4 sec) 
Heartbeat CPU 0 instructions: 198000000 cycles: 3156073910 heartbeat IPC: 0.0598291 cumulative IPC: 0.0624284 (Simulation time: 0 hr 26 min 12 sec) 
Heartbeat CPU 0 instructions: 199000001 cycles: 3172764134 heartbeat IPC: 0.0599154 cumulative IPC: 0.0624152 (Simulation time: 0 hr 26 min 20 sec) 
Heartbeat CPU 0 instructions: 200000000 cycles: 3189194369 heartbeat IPC: 0.0608633 cumulative IPC: 0.0624072 (Simulation time: 0 hr 26 min 28 sec) 
Heartbeat CPU 0 instructions: 201000001 cycles: 3205473928 heartbeat IPC: 0.0614268 cumulative IPC: 0.0624022 (Simulation time: 0 hr 26 min 36 sec) 
Heartbeat CPU 0 instructions: 202000000 cycles: 3221348961 heartbeat IPC: 0.0629919 cumulative IPC: 0.0624051 (Simulation time: 0 hr 26 min 43 sec) 
Heartbeat CPU 0 instructions: 203000001 cycles: 3237506419 heartbeat IPC: 0.061891 cumulative IPC: 0.0624026 (Simulation time: 0 hr 26 min 51 sec) 
Heartbeat CPU 0 instructions: 204000000 cycles: 3254204580 heartbeat IPC: 0.0598868 cumulative IPC: 0.0623897 (Simulation time: 0 hr 26 min 58 sec) 
Heartbeat CPU 0 instructions: 205000000 cycles: 3270352939 heartbeat IPC: 0.0619258 cumulative IPC: 0.0623874 (Simulation time: 0 hr 27 min 6 sec) 
Heartbeat CPU 0 instructions: 206000000 cycles: 3287136723 heartbeat IPC: 0.0595813 cumulative IPC: 0.062373 (Simulation time: 0 hr 27 min 14 sec) 
Heartbeat CPU 0 instructions: 207000001 cycles: 3303680436 heartbeat IPC: 0.060446 cumulative IPC: 0.0623634 (Simulation time: 0 hr 27 min 22 sec) 
Heartbeat CPU 0 instructions: 208000000 cycles: 3320022296 heartbeat IPC: 0.0611925 cumulative IPC: 0.0623576 (Simulation time: 0 hr 27 min 30 sec) 
Heartbeat CPU 0 instructions: 209000000 cycles: 3336330562 heartbeat IPC: 0.0613186 cumulative IPC: 0.0623525 (Simulation time: 0 hr 27 min 38 sec) 
Heartbeat CPU 0 instructions: 210000001 cycles: 3352468170 heartbeat IPC: 0.0619671 cumulative IPC: 0.0623507 (Simulation time: 0 hr 27 min 47 sec) 
Heartbeat CPU 0 instructions: 211000000 cycles: 3368679487 heartbeat IPC: 0.0616852 cumulative IPC: 0.0623475 (Simulation time: 0 hr 27 min 55 sec) 
Heartbeat CPU 0 instructions: 212000000 cycles: 3384876543 heartbeat IPC: 0.0617396 cumulative IPC: 0.0623446 (Simulation time: 0 hr 28 min 4 sec) 
Heartbeat CPU 0 instructions: 213000000 cycles: 3401159249 heartbeat IPC: 0.0614149 cumulative IPC: 0.0623401 (Simulation time: 0 hr 28 min 12 sec) 
Heartbeat CPU 0 instructions: 214000000 cycles: 3417349160 heartbeat IPC: 0.0617669 cumulative IPC: 0.0623374 (Simulation time: 0 hr 28 min 20 sec) 
Heartbeat CPU 0 instructions: 215000002 cycles: 3433664266 heartbeat IPC: 0.061293 cumulative IPC: 0.0623324 (Simulation time: 0 hr 28 min 29 sec) 
Heartbeat CPU 0 instructions: 216000000 cycles: 3449916203 heartbeat IPC: 0.061531 cumulative IPC: 0.0623287 (Simulation time: 0 hr 28 min 37 sec) 
Heartbeat CPU 0 instructions: 217000000 cycles: 3466081495 heartbeat IPC: 0.0618609 cumulative IPC: 0.0623265 (Simulation time: 0 hr 28 min 45 sec) 
Heartbeat CPU 0 instructions: 218000001 cycles: 3482199351 heartbeat IPC: 0.0620431 cumulative IPC: 0.0623252 (Simulation time: 0 hr 28 min 54 sec) 
Heartbeat CPU 0 instructions: 219000000 cycles: 3498512575 heartbeat IPC: 0.0612999 cumulative IPC: 0.0623204 (Simulation time: 0 hr 29 min 2 sec) 
Heartbeat CPU 0 instructions: 220000000 cycles: 3514798992 heartbeat IPC: 0.0614009 cumulative IPC: 0.0623161 (Simulation time: 0 hr 29 min 10 sec) 
Heartbeat CPU 0 instructions: 221000000 cycles: 3531006931 heartbeat IPC: 0.0616982 cumulative IPC: 0.0623133 (Simulation time: 0 hr 29 min 19 sec) 
Heartbeat CPU 0 instructions: 222000000 cycles: 3547077986 heartbeat IPC: 0.0622237 cumulative IPC: 0.0623129 (Simulation time: 0 hr 29 min 27 sec) 
Heartbeat CPU 0 instructions: 223000001 cycles: 3563289900 heartbeat IPC: 0.0616831 cumulative IPC: 0.06231 (Simulation time: 0 hr 29 min 35 sec) 
Heartbeat CPU 0 instructions: 224000000 cycles: 3579938504 heartbeat IPC: 0.060065 cumulative IPC: 0.0622996 (Simulation time: 0 hr 29 min 44 sec) 
Heartbeat CPU 0 instructions: 225000000 cycles: 3596442688 heartbeat IPC: 0.0605907 cumulative IPC: 0.0622917 (Simulation time: 0 hr 29 min 52 sec) 
Heartbeat CPU 0 instructions: 226000001 cycles: 3612857713 heartbeat IPC: 0.0609199 cumulative IPC: 0.0622855 (Simulation time: 0 hr 30 min 0 sec) 
Heartbeat CPU 0 instructions: 227000002 cycles: 3629278028 heartbeat IPC: 0.0609002 cumulative IPC: 0.0622792 (Simulation time: 0 hr 30 min 8 sec) 
Heartbeat CPU 0 instructions: 228000000 cycles: 3645526032 heartbeat IPC: 0.0615459 cumulative IPC: 0.062276 (Simulation time: 0 hr 30 min 17 sec) 
Heartbeat CPU 0 instructions: 229000001 cycles: 3661836671 heartbeat IPC: 0.0613097 cumulative IPC: 0.0622717 (Simulation time: 0 hr 30 min 25 sec) 
Heartbeat CPU 0 instructions: 230000001 cycles: 3678106700 heartbeat IPC: 0.0614627 cumulative IPC: 0.0622681 (Simulation time: 0 hr 30 min 33 sec) 
Heartbeat CPU 0 instructions: 231000000 cycles: 3694204953 heartbeat IPC: 0.0621185 cumulative IPC: 0.0622674 (Simulation time: 0 hr 30 min 42 sec) 
Heartbeat CPU 0 instructions: 232000000 cycles: 3710449963 heartbeat IPC: 0.0615574 cumulative IPC: 0.0622643 (Simulation time: 0 hr 30 min 50 sec) 
Heartbeat CPU 0 instructions: 233000000 cycles: 3726857934 heartbeat IPC: 0.060946 cumulative IPC: 0.0622585 (Simulation time: 0 hr 30 min 58 sec) 
Heartbeat CPU 0 instructions: 234000002 cycles: 3743235501 heartbeat IPC: 0.0610593 cumulative IPC: 0.0622533 (Simulation time: 0 hr 31 min 7 sec) 
Heartbeat CPU 0 instructions: 235000001 cycles: 3759630573 heartbeat IPC: 0.0609939 cumulative IPC: 0.0622478 (Simulation time: 0 hr 31 min 15 sec) 
Heartbeat CPU 0 instructions: 236000002 cycles: 3776052484 heartbeat IPC: 0.0608943 cumulative IPC: 0.0622419 (Simulation time: 0 hr 31 min 23 sec) 
Heartbeat CPU 0 instructions: 237000002 cycles: 3792434993 heartbeat IPC: 0.0610407 cumulative IPC: 0.0622367 (Simulation time: 0 hr 31 min 31 sec) 
Heartbeat CPU 0 instructions: 238000002 cycles: 3808759440 heartbeat IPC: 0.0612578 cumulative IPC: 0.0622325 (Simulation time: 0 hr 31 min 39 sec) 
Heartbeat CPU 0 instructions: 239000003 cycles: 3825320275 heartbeat IPC: 0.0603835 cumulative IPC: 0.0622245 (Simulation time: 0 hr 31 min 48 sec) 
Heartbeat CPU 0 instructions: 240000000 cycles: 3841721975 heartbeat IPC: 0.0609691 cumulative IPC: 0.0622191 (Simulation time: 0 hr 31 min 56 sec) 
Heartbeat CPU 0 instructions: 241000001 cycles: 3858095463 heartbeat IPC: 0.0610744 cumulative IPC: 0.0622143 (Simulation time: 0 hr 32 min 4 sec) 
Heartbeat CPU 0 instructions: 242000000 cycles: 3874396450 heartbeat IPC: 0.0613459 cumulative IPC: 0.0622106 (Simulation time: 0 hr 32 min 12 sec) 
Heartbeat CPU 0 instructions: 243000000 cycles: 3890725730 heartbeat IPC: 0.0612397 cumulative IPC: 0.0622066 (Simulation time: 0 hr 32 min 22 sec) 
Heartbeat CPU 0 instructions: 244000002 cycles: 3906987395 heartbeat IPC: 0.0614944 cumulative IPC: 0.0622036 (Simulation time: 0 hr 32 min 30 sec) 
Heartbeat CPU 0 instructions: 245000000 cycles: 3923219999 heartbeat IPC: 0.0616043 cumulative IPC: 0.0622011 (Simulation time: 0 hr 32 min 39 sec) 
Heartbeat CPU 0 instructions: 246000002 cycles: 3939765430 heartbeat IPC: 0.0604398 cumulative IPC: 0.0621937 (Simulation time: 0 hr 32 min 47 sec) 
Heartbeat CPU 0 instructions: 247000001 cycles: 3956325217 heartbeat IPC: 0.0603872 cumulative IPC: 0.0621861 (Simulation time: 0 hr 32 min 55 sec) 
Heartbeat CPU 0 instructions: 248000000 cycles: 3972471114 heartbeat IPC: 0.0619352 cumulative IPC: 0.0621851 (Simulation time: 0 hr 33 min 3 sec) 
Heartbeat CPU 0 instructions: 249000000 cycles: 3988652283 heartbeat IPC: 0.0618002 cumulative IPC: 0.0621836 (Simulation time: 0 hr 33 min 11 sec) 
Heartbeat CPU 0 instructions: 250000000 cycles: 4005093391 heartbeat IPC: 0.0608231 cumulative IPC: 0.062178 (Simulation time: 0 hr 33 min 19 sec) 
Heartbeat CPU 0 instructions: 251000002 cycles: 4021587225 heartbeat IPC: 0.0606288 cumulative IPC: 0.0621716 (Simulation time: 0 hr 33 min 28 sec) 
Heartbeat CPU 0 instructions: 252000002 cycles: 4038041795 heartbeat IPC: 0.0607734 cumulative IPC: 0.0621659 (Simulation time: 0 hr 33 min 36 sec) 
Heartbeat CPU 0 instructions: 253000000 cycles: 4054509191 heartbeat IPC: 0.0607259 cumulative IPC: 0.0621601 (Simulation time: 0 hr 33 min 44 sec) 
Heartbeat CPU 0 instructions: 254000000 cycles: 4070854611 heartbeat IPC: 0.0611792 cumulative IPC: 0.0621561 (Simulation time: 0 hr 33 min 51 sec) 
Heartbeat CPU 0 instructions: 255000002 cycles: 4087086306 heartbeat IPC: 0.061608 cumulative IPC: 0.062154 (Simulation time: 0 hr 33 min 59 sec) 
Heartbeat CPU 0 instructions: 256000000 cycles: 4103081869 heartbeat IPC: 0.0625172 cumulative IPC: 0.0621554 (Simulation time: 0 hr 34 min 7 sec) 
Heartbeat CPU 0 instructions: 257000001 cycles: 4119043319 heartbeat IPC: 0.062651 cumulative IPC: 0.0621573 (Simulation time: 0 hr 34 min 15 sec) 
Heartbeat CPU 0 instructions: 258000001 cycles: 4135223532 heartbeat IPC: 0.0618039 cumulative IPC: 0.0621559 (Simulation time: 0 hr 34 min 24 sec) 
Heartbeat CPU 0 instructions: 259000000 cycles: 4151520452 heartbeat IPC: 0.0613612 cumulative IPC: 0.0621528 (Simulation time: 0 hr 34 min 32 sec) 
Heartbeat CPU 0 instructions: 260000000 cycles: 4167933447 heartbeat IPC: 0.0609273 cumulative IPC: 0.062148 (Simulation time: 0 hr 34 min 40 sec) 
Heartbeat CPU 0 instructions: 261000000 cycles: 4184176250 heartbeat IPC: 0.0615657 cumulative IPC: 0.0621457 (Simulation time: 0 hr 34 min 48 sec) 
Heartbeat CPU 0 instructions: 262000002 cycles: 4200450743 heartbeat IPC: 0.061446 cumulative IPC: 0.062143 (Simulation time: 0 hr 34 min 56 sec) 
Heartbeat CPU 0 instructions: 263000000 cycles: 4216698734 heartbeat IPC: 0.0615459 cumulative IPC: 0.0621407 (Simulation time: 0 hr 35 min 4 sec) 
Heartbeat CPU 0 instructions: 264000000 cycles: 4233167944 heartbeat IPC: 0.0607194 cumulative IPC: 0.0621352 (Simulation time: 0 hr 35 min 13 sec) 
Heartbeat CPU 0 instructions: 265000000 cycles: 4249433950 heartbeat IPC: 0.0614779 cumulative IPC: 0.0621327 (Simulation time: 0 hr 35 min 21 sec) 
Heartbeat CPU 0 instructions: 266000000 cycles: 4265560605 heartbeat IPC: 0.0620091 cumulative IPC: 0.0621322 (Simulation time: 0 hr 35 min 29 sec) 
Heartbeat CPU 0 instructions: 267000000 cycles: 4281944218 heartbeat IPC: 0.0610366 cumulative IPC: 0.062128 (Simulation time: 0 hr 35 min 37 sec) 
Heartbeat CPU 0 instructions: 268000000 cycles: 4298256646 heartbeat IPC: 0.061303 cumulative IPC: 0.0621249 (Simulation time: 0 hr 35 min 46 sec) 
Heartbeat CPU 0 instructions: 269000001 cycles: 4314620781 heartbeat IPC: 0.0611093 cumulative IPC: 0.062121 (Simulation time: 0 hr 35 min 54 sec) 
Heartbeat CPU 0 instructions: 270000000 cycles: 4330989566 heartbeat IPC: 0.0610918 cumulative IPC: 0.0621171 (Simulation time: 0 hr 36 min 2 sec) 
Heartbeat CPU 0 instructions: 271000002 cycles: 4347405452 heartbeat IPC: 0.0609167 cumulative IPC: 0.0621126 (Simulation time: 0 hr 36 min 10 sec) 
Heartbeat CPU 0 instructions: 272000000 cycles: 4363786981 heartbeat IPC: 0.0610442 cumulative IPC: 0.0621086 (Simulation time: 0 hr 36 min 18 sec) 
Heartbeat CPU 0 instructions: 273000000 cycles: 4380215732 heartbeat IPC: 0.0608689 cumulative IPC: 0.0621039 (Simulation time: 0 hr 36 min 27 sec) 
Heartbeat CPU 0 instructions: 274000000 cycles: 4396562184 heartbeat IPC: 0.0611754 cumulative IPC: 0.0621005 (Simulation time: 0 hr 36 min 35 sec) 
Heartbeat CPU 0 instructions: 275000000 cycles: 4412856286 heartbeat IPC: 0.0613719 cumulative IPC: 0.0620978 (Simulation time: 0 hr 36 min 43 sec) 
Heartbeat CPU 0 instructions: 276000000 cycles: 4428975471 heartbeat IPC: 0.0620379 cumulative IPC: 0.0620976 (Simulation time: 0 hr 36 min 52 sec) 
Heartbeat CPU 0 instructions: 277000001 cycles: 4445169082 heartbeat IPC: 0.0617528 cumulative IPC: 0.0620963 (Simulation time: 0 hr 37 min 0 sec) 
Heartbeat CPU 0 instructions: 278000002 cycles: 4461482098 heartbeat IPC: 0.0613008 cumulative IPC: 0.0620934 (Simulation time: 0 hr 37 min 8 sec) 
Heartbeat CPU 0 instructions: 279000001 cycles: 4477106966 heartbeat IPC: 0.0640005 cumulative IPC: 0.0621001 (Simulation time: 0 hr 37 min 16 sec) 
Heartbeat CPU 0 instructions: 280000000 cycles: 4493178383 heartbeat IPC: 0.0622222 cumulative IPC: 0.0621005 (Simulation time: 0 hr 37 min 24 sec) 
Heartbeat CPU 0 instructions: 281000000 cycles: 4509468996 heartbeat IPC: 0.061385 cumulative IPC: 0.0620979 (Simulation time: 0 hr 37 min 33 sec) 
Heartbeat CPU 0 instructions: 282000000 cycles: 4525570701 heartbeat IPC: 0.0621052 cumulative IPC: 0.0620979 (Simulation time: 0 hr 37 min 41 sec) 
Heartbeat CPU 0 instructions: 283000000 cycles: 4541599272 heartbeat IPC: 0.0623886 cumulative IPC: 0.062099 (Simulation time: 0 hr 37 min 49 sec) 
Heartbeat CPU 0 instructions: 284000002 cycles: 4557505689 heartbeat IPC: 0.0628678 cumulative IPC: 0.0621016 (Simulation time: 0 hr 37 min 58 sec) 
Heartbeat CPU 0 instructions: 285000000 cycles: 4573556156 heartbeat IPC: 0.0623034 cumulative IPC: 0.0621023 (Simulation time: 0 hr 38 min 6 sec) 
Heartbeat CPU 0 instructions: 286000000 cycles: 4589817149 heartbeat IPC: 0.0614969 cumulative IPC: 0.0621002 (Simulation time: 0 hr 38 min 14 sec) 
Heartbeat CPU 0 instructions: 287000001 cycles: 4606111833 heartbeat IPC: 0.0613698 cumulative IPC: 0.0620976 (Simulation time: 0 hr 38 min 22 sec) 
Heartbeat CPU 0 instructions: 288000003 cycles: 4622103130 heartbeat IPC: 0.0625341 cumulative IPC: 0.0620991 (Simulation time: 0 hr 38 min 31 sec) 
Heartbeat CPU 0 instructions: 289000000 cycles: 4638393005 heartbeat IPC: 0.0613876 cumulative IPC: 0.0620966 (Simulation time: 0 hr 38 min 39 sec) 
Heartbeat CPU 0 instructions: 290000000 cycles: 4654876265 heartbeat IPC: 0.0606676 cumulative IPC: 0.0620916 (Simulation time: 0 hr 38 min 47 sec) 
Heartbeat CPU 0 instructions: 291000000 cycles: 4671332485 heartbeat IPC: 0.0607673 cumulative IPC: 0.0620869 (Simulation time: 0 hr 38 min 55 sec) 
Heartbeat CPU 0 instructions: 292000000 cycles: 4687585024 heartbeat IPC: 0.0615288 cumulative IPC: 0.062085 (Simulation time: 0 hr 39 min 3 sec) 
Heartbeat CPU 0 instructions: 293000000 cycles: 4704073685 heartbeat IPC: 0.0606477 cumulative IPC: 0.0620799 (Simulation time: 0 hr 39 min 12 sec) 
Heartbeat CPU 0 instructions: 294000000 cycles: 4720870548 heartbeat IPC: 0.0595349 cumulative IPC: 0.0620709 (Simulation time: 0 hr 39 min 20 sec) 
Heartbeat CPU 0 instructions: 295000002 cycles: 4735732004 heartbeat IPC: 0.0672883 cumulative IPC: 0.0620872 (Simulation time: 0 hr 39 min 27 sec) 
Heartbeat CPU 0 instructions: 296000002 cycles: 4749769993 heartbeat IPC: 0.0712353 cumulative IPC: 0.0621143 (Simulation time: 0 hr 39 min 35 sec) 
Heartbeat CPU 0 instructions: 297000000 cycles: 4764493945 heartbeat IPC: 0.0679164 cumulative IPC: 0.0621322 (Simulation time: 0 hr 39 min 43 sec) 
Heartbeat CPU 0 instructions: 298000000 cycles: 4780292094 heartbeat IPC: 0.0632986 cumulative IPC: 0.0621361 (Simulation time: 0 hr 39 min 52 sec) 
Heartbeat CPU 0 instructions: 299000002 cycles: 4794530267 heartbeat IPC: 0.0702339 cumulative IPC: 0.0621601 (Simulation time: 0 hr 39 min 59 sec) 
Heartbeat CPU 0 instructions: 300000000 cycles: 4811000673 heartbeat IPC: 0.0607148 cumulative IPC: 0.0621552 (Simulation time: 0 hr 40 min 7 sec) 
Heartbeat CPU 0 instructions: 301000000 cycles: 4827266793 heartbeat IPC: 0.0614775 cumulative IPC: 0.0621529 (Simulation time: 0 hr 40 min 15 sec) 
Heartbeat CPU 0 instructions: 302000002 cycles: 4842417936 heartbeat IPC: 0.0660018 cumulative IPC: 0.0621649 (Simulation time: 0 hr 40 min 23 sec) 
Heartbeat CPU 0 instructions: 303000001 cycles: 4857401885 heartbeat IPC: 0.066738 cumulative IPC: 0.062179 (Simulation time: 0 hr 40 min 31 sec) 
Heartbeat CPU 0 instructions: 304000002 cycles: 4872072222 heartbeat IPC: 0.0681648 cumulative IPC: 0.0621971 (Simulation time: 0 hr 40 min 38 sec) 
Heartbeat CPU 0 instructions: 305000000 cycles: 4888557678 heartbeat IPC: 0.0606594 cumulative IPC: 0.0621919 (Simulation time: 0 hr 40 min 46 sec) 
Heartbeat CPU 0 instructions: 306000000 cycles: 4904991612 heartbeat IPC: 0.0608497 cumulative IPC: 0.0621874 (Simulation time: 0 hr 40 min 55 sec) 
Heartbeat CPU 0 instructions: 307000003 cycles: 4921400816 heartbeat IPC: 0.0609416 cumulative IPC: 0.0621832 (Simulation time: 0 hr 41 min 3 sec) 
Heartbeat CPU 0 instructions: 308000000 cycles: 4937779200 heartbeat IPC: 0.0610559 cumulative IPC: 0.0621795 (Simulation time: 0 hr 41 min 11 sec) 
Heartbeat CPU 0 instructions: 309000000 cycles: 4954132014 heartbeat IPC: 0.0611516 cumulative IPC: 0.0621761 (Simulation time: 0 hr 41 min 19 sec) 
Heartbeat CPU 0 instructions: 310000000 cycles: 4970569710 heartbeat IPC: 0.0608358 cumulative IPC: 0.0621717 (Simulation time: 0 hr 41 min 28 sec) 
Heartbeat CPU 0 instructions: 311000002 cycles: 4986942261 heartbeat IPC: 0.061078 cumulative IPC: 0.0621681 (Simulation time: 0 hr 41 min 36 sec) 
Heartbeat CPU 0 instructions: 312000000 cycles: 5003104005 heartbeat IPC: 0.0618744 cumulative IPC: 0.0621671 (Simulation time: 0 hr 41 min 44 sec) 
Heartbeat CPU 0 instructions: 313000000 cycles: 5019192717 heartbeat IPC: 0.0621554 cumulative IPC: 0.0621671 (Simulation time: 0 hr 41 min 52 sec) 
Heartbeat CPU 0 instructions: 314000000 cycles: 5035244163 heartbeat IPC: 0.0622997 cumulative IPC: 0.0621675 (Simulation time: 0 hr 42 min 1 sec) 
Heartbeat CPU 0 instructions: 315000001 cycles: 5051391467 heartbeat IPC: 0.0619299 cumulative IPC: 0.0621668 (Simulation time: 0 hr 42 min 9 sec) 
Heartbeat CPU 0 instructions: 316000003 cycles: 5067618548 heartbeat IPC: 0.0616255 cumulative IPC: 0.062165 (Simulation time: 0 hr 42 min 17 sec) 
Heartbeat CPU 0 instructions: 317000000 cycles: 5083928606 heartbeat IPC: 0.0613117 cumulative IPC: 0.0621623 (Simulation time: 0 hr 42 min 26 sec) 
Heartbeat CPU 0 instructions: 318000000 cycles: 5100345406 heartbeat IPC: 0.0609132 cumulative IPC: 0.0621583 (Simulation time: 0 hr 42 min 34 sec) 
Heartbeat CPU 0 instructions: 319000000 cycles: 5116792655 heartbeat IPC: 0.0608004 cumulative IPC: 0.0621539 (Simulation time: 0 hr 42 min 42 sec) 
Heartbeat CPU 0 instructions: 320000000 cycles: 5132925325 heartbeat IPC: 0.061986 cumulative IPC: 0.0621534 (Simulation time: 0 hr 42 min 51 sec) 
Heartbeat CPU 0 instructions: 321000000 cycles: 5149238074 heartbeat IPC: 0.0613017 cumulative IPC: 0.0621507 (Simulation time: 0 hr 42 min 59 sec) 
Heartbeat CPU 0 instructions: 322000002 cycles: 5165462625 heartbeat IPC: 0.0616351 cumulative IPC: 0.0621491 (Simulation time: 0 hr 43 min 7 sec) 
Heartbeat CPU 0 instructions: 323000001 cycles: 5181586178 heartbeat IPC: 0.062021 cumulative IPC: 0.0621487 (Simulation time: 0 hr 43 min 16 sec) 
Heartbeat CPU 0 instructions: 324000000 cycles: 5198015425 heartbeat IPC: 0.060867 cumulative IPC: 0.0621446 (Simulation time: 0 hr 43 min 24 sec) 
Heartbeat CPU 0 instructions: 325000000 cycles: 5214125965 heartbeat IPC: 0.0620712 cumulative IPC: 0.0621444 (Simulation time: 0 hr 43 min 32 sec) 
Heartbeat CPU 0 instructions: 326000000 cycles: 5230711720 heartbeat IPC: 0.0602927 cumulative IPC: 0.0621385 (Simulation time: 0 hr 43 min 40 sec) 
Heartbeat CPU 0 instructions: 327000000 cycles: 5247264028 heartbeat IPC: 0.0604145 cumulative IPC: 0.0621331 (Simulation time: 0 hr 43 min 49 sec) 
Heartbeat CPU 0 instructions: 328000000 cycles: 5263784403 heartbeat IPC: 0.0605313 cumulative IPC: 0.062128 (Simulation time: 0 hr 43 min 57 sec) 
Heartbeat CPU 0 instructions: 329000002 cycles: 5280447035 heartbeat IPC: 0.0600146 cumulative IPC: 0.0621214 (Simulation time: 0 hr 44 min 5 sec) 
Heartbeat CPU 0 instructions: 330000000 cycles: 5296983564 heartbeat IPC: 0.0604721 cumulative IPC: 0.0621162 (Simulation time: 0 hr 44 min 13 sec) 
Heartbeat CPU 0 instructions: 331000000 cycles: 5313374435 heartbeat IPC: 0.0610096 cumulative IPC: 0.0621128 (Simulation time: 0 hr 44 min 22 sec) 
Heartbeat CPU 0 instructions: 332000000 cycles: 5330111436 heartbeat IPC: 0.0597479 cumulative IPC: 0.0621054 (Simulation time: 0 hr 44 min 30 sec) 
Heartbeat CPU 0 instructions: 333000000 cycles: 5346465444 heartbeat IPC: 0.0611471 cumulative IPC: 0.0621024 (Simulation time: 0 hr 44 min 38 sec) 
Heartbeat CPU 0 instructions: 334000001 cycles: 5363148957 heartbeat IPC: 0.0599395 cumulative IPC: 0.0620957 (Simulation time: 0 hr 44 min 46 sec) 
Heartbeat CPU 0 instructions: 335000002 cycles: 5379814331 heartbeat IPC: 0.0600047 cumulative IPC: 0.0620892 (Simulation time: 0 hr 44 min 55 sec) 
Heartbeat CPU 0 instructions: 336000000 cycles: 5396479496 heartbeat IPC: 0.0600053 cumulative IPC: 0.0620828 (Simulation time: 0 hr 45 min 3 sec) 
Heartbeat CPU 0 instructions: 337000000 cycles: 5413381825 heartbeat IPC: 0.0591634 cumulative IPC: 0.0620737 (Simulation time: 0 hr 45 min 11 sec) 
Heartbeat CPU 0 instructions: 338000000 cycles: 5429894473 heartbeat IPC: 0.0605596 cumulative IPC: 0.0620691 (Simulation time: 0 hr 45 min 19 sec) 
Heartbeat CPU 0 instructions: 339000000 cycles: 5446326971 heartbeat IPC: 0.060855 cumulative IPC: 0.0620654 (Simulation time: 0 hr 45 min 27 sec) 
Heartbeat CPU 0 instructions: 340000001 cycles: 5462472174 heartbeat IPC: 0.061938 cumulative IPC: 0.062065 (Simulation time: 0 hr 45 min 35 sec) 
Heartbeat CPU 0 instructions: 341000000 cycles: 5478792221 heartbeat IPC: 0.0612743 cumulative IPC: 0.0620627 (Simulation time: 0 hr 45 min 43 sec) 
Heartbeat CPU 0 instructions: 342000001 cycles: 5494952039 heartbeat IPC: 0.0618819 cumulative IPC: 0.0620622 (Simulation time: 0 hr 45 min 52 sec) 
Heartbeat CPU 0 instructions: 343000002 cycles: 5511224007 heartbeat IPC: 0.0614554 cumulative IPC: 0.0620604 (Simulation time: 0 hr 46 min 0 sec) 
Heartbeat CPU 0 instructions: 344000000 cycles: 5527268297 heartbeat IPC: 0.0623273 cumulative IPC: 0.0620611 (Simulation time: 0 hr 46 min 8 sec) 
Heartbeat CPU 0 instructions: 345000002 cycles: 5543464671 heartbeat IPC: 0.0617423 cumulative IPC: 0.0620602 (Simulation time: 0 hr 46 min 17 sec) 
Heartbeat CPU 0 instructions: 346000000 cycles: 5559516478 heartbeat IPC: 0.0622982 cumulative IPC: 0.0620609 (Simulation time: 0 hr 46 min 25 sec) 
Heartbeat CPU 0 instructions: 347000000 cycles: 5575764962 heartbeat IPC: 0.0615442 cumulative IPC: 0.0620594 (Simulation time: 0 hr 46 min 34 sec) 
Heartbeat CPU 0 instructions: 348000001 cycles: 5592200307 heartbeat IPC: 0.0608445 cumulative IPC: 0.0620558 (Simulation time: 0 hr 46 min 42 sec) 
Heartbeat CPU 0 instructions: 349000001 cycles: 5608631145 heartbeat IPC: 0.0608612 cumulative IPC: 0.0620523 (Simulation time: 0 hr 46 min 50 sec) 
Heartbeat CPU 0 instructions: 350000001 cycles: 5624978962 heartbeat IPC: 0.0611702 cumulative IPC: 0.0620498 (Simulation time: 0 hr 46 min 58 sec) 
Heartbeat CPU 0 instructions: 351000000 cycles: 5641167631 heartbeat IPC: 0.0617715 cumulative IPC: 0.062049 (Simulation time: 0 hr 47 min 7 sec) 
Heartbeat CPU 0 instructions: 352000000 cycles: 5657628787 heartbeat IPC: 0.0607491 cumulative IPC: 0.0620452 (Simulation time: 0 hr 47 min 15 sec) 
Heartbeat CPU 0 instructions: 353000000 cycles: 5674225535 heartbeat IPC: 0.0602528 cumulative IPC: 0.0620399 (Simulation time: 0 hr 47 min 24 sec) 
Heartbeat CPU 0 instructions: 354000000 cycles: 5691113283 heartbeat IPC: 0.0592145 cumulative IPC: 0.0620315 (Simulation time: 0 hr 47 min 32 sec) 
Heartbeat CPU 0 instructions: 355000000 cycles: 5707819803 heartbeat IPC: 0.0598569 cumulative IPC: 0.0620252 (Simulation time: 0 hr 47 min 40 sec) 
Heartbeat CPU 0 instructions: 356000000 cycles: 5724459885 heartbeat IPC: 0.0600959 cumulative IPC: 0.0620196 (Simulation time: 0 hr 47 min 48 sec) 
Heartbeat CPU 0 instructions: 357000000 cycles: 5741063261 heartbeat IPC: 0.0602287 cumulative IPC: 0.0620144 (Simulation time: 0 hr 47 min 56 sec) 
Heartbeat CPU 0 instructions: 358000000 cycles: 5757619963 heartbeat IPC: 0.0603985 cumulative IPC: 0.0620097 (Simulation time: 0 hr 48 min 5 sec) 
Heartbeat CPU 0 instructions: 359000001 cycles: 5774216653 heartbeat IPC: 0.060253 cumulative IPC: 0.0620047 (Simulation time: 0 hr 48 min 13 sec) 
Heartbeat CPU 0 instructions: 360000000 cycles: 5790759352 heartbeat IPC: 0.0604496 cumulative IPC: 0.0620003 (Simulation time: 0 hr 48 min 21 sec) 
Heartbeat CPU 0 instructions: 361000000 cycles: 5807350290 heartbeat IPC: 0.0602739 cumulative IPC: 0.0619953 (Simulation time: 0 hr 48 min 30 sec) 
Heartbeat CPU 0 instructions: 362000002 cycles: 5823797557 heartbeat IPC: 0.0608005 cumulative IPC: 0.0619919 (Simulation time: 0 hr 48 min 38 sec) 
Heartbeat CPU 0 instructions: 363000000 cycles: 5840372846 heartbeat IPC: 0.0603307 cumulative IPC: 0.0619872 (Simulation time: 0 hr 48 min 46 sec) 
Heartbeat CPU 0 instructions: 364000001 cycles: 5857052011 heartbeat IPC: 0.0599551 cumulative IPC: 0.0619814 (Simulation time: 0 hr 48 min 54 sec) 
Heartbeat CPU 0 instructions: 365000000 cycles: 5873851141 heartbeat IPC: 0.0595268 cumulative IPC: 0.0619744 (Simulation time: 0 hr 49 min 2 sec) 
Heartbeat CPU 0 instructions: 366000001 cycles: 5890629240 heartbeat IPC: 0.0596016 cumulative IPC: 0.0619677 (Simulation time: 0 hr 49 min 11 sec) 
Heartbeat CPU 0 instructions: 367000000 cycles: 5907183251 heartbeat IPC: 0.0604083 cumulative IPC: 0.0619633 (Simulation time: 0 hr 49 min 19 sec) 
Heartbeat CPU 0 instructions: 368000001 cycles: 5923731864 heartbeat IPC: 0.0604281 cumulative IPC: 0.061959 (Simulation time: 0 hr 49 min 27 sec) 
Heartbeat CPU 0 instructions: 369000002 cycles: 5940390674 heartbeat IPC: 0.0600284 cumulative IPC: 0.0619536 (Simulation time: 0 hr 49 min 35 sec) 
Heartbeat CPU 0 instructions: 370000000 cycles: 5957275325 heartbeat IPC: 0.0592253 cumulative IPC: 0.0619459 (Simulation time: 0 hr 49 min 43 sec) 
Heartbeat CPU 0 instructions: 371000000 cycles: 5974081630 heartbeat IPC: 0.0595015 cumulative IPC: 0.061939 (Simulation time: 0 hr 49 min 52 sec) 
Heartbeat CPU 0 instructions: 372000000 cycles: 5990846446 heartbeat IPC: 0.0596487 cumulative IPC: 0.0619326 (Simulation time: 0 hr 50 min 0 sec) 
Heartbeat CPU 0 instructions: 373000002 cycles: 6007520341 heartbeat IPC: 0.0599741 cumulative IPC: 0.0619271 (Simulation time: 0 hr 50 min 8 sec) 
Heartbeat CPU 0 instructions: 374000000 cycles: 6023857508 heartbeat IPC: 0.06121 cumulative IPC: 0.0619252 (Simulation time: 0 hr 50 min 16 sec) 
Heartbeat CPU 0 instructions: 375000000 cycles: 6040333372 heartbeat IPC: 0.0606948 cumulative IPC: 0.0619218 (Simulation time: 0 hr 50 min 24 sec) 
Heartbeat CPU 0 instructions: 376000001 cycles: 6056849667 heartbeat IPC: 0.0605463 cumulative IPC: 0.0619181 (Simulation time: 0 hr 50 min 33 sec) 
Heartbeat CPU 0 instructions: 377000002 cycles: 6073578707 heartbeat IPC: 0.0597764 cumulative IPC: 0.0619122 (Simulation time: 0 hr 50 min 41 sec) 
Heartbeat CPU 0 instructions: 378000000 cycles: 6090351089 heartbeat IPC: 0.0596217 cumulative IPC: 0.0619059 (Simulation time: 0 hr 50 min 49 sec) 
Heartbeat CPU 0 instructions: 379000002 cycles: 6107098186 heartbeat IPC: 0.059712 cumulative IPC: 0.0618999 (Simulation time: 0 hr 50 min 57 sec) 
Heartbeat CPU 0 instructions: 380000001 cycles: 6123863163 heartbeat IPC: 0.0596481 cumulative IPC: 0.0618937 (Simulation time: 0 hr 51 min 5 sec) 
Heartbeat CPU 0 instructions: 381000000 cycles: 6140738390 heartbeat IPC: 0.0592584 cumulative IPC: 0.0618864 (Simulation time: 0 hr 51 min 14 sec) 
Heartbeat CPU 0 instructions: 382000000 cycles: 6157429195 heartbeat IPC: 0.0599132 cumulative IPC: 0.0618811 (Simulation time: 0 hr 51 min 22 sec) 
Heartbeat CPU 0 instructions: 383000000 cycles: 6173998008 heartbeat IPC: 0.0603544 cumulative IPC: 0.061877 (Simulation time: 0 hr 51 min 30 sec) 
Heartbeat CPU 0 instructions: 384000003 cycles: 6191124240 heartbeat IPC: 0.0583901 cumulative IPC: 0.0618674 (Simulation time: 0 hr 51 min 39 sec) 
Heartbeat CPU 0 instructions: 385000000 cycles: 6210198529 heartbeat IPC: 0.0524264 cumulative IPC: 0.0618384 (Simulation time: 0 hr 51 min 49 sec) 
Heartbeat CPU 0 instructions: 386000002 cycles: 6226867464 heartbeat IPC: 0.059992 cumulative IPC: 0.0618334 (Simulation time: 0 hr 51 min 57 sec) 
Heartbeat CPU 0 instructions: 387000000 cycles: 6243381654 heartbeat IPC: 0.0605539 cumulative IPC: 0.06183 (Simulation time: 0 hr 52 min 5 sec) 
Heartbeat CPU 0 instructions: 388000000 cycles: 6259747945 heartbeat IPC: 0.0611012 cumulative IPC: 0.0618281 (Simulation time: 0 hr 52 min 14 sec) 
Heartbeat CPU 0 instructions: 389000002 cycles: 6275886465 heartbeat IPC: 0.0619637 cumulative IPC: 0.0618285 (Simulation time: 0 hr 52 min 22 sec) 
Heartbeat CPU 0 instructions: 390000000 cycles: 6292076219 heartbeat IPC: 0.0617673 cumulative IPC: 0.0618283 (Simulation time: 0 hr 52 min 30 sec) 
Heartbeat CPU 0 instructions: 391000000 cycles: 6308297013 heartbeat IPC: 0.0616493 cumulative IPC: 0.0618279 (Simulation time: 0 hr 52 min 38 sec) 
Heartbeat CPU 0 instructions: 392000002 cycles: 6324544548 heartbeat IPC: 0.0615479 cumulative IPC: 0.0618271 (Simulation time: 0 hr 52 min 47 sec) 
Heartbeat CPU 0 instructions: 393000001 cycles: 6340743916 heartbeat IPC: 0.0617307 cumulative IPC: 0.0618269 (Simulation time: 0 hr 52 min 55 sec) 
Heartbeat CPU 0 instructions: 394000000 cycles: 6357061420 heartbeat IPC: 0.0612838 cumulative IPC: 0.0618255 (Simulation time: 0 hr 53 min 3 sec) 
Heartbeat CPU 0 instructions: 395000000 cycles: 6373505714 heartbeat IPC: 0.0608114 cumulative IPC: 0.0618229 (Simulation time: 0 hr 53 min 11 sec) 
Heartbeat CPU 0 instructions: 396000000 cycles: 6390195341 heartbeat IPC: 0.0599175 cumulative IPC: 0.0618179 (Simulation time: 0 hr 53 min 20 sec) 
Heartbeat CPU 0 instructions: 397000000 cycles: 6406953533 heartbeat IPC: 0.0596723 cumulative IPC: 0.0618123 (Simulation time: 0 hr 53 min 28 sec) 
Heartbeat CPU 0 instructions: 398000002 cycles: 6423646698 heartbeat IPC: 0.0599049 cumulative IPC: 0.0618073 (Simulation time: 0 hr 53 min 36 sec) 
Heartbeat CPU 0 instructions: 399000000 cycles: 6440581904 heartbeat IPC: 0.0590485 cumulative IPC: 0.0618001 (Simulation time: 0 hr 53 min 44 sec) 
Heartbeat CPU 0 instructions: 400000000 cycles: 6457553927 heartbeat IPC: 0.0589205 cumulative IPC: 0.0617925 (Simulation time: 0 hr 53 min 52 sec) 
Heartbeat CPU 0 instructions: 401000000 cycles: 6474646404 heartbeat IPC: 0.0585053 cumulative IPC: 0.0617838 (Simulation time: 0 hr 54 min 0 sec) 
Heartbeat CPU 0 instructions: 402000001 cycles: 6491325506 heartbeat IPC: 0.0599553 cumulative IPC: 0.0617791 (Simulation time: 0 hr 54 min 8 sec) 
Heartbeat CPU 0 instructions: 403000001 cycles: 6506856760 heartbeat IPC: 0.0643863 cumulative IPC: 0.0617854 (Simulation time: 0 hr 54 min 16 sec) 
Heartbeat CPU 0 instructions: 404000000 cycles: 6523377879 heartbeat IPC: 0.0605285 cumulative IPC: 0.0617822 (Simulation time: 0 hr 54 min 24 sec) 
Heartbeat CPU 0 instructions: 405000000 cycles: 6540159453 heartbeat IPC: 0.0595892 cumulative IPC: 0.0617765 (Simulation time: 0 hr 54 min 32 sec) 
Heartbeat CPU 0 instructions: 406000000 cycles: 6556874242 heartbeat IPC: 0.0598273 cumulative IPC: 0.0617716 (Simulation time: 0 hr 54 min 40 sec) 
Heartbeat CPU 0 instructions: 407000000 cycles: 6573667987 heartbeat IPC: 0.059546 cumulative IPC: 0.0617659 (Simulation time: 0 hr 54 min 48 sec) 
Heartbeat CPU 0 instructions: 408000000 cycles: 6590569132 heartbeat IPC: 0.0591676 cumulative IPC: 0.0617592 (Simulation time: 0 hr 54 min 56 sec) 
Heartbeat CPU 0 instructions: 409000001 cycles: 6606975476 heartbeat IPC: 0.0609521 cumulative IPC: 0.0617572 (Simulation time: 0 hr 55 min 5 sec) 
Heartbeat CPU 0 instructions: 410000000 cycles: 6623766419 heartbeat IPC: 0.0595559 cumulative IPC: 0.0617516 (Simulation time: 0 hr 55 min 14 sec) 
Heartbeat CPU 0 instructions: 411000000 cycles: 6640641950 heartbeat IPC: 0.0592574 cumulative IPC: 0.0617453 (Simulation time: 0 hr 55 min 22 sec) 
Heartbeat CPU 0 instructions: 412000002 cycles: 6657435909 heartbeat IPC: 0.0595453 cumulative IPC: 0.0617398 (Simulation time: 0 hr 55 min 31 sec) 
Heartbeat CPU 0 instructions: 413000000 cycles: 6674163557 heartbeat IPC: 0.0597811 cumulative IPC: 0.0617348 (Simulation time: 0 hr 55 min 39 sec) 
Heartbeat CPU 0 instructions: 414000000 cycles: 6690869971 heartbeat IPC: 0.0598572 cumulative IPC: 0.0617302 (Simulation time: 0 hr 55 min 47 sec) 
Heartbeat CPU 0 instructions: 415000002 cycles: 6707570166 heartbeat IPC: 0.0598797 cumulative IPC: 0.0617255 (Simulation time: 0 hr 55 min 55 sec) 
Heartbeat CPU 0 instructions: 416000000 cycles: 6724344166 heartbeat IPC: 0.059616 cumulative IPC: 0.0617203 (Simulation time: 0 hr 56 min 3 sec) 
Heartbeat CPU 0 instructions: 417000001 cycles: 6741070890 heartbeat IPC: 0.0597846 cumulative IPC: 0.0617155 (Simulation time: 0 hr 56 min 11 sec) 
Heartbeat CPU 0 instructions: 418000000 cycles: 6757859640 heartbeat IPC: 0.0595636 cumulative IPC: 0.0617101 (Simulation time: 0 hr 56 min 20 sec) 
Heartbeat CPU 0 instructions: 419000002 cycles: 6774554112 heartbeat IPC: 0.0599002 cumulative IPC: 0.0617057 (Simulation time: 0 hr 56 min 31 sec) 
Heartbeat CPU 0 instructions: 420000001 cycles: 6790957994 heartbeat IPC: 0.0609611 cumulative IPC: 0.0617039 (Simulation time: 0 hr 56 min 46 sec) 
Heartbeat CPU 0 instructions: 421000002 cycles: 6807653315 heartbeat IPC: 0.0598971 cumulative IPC: 0.0616994 (Simulation time: 0 hr 57 min 1 sec) 
Heartbeat CPU 0 instructions: 422000001 cycles: 6824382786 heartbeat IPC: 0.0597747 cumulative IPC: 0.0616947 (Simulation time: 0 hr 57 min 15 sec) 
Heartbeat CPU 0 instructions: 423000003 cycles: 6841125109 heartbeat IPC: 0.059729 cumulative IPC: 0.0616899 (Simulation time: 0 hr 57 min 30 sec) 
Heartbeat CPU 0 instructions: 424000000 cycles: 6857962274 heartbeat IPC: 0.0593922 cumulative IPC: 0.0616843 (Simulation time: 0 hr 57 min 46 sec) 
Heartbeat CPU 0 instructions: 425000000 cycles: 6874804576 heartbeat IPC: 0.0593743 cumulative IPC: 0.0616786 (Simulation time: 0 hr 58 min 1 sec) 
Heartbeat CPU 0 instructions: 426000000 cycles: 6891122349 heartbeat IPC: 0.0612829 cumulative IPC: 0.0616777 (Simulation time: 0 hr 58 min 14 sec) 
Heartbeat CPU 0 instructions: 427000000 cycles: 6907509958 heartbeat IPC: 0.0610217 cumulative IPC: 0.0616761 (Simulation time: 0 hr 58 min 29 sec) 
Heartbeat CPU 0 instructions: 428000000 cycles: 6924203268 heartbeat IPC: 0.0599042 cumulative IPC: 0.0616718 (Simulation time: 0 hr 58 min 44 sec) 
Heartbeat CPU 0 instructions: 429000000 cycles: 6940119188 heartbeat IPC: 0.0628302 cumulative IPC: 0.0616745 (Simulation time: 0 hr 58 min 59 sec) 
Heartbeat CPU 0 instructions: 430000000 cycles: 6956657781 heartbeat IPC: 0.0604646 cumulative IPC: 0.0616716 (Simulation time: 0 hr 59 min 13 sec) 
Heartbeat CPU 0 instructions: 431000000 cycles: 6973517640 heartbeat IPC: 0.0593125 cumulative IPC: 0.0616659 (Simulation time: 0 hr 59 min 29 sec) 
Heartbeat CPU 0 instructions: 432000000 cycles: 6990452019 heartbeat IPC: 0.0590515 cumulative IPC: 0.0616596 (Simulation time: 0 hr 59 min 44 sec) 
Heartbeat CPU 0 instructions: 433000000 cycles: 7007263790 heartbeat IPC: 0.0594821 cumulative IPC: 0.0616544 (Simulation time: 0 hr 59 min 59 sec) 
Heartbeat CPU 0 instructions: 434000000 cycles: 7024151718 heartbeat IPC: 0.0592139 cumulative IPC: 0.0616485 (Simulation time: 1 hr 0 min 14 sec) 
Heartbeat CPU 0 instructions: 435000000 cycles: 7041151359 heartbeat IPC: 0.0588248 cumulative IPC: 0.0616417 (Simulation time: 1 hr 0 min 30 sec) 
Heartbeat CPU 0 instructions: 436000000 cycles: 7058103396 heartbeat IPC: 0.05899 cumulative IPC: 0.0616353 (Simulation time: 1 hr 0 min 45 sec) 
Heartbeat CPU 0 instructions: 437000000 cycles: 7074764641 heartbeat IPC: 0.0600195 cumulative IPC: 0.0616315 (Simulation time: 1 hr 1 min 0 sec) 
Heartbeat CPU 0 instructions: 438000001 cycles: 7091017683 heartbeat IPC: 0.061527 cumulative IPC: 0.0616313 (Simulation time: 1 hr 1 min 15 sec) 
Heartbeat CPU 0 instructions: 439000000 cycles: 7106813053 heartbeat IPC: 0.0633096 cumulative IPC: 0.061635 (Simulation time: 1 hr 1 min 30 sec) 
Heartbeat CPU 0 instructions: 440000000 cycles: 7122736323 heartbeat IPC: 0.0628012 cumulative IPC: 0.0616376 (Simulation time: 1 hr 1 min 46 sec) 
Heartbeat CPU 0 instructions: 441000000 cycles: 7138031997 heartbeat IPC: 0.065378 cumulative IPC: 0.0616456 (Simulation time: 1 hr 2 min 0 sec) 
Heartbeat CPU 0 instructions: 442000002 cycles: 7153674299 heartbeat IPC: 0.0639293 cumulative IPC: 0.0616506 (Simulation time: 1 hr 2 min 15 sec) 
Heartbeat CPU 0 instructions: 443000001 cycles: 7169618949 heartbeat IPC: 0.0627169 cumulative IPC: 0.061653 (Simulation time: 1 hr 2 min 30 sec) 
Heartbeat CPU 0 instructions: 444000000 cycles: 7185162565 heartbeat IPC: 0.064335 cumulative IPC: 0.0616588 (Simulation time: 1 hr 2 min 45 sec) 
Heartbeat CPU 0 instructions: 445000000 cycles: 7198802573 heartbeat IPC: 0.0733137 cumulative IPC: 0.0616809 (Simulation time: 1 hr 2 min 58 sec) 
Heartbeat CPU 0 instructions: 446000000 cycles: 7215542727 heartbeat IPC: 0.0597366 cumulative IPC: 0.0616764 (Simulation time: 1 hr 3 min 14 sec) 
Heartbeat CPU 0 instructions: 447000000 cycles: 7232331832 heartbeat IPC: 0.0595624 cumulative IPC: 0.0616715 (Simulation time: 1 hr 3 min 29 sec) 
Heartbeat CPU 0 instructions: 448000000 cycles: 7248926552 heartbeat IPC: 0.0602601 cumulative IPC: 0.0616682 (Simulation time: 1 hr 3 min 44 sec) 
Heartbeat CPU 0 instructions: 449000000 cycles: 7265546611 heartbeat IPC: 0.0601683 cumulative IPC: 0.0616648 (Simulation time: 1 hr 3 min 59 sec) 
Heartbeat CPU 0 instructions: 450000000 cycles: 7282358343 heartbeat IPC: 0.0594823 cumulative IPC: 0.0616597 (Simulation time: 1 hr 4 min 15 sec) 

Warmup complete CPU 0 instructions: 450000001 cycles: 7282358344 (Simulation time: 1 hr 4 min 15 sec) 

Heartbeat CPU 0 instructions: 451000000 cycles: 7294972551 heartbeat IPC: 0.0792757 cumulative IPC: 0.0792756 (Simulation time: 1 hr 4 min 29 sec) 
Heartbeat CPU 0 instructions: 452000000 cycles: 7307681066 heartbeat IPC: 0.0786874 cumulative IPC: 0.0789804 (Simulation time: 1 hr 4 min 43 sec) 
Heartbeat CPU 0 instructions: 453000002 cycles: 7320345104 heartbeat IPC: 0.0789639 cumulative IPC: 0.0789749 (Simulation time: 1 hr 4 min 56 sec) 
Heartbeat CPU 0 instructions: 454000002 cycles: 7332615127 heartbeat IPC: 0.0814994 cumulative IPC: 0.0795913 (Simulation time: 1 hr 5 min 9 sec) 
Heartbeat CPU 0 instructions: 455000001 cycles: 7345358879 heartbeat IPC: 0.0784697 cumulative IPC: 0.0793644 (Simulation time: 1 hr 5 min 23 sec) 
Heartbeat CPU 0 instructions: 456000000 cycles: 7358075616 heartbeat IPC: 0.0786364 cumulative IPC: 0.0792421 (Simulation time: 1 hr 5 min 37 sec) 
Heartbeat CPU 0 instructions: 457000000 cycles: 7370576646 heartbeat IPC: 0.0799934 cumulative IPC: 0.0793486 (Simulation time: 1 hr 5 min 50 sec) 
Heartbeat CPU 0 instructions: 458000001 cycles: 7382980781 heartbeat IPC: 0.0806184 cumulative IPC: 0.0795051 (Simulation time: 1 hr 6 min 3 sec) 
Heartbeat CPU 0 instructions: 459000000 cycles: 7395436250 heartbeat IPC: 0.0802859 cumulative IPC: 0.0795911 (Simulation time: 1 hr 6 min 16 sec) 
Heartbeat CPU 0 instructions: 460000000 cycles: 7407757462 heartbeat IPC: 0.0811608 cumulative IPC: 0.0797454 (Simulation time: 1 hr 6 min 30 sec) 
Heartbeat CPU 0 instructions: 461000000 cycles: 7420096583 heartbeat IPC: 0.081043 cumulative IPC: 0.0798616 (Simulation time: 1 hr 6 min 44 sec) 
Heartbeat CPU 0 instructions: 462000000 cycles: 7432261558 heartbeat IPC: 0.0822032 cumulative IPC: 0.0800516 (Simulation time: 1 hr 6 min 56 sec) 
Heartbeat CPU 0 instructions: 463000000 cycles: 7444386654 heartbeat IPC: 0.0824736 cumulative IPC: 0.0802329 (Simulation time: 1 hr 7 min 10 sec) 
Heartbeat CPU 0 instructions: 464000000 cycles: 7455496498 heartbeat IPC: 0.0900103 cumulative IPC: 0.0808603 (Simulation time: 1 hr 7 min 23 sec) 
Heartbeat CPU 0 instructions: 465000002 cycles: 7468024046 heartbeat IPC: 0.0798242 cumulative IPC: 0.0807904 (Simulation time: 1 hr 7 min 38 sec) 
Heartbeat CPU 0 instructions: 466000000 cycles: 7480394537 heartbeat IPC: 0.0808374 cumulative IPC: 0.0807933 (Simulation time: 1 hr 7 min 52 sec) 
Heartbeat CPU 0 instructions: 467000001 cycles: 7492156612 heartbeat IPC: 0.0850191 cumulative IPC: 0.0810302 (Simulation time: 1 hr 8 min 5 sec) 
Heartbeat CPU 0 instructions: 468000000 cycles: 7504242015 heartbeat IPC: 0.0827444 cumulative IPC: 0.0811236 (Simulation time: 1 hr 8 min 18 sec) 
Heartbeat CPU 0 instructions: 469000001 cycles: 7515975203 heartbeat IPC: 0.0852284 cumulative IPC: 0.0813297 (Simulation time: 1 hr 8 min 31 sec) 
Heartbeat CPU 0 instructions: 470000003 cycles: 7528093085 heartbeat IPC: 0.0825228 cumulative IPC: 0.0813886 (Simulation time: 1 hr 8 min 44 sec) 
Heartbeat CPU 0 instructions: 471000002 cycles: 7540037376 heartbeat IPC: 0.0837219 cumulative IPC: 0.0814967 (Simulation time: 1 hr 8 min 58 sec) 
Heartbeat CPU 0 instructions: 472000000 cycles: 7552137793 heartbeat IPC: 0.0826416 cumulative IPC: 0.0815481 (Simulation time: 1 hr 9 min 11 sec) 
Heartbeat CPU 0 instructions: 473000000 cycles: 7565172147 heartbeat IPC: 0.0767203 cumulative IPC: 0.0813256 (Simulation time: 1 hr 9 min 25 sec) 
Heartbeat CPU 0 instructions: 474000002 cycles: 7576238412 heartbeat IPC: 0.0903649 cumulative IPC: 0.081666 (Simulation time: 1 hr 9 min 38 sec) 
Heartbeat CPU 0 instructions: 475000000 cycles: 7584590259 heartbeat IPC: 0.119734 cumulative IPC: 0.0827179 (Simulation time: 1 hr 9 min 48 sec) 
Heartbeat CPU 0 instructions: 476000002 cycles: 7593088428 heartbeat IPC: 0.117673 cumulative IPC: 0.0836739 (Simulation time: 1 hr 9 min 59 sec) 
Heartbeat CPU 0 instructions: 477000002 cycles: 7604162421 heartbeat IPC: 0.0903017 cumulative IPC: 0.083902 (Simulation time: 1 hr 10 min 13 sec) 
Heartbeat CPU 0 instructions: 478000000 cycles: 7615485630 heartbeat IPC: 0.088314 cumulative IPC: 0.084052 (Simulation time: 1 hr 10 min 26 sec) 
Heartbeat CPU 0 instructions: 479000001 cycles: 7625298380 heartbeat IPC: 0.101908 cumulative IPC: 0.0845629 (Simulation time: 1 hr 10 min 37 sec) 
Heartbeat CPU 0 instructions: 480000000 cycles: 7636202067 heartbeat IPC: 0.091712 cumulative IPC: 0.0847832 (Simulation time: 1 hr 10 min 49 sec) 
Heartbeat CPU 0 instructions: 481000000 cycles: 7646984674 heartbeat IPC: 0.092742 cumulative IPC: 0.0850185 (Simulation time: 1 hr 11 min 2 sec) 
Heartbeat CPU 0 instructions: 482000002 cycles: 7657574181 heartbeat IPC: 0.0944333 cumulative IPC: 0.0852842 (Simulation time: 1 hr 11 min 13 sec) 
Heartbeat CPU 0 instructions: 483000000 cycles: 7668271640 heartbeat IPC: 0.09348 cumulative IPC: 0.0855114 (Simulation time: 1 hr 11 min 26 sec) 
Heartbeat CPU 0 instructions: 484000000 cycles: 7681013107 heartbeat IPC: 0.0784839 cumulative IPC: 0.0852868 (Simulation time: 1 hr 11 min 39 sec) 
Heartbeat CPU 0 instructions: 485000000 cycles: 7693622222 heartbeat IPC: 0.0793077 cumulative IPC: 0.0851035 (Simulation time: 1 hr 11 min 53 sec) 
Heartbeat CPU 0 instructions: 486000000 cycles: 7704563430 heartbeat IPC: 0.0913976 cumulative IPC: 0.0852666 (Simulation time: 1 hr 12 min 5 sec) 
Heartbeat CPU 0 instructions: 487000001 cycles: 7715897134 heartbeat IPC: 0.0882325 cumulative IPC: 0.0853442 (Simulation time: 1 hr 12 min 20 sec) 
Heartbeat CPU 0 instructions: 488000001 cycles: 7727589249 heartbeat IPC: 0.0855277 cumulative IPC: 0.085349 (Simulation time: 1 hr 12 min 33 sec) 
Heartbeat CPU 0 instructions: 489000001 cycles: 7740623851 heartbeat IPC: 0.0767189 cumulative IPC: 0.0851035 (Simulation time: 1 hr 12 min 47 sec) 
Heartbeat CPU 0 instructions: 490000001 cycles: 7751140084 heartbeat IPC: 0.0950911 cumulative IPC: 0.0853276 (Simulation time: 1 hr 12 min 59 sec) 
Heartbeat CPU 0 instructions: 491000002 cycles: 7762640987 heartbeat IPC: 0.0869498 cumulative IPC: 0.0853664 (Simulation time: 1 hr 13 min 12 sec) 
Heartbeat CPU 0 instructions: 492000000 cycles: 7774582877 heartbeat IPC: 0.0837387 cumulative IPC: 0.0853269 (Simulation time: 1 hr 13 min 25 sec) 
Heartbeat CPU 0 instructions: 493000001 cycles: 7786236726 heartbeat IPC: 0.0858086 cumulative IPC: 0.0853381 (Simulation time: 1 hr 13 min 38 sec) 
Heartbeat CPU 0 instructions: 494000001 cycles: 7798219416 heartbeat IPC: 0.0834537 cumulative IPC: 0.0852943 (Simulation time: 1 hr 13 min 51 sec) 
Heartbeat CPU 0 instructions: 495000000 cycles: 7810043787 heartbeat IPC: 0.084571 cumulative IPC: 0.0852781 (Simulation time: 1 hr 14 min 4 sec) 
Heartbeat CPU 0 instructions: 496000001 cycles: 7821824273 heartbeat IPC: 0.0848862 cumulative IPC: 0.0852695 (Simulation time: 1 hr 14 min 18 sec) 
Heartbeat CPU 0 instructions: 497000000 cycles: 7833527709 heartbeat IPC: 0.0854449 cumulative IPC: 0.0852732 (Simulation time: 1 hr 14 min 31 sec) 
Heartbeat CPU 0 instructions: 498000000 cycles: 7845308102 heartbeat IPC: 0.0848868 cumulative IPC: 0.0852652 (Simulation time: 1 hr 14 min 45 sec) 
Heartbeat CPU 0 instructions: 499000000 cycles: 7858060066 heartbeat IPC: 0.0784193 cumulative IPC: 0.0851135 (Simulation time: 1 hr 15 min 0 sec) 
Heartbeat CPU 0 instructions: 500000000 cycles: 7870554314 heartbeat IPC: 0.0800368 cumulative IPC: 0.0850057 (Simulation time: 1 hr 15 min 14 sec) 
Heartbeat CPU 0 instructions: 501000001 cycles: 7882823086 heartbeat IPC: 0.0815078 cumulative IPC: 0.0849342 (Simulation time: 1 hr 15 min 27 sec) 
Heartbeat CPU 0 instructions: 502000002 cycles: 7895184183 heartbeat IPC: 0.0808991 cumulative IPC: 0.0848528 (Simulation time: 1 hr 15 min 41 sec) 
Heartbeat CPU 0 instructions: 503000000 cycles: 7907004544 heartbeat IPC: 0.0845996 cumulative IPC: 0.084848 (Simulation time: 1 hr 15 min 55 sec) 
Heartbeat CPU 0 instructions: 504000000 cycles: 7919173356 heartbeat IPC: 0.0821773 cumulative IPC: 0.084797 (Simulation time: 1 hr 16 min 9 sec) 
Heartbeat CPU 0 instructions: 505000001 cycles: 7931258088 heartbeat IPC: 0.0827491 cumulative IPC: 0.0847589 (Simulation time: 1 hr 16 min 22 sec) 
Heartbeat CPU 0 instructions: 506000000 cycles: 7943416633 heartbeat IPC: 0.0822466 cumulative IPC: 0.0847126 (Simulation time: 1 hr 16 min 35 sec) 
Heartbeat CPU 0 instructions: 507000000 cycles: 7955604095 heartbeat IPC: 0.0820515 cumulative IPC: 0.0846645 (Simulation time: 1 hr 16 min 49 sec) 
Heartbeat CPU 0 instructions: 508000000 cycles: 7967930920 heartbeat IPC: 0.0811239 cumulative IPC: 0.0846008 (Simulation time: 1 hr 17 min 3 sec) 
Heartbeat CPU 0 instructions: 509000001 cycles: 7979872404 heartbeat IPC: 0.0837418 cumulative IPC: 0.0845861 (Simulation time: 1 hr 17 min 17 sec) 
Heartbeat CPU 0 instructions: 510000000 cycles: 7991731490 heartbeat IPC: 0.0843234 cumulative IPC: 0.0845817 (Simulation time: 1 hr 17 min 30 sec) 
Heartbeat CPU 0 instructions: 511000002 cycles: 8002936744 heartbeat IPC: 0.089244 cumulative IPC: 0.0846542 (Simulation time: 1 hr 17 min 43 sec) 
Heartbeat CPU 0 instructions: 512000000 cycles: 8014524340 heartbeat IPC: 0.086299 cumulative IPC: 0.0846803 (Simulation time: 1 hr 17 min 57 sec) 
Heartbeat CPU 0 instructions: 513000000 cycles: 8025818237 heartbeat IPC: 0.0885434 cumulative IPC: 0.0847389 (Simulation time: 1 hr 18 min 10 sec) 
Heartbeat CPU 0 instructions: 514000002 cycles: 8037432040 heartbeat IPC: 0.0861046 cumulative IPC: 0.0847599 (Simulation time: 1 hr 18 min 23 sec) 
Heartbeat CPU 0 instructions: 515000001 cycles: 8048489389 heartbeat IPC: 0.0904375 cumulative IPC: 0.0848419 (Simulation time: 1 hr 18 min 36 sec) 
Heartbeat CPU 0 instructions: 516000002 cycles: 8059298771 heartbeat IPC: 0.0925123 cumulative IPC: 0.0849486 (Simulation time: 1 hr 18 min 49 sec) 
Heartbeat CPU 0 instructions: 517000000 cycles: 8070131556 heartbeat IPC: 0.0923122 cumulative IPC: 0.0850499 (Simulation time: 1 hr 19 min 2 sec) 
Heartbeat CPU 0 instructions: 518000001 cycles: 8081400340 heartbeat IPC: 0.0887408 cumulative IPC: 0.0851019 (Simulation time: 1 hr 19 min 17 sec) 
Heartbeat CPU 0 instructions: 519000002 cycles: 8092657339 heartbeat IPC: 0.0888337 cumulative IPC: 0.0851538 (Simulation time: 1 hr 19 min 30 sec) 
Heartbeat CPU 0 instructions: 520000000 cycles: 8104083151 heartbeat IPC: 0.087521 cumulative IPC: 0.0851867 (Simulation time: 1 hr 19 min 43 sec) 
Heartbeat CPU 0 instructions: 521000000 cycles: 8113858063 heartbeat IPC: 0.102303 cumulative IPC: 0.0853879 (Simulation time: 1 hr 19 min 54 sec) 
Heartbeat CPU 0 instructions: 522000000 cycles: 8123818788 heartbeat IPC: 0.100394 cumulative IPC: 0.0855655 (Simulation time: 1 hr 20 min 6 sec) 
Heartbeat CPU 0 instructions: 523000000 cycles: 8135319364 heartbeat IPC: 0.0869522 cumulative IPC: 0.0855842 (Simulation time: 1 hr 20 min 19 sec) 
Heartbeat CPU 0 instructions: 524000002 cycles: 8146625088 heartbeat IPC: 0.0884509 cumulative IPC: 0.0856217 (Simulation time: 1 hr 20 min 31 sec) 
Heartbeat CPU 0 instructions: 525000003 cycles: 8158205958 heartbeat IPC: 0.0863494 cumulative IPC: 0.0856313 (Simulation time: 1 hr 20 min 44 sec) 
Heartbeat CPU 0 instructions: 526000001 cycles: 8169842299 heartbeat IPC: 0.0859375 cumulative IPC: 0.0856353 (Simulation time: 1 hr 20 min 58 sec) 
Heartbeat CPU 0 instructions: 527000000 cycles: 8181729242 heartbeat IPC: 0.0841258 cumulative IPC: 0.0856154 (Simulation time: 1 hr 21 min 11 sec) 
Heartbeat CPU 0 instructions: 528000000 cycles: 8193143170 heartbeat IPC: 0.0876123 cumulative IPC: 0.0856404 (Simulation time: 1 hr 21 min 25 sec) 
Heartbeat CPU 0 instructions: 529000000 cycles: 8205683610 heartbeat IPC: 0.079742 cumulative IPC: 0.0855603 (Simulation time: 1 hr 21 min 40 sec) 
Heartbeat CPU 0 instructions: 530000002 cycles: 8217472562 heartbeat IPC: 0.0848254 cumulative IPC: 0.085551 (Simulation time: 1 hr 21 min 53 sec) 
Heartbeat CPU 0 instructions: 531000002 cycles: 8229181078 heartbeat IPC: 0.0854079 cumulative IPC: 0.0855493 (Simulation time: 1 hr 22 min 6 sec) 
Heartbeat CPU 0 instructions: 532000002 cycles: 8240650629 heartbeat IPC: 0.0871874 cumulative IPC: 0.0855689 (Simulation time: 1 hr 22 min 18 sec) 
Heartbeat CPU 0 instructions: 533000003 cycles: 8252242373 heartbeat IPC: 0.0862684 cumulative IPC: 0.0855772 (Simulation time: 1 hr 22 min 31 sec) 
Heartbeat CPU 0 instructions: 534000001 cycles: 8262136267 heartbeat IPC: 0.101072 cumulative IPC: 0.0857337 (Simulation time: 1 hr 22 min 43 sec) 
Heartbeat CPU 0 instructions: 535000001 cycles: 8271488756 heartbeat IPC: 0.106923 cumulative IPC: 0.0859341 (Simulation time: 1 hr 22 min 54 sec) 
Heartbeat CPU 0 instructions: 536000000 cycles: 8280654983 heartbeat IPC: 0.109096 cumulative IPC: 0.0861467 (Simulation time: 1 hr 23 min 5 sec) 
[...]
Heartbeat CPU 0 instructions: 837000000 cycles: 11829662468 heartbeat IPC: 0.0806106 cumulative IPC: 0.0851054 (Simulation time: 2 hr 23 min 4 sec) 
Heartbeat CPU 0 instructions: 838000002 cycles: 11842248943 heartbeat IPC: 0.0794505 cumulative IPC: 0.0850898 (Simulation time: 2 hr 23 min 16 sec) 
Heartbeat CPU 0 instructions: 839000000 cycles: 11854727422 heartbeat IPC: 0.0801378 cumulative IPC: 0.0850763 (Simulation time: 2 hr 23 min 28 sec) 
Heartbeat CPU 0 instructions: 840000000 cycles: 11867358443 heartbeat IPC: 0.0791702 cumulative IPC: 0.08506 (Simulation time: 2 hr 23 min 40 sec) 
Heartbeat CPU 0 instructions: 841000000 cycles: 11880043670 heartbeat IPC: 0.0788319 cumulative IPC: 0.0850428 (Simulation time: 2 hr 23 min 51 sec) 
Heartbeat CPU 0 instructions: 842000001 cycles: 11892080048 heartbeat IPC: 0.0830816 cumulative IPC: 0.0850377 (Simulation time: 2 hr 24 min 3 sec) 
Heartbeat CPU 0 instructions: 843000000 cycles: 11901989342 heartbeat IPC: 0.100915 cumulative IPC: 0.0850717 (Simulation time: 2 hr 24 min 13 sec) 
Heartbeat CPU 0 instructions: 844000000 cycles: 11912423275 heartbeat IPC: 0.0958411 cumulative IPC: 0.085096 (Simulation time: 2 hr 24 min 24 sec) 
Heartbeat CPU 0 instructions: 845000000 cycles: 11923183742 heartbeat IPC: 0.0929328 cumulative IPC: 0.0851142 (Simulation time: 2 hr 24 min 34 sec) 
Heartbeat CPU 0 instructions: 846000000 cycles: 11934178896 heartbeat IPC: 0.0909492 cumulative IPC: 0.085128 (Simulation time: 2 hr 24 min 45 sec) 
Heartbeat CPU 0 instructions: 847000000 cycles: 11945913895 heartbeat IPC: 0.0852152 cumulative IPC: 0.0851282 (Simulation time: 2 hr 24 min 56 sec) 
Heartbeat CPU 0 instructions: 848000000 cycles: 11956717924 heartbeat IPC: 0.0925581 cumulative IPC: 0.0851454 (Simulation time: 2 hr 25 min 9 sec) 
Heartbeat CPU 0 instructions: 849000000 cycles: 11968025170 heartbeat IPC: 0.0884389 cumulative IPC: 0.0851533 (Simulation time: 2 hr 25 min 20 sec) 
Heartbeat CPU 0 instructions: 850000000 cycles: 11978640444 heartbeat IPC: 0.0942039 cumulative IPC: 0.0851738 (Simulation time: 2 hr 25 min 31 sec) 
Heartbeat CPU 0 instructions: 851000000 cycles: 11989174888 heartbeat IPC: 0.0949267 cumulative IPC: 0.0851956 (Simulation time: 2 hr 25 min 42 sec) 
Heartbeat CPU 0 instructions: 852000002 cycles: 11999962677 heartbeat IPC: 0.0926976 cumulative IPC: 0.0852127 (Simulation time: 2 hr 25 min 52 sec) 
Heartbeat CPU 0 instructions: 853000000 cycles: 12011463799 heartbeat IPC: 0.0869479 cumulative IPC: 0.085217 (Simulation time: 2 hr 26 min 4 sec) 
Heartbeat CPU 0 instructions: 854000000 cycles: 12022819790 heartbeat IPC: 0.0880592 cumulative IPC: 0.0852238 (Simulation time: 2 hr 26 min 15 sec) 
Heartbeat CPU 0 instructions: 855000002 cycles: 12034114397 heartbeat IPC: 0.088538 cumulative IPC: 0.0852316 (Simulation time: 2 hr 26 min 26 sec) 
Heartbeat CPU 0 instructions: 856000003 cycles: 12045264490 heartbeat IPC: 0.0896854 cumulative IPC: 0.0852421 (Simulation time: 2 hr 26 min 38 sec) 
Heartbeat CPU 0 instructions: 857000001 cycles: 12057200569 heartbeat IPC: 0.0837794 cumulative IPC: 0.0852384 (Simulation time: 2 hr 26 min 50 sec) 
Heartbeat CPU 0 instructions: 858000000 cycles: 12068355139 heartbeat IPC: 0.0896493 cumulative IPC: 0.0852487 (Simulation time: 2 hr 27 min 2 sec) 
Heartbeat CPU 0 instructions: 859000000 cycles: 12080529504 heartbeat IPC: 0.0821398 cumulative IPC: 0.0852408 (Simulation time: 2 hr 27 min 14 sec) 
Heartbeat CPU 0 instructions: 860000000 cycles: 12092421786 heartbeat IPC: 0.0840882 cumulative IPC: 0.085238 (Simulation time: 2 hr 27 min 26 sec) 
Heartbeat CPU 0 instructions: 861000000 cycles: 12104322001 heartbeat IPC: 0.0840321 cumulative IPC: 0.085235 (Simulation time: 2 hr 27 min 37 sec) 
Heartbeat CPU 0 instructions: 862000000 cycles: 12116386864 heartbeat IPC: 0.0828853 cumulative IPC: 0.0852291 (Simulation time: 2 hr 27 min 49 sec) 
Heartbeat CPU 0 instructions: 863000002 cycles: 12128891303 heartbeat IPC: 0.0799718 cumulative IPC: 0.0852156 (Simulation time: 2 hr 28 min 1 sec) 
Heartbeat CPU 0 instructions: 864000002 cycles: 12141625978 heartbeat IPC: 0.0785258 cumulative IPC: 0.085198 (Simulation time: 2 hr 28 min 13 sec) 
Heartbeat CPU 0 instructions: 865000002 cycles: 12154091898 heartbeat IPC: 0.0802187 cumulative IPC: 0.0851853 (Simulation time: 2 hr 28 min 24 sec) 
Heartbeat CPU 0 instructions: 866000001 cycles: 12166484702 heartbeat IPC: 0.0806919 cumulative IPC: 0.0851739 (Simulation time: 2 hr 28 min 36 sec) 
Heartbeat CPU 0 instructions: 867000001 cycles: 12179228943 heartbeat IPC: 0.0784668 cumulative IPC: 0.0851564 (Simulation time: 2 hr 28 min 48 sec) 
Heartbeat CPU 0 instructions: 868000003 cycles: 12191773991 heartbeat IPC: 0.0797129 cumulative IPC: 0.0851425 (Simulation time: 2 hr 28 min 59 sec) 
Heartbeat CPU 0 instructions: 869000000 cycles: 12204454647 heartbeat IPC: 0.07886 cumulative IPC: 0.0851263 (Simulation time: 2 hr 29 min 11 sec) 
Heartbeat CPU 0 instructions: 870000003 cycles: 12217258916 heartbeat IPC: 0.0780992 cumulative IPC: 0.0851081 (Simulation time: 2 hr 29 min 23 sec) 
Heartbeat CPU 0 instructions: 871000000 cycles: 12230006056 heartbeat IPC: 0.0784487 cumulative IPC: 0.0850909 (Simulation time: 2 hr 29 min 34 sec) 
Heartbeat CPU 0 instructions: 872000001 cycles: 12242783249 heartbeat IPC: 0.0782645 cumulative IPC: 0.0850734 (Simulation time: 2 hr 29 min 46 sec) 
Heartbeat CPU 0 instructions: 873000002 cycles: 12255422627 heartbeat IPC: 0.0791179 cumulative IPC: 0.0850582 (Simulation time: 2 hr 29 min 58 sec) 
Heartbeat CPU 0 instructions: 874000001 cycles: 12267989017 heartbeat IPC: 0.0795773 cumulative IPC: 0.0850444 (Simulation time: 2 hr 30 min 10 sec) 
Heartbeat CPU 0 instructions: 875000000 cycles: 12280628542 heartbeat IPC: 0.0791168 cumulative IPC: 0.0850294 (Simulation time: 2 hr 30 min 21 sec) 
Heartbeat CPU 0 instructions: 876000001 cycles: 12293414269 heartbeat IPC: 0.0782123 cumulative IPC: 0.085012 (Simulation time: 2 hr 30 min 33 sec) 
Heartbeat CPU 0 instructions: 877000002 cycles: 12305985865 heartbeat IPC: 0.0795445 cumulative IPC: 0.0849983 (Simulation time: 2 hr 30 min 45 sec) 
Heartbeat CPU 0 instructions: 878000001 cycles: 12318395445 heartbeat IPC: 0.0805828 cumulative IPC: 0.0849875 (Simulation time: 2 hr 30 min 56 sec) 
Heartbeat CPU 0 instructions: 879000002 cycles: 12330740163 heartbeat IPC: 0.0810064 cumulative IPC: 0.0849777 (Simulation time: 2 hr 31 min 8 sec) 
Heartbeat CPU 0 instructions: 880000000 cycles: 12343159634 heartbeat IPC: 0.0805186 cumulative IPC: 0.0849668 (Simulation time: 2 hr 31 min 19 sec) 
Heartbeat CPU 0 instructions: 881000000 cycles: 12355660154 heartbeat IPC: 0.0799967 cumulative IPC: 0.0849545 (Simulation time: 2 hr 31 min 31 sec) 
Heartbeat CPU 0 instructions: 882000000 cycles: 12368313909 heartbeat IPC: 0.0790279 cumulative IPC: 0.0849398 (Simulation time: 2 hr 31 min 43 sec) 
Heartbeat CPU 0 instructions: 883000002 cycles: 12381098131 heartbeat IPC: 0.0782216 cumulative IPC: 0.0849229 (Simulation time: 2 hr 31 min 55 sec) 
Heartbeat CPU 0 instructions: 884000000 cycles: 12393837793 heartbeat IPC: 0.0784949 cumulative IPC: 0.0849069 (Simulation time: 2 hr 32 min 7 sec) 
Heartbeat CPU 0 instructions: 885000000 cycles: 12406477971 heartbeat IPC: 0.0791128 cumulative IPC: 0.0848926 (Simulation time: 2 hr 32 min 18 sec) 
Heartbeat CPU 0 instructions: 886000001 cycles: 12419260909 heartbeat IPC: 0.0782294 cumulative IPC: 0.0848761 (Simulation time: 2 hr 32 min 30 sec) 
Heartbeat CPU 0 instructions: 887000002 cycles: 12431984483 heartbeat IPC: 0.0785943 cumulative IPC: 0.0848605 (Simulation time: 2 hr 32 min 42 sec) 
Heartbeat CPU 0 instructions: 888000000 cycles: 12444686649 heartbeat IPC: 0.0787266 cumulative IPC: 0.0848454 (Simulation time: 2 hr 32 min 54 sec) 
Heartbeat CPU 0 instructions: 889000000 cycles: 12457487584 heartbeat IPC: 0.0781193 cumulative IPC: 0.0848288 (Simulation time: 2 hr 33 min 6 sec) 
Heartbeat CPU 0 instructions: 890000000 cycles: 12470277618 heartbeat IPC: 0.0781859 cumulative IPC: 0.0848124 (Simulation time: 2 hr 33 min 18 sec) 
Heartbeat CPU 0 instructions: 891000000 cycles: 12482807322 heartbeat IPC: 0.0798103 cumulative IPC: 0.0848004 (Simulation time: 2 hr 33 min 29 sec) 
Heartbeat CPU 0 instructions: 892000000 cycles: 12495302541 heartbeat IPC: 0.0800306 cumulative IPC: 0.0847889 (Simulation time: 2 hr 33 min 41 sec) 
Heartbeat CPU 0 instructions: 893000000 cycles: 12508077414 heartbeat IPC: 0.0782787 cumulative IPC: 0.084773 (Simulation time: 2 hr 33 min 53 sec) 
Heartbeat CPU 0 instructions: 894000000 cycles: 12519909307 heartbeat IPC: 0.0845173 cumulative IPC: 0.0847724 (Simulation time: 2 hr 34 min 4 sec) 
Heartbeat CPU 0 instructions: 895000002 cycles: 12532598706 heartbeat IPC: 0.0788061 cumulative IPC: 0.084758 (Simulation time: 2 hr 34 min 16 sec) 
Heartbeat CPU 0 instructions: 896000000 cycles: 12545399610 heartbeat IPC: 0.0781193 cumulative IPC: 0.0847419 (Simulation time: 2 hr 34 min 28 sec) 
Heartbeat CPU 0 instructions: 897000002 cycles: 12557975549 heartbeat IPC: 0.0795171 cumulative IPC: 0.0847294 (Simulation time: 2 hr 34 min 40 sec) 
Heartbeat CPU 0 instructions: 898000002 cycles: 12570752526 heartbeat IPC: 0.0782658 cumulative IPC: 0.0847138 (Simulation time: 2 hr 34 min 51 sec) 
Heartbeat CPU 0 instructions: 899000001 cycles: 12583510821 heartbeat IPC: 0.0783803 cumulative IPC: 0.0846986 (Simulation time: 2 hr 35 min 3 sec) 
Heartbeat CPU 0 instructions: 900000001 cycles: 12596197404 heartbeat IPC: 0.0788234 cumulative IPC: 0.0846845 (Simulation time: 2 hr 35 min 15 sec) 
Heartbeat CPU 0 instructions: 901000000 cycles: 12608879805 heartbeat IPC: 0.0788493 cumulative IPC: 0.0846706 (Simulation time: 2 hr 35 min 27 sec) 
Heartbeat CPU 0 instructions: 902000000 cycles: 12621711339 heartbeat IPC: 0.077933 cumulative IPC: 0.0846545 (Simulation time: 2 hr 35 min 39 sec) 
Heartbeat CPU 0 instructions: 903000000 cycles: 12634464241 heartbeat IPC: 0.0784135 cumulative IPC: 0.0846396 (Simulation time: 2 hr 35 min 51 sec) 
Heartbeat CPU 0 instructions: 904000002 cycles: 12647131299 heartbeat IPC: 0.0789451 cumulative IPC: 0.0846261 (Simulation time: 2 hr 36 min 2 sec) 
Heartbeat CPU 0 instructions: 905000002 cycles: 12659688254 heartbeat IPC: 0.0796371 cumulative IPC: 0.0846145 (Simulation time: 2 hr 36 min 14 sec) 
Heartbeat CPU 0 instructions: 906000002 cycles: 12672308465 heartbeat IPC: 0.079238 cumulative IPC: 0.0846019 (Simulation time: 2 hr 36 min 26 sec) 
Heartbeat CPU 0 instructions: 907000002 cycles: 12683146428 heartbeat IPC: 0.0922683 cumulative IPC: 0.0846173 (Simulation time: 2 hr 36 min 37 sec) 
Heartbeat CPU 0 instructions: 908000002 cycles: 12694682361 heartbeat IPC: 0.0866857 cumulative IPC: 0.0846217 (Simulation time: 2 hr 36 min 50 sec) 
Heartbeat CPU 0 instructions: 909000002 cycles: 12707431868 heartbeat IPC: 0.0784344 cumulative IPC: 0.0846071 (Simulation time: 2 hr 37 min 3 sec) 
Heartbeat CPU 0 instructions: 910000000 cycles: 12719977384 heartbeat IPC: 0.0797096 cumulative IPC: 0.0845959 (Simulation time: 2 hr 37 min 15 sec) 
Heartbeat CPU 0 instructions: 911000002 cycles: 12732416194 heartbeat IPC: 0.0803937 cumulative IPC: 0.0845863 (Simulation time: 2 hr 37 min 27 sec) 
Heartbeat CPU 0 instructions: 912000002 cycles: 12744898977 heartbeat IPC: 0.0801103 cumulative IPC: 0.084576 (Simulation time: 2 hr 37 min 39 sec) 
Heartbeat CPU 0 instructions: 913000000 cycles: 12755024929 heartbeat IPC: 0.0987559 cumulative IPC: 0.0846023 (Simulation time: 2 hr 37 min 50 sec) 
Heartbeat CPU 0 instructions: 914000001 cycles: 12766577846 heartbeat IPC: 0.0865583 cumulative IPC: 0.0846064 (Simulation time: 2 hr 38 min 1 sec) 
Heartbeat CPU 0 instructions: 915000000 cycles: 12778634632 heartbeat IPC: 0.0829408 cumulative IPC: 0.0846027 (Simulation time: 2 hr 38 min 12 sec) 
Heartbeat CPU 0 instructions: 916000001 cycles: 12791300496 heartbeat IPC: 0.0789525 cumulative IPC: 0.0845897 (Simulation time: 2 hr 38 min 24 sec) 
Heartbeat CPU 0 instructions: 917000000 cycles: 12803412628 heartbeat IPC: 0.0825618 cumulative IPC: 0.0845853 (Simulation time: 2 hr 38 min 35 sec) 
Heartbeat CPU 0 instructions: 918000001 cycles: 12814716605 heartbeat IPC: 0.0884645 cumulative IPC: 0.0845932 (Simulation time: 2 hr 38 min 46 sec) 
Heartbeat CPU 0 instructions: 919000000 cycles: 12827492221 heartbeat IPC: 0.078274 cumulative IPC: 0.0845787 (Simulation time: 2 hr 38 min 58 sec) 
Heartbeat CPU 0 instructions: 920000000 cycles: 12840139603 heartbeat IPC: 0.0790677 cumulative IPC: 0.0845661 (Simulation time: 2 hr 39 min 10 sec) 
Heartbeat CPU 0 instructions: 921000000 cycles: 12852507091 heartbeat IPC: 0.0808572 cumulative IPC: 0.0845579 (Simulation time: 2 hr 39 min 22 sec) 
Heartbeat CPU 0 instructions: 922000001 cycles: 12865201020 heartbeat IPC: 0.0787779 cumulative IPC: 0.0845447 (Simulation time: 2 hr 39 min 34 sec) 
Heartbeat CPU 0 instructions: 923000000 cycles: 12878082569 heartbeat IPC: 0.0776303 cumulative IPC: 0.0845288 (Simulation time: 2 hr 39 min 45 sec) 
Heartbeat CPU 0 instructions: 924000000 cycles: 12890840122 heartbeat IPC: 0.0783849 cumulative IPC: 0.0845148 (Simulation time: 2 hr 39 min 57 sec) 
Heartbeat CPU 0 instructions: 925000000 cycles: 12903391358 heartbeat IPC: 0.0796734 cumulative IPC: 0.084504 (Simulation time: 2 hr 40 min 9 sec) 
Heartbeat CPU 0 instructions: 926000001 cycles: 12916152806 heartbeat IPC: 0.0783611 cumulative IPC: 0.0844901 (Simulation time: 2 hr 40 min 21 sec) 
Heartbeat CPU 0 instructions: 927000000 cycles: 12928765389 heartbeat IPC: 0.0792858 cumulative IPC: 0.0844785 (Simulation time: 2 hr 40 min 33 sec) 
Heartbeat CPU 0 instructions: 928000000 cycles: 12941349466 heartbeat IPC: 0.0794655 cumulative IPC: 0.0844674 (Simulation time: 2 hr 40 min 45 sec) 
Heartbeat CPU 0 instructions: 929000001 cycles: 12953920335 heartbeat IPC: 0.0795491 cumulative IPC: 0.0844565 (Simulation time: 2 hr 40 min 57 sec) 
Heartbeat CPU 0 instructions: 930000000 cycles: 12966453733 heartbeat IPC: 0.0797867 cumulative IPC: 0.0844462 (Simulation time: 2 hr 41 min 9 sec) 
Heartbeat CPU 0 instructions: 931000000 cycles: 12979044274 heartbeat IPC: 0.0794247 cumulative IPC: 0.0844351 (Simulation time: 2 hr 41 min 21 sec) 
Heartbeat CPU 0 instructions: 932000000 cycles: 12991696176 heartbeat IPC: 0.0790395 cumulative IPC: 0.0844231 (Simulation time: 2 hr 41 min 33 sec) 
Heartbeat CPU 0 instructions: 933000000 cycles: 13004281578 heartbeat IPC: 0.0794571 cumulative IPC: 0.0844122 (Simulation time: 2 hr 41 min 45 sec) 
Heartbeat CPU 0 instructions: 934000000 cycles: 13016955741 heartbeat IPC: 0.0789007 cumulative IPC: 0.0844 (Simulation time: 2 hr 41 min 58 sec) 
Heartbeat CPU 0 instructions: 935000000 cycles: 13029449820 heartbeat IPC: 0.0800379 cumulative IPC: 0.0843905 (Simulation time: 2 hr 42 min 10 sec) 
Heartbeat CPU 0 instructions: 936000000 cycles: 13041957631 heartbeat IPC: 0.07995 cumulative IPC: 0.0843809 (Simulation time: 2 hr 42 min 22 sec) 
Heartbeat CPU 0 instructions: 937000002 cycles: 13054293620 heartbeat IPC: 0.0810638 cumulative IPC: 0.0843738 (Simulation time: 2 hr 42 min 34 sec) 
Heartbeat CPU 0 instructions: 938000002 cycles: 13066721981 heartbeat IPC: 0.0804611 cumulative IPC: 0.0843654 (Simulation time: 2 hr 42 min 46 sec) 
Heartbeat CPU 0 instructions: 939000000 cycles: 13079315927 heartbeat IPC: 0.0794031 cumulative IPC: 0.0843546 (Simulation time: 2 hr 42 min 59 sec) 
Heartbeat CPU 0 instructions: 940000001 cycles: 13091837040 heartbeat IPC: 0.0798652 cumulative IPC: 0.0843449 (Simulation time: 2 hr 43 min 11 sec) 
Heartbeat CPU 0 instructions: 941000000 cycles: 13104447490 heartbeat IPC: 0.0792992 cumulative IPC: 0.084334 (Simulation time: 2 hr 43 min 23 sec) 
Heartbeat CPU 0 instructions: 942000000 cycles: 13116964002 heartbeat IPC: 0.0798945 cumulative IPC: 0.0843245 (Simulation time: 2 hr 43 min 35 sec) 
Heartbeat CPU 0 instructions: 943000000 cycles: 13129622023 heartbeat IPC: 0.0790013 cumulative IPC: 0.0843129 (Simulation time: 2 hr 43 min 47 sec) 
Heartbeat CPU 0 instructions: 944000000 cycles: 13142107338 heartbeat IPC: 0.0800941 cumulative IPC: 0.084304 (Simulation time: 2 hr 43 min 58 sec) 
Heartbeat CPU 0 instructions: 945000000 cycles: 13154719622 heartbeat IPC: 0.0792878 cumulative IPC: 0.0842932 (Simulation time: 2 hr 44 min 11 sec) 
Heartbeat CPU 0 instructions: 946000000 cycles: 13166863271 heartbeat IPC: 0.0823476 cumulative IPC: 0.0842892 (Simulation time: 2 hr 44 min 22 sec) 
Heartbeat CPU 0 instructions: 947000001 cycles: 13179488487 heartbeat IPC: 0.0792066 cumulative IPC: 0.0842783 (Simulation time: 2 hr 44 min 34 sec) 
Heartbeat CPU 0 instructions: 948000000 cycles: 13191862793 heartbeat IPC: 0.0808125 cumulative IPC: 0.084271 (Simulation time: 2 hr 44 min 46 sec) 
Heartbeat CPU 0 instructions: 949000000 cycles: 13204338894 heartbeat IPC: 0.0801532 cumulative IPC: 0.0842623 (Simulation time: 2 hr 44 min 58 sec) 
Heartbeat CPU 0 instructions: 950000000 cycles: 13216736590 heartbeat IPC: 0.0806601 cumulative IPC: 0.0842548 (Simulation time: 2 hr 45 min 10 sec) 
Finished CPU 0 instructions: 500000002 cycles: 5934378247 cumulative IPC: 0.0842548 (Simulation time: 2 hr 45 min 10 sec) 

ChampSim completed all CPUs

Region of Interest Statistics

CPU 0 cumulative IPC: 0.0842548 instructions: 500000002 cycles: 5934378247
L1D TOTAL     ACCESS:  106587264  HIT:   19069684  MISS:   87517580
L1D LOAD      ACCESS:  102247238  HIT:   14932056  MISS:   87315182
L1D RFO       ACCESS:    4340026  HIT:    4137628  MISS:     202398
L1D PREFETCH  ACCESS:          0  HIT:          0  MISS:          0
L1D WRITEBACK ACCESS:          0  HIT:          0  MISS:          0
L1D PREFETCH  REQUESTED:          0  ISSUED:          0  USEFUL:          0  USELESS:          0
L1D AVERAGE MISS LATENCY: 153.339 cycles
L1I TOTAL     ACCESS:   99994689  HIT:   99994689  MISS:          0
L1I LOAD      ACCESS:   99994689  HIT:   99994689  MISS:          0
L1I RFO       ACCESS:          0  HIT:          0  MISS:          0
L1I PREFETCH  ACCESS:          0  HIT:          0  MISS:          0
L1I WRITEBACK ACCESS:          0  HIT:          0  MISS:          0
L1I PREFETCH  REQUESTED:          0  ISSUED:          0  USEFUL:          0  USELESS:          0
L1I AVERAGE MISS LATENCY: -nan cycles
L2C TOTAL     ACCESS:   89918871  HIT:   29282003  MISS:   60636868
L2C LOAD      ACCESS:   87315070  HIT:   26814290  MISS:   60500780
L2C RFO       ACCESS:     202394  HIT:      66319  MISS:     136075
L2C PREFETCH  ACCESS:          0  HIT:          0  MISS:          0
L2C WRITEBACK ACCESS:    2401407  HIT:    2401394  MISS:         13
L2C PREFETCH  REQUESTED:          0  ISSUED:          0  USEFUL:          0  USELESS:          0
L2C AVERAGE MISS LATENCY: 198.534 cycles
LLC TOTAL     ACCESS:  101277997  HIT:   56094717  MISS:   45183280
LLC LOAD      ACCESS:   60500735  HIT:   30175258  MISS:   30325477
LLC RFO       ACCESS:     136075  HIT:      47198  MISS:      88877
LLC PREFETCH  ACCESS:   38843002  HIT:   24085682  MISS:   14757320
LLC WRITEBACK ACCESS:    1798185  HIT:    1786579  MISS:      11606
LLC PREFETCH  REQUESTED:   60500737  ISSUED:   60500734  USEFUL:   11824008  USELESS:    2931803
LLC AVERAGE MISS LATENCY: 325.999 cycles
Major fault: 0 Minor fault: 428297
performance stats:
mapping cache size: 27410289
divergence: 55409022

DRAM Statistics
 CHANNEL 0
 RQ ROW_BUFFER_HIT:    1680609  ROW_BUFFER_MISS:   43489300
 DBUS_CONGESTED:    2847171
 WQ ROW_BUFFER_HIT:     596151  ROW_BUFFER_MISS:    1007688  FULL:          0

 AVG_CONGESTED_CYCLE: 5

CPU 0 Branch Prediction Accuracy: 93.5422% MPKI: 19.6887 Average ROB Occupancy at Mispredict: 29.8888

Branch types
NOT_BRANCH: 347558959 69.5118%
BRANCH_DIRECT_JUMP: 1546994 0.309399%
BRANCH_INDIRECT: 0 0%
BRANCH_CONDITIONAL: 150853634 30.1707%
BRANCH_DIRECT_CALL: 20249 0.0040498%
BRANCH_INDIRECT_CALL: 0 0%
BRANCH_RETURN: 20249 0.0040498%
BRANCH_OTHER: 0 0%


gzip: stdout: Broken pipe
