
*** ChampSim Multicore Out-of-Order Simulator ***

Warmup Instructions: 1000000
Prefetch Warmup Instructions: 450000000
Simulation Instructions: 500000000
Stat Printing Period: 1000000
Number of CPUs: 1
LLC sets: 2048
LLC ways: 16
Off-chip DRAM Size: 4096 MB Channels: 1 Width: 64-bit Data Rate: 3200 MT/s

CPU 0 runs /scratch/cluster/cmolder/ML-DPC/ChampSimTraces/spec06/429.mcf-s1.trace.gz
Read seed: 622
Heartbeat CPU 0 instructions: 1000001 cycles: 460266 heartbeat IPC: 2.17266 cumulative IPC: 2.17266 (Simulation time: 0 hr 0 min 6 sec) 

Warmup complete CPU 0 instructions: 1000001 cycles: 460266 (Simulation time: 0 hr 0 min 6 sec) 

Heartbeat CPU 0 instructions: 2000003 cycles: 15942968 heartbeat IPC: 0.0645883 cumulative IPC: 0.0645883 (Simulation time: 0 hr 0 min 22 sec) 
Heartbeat CPU 0 instructions: 3000000 cycles: 28710255 heartbeat IPC: 0.0783249 cumulative IPC: 0.0707965 (Simulation time: 0 hr 0 min 36 sec) 
Heartbeat CPU 0 instructions: 4000000 cycles: 44935729 heartbeat IPC: 0.0616315 cumulative IPC: 0.0674529 (Simulation time: 0 hr 0 min 51 sec) 
Heartbeat CPU 0 instructions: 5000002 cycles: 59437741 heartbeat IPC: 0.0689561 cumulative IPC: 0.0678225 (Simulation time: 0 hr 1 min 6 sec) 
Heartbeat CPU 0 instructions: 6000003 cycles: 74280205 heartbeat IPC: 0.0673743 cumulative IPC: 0.0677324 (Simulation time: 0 hr 1 min 20 sec) 
Heartbeat CPU 0 instructions: 7000000 cycles: 91723395 heartbeat IPC: 0.0573288 cumulative IPC: 0.065744 (Simulation time: 0 hr 1 min 38 sec) 
Heartbeat CPU 0 instructions: 8000000 cycles: 108736873 heartbeat IPC: 0.0587769 cumulative IPC: 0.0646492 (Simulation time: 0 hr 1 min 54 sec) 
Heartbeat CPU 0 instructions: 9000000 cycles: 125687546 heartbeat IPC: 0.0589947 cumulative IPC: 0.0638838 (Simulation time: 0 hr 2 min 9 sec) 
Heartbeat CPU 0 instructions: 10000001 cycles: 141990434 heartbeat IPC: 0.0613389 cumulative IPC: 0.0635907 (Simulation time: 0 hr 2 min 25 sec) 
Heartbeat CPU 0 instructions: 11000000 cycles: 158320605 heartbeat IPC: 0.0612363 cumulative IPC: 0.0633471 (Simulation time: 0 hr 2 min 40 sec) 
Heartbeat CPU 0 instructions: 12000000 cycles: 174214081 heartbeat IPC: 0.0629189 cumulative IPC: 0.063308 (Simulation time: 0 hr 2 min 57 sec) 
Heartbeat CPU 0 instructions: 13000000 cycles: 191176546 heartbeat IPC: 0.0589537 cumulative IPC: 0.0629207 (Simulation time: 0 hr 3 min 14 sec) 
Heartbeat CPU 0 instructions: 14000000 cycles: 207635673 heartbeat IPC: 0.0607566 cumulative IPC: 0.0627488 (Simulation time: 0 hr 3 min 30 sec) 
Heartbeat CPU 0 instructions: 15000000 cycles: 224142323 heartbeat IPC: 0.0605816 cumulative IPC: 0.0625888 (Simulation time: 0 hr 3 min 46 sec) 
Heartbeat CPU 0 instructions: 16000000 cycles: 239550501 heartbeat IPC: 0.0649006 cumulative IPC: 0.0627378 (Simulation time: 0 hr 4 min 1 sec) 
Heartbeat CPU 0 instructions: 17000000 cycles: 255605574 heartbeat IPC: 0.0622856 cumulative IPC: 0.0627094 (Simulation time: 0 hr 4 min 17 sec) 
Heartbeat CPU 0 instructions: 18000000 cycles: 270994631 heartbeat IPC: 0.0649812 cumulative IPC: 0.0628386 (Simulation time: 0 hr 4 min 33 sec) 
Heartbeat CPU 0 instructions: 19000002 cycles: 287025003 heartbeat IPC: 0.0623817 cumulative IPC: 0.062813 (Simulation time: 0 hr 4 min 49 sec) 
Heartbeat CPU 0 instructions: 20000000 cycles: 303002069 heartbeat IPC: 0.0625896 cumulative IPC: 0.0628012 (Simulation time: 0 hr 5 min 4 sec) 
Heartbeat CPU 0 instructions: 21000000 cycles: 318195728 heartbeat IPC: 0.0658169 cumulative IPC: 0.0629454 (Simulation time: 0 hr 5 min 19 sec) 
Heartbeat CPU 0 instructions: 22000000 cycles: 333073351 heartbeat IPC: 0.067215 cumulative IPC: 0.0631364 (Simulation time: 0 hr 5 min 33 sec) 
Heartbeat CPU 0 instructions: 23000000 cycles: 348986625 heartbeat IPC: 0.0628406 cumulative IPC: 0.0631229 (Simulation time: 0 hr 5 min 48 sec) 
Heartbeat CPU 0 instructions: 24000001 cycles: 364589650 heartbeat IPC: 0.0640902 cumulative IPC: 0.0631644 (Simulation time: 0 hr 6 min 2 sec) 
Heartbeat CPU 0 instructions: 25000000 cycles: 380794354 heartbeat IPC: 0.0617104 cumulative IPC: 0.0631024 (Simulation time: 0 hr 6 min 17 sec) 
Heartbeat CPU 0 instructions: 26000000 cycles: 397329155 heartbeat IPC: 0.0604785 cumulative IPC: 0.0629931 (Simulation time: 0 hr 6 min 32 sec) 
Heartbeat CPU 0 instructions: 27000000 cycles: 414138750 heartbeat IPC: 0.0594898 cumulative IPC: 0.0628507 (Simulation time: 0 hr 6 min 48 sec) 
Heartbeat CPU 0 instructions: 28000000 cycles: 431021462 heartbeat IPC: 0.0592322 cumulative IPC: 0.0627089 (Simulation time: 0 hr 7 min 3 sec) 
Heartbeat CPU 0 instructions: 29000001 cycles: 447910040 heartbeat IPC: 0.0592117 cumulative IPC: 0.0625769 (Simulation time: 0 hr 7 min 18 sec) 
Heartbeat CPU 0 instructions: 30000001 cycles: 464585075 heartbeat IPC: 0.0599699 cumulative IPC: 0.0624832 (Simulation time: 0 hr 7 min 34 sec) 
Heartbeat CPU 0 instructions: 31000001 cycles: 481041294 heartbeat IPC: 0.0607673 cumulative IPC: 0.0624244 (Simulation time: 0 hr 7 min 49 sec) 
Heartbeat CPU 0 instructions: 32000000 cycles: 496843755 heartbeat IPC: 0.0632812 cumulative IPC: 0.0624517 (Simulation time: 0 hr 8 min 4 sec) 
Heartbeat CPU 0 instructions: 33000000 cycles: 513325463 heartbeat IPC: 0.0606733 cumulative IPC: 0.0623946 (Simulation time: 0 hr 8 min 18 sec) 
Heartbeat CPU 0 instructions: 34000000 cycles: 529583152 heartbeat IPC: 0.0615094 cumulative IPC: 0.0623674 (Simulation time: 0 hr 8 min 34 sec) 
Heartbeat CPU 0 instructions: 35000001 cycles: 545646812 heartbeat IPC: 0.0622524 cumulative IPC: 0.062364 (Simulation time: 0 hr 8 min 51 sec) 
Heartbeat CPU 0 instructions: 36000002 cycles: 562040778 heartbeat IPC: 0.0609981 cumulative IPC: 0.0623241 (Simulation time: 0 hr 9 min 9 sec) 
Heartbeat CPU 0 instructions: 37000000 cycles: 578674174 heartbeat IPC: 0.0601199 cumulative IPC: 0.0622607 (Simulation time: 0 hr 9 min 24 sec) 
Heartbeat CPU 0 instructions: 38000000 cycles: 595235947 heartbeat IPC: 0.06038 cumulative IPC: 0.0622083 (Simulation time: 0 hr 9 min 39 sec) 
Heartbeat CPU 0 instructions: 39000000 cycles: 611820566 heartbeat IPC: 0.0602968 cumulative IPC: 0.0621565 (Simulation time: 0 hr 9 min 55 sec) 
Heartbeat CPU 0 instructions: 40000000 cycles: 628268410 heartbeat IPC: 0.0607982 cumulative IPC: 0.0621209 (Simulation time: 0 hr 10 min 10 sec) 
Heartbeat CPU 0 instructions: 41000000 cycles: 644443736 heartbeat IPC: 0.0618226 cumulative IPC: 0.0621134 (Simulation time: 0 hr 10 min 25 sec) 
Heartbeat CPU 0 instructions: 42000000 cycles: 660687130 heartbeat IPC: 0.0615635 cumulative IPC: 0.0620999 (Simulation time: 0 hr 10 min 41 sec) 
Heartbeat CPU 0 instructions: 43000001 cycles: 676980998 heartbeat IPC: 0.0613728 cumulative IPC: 0.0620824 (Simulation time: 0 hr 10 min 53 sec) 
Heartbeat CPU 0 instructions: 44000000 cycles: 693440036 heartbeat IPC: 0.0607568 cumulative IPC: 0.0620509 (Simulation time: 0 hr 11 min 7 sec) 
Heartbeat CPU 0 instructions: 45000001 cycles: 709618845 heartbeat IPC: 0.0618093 cumulative IPC: 0.0620454 (Simulation time: 0 hr 11 min 23 sec) 
Heartbeat CPU 0 instructions: 46000000 cycles: 725875639 heartbeat IPC: 0.0615127 cumulative IPC: 0.0620334 (Simulation time: 0 hr 11 min 38 sec) 
Heartbeat CPU 0 instructions: 47000000 cycles: 742071962 heartbeat IPC: 0.0617424 cumulative IPC: 0.0620271 (Simulation time: 0 hr 11 min 54 sec) 
Heartbeat CPU 0 instructions: 48000002 cycles: 757901320 heartbeat IPC: 0.0631739 cumulative IPC: 0.062051 (Simulation time: 0 hr 12 min 9 sec) 
Heartbeat CPU 0 instructions: 49000000 cycles: 774343465 heartbeat IPC: 0.0608192 cumulative IPC: 0.0620249 (Simulation time: 0 hr 12 min 25 sec) 
Heartbeat CPU 0 instructions: 50000000 cycles: 790823538 heartbeat IPC: 0.0606793 cumulative IPC: 0.0619968 (Simulation time: 0 hr 12 min 41 sec) 
Heartbeat CPU 0 instructions: 51000000 cycles: 807369585 heartbeat IPC: 0.0604374 cumulative IPC: 0.0619648 (Simulation time: 0 hr 12 min 57 sec) 
Heartbeat CPU 0 instructions: 52000000 cycles: 823880667 heartbeat IPC: 0.0605654 cumulative IPC: 0.0619368 (Simulation time: 0 hr 13 min 13 sec) 
Heartbeat CPU 0 instructions: 53000000 cycles: 840435532 heartbeat IPC: 0.0604052 cumulative IPC: 0.0619066 (Simulation time: 0 hr 13 min 29 sec) 
Heartbeat CPU 0 instructions: 54000001 cycles: 856922324 heartbeat IPC: 0.0606547 cumulative IPC: 0.0618825 (Simulation time: 0 hr 13 min 45 sec) 
Heartbeat CPU 0 instructions: 55000000 cycles: 873274237 heartbeat IPC: 0.0611549 cumulative IPC: 0.0618689 (Simulation time: 0 hr 14 min 0 sec) 
Heartbeat CPU 0 instructions: 56000000 cycles: 889670574 heartbeat IPC: 0.0609892 cumulative IPC: 0.0618526 (Simulation time: 0 hr 14 min 16 sec) 
Heartbeat CPU 0 instructions: 57000000 cycles: 906308044 heartbeat IPC: 0.0601053 cumulative IPC: 0.0618205 (Simulation time: 0 hr 14 min 31 sec) 
Heartbeat CPU 0 instructions: 58000001 cycles: 922598935 heartbeat IPC: 0.0613841 cumulative IPC: 0.0618128 (Simulation time: 0 hr 14 min 47 sec) 
Heartbeat CPU 0 instructions: 59000002 cycles: 938871908 heartbeat IPC: 0.0614516 cumulative IPC: 0.0618066 (Simulation time: 0 hr 15 min 3 sec) 
Heartbeat CPU 0 instructions: 60000000 cycles: 954884339 heartbeat IPC: 0.0624514 cumulative IPC: 0.0618174 (Simulation time: 0 hr 15 min 19 sec) 
Heartbeat CPU 0 instructions: 61000002 cycles: 971120452 heartbeat IPC: 0.0615912 cumulative IPC: 0.0618136 (Simulation time: 0 hr 15 min 35 sec) 
Heartbeat CPU 0 instructions: 62000001 cycles: 983816236 heartbeat IPC: 0.0787662 cumulative IPC: 0.0620325 (Simulation time: 0 hr 15 min 46 sec) 
Heartbeat CPU 0 instructions: 63000000 cycles: 999009441 heartbeat IPC: 0.0658188 cumulative IPC: 0.0620901 (Simulation time: 0 hr 16 min 0 sec) 
Heartbeat CPU 0 instructions: 64000000 cycles: 1015008384 heartbeat IPC: 0.0625041 cumulative IPC: 0.0620966 (Simulation time: 0 hr 16 min 15 sec) 
Heartbeat CPU 0 instructions: 65000001 cycles: 1029615165 heartbeat IPC: 0.0684614 cumulative IPC: 0.0621869 (Simulation time: 0 hr 16 min 29 sec) 
Heartbeat CPU 0 instructions: 66000000 cycles: 1045889049 heartbeat IPC: 0.0614481 cumulative IPC: 0.0621754 (Simulation time: 0 hr 16 min 43 sec) 
Heartbeat CPU 0 instructions: 67000001 cycles: 1062391394 heartbeat IPC: 0.0605975 cumulative IPC: 0.0621509 (Simulation time: 0 hr 16 min 59 sec) 
Heartbeat CPU 0 instructions: 68000002 cycles: 1078986303 heartbeat IPC: 0.0602595 cumulative IPC: 0.0621218 (Simulation time: 0 hr 17 min 15 sec) 
Heartbeat CPU 0 instructions: 69000000 cycles: 1094959303 heartbeat IPC: 0.0626055 cumulative IPC: 0.0621289 (Simulation time: 0 hr 17 min 30 sec) 
Heartbeat CPU 0 instructions: 70000000 cycles: 1111010113 heartbeat IPC: 0.0623022 cumulative IPC: 0.0621314 (Simulation time: 0 hr 17 min 46 sec) 
Heartbeat CPU 0 instructions: 71000000 cycles: 1127184640 heartbeat IPC: 0.0618256 cumulative IPC: 0.062127 (Simulation time: 0 hr 18 min 1 sec) 
Heartbeat CPU 0 instructions: 72000001 cycles: 1143400069 heartbeat IPC: 0.0616697 cumulative IPC: 0.0621205 (Simulation time: 0 hr 18 min 17 sec) 
Heartbeat CPU 0 instructions: 73000000 cycles: 1159824247 heartbeat IPC: 0.0608858 cumulative IPC: 0.062103 (Simulation time: 0 hr 18 min 32 sec) 
Heartbeat CPU 0 instructions: 74000000 cycles: 1175973045 heartbeat IPC: 0.0619241 cumulative IPC: 0.0621006 (Simulation time: 0 hr 18 min 48 sec) 
Heartbeat CPU 0 instructions: 75000000 cycles: 1191570036 heartbeat IPC: 0.0641149 cumulative IPC: 0.0621269 (Simulation time: 0 hr 19 min 3 sec) 
Heartbeat CPU 0 instructions: 76000000 cycles: 1207863845 heartbeat IPC: 0.061373 cumulative IPC: 0.0621168 (Simulation time: 0 hr 19 min 18 sec) 
Heartbeat CPU 0 instructions: 77000000 cycles: 1223708070 heartbeat IPC: 0.0631145 cumulative IPC: 0.0621297 (Simulation time: 0 hr 19 min 33 sec) 
Heartbeat CPU 0 instructions: 78000000 cycles: 1240313081 heartbeat IPC: 0.0602228 cumulative IPC: 0.0621041 (Simulation time: 0 hr 19 min 49 sec) 
Heartbeat CPU 0 instructions: 79000000 cycles: 1256254118 heartbeat IPC: 0.0627312 cumulative IPC: 0.0621121 (Simulation time: 0 hr 20 min 4 sec) 
Heartbeat CPU 0 instructions: 80000000 cycles: 1272165282 heartbeat IPC: 0.062849 cumulative IPC: 0.0621213 (Simulation time: 0 hr 20 min 19 sec) 
Heartbeat CPU 0 instructions: 81000001 cycles: 1287892323 heartbeat IPC: 0.0635848 cumulative IPC: 0.0621392 (Simulation time: 0 hr 20 min 36 sec) 
Heartbeat CPU 0 instructions: 82000003 cycles: 1301710209 heartbeat IPC: 0.0723701 cumulative IPC: 0.0622478 (Simulation time: 0 hr 20 min 50 sec) 
Heartbeat CPU 0 instructions: 83000000 cycles: 1314304783 heartbeat IPC: 0.079399 cumulative IPC: 0.0624123 (Simulation time: 0 hr 21 min 4 sec) 
Heartbeat CPU 0 instructions: 84000000 cycles: 1326629727 heartbeat IPC: 0.0811363 cumulative IPC: 0.0625863 (Simulation time: 0 hr 21 min 17 sec) 
Heartbeat CPU 0 instructions: 85000000 cycles: 1340107147 heartbeat IPC: 0.0741982 cumulative IPC: 0.0627031 (Simulation time: 0 hr 21 min 28 sec) 
Heartbeat CPU 0 instructions: 86000001 cycles: 1352914383 heartbeat IPC: 0.0780809 cumulative IPC: 0.0628487 (Simulation time: 0 hr 21 min 42 sec) 
Heartbeat CPU 0 instructions: 87000002 cycles: 1368135496 heartbeat IPC: 0.0656983 cumulative IPC: 0.0628804 (Simulation time: 0 hr 21 min 58 sec) 
Heartbeat CPU 0 instructions: 88000000 cycles: 1383081079 heartbeat IPC: 0.0669093 cumulative IPC: 0.062924 (Simulation time: 0 hr 22 min 14 sec) 
Heartbeat CPU 0 instructions: 89000002 cycles: 1396953633 heartbeat IPC: 0.0720849 cumulative IPC: 0.063015 (Simulation time: 0 hr 22 min 28 sec) 
Heartbeat CPU 0 instructions: 90000000 cycles: 1407962302 heartbeat IPC: 0.0908373 cumulative IPC: 0.0632326 (Simulation time: 0 hr 22 min 40 sec) 
Heartbeat CPU 0 instructions: 91000000 cycles: 1423274034 heartbeat IPC: 0.0653094 cumulative IPC: 0.0632549 (Simulation time: 0 hr 22 min 55 sec) 
Heartbeat CPU 0 instructions: 92000000 cycles: 1435441698 heartbeat IPC: 0.082185 cumulative IPC: 0.0634155 (Simulation time: 0 hr 23 min 8 sec) 
Heartbeat CPU 0 instructions: 93000000 cycles: 1451930394 heartbeat IPC: 0.0606476 cumulative IPC: 0.063384 (Simulation time: 0 hr 23 min 22 sec) 
Heartbeat CPU 0 instructions: 94000000 cycles: 1468412214 heartbeat IPC: 0.0606729 cumulative IPC: 0.0633536 (Simulation time: 0 hr 23 min 36 sec) 
Heartbeat CPU 0 instructions: 95000001 cycles: 1484825434 heartbeat IPC: 0.0609266 cumulative IPC: 0.0633267 (Simulation time: 0 hr 23 min 51 sec) 
Heartbeat CPU 0 instructions: 96000000 cycles: 1501284556 heartbeat IPC: 0.0607565 cumulative IPC: 0.0632985 (Simulation time: 0 hr 24 min 6 sec) 
Heartbeat CPU 0 instructions: 97000001 cycles: 1517849444 heartbeat IPC: 0.0603687 cumulative IPC: 0.0632666 (Simulation time: 0 hr 24 min 20 sec) 
Heartbeat CPU 0 instructions: 98000000 cycles: 1534341706 heartbeat IPC: 0.0606344 cumulative IPC: 0.0632383 (Simulation time: 0 hr 24 min 37 sec) 
Heartbeat CPU 0 instructions: 99000000 cycles: 1550443421 heartbeat IPC: 0.0621052 cumulative IPC: 0.0632265 (Simulation time: 0 hr 24 min 51 sec) 
Heartbeat CPU 0 instructions: 100000000 cycles: 1566755946 heartbeat IPC: 0.0613026 cumulative IPC: 0.0632065 (Simulation time: 0 hr 25 min 7 sec) 
Heartbeat CPU 0 instructions: 101000002 cycles: 1583188672 heartbeat IPC: 0.0608543 cumulative IPC: 0.063182 (Simulation time: 0 hr 25 min 23 sec) 
Heartbeat CPU 0 instructions: 102000000 cycles: 1599544996 heartbeat IPC: 0.0611383 cumulative IPC: 0.0631611 (Simulation time: 0 hr 25 min 39 sec) 
Heartbeat CPU 0 instructions: 103000000 cycles: 1616305272 heartbeat IPC: 0.0596649 cumulative IPC: 0.0631249 (Simulation time: 0 hr 25 min 54 sec) 
Heartbeat CPU 0 instructions: 104000000 cycles: 1633052343 heartbeat IPC: 0.0597119 cumulative IPC: 0.0630899 (Simulation time: 0 hr 26 min 10 sec) 
Heartbeat CPU 0 instructions: 105000001 cycles: 1649566845 heartbeat IPC: 0.0605529 cumulative IPC: 0.0630644 (Simulation time: 0 hr 26 min 26 sec) 
Heartbeat CPU 0 instructions: 106000000 cycles: 1665950094 heartbeat IPC: 0.0610379 cumulative IPC: 0.0630445 (Simulation time: 0 hr 26 min 42 sec) 
Heartbeat CPU 0 instructions: 107000000 cycles: 1682349108 heartbeat IPC: 0.0609793 cumulative IPC: 0.0630244 (Simulation time: 0 hr 26 min 56 sec) 
Heartbeat CPU 0 instructions: 108000001 cycles: 1698851707 heartbeat IPC: 0.0605966 cumulative IPC: 0.0630008 (Simulation time: 0 hr 27 min 12 sec) 
Heartbeat CPU 0 instructions: 109000000 cycles: 1715165845 heartbeat IPC: 0.0612965 cumulative IPC: 0.0629846 (Simulation time: 0 hr 27 min 27 sec) 
Heartbeat CPU 0 instructions: 110000000 cycles: 1731518076 heartbeat IPC: 0.0611537 cumulative IPC: 0.0629673 (Simulation time: 0 hr 27 min 43 sec) 
Heartbeat CPU 0 instructions: 111000000 cycles: 1747910838 heartbeat IPC: 0.0610025 cumulative IPC: 0.0629488 (Simulation time: 0 hr 27 min 58 sec) 
Heartbeat CPU 0 instructions: 112000002 cycles: 1764249920 heartbeat IPC: 0.0612031 cumulative IPC: 0.0629327 (Simulation time: 0 hr 28 min 13 sec) 
Heartbeat CPU 0 instructions: 113000002 cycles: 1780423076 heartbeat IPC: 0.0618309 cumulative IPC: 0.0629227 (Simulation time: 0 hr 28 min 29 sec) 
Heartbeat CPU 0 instructions: 114000001 cycles: 1796770563 heartbeat IPC: 0.0611714 cumulative IPC: 0.0629067 (Simulation time: 0 hr 28 min 45 sec) 
Heartbeat CPU 0 instructions: 115000000 cycles: 1813251881 heartbeat IPC: 0.0606747 cumulative IPC: 0.0628864 (Simulation time: 0 hr 29 min 1 sec) 
Heartbeat CPU 0 instructions: 116000002 cycles: 1829733402 heartbeat IPC: 0.0606741 cumulative IPC: 0.0628665 (Simulation time: 0 hr 29 min 16 sec) 
Heartbeat CPU 0 instructions: 117000001 cycles: 1846066646 heartbeat IPC: 0.0612248 cumulative IPC: 0.062852 (Simulation time: 0 hr 29 min 31 sec) 
Heartbeat CPU 0 instructions: 118000000 cycles: 1862334028 heartbeat IPC: 0.0614726 cumulative IPC: 0.0628399 (Simulation time: 0 hr 29 min 46 sec) 
Heartbeat CPU 0 instructions: 119000001 cycles: 1878566100 heartbeat IPC: 0.0616065 cumulative IPC: 0.0628293 (Simulation time: 0 hr 30 min 2 sec) 
Heartbeat CPU 0 instructions: 120000000 cycles: 1894737013 heartbeat IPC: 0.0618394 cumulative IPC: 0.0628208 (Simulation time: 0 hr 30 min 17 sec) 
Heartbeat CPU 0 instructions: 121000000 cycles: 1910698737 heartbeat IPC: 0.0626499 cumulative IPC: 0.0628194 (Simulation time: 0 hr 30 min 33 sec) 
Heartbeat CPU 0 instructions: 122000002 cycles: 1926940869 heartbeat IPC: 0.0615684 cumulative IPC: 0.0628088 (Simulation time: 0 hr 30 min 47 sec) 
Heartbeat CPU 0 instructions: 123000000 cycles: 1943325810 heartbeat IPC: 0.0610315 cumulative IPC: 0.0627938 (Simulation time: 0 hr 31 min 3 sec) 
Heartbeat CPU 0 instructions: 124000001 cycles: 1960004972 heartbeat IPC: 0.0599551 cumulative IPC: 0.0627697 (Simulation time: 0 hr 31 min 18 sec) 
Heartbeat CPU 0 instructions: 125000001 cycles: 1976662342 heartbeat IPC: 0.0600335 cumulative IPC: 0.0627466 (Simulation time: 0 hr 31 min 33 sec) 
Heartbeat CPU 0 instructions: 126000000 cycles: 1993261498 heartbeat IPC: 0.060244 cumulative IPC: 0.0627258 (Simulation time: 0 hr 31 min 49 sec) 
Heartbeat CPU 0 instructions: 127000001 cycles: 2009567177 heartbeat IPC: 0.0613284 cumulative IPC: 0.0627144 (Simulation time: 0 hr 32 min 6 sec) 
Heartbeat CPU 0 instructions: 128000000 cycles: 2025976861 heartbeat IPC: 0.0609396 cumulative IPC: 0.0627001 (Simulation time: 0 hr 32 min 22 sec) 
Heartbeat CPU 0 instructions: 129000002 cycles: 2042769627 heartbeat IPC: 0.0595496 cumulative IPC: 0.0626741 (Simulation time: 0 hr 32 min 38 sec) 
Heartbeat CPU 0 instructions: 130000000 cycles: 2059550057 heartbeat IPC: 0.0595931 cumulative IPC: 0.062649 (Simulation time: 0 hr 32 min 54 sec) 
Heartbeat CPU 0 instructions: 131000001 cycles: 2076181349 heartbeat IPC: 0.0601277 cumulative IPC: 0.0626288 (Simulation time: 0 hr 33 min 9 sec) 
Heartbeat CPU 0 instructions: 132000000 cycles: 2092432319 heartbeat IPC: 0.0615347 cumulative IPC: 0.0626203 (Simulation time: 0 hr 33 min 24 sec) 
Heartbeat CPU 0 instructions: 133000000 cycles: 2108773157 heartbeat IPC: 0.0611964 cumulative IPC: 0.0626093 (Simulation time: 0 hr 33 min 40 sec) 
Heartbeat CPU 0 instructions: 134000000 cycles: 2125189724 heartbeat IPC: 0.0609141 cumulative IPC: 0.0625962 (Simulation time: 0 hr 33 min 56 sec) 
Heartbeat CPU 0 instructions: 135000000 cycles: 2141675495 heartbeat IPC: 0.0606584 cumulative IPC: 0.0625813 (Simulation time: 0 hr 34 min 11 sec) 
Heartbeat CPU 0 instructions: 136000001 cycles: 2158090609 heartbeat IPC: 0.0609195 cumulative IPC: 0.0625686 (Simulation time: 0 hr 34 min 27 sec) 
Heartbeat CPU 0 instructions: 137000001 cycles: 2174441184 heartbeat IPC: 0.0611599 cumulative IPC: 0.062558 (Simulation time: 0 hr 34 min 42 sec) 
Heartbeat CPU 0 instructions: 138000000 cycles: 2190740144 heartbeat IPC: 0.0613535 cumulative IPC: 0.0625491 (Simulation time: 0 hr 34 min 58 sec) 
Heartbeat CPU 0 instructions: 139000001 cycles: 2207044271 heartbeat IPC: 0.0613342 cumulative IPC: 0.0625401 (Simulation time: 0 hr 35 min 13 sec) 
Heartbeat CPU 0 instructions: 140000000 cycles: 2223379698 heartbeat IPC: 0.0612166 cumulative IPC: 0.0625304 (Simulation time: 0 hr 35 min 29 sec) 
Heartbeat CPU 0 instructions: 141000003 cycles: 2238977991 heartbeat IPC: 0.0641098 cumulative IPC: 0.0625414 (Simulation time: 0 hr 35 min 45 sec) 
Heartbeat CPU 0 instructions: 142000000 cycles: 2254719795 heartbeat IPC: 0.0635249 cumulative IPC: 0.0625483 (Simulation time: 0 hr 36 min 1 sec) 
Heartbeat CPU 0 instructions: 143000000 cycles: 2270695701 heartbeat IPC: 0.0625943 cumulative IPC: 0.0625486 (Simulation time: 0 hr 36 min 15 sec) 
Heartbeat CPU 0 instructions: 144000000 cycles: 2286613420 heartbeat IPC: 0.0628231 cumulative IPC: 0.0625505 (Simulation time: 0 hr 36 min 30 sec) 
Heartbeat CPU 0 instructions: 145000000 cycles: 2302502557 heartbeat IPC: 0.0629361 cumulative IPC: 0.0625532 (Simulation time: 0 hr 36 min 45 sec) 
Heartbeat CPU 0 instructions: 146000002 cycles: 2317818120 heartbeat IPC: 0.0652932 cumulative IPC: 0.0625713 (Simulation time: 0 hr 36 min 58 sec) 
Heartbeat CPU 0 instructions: 147000001 cycles: 2332227992 heartbeat IPC: 0.0693968 cumulative IPC: 0.0626134 (Simulation time: 0 hr 37 min 12 sec) 
Heartbeat CPU 0 instructions: 148000002 cycles: 2347070042 heartbeat IPC: 0.0673762 cumulative IPC: 0.0626436 (Simulation time: 0 hr 37 min 26 sec) 
Heartbeat CPU 0 instructions: 149000000 cycles: 2361484303 heartbeat IPC: 0.0693756 cumulative IPC: 0.0626847 (Simulation time: 0 hr 37 min 40 sec) 
Heartbeat CPU 0 instructions: 150000002 cycles: 2376776400 heartbeat IPC: 0.0653934 cumulative IPC: 0.0627021 (Simulation time: 0 hr 37 min 55 sec) 
Heartbeat CPU 0 instructions: 151000001 cycles: 2391941009 heartbeat IPC: 0.0659429 cumulative IPC: 0.0627226 (Simulation time: 0 hr 38 min 10 sec) 
Heartbeat CPU 0 instructions: 152000000 cycles: 2408025912 heartbeat IPC: 0.06217 cumulative IPC: 0.062719 (Simulation time: 0 hr 38 min 25 sec) 
Heartbeat CPU 0 instructions: 153000002 cycles: 2424325193 heartbeat IPC: 0.0613525 cumulative IPC: 0.0627098 (Simulation time: 0 hr 38 min 40 sec) 
Heartbeat CPU 0 instructions: 154000000 cycles: 2440478303 heartbeat IPC: 0.0619075 cumulative IPC: 0.0627045 (Simulation time: 0 hr 38 min 55 sec) 
Heartbeat CPU 0 instructions: 155000002 cycles: 2456899354 heartbeat IPC: 0.0608976 cumulative IPC: 0.0626924 (Simulation time: 0 hr 39 min 9 sec) 
Heartbeat CPU 0 instructions: 156000002 cycles: 2473315900 heartbeat IPC: 0.0609142 cumulative IPC: 0.0626806 (Simulation time: 0 hr 39 min 23 sec) 
Heartbeat CPU 0 instructions: 157000000 cycles: 2489401399 heartbeat IPC: 0.0621677 cumulative IPC: 0.0626773 (Simulation time: 0 hr 39 min 40 sec) 
Heartbeat CPU 0 instructions: 158000001 cycles: 2505603502 heartbeat IPC: 0.0617204 cumulative IPC: 0.0626711 (Simulation time: 0 hr 39 min 56 sec) 
Heartbeat CPU 0 instructions: 159000000 cycles: 2521835410 heartbeat IPC: 0.061607 cumulative IPC: 0.0626642 (Simulation time: 0 hr 40 min 13 sec) 
Heartbeat CPU 0 instructions: 160000000 cycles: 2538095279 heartbeat IPC: 0.0615011 cumulative IPC: 0.0626568 (Simulation time: 0 hr 40 min 29 sec) 
Heartbeat CPU 0 instructions: 161000000 cycles: 2554430402 heartbeat IPC: 0.0612178 cumulative IPC: 0.0626476 (Simulation time: 0 hr 40 min 45 sec) 
Heartbeat CPU 0 instructions: 162000000 cycles: 2570450769 heartbeat IPC: 0.0624205 cumulative IPC: 0.0626461 (Simulation time: 0 hr 41 min 1 sec) 
Heartbeat CPU 0 instructions: 163000003 cycles: 2586498433 heartbeat IPC: 0.0623146 cumulative IPC: 0.0626441 (Simulation time: 0 hr 41 min 15 sec) 
Heartbeat CPU 0 instructions: 164000001 cycles: 2602879515 heartbeat IPC: 0.0610459 cumulative IPC: 0.062634 (Simulation time: 0 hr 41 min 31 sec) 
Heartbeat CPU 0 instructions: 165000000 cycles: 2619181976 heartbeat IPC: 0.0613404 cumulative IPC: 0.062626 (Simulation time: 0 hr 41 min 46 sec) 
Heartbeat CPU 0 instructions: 166000000 cycles: 2635711295 heartbeat IPC: 0.0604986 cumulative IPC: 0.0626126 (Simulation time: 0 hr 42 min 1 sec) 
Heartbeat CPU 0 instructions: 167000000 cycles: 2651721768 heartbeat IPC: 0.0624591 cumulative IPC: 0.0626117 (Simulation time: 0 hr 42 min 16 sec) 
Heartbeat CPU 0 instructions: 168000000 cycles: 2667961938 heartbeat IPC: 0.0615757 cumulative IPC: 0.0626054 (Simulation time: 0 hr 42 min 32 sec) 
Heartbeat CPU 0 instructions: 169000000 cycles: 2684157687 heartbeat IPC: 0.0617446 cumulative IPC: 0.0626002 (Simulation time: 0 hr 42 min 48 sec) 
Heartbeat CPU 0 instructions: 170000000 cycles: 2700408644 heartbeat IPC: 0.0615348 cumulative IPC: 0.0625938 (Simulation time: 0 hr 43 min 3 sec) 
Heartbeat CPU 0 instructions: 171000001 cycles: 2716454486 heartbeat IPC: 0.0623215 cumulative IPC: 0.0625922 (Simulation time: 0 hr 43 min 19 sec) 
Heartbeat CPU 0 instructions: 172000000 cycles: 2732234942 heartbeat IPC: 0.0633695 cumulative IPC: 0.0625967 (Simulation time: 0 hr 43 min 34 sec) 
Heartbeat CPU 0 instructions: 173000000 cycles: 2748481343 heartbeat IPC: 0.0615521 cumulative IPC: 0.0625905 (Simulation time: 0 hr 43 min 49 sec) 
Heartbeat CPU 0 instructions: 174000000 cycles: 2764822104 heartbeat IPC: 0.0611967 cumulative IPC: 0.0625823 (Simulation time: 0 hr 44 min 5 sec) 
Heartbeat CPU 0 instructions: 175000002 cycles: 2781253913 heartbeat IPC: 0.0608577 cumulative IPC: 0.0625721 (Simulation time: 0 hr 44 min 20 sec) 
Heartbeat CPU 0 instructions: 176000000 cycles: 2796526637 heartbeat IPC: 0.0654761 cumulative IPC: 0.0625879 (Simulation time: 0 hr 44 min 35 sec) 
Heartbeat CPU 0 instructions: 177000000 cycles: 2811671881 heartbeat IPC: 0.0660273 cumulative IPC: 0.0626065 (Simulation time: 0 hr 44 min 51 sec) 
Heartbeat CPU 0 instructions: 178000000 cycles: 2827776595 heartbeat IPC: 0.0620936 cumulative IPC: 0.0626035 (Simulation time: 0 hr 45 min 8 sec) 
Heartbeat CPU 0 instructions: 179000000 cycles: 2843997493 heartbeat IPC: 0.0616489 cumulative IPC: 0.0625981 (Simulation time: 0 hr 45 min 24 sec) 
Heartbeat CPU 0 instructions: 180000001 cycles: 2860383642 heartbeat IPC: 0.0610272 cumulative IPC: 0.0625891 (Simulation time: 0 hr 45 min 39 sec) 
Heartbeat CPU 0 instructions: 181000000 cycles: 2876684580 heartbeat IPC: 0.0613461 cumulative IPC: 0.062582 (Simulation time: 0 hr 45 min 54 sec) 
Heartbeat CPU 0 instructions: 182000000 cycles: 2893290595 heartbeat IPC: 0.0602191 cumulative IPC: 0.0625685 (Simulation time: 0 hr 46 min 8 sec) 
Heartbeat CPU 0 instructions: 183000000 cycles: 2909722445 heartbeat IPC: 0.0608574 cumulative IPC: 0.0625588 (Simulation time: 0 hr 46 min 23 sec) 
Heartbeat CPU 0 instructions: 184000000 cycles: 2926109966 heartbeat IPC: 0.061022 cumulative IPC: 0.0625502 (Simulation time: 0 hr 46 min 39 sec) 
Heartbeat CPU 0 instructions: 185000001 cycles: 2941539670 heartbeat IPC: 0.0648101 cumulative IPC: 0.0625621 (Simulation time: 0 hr 46 min 53 sec) 
Heartbeat CPU 0 instructions: 186000000 cycles: 2958029827 heartbeat IPC: 0.0606422 cumulative IPC: 0.0625514 (Simulation time: 0 hr 47 min 10 sec) 
Heartbeat CPU 0 instructions: 187000000 cycles: 2974474446 heartbeat IPC: 0.0608102 cumulative IPC: 0.0625417 (Simulation time: 0 hr 47 min 24 sec) 
Heartbeat CPU 0 instructions: 188000002 cycles: 2991227944 heartbeat IPC: 0.0596891 cumulative IPC: 0.0625258 (Simulation time: 0 hr 47 min 39 sec) 
Heartbeat CPU 0 instructions: 189000001 cycles: 3007933381 heartbeat IPC: 0.0598607 cumulative IPC: 0.062511 (Simulation time: 0 hr 47 min 55 sec) 
Heartbeat CPU 0 instructions: 190000003 cycles: 3024266072 heartbeat IPC: 0.061227 cumulative IPC: 0.062504 (Simulation time: 0 hr 48 min 10 sec) 
Heartbeat CPU 0 instructions: 191000000 cycles: 3040512046 heartbeat IPC: 0.0615535 cumulative IPC: 0.0624989 (Simulation time: 0 hr 48 min 26 sec) 
Heartbeat CPU 0 instructions: 192000002 cycles: 3056864080 heartbeat IPC: 0.0611546 cumulative IPC: 0.0624917 (Simulation time: 0 hr 48 min 40 sec) 
Heartbeat CPU 0 instructions: 193000000 cycles: 3073459925 heartbeat IPC: 0.0602559 cumulative IPC: 0.0624797 (Simulation time: 0 hr 48 min 54 sec) 
Heartbeat CPU 0 instructions: 194000001 cycles: 3089948113 heartbeat IPC: 0.0606495 cumulative IPC: 0.0624699 (Simulation time: 0 hr 49 min 8 sec) 
Heartbeat CPU 0 instructions: 195000000 cycles: 3106505097 heartbeat IPC: 0.0603974 cumulative IPC: 0.0624589 (Simulation time: 0 hr 49 min 22 sec) 
Heartbeat CPU 0 instructions: 196000002 cycles: 3122796412 heartbeat IPC: 0.0613825 cumulative IPC: 0.0624532 (Simulation time: 0 hr 49 min 36 sec) 
Heartbeat CPU 0 instructions: 197000002 cycles: 3139359667 heartbeat IPC: 0.0603746 cumulative IPC: 0.0624423 (Simulation time: 0 hr 49 min 49 sec) 
Heartbeat CPU 0 instructions: 198000000 cycles: 3156073910 heartbeat IPC: 0.0598291 cumulative IPC: 0.0624284 (Simulation time: 0 hr 50 min 3 sec) 
Heartbeat CPU 0 instructions: 199000001 cycles: 3172764134 heartbeat IPC: 0.0599154 cumulative IPC: 0.0624152 (Simulation time: 0 hr 50 min 15 sec) 
Heartbeat CPU 0 instructions: 200000000 cycles: 3189194369 heartbeat IPC: 0.0608633 cumulative IPC: 0.0624072 (Simulation time: 0 hr 50 min 32 sec) 
Heartbeat CPU 0 instructions: 201000001 cycles: 3205473928 heartbeat IPC: 0.0614268 cumulative IPC: 0.0624022 (Simulation time: 0 hr 50 min 44 sec) 
Heartbeat CPU 0 instructions: 202000000 cycles: 3221348961 heartbeat IPC: 0.0629919 cumulative IPC: 0.0624051 (Simulation time: 0 hr 50 min 57 sec) 
Heartbeat CPU 0 instructions: 203000001 cycles: 3237506419 heartbeat IPC: 0.061891 cumulative IPC: 0.0624026 (Simulation time: 0 hr 51 min 12 sec) 
Heartbeat CPU 0 instructions: 204000000 cycles: 3254204580 heartbeat IPC: 0.0598868 cumulative IPC: 0.0623897 (Simulation time: 0 hr 51 min 28 sec) 
Heartbeat CPU 0 instructions: 205000000 cycles: 3270352939 heartbeat IPC: 0.0619258 cumulative IPC: 0.0623874 (Simulation time: 0 hr 51 min 43 sec) 
Heartbeat CPU 0 instructions: 206000000 cycles: 3287136723 heartbeat IPC: 0.0595813 cumulative IPC: 0.062373 (Simulation time: 0 hr 51 min 58 sec) 
Heartbeat CPU 0 instructions: 207000001 cycles: 3303680436 heartbeat IPC: 0.060446 cumulative IPC: 0.0623634 (Simulation time: 0 hr 52 min 13 sec) 
Heartbeat CPU 0 instructions: 208000000 cycles: 3320022296 heartbeat IPC: 0.0611925 cumulative IPC: 0.0623576 (Simulation time: 0 hr 52 min 30 sec) 
Heartbeat CPU 0 instructions: 209000000 cycles: 3336330562 heartbeat IPC: 0.0613186 cumulative IPC: 0.0623525 (Simulation time: 0 hr 52 min 45 sec) 
Heartbeat CPU 0 instructions: 210000001 cycles: 3352468170 heartbeat IPC: 0.0619671 cumulative IPC: 0.0623507 (Simulation time: 0 hr 53 min 0 sec) 
Heartbeat CPU 0 instructions: 211000000 cycles: 3368679487 heartbeat IPC: 0.0616852 cumulative IPC: 0.0623475 (Simulation time: 0 hr 53 min 14 sec) 
Heartbeat CPU 0 instructions: 212000000 cycles: 3384876543 heartbeat IPC: 0.0617396 cumulative IPC: 0.0623446 (Simulation time: 0 hr 53 min 28 sec) 
Heartbeat CPU 0 instructions: 213000000 cycles: 3401159249 heartbeat IPC: 0.0614149 cumulative IPC: 0.0623401 (Simulation time: 0 hr 53 min 41 sec) 
Heartbeat CPU 0 instructions: 214000000 cycles: 3417349160 heartbeat IPC: 0.0617669 cumulative IPC: 0.0623374 (Simulation time: 0 hr 53 min 57 sec) 
Heartbeat CPU 0 instructions: 215000002 cycles: 3433664266 heartbeat IPC: 0.061293 cumulative IPC: 0.0623324 (Simulation time: 0 hr 54 min 13 sec) 
Heartbeat CPU 0 instructions: 216000000 cycles: 3449916203 heartbeat IPC: 0.061531 cumulative IPC: 0.0623287 (Simulation time: 0 hr 54 min 27 sec) 
Heartbeat CPU 0 instructions: 217000000 cycles: 3466081495 heartbeat IPC: 0.0618609 cumulative IPC: 0.0623265 (Simulation time: 0 hr 54 min 41 sec) 
Heartbeat CPU 0 instructions: 218000001 cycles: 3482199351 heartbeat IPC: 0.0620431 cumulative IPC: 0.0623252 (Simulation time: 0 hr 54 min 56 sec) 
Heartbeat CPU 0 instructions: 219000000 cycles: 3498512575 heartbeat IPC: 0.0612999 cumulative IPC: 0.0623204 (Simulation time: 0 hr 55 min 12 sec) 
Heartbeat CPU 0 instructions: 220000000 cycles: 3514798992 heartbeat IPC: 0.0614009 cumulative IPC: 0.0623161 (Simulation time: 0 hr 55 min 27 sec) 
Heartbeat CPU 0 instructions: 221000000 cycles: 3531006931 heartbeat IPC: 0.0616982 cumulative IPC: 0.0623133 (Simulation time: 0 hr 55 min 41 sec) 
Heartbeat CPU 0 instructions: 222000000 cycles: 3547077986 heartbeat IPC: 0.0622237 cumulative IPC: 0.0623129 (Simulation time: 0 hr 55 min 57 sec) 
Heartbeat CPU 0 instructions: 223000001 cycles: 3563289900 heartbeat IPC: 0.0616831 cumulative IPC: 0.06231 (Simulation time: 0 hr 56 min 12 sec) 
Heartbeat CPU 0 instructions: 224000000 cycles: 3579938504 heartbeat IPC: 0.060065 cumulative IPC: 0.0622996 (Simulation time: 0 hr 56 min 27 sec) 
Heartbeat CPU 0 instructions: 225000000 cycles: 3596442688 heartbeat IPC: 0.0605907 cumulative IPC: 0.0622917 (Simulation time: 0 hr 56 min 42 sec) 
Heartbeat CPU 0 instructions: 226000001 cycles: 3612857713 heartbeat IPC: 0.0609199 cumulative IPC: 0.0622855 (Simulation time: 0 hr 56 min 56 sec) 
Heartbeat CPU 0 instructions: 227000002 cycles: 3629278028 heartbeat IPC: 0.0609002 cumulative IPC: 0.0622792 (Simulation time: 0 hr 57 min 9 sec) 
Heartbeat CPU 0 instructions: 228000000 cycles: 3645526032 heartbeat IPC: 0.0615459 cumulative IPC: 0.062276 (Simulation time: 0 hr 57 min 23 sec) 
Heartbeat CPU 0 instructions: 229000001 cycles: 3661836671 heartbeat IPC: 0.0613097 cumulative IPC: 0.0622717 (Simulation time: 0 hr 57 min 39 sec) 
Heartbeat CPU 0 instructions: 230000001 cycles: 3678106700 heartbeat IPC: 0.0614627 cumulative IPC: 0.0622681 (Simulation time: 0 hr 57 min 54 sec) 
Heartbeat CPU 0 instructions: 231000000 cycles: 3694204953 heartbeat IPC: 0.0621185 cumulative IPC: 0.0622674 (Simulation time: 0 hr 58 min 10 sec) 
Heartbeat CPU 0 instructions: 232000000 cycles: 3710449963 heartbeat IPC: 0.0615574 cumulative IPC: 0.0622643 (Simulation time: 0 hr 58 min 25 sec) 
Heartbeat CPU 0 instructions: 233000000 cycles: 3726857934 heartbeat IPC: 0.060946 cumulative IPC: 0.0622585 (Simulation time: 0 hr 58 min 40 sec) 
Heartbeat CPU 0 instructions: 234000002 cycles: 3743235501 heartbeat IPC: 0.0610593 cumulative IPC: 0.0622533 (Simulation time: 0 hr 58 min 56 sec) 
Heartbeat CPU 0 instructions: 235000001 cycles: 3759630573 heartbeat IPC: 0.0609939 cumulative IPC: 0.0622478 (Simulation time: 0 hr 59 min 9 sec) 
Heartbeat CPU 0 instructions: 236000002 cycles: 3776052484 heartbeat IPC: 0.0608943 cumulative IPC: 0.0622419 (Simulation time: 0 hr 59 min 23 sec) 
Heartbeat CPU 0 instructions: 237000002 cycles: 3792434993 heartbeat IPC: 0.0610407 cumulative IPC: 0.0622367 (Simulation time: 0 hr 59 min 36 sec) 
Heartbeat CPU 0 instructions: 238000002 cycles: 3808759440 heartbeat IPC: 0.0612578 cumulative IPC: 0.0622325 (Simulation time: 0 hr 59 min 50 sec) 
Heartbeat CPU 0 instructions: 239000003 cycles: 3825320275 heartbeat IPC: 0.0603835 cumulative IPC: 0.0622245 (Simulation time: 1 hr 0 min 2 sec) 
Heartbeat CPU 0 instructions: 240000000 cycles: 3841721975 heartbeat IPC: 0.0609691 cumulative IPC: 0.0622191 (Simulation time: 1 hr 0 min 17 sec) 
Heartbeat CPU 0 instructions: 241000001 cycles: 3858095463 heartbeat IPC: 0.0610744 cumulative IPC: 0.0622143 (Simulation time: 1 hr 0 min 33 sec) 
Heartbeat CPU 0 instructions: 242000000 cycles: 3874396450 heartbeat IPC: 0.0613459 cumulative IPC: 0.0622106 (Simulation time: 1 hr 0 min 47 sec) 
Heartbeat CPU 0 instructions: 243000000 cycles: 3890725730 heartbeat IPC: 0.0612397 cumulative IPC: 0.0622066 (Simulation time: 1 hr 1 min 1 sec) 
Heartbeat CPU 0 instructions: 244000002 cycles: 3906987395 heartbeat IPC: 0.0614944 cumulative IPC: 0.0622036 (Simulation time: 1 hr 1 min 16 sec) 
Heartbeat CPU 0 instructions: 245000000 cycles: 3923219999 heartbeat IPC: 0.0616043 cumulative IPC: 0.0622011 (Simulation time: 1 hr 1 min 31 sec) 
Heartbeat CPU 0 instructions: 246000002 cycles: 3939765430 heartbeat IPC: 0.0604398 cumulative IPC: 0.0621937 (Simulation time: 1 hr 1 min 47 sec) 
Heartbeat CPU 0 instructions: 247000001 cycles: 3956325217 heartbeat IPC: 0.0603872 cumulative IPC: 0.0621861 (Simulation time: 1 hr 2 min 3 sec) 
Heartbeat CPU 0 instructions: 248000000 cycles: 3972471114 heartbeat IPC: 0.0619352 cumulative IPC: 0.0621851 (Simulation time: 1 hr 2 min 18 sec) 
Heartbeat CPU 0 instructions: 249000000 cycles: 3988652283 heartbeat IPC: 0.0618002 cumulative IPC: 0.0621836 (Simulation time: 1 hr 2 min 32 sec) 
Heartbeat CPU 0 instructions: 250000000 cycles: 4005093391 heartbeat IPC: 0.0608231 cumulative IPC: 0.062178 (Simulation time: 1 hr 2 min 46 sec) 
Heartbeat CPU 0 instructions: 251000002 cycles: 4021587225 heartbeat IPC: 0.0606288 cumulative IPC: 0.0621716 (Simulation time: 1 hr 3 min 2 sec) 
Heartbeat CPU 0 instructions: 252000002 cycles: 4038041795 heartbeat IPC: 0.0607734 cumulative IPC: 0.0621659 (Simulation time: 1 hr 3 min 16 sec) 
Heartbeat CPU 0 instructions: 253000000 cycles: 4054509191 heartbeat IPC: 0.0607259 cumulative IPC: 0.0621601 (Simulation time: 1 hr 3 min 29 sec) 
Heartbeat CPU 0 instructions: 254000000 cycles: 4070854611 heartbeat IPC: 0.0611792 cumulative IPC: 0.0621561 (Simulation time: 1 hr 3 min 44 sec) 
Heartbeat CPU 0 instructions: 255000002 cycles: 4087086306 heartbeat IPC: 0.061608 cumulative IPC: 0.062154 (Simulation time: 1 hr 3 min 58 sec) 
Heartbeat CPU 0 instructions: 256000000 cycles: 4103081869 heartbeat IPC: 0.0625172 cumulative IPC: 0.0621554 (Simulation time: 1 hr 4 min 12 sec) 
Heartbeat CPU 0 instructions: 257000001 cycles: 4119043319 heartbeat IPC: 0.062651 cumulative IPC: 0.0621573 (Simulation time: 1 hr 4 min 27 sec) 
Heartbeat CPU 0 instructions: 258000001 cycles: 4135223532 heartbeat IPC: 0.0618039 cumulative IPC: 0.0621559 (Simulation time: 1 hr 4 min 43 sec) 
Heartbeat CPU 0 instructions: 259000000 cycles: 4151520452 heartbeat IPC: 0.0613612 cumulative IPC: 0.0621528 (Simulation time: 1 hr 4 min 59 sec) 
Heartbeat CPU 0 instructions: 260000000 cycles: 4167933447 heartbeat IPC: 0.0609273 cumulative IPC: 0.062148 (Simulation time: 1 hr 5 min 12 sec) 
Heartbeat CPU 0 instructions: 261000000 cycles: 4184176250 heartbeat IPC: 0.0615657 cumulative IPC: 0.0621457 (Simulation time: 1 hr 5 min 27 sec) 
Heartbeat CPU 0 instructions: 262000002 cycles: 4200450743 heartbeat IPC: 0.061446 cumulative IPC: 0.062143 (Simulation time: 1 hr 5 min 42 sec) 
Heartbeat CPU 0 instructions: 263000000 cycles: 4216698734 heartbeat IPC: 0.0615459 cumulative IPC: 0.0621407 (Simulation time: 1 hr 5 min 56 sec) 
Heartbeat CPU 0 instructions: 264000000 cycles: 4233167944 heartbeat IPC: 0.0607194 cumulative IPC: 0.0621352 (Simulation time: 1 hr 6 min 11 sec) 
Heartbeat CPU 0 instructions: 265000000 cycles: 4249433950 heartbeat IPC: 0.0614779 cumulative IPC: 0.0621327 (Simulation time: 1 hr 6 min 25 sec) 
Heartbeat CPU 0 instructions: 266000000 cycles: 4265560605 heartbeat IPC: 0.0620091 cumulative IPC: 0.0621322 (Simulation time: 1 hr 6 min 40 sec) 
Heartbeat CPU 0 instructions: 267000000 cycles: 4281944218 heartbeat IPC: 0.0610366 cumulative IPC: 0.062128 (Simulation time: 1 hr 6 min 54 sec) 
Heartbeat CPU 0 instructions: 268000000 cycles: 4298256646 heartbeat IPC: 0.061303 cumulative IPC: 0.0621249 (Simulation time: 1 hr 7 min 8 sec) 
Heartbeat CPU 0 instructions: 269000001 cycles: 4314620781 heartbeat IPC: 0.0611093 cumulative IPC: 0.062121 (Simulation time: 1 hr 7 min 22 sec) 
Heartbeat CPU 0 instructions: 270000000 cycles: 4330989566 heartbeat IPC: 0.0610918 cumulative IPC: 0.0621171 (Simulation time: 1 hr 7 min 35 sec) 
Heartbeat CPU 0 instructions: 271000002 cycles: 4347405452 heartbeat IPC: 0.0609167 cumulative IPC: 0.0621126 (Simulation time: 1 hr 7 min 49 sec) 
Heartbeat CPU 0 instructions: 272000000 cycles: 4363786981 heartbeat IPC: 0.0610442 cumulative IPC: 0.0621086 (Simulation time: 1 hr 8 min 4 sec) 
Heartbeat CPU 0 instructions: 273000000 cycles: 4380215732 heartbeat IPC: 0.0608689 cumulative IPC: 0.0621039 (Simulation time: 1 hr 8 min 20 sec) 
Heartbeat CPU 0 instructions: 274000000 cycles: 4396562184 heartbeat IPC: 0.0611754 cumulative IPC: 0.0621005 (Simulation time: 1 hr 8 min 35 sec) 
Heartbeat CPU 0 instructions: 275000000 cycles: 4412856286 heartbeat IPC: 0.0613719 cumulative IPC: 0.0620978 (Simulation time: 1 hr 8 min 50 sec) 
Heartbeat CPU 0 instructions: 276000000 cycles: 4428975471 heartbeat IPC: 0.0620379 cumulative IPC: 0.0620976 (Simulation time: 1 hr 9 min 6 sec) 
Heartbeat CPU 0 instructions: 277000001 cycles: 4445169082 heartbeat IPC: 0.0617528 cumulative IPC: 0.0620963 (Simulation time: 1 hr 9 min 21 sec) 
Heartbeat CPU 0 instructions: 278000002 cycles: 4461482098 heartbeat IPC: 0.0613008 cumulative IPC: 0.0620934 (Simulation time: 1 hr 9 min 36 sec) 
Heartbeat CPU 0 instructions: 279000001 cycles: 4477106966 heartbeat IPC: 0.0640005 cumulative IPC: 0.0621001 (Simulation time: 1 hr 9 min 51 sec) 
Heartbeat CPU 0 instructions: 280000000 cycles: 4493178383 heartbeat IPC: 0.0622222 cumulative IPC: 0.0621005 (Simulation time: 1 hr 10 min 6 sec) 
Heartbeat CPU 0 instructions: 281000000 cycles: 4509468996 heartbeat IPC: 0.061385 cumulative IPC: 0.0620979 (Simulation time: 1 hr 10 min 22 sec) 
Heartbeat CPU 0 instructions: 282000000 cycles: 4525570701 heartbeat IPC: 0.0621052 cumulative IPC: 0.0620979 (Simulation time: 1 hr 10 min 38 sec) 
Heartbeat CPU 0 instructions: 283000000 cycles: 4541599272 heartbeat IPC: 0.0623886 cumulative IPC: 0.062099 (Simulation time: 1 hr 10 min 53 sec) 
Heartbeat CPU 0 instructions: 284000002 cycles: 4557505689 heartbeat IPC: 0.0628678 cumulative IPC: 0.0621016 (Simulation time: 1 hr 11 min 9 sec) 
Heartbeat CPU 0 instructions: 285000000 cycles: 4573556156 heartbeat IPC: 0.0623034 cumulative IPC: 0.0621023 (Simulation time: 1 hr 11 min 24 sec) 
Heartbeat CPU 0 instructions: 286000000 cycles: 4589817149 heartbeat IPC: 0.0614969 cumulative IPC: 0.0621002 (Simulation time: 1 hr 11 min 39 sec) 
Heartbeat CPU 0 instructions: 287000001 cycles: 4606111833 heartbeat IPC: 0.0613698 cumulative IPC: 0.0620976 (Simulation time: 1 hr 11 min 53 sec) 
Heartbeat CPU 0 instructions: 288000003 cycles: 4622103130 heartbeat IPC: 0.0625341 cumulative IPC: 0.0620991 (Simulation time: 1 hr 12 min 9 sec) 
Heartbeat CPU 0 instructions: 289000000 cycles: 4638393005 heartbeat IPC: 0.0613876 cumulative IPC: 0.0620966 (Simulation time: 1 hr 12 min 24 sec) 
Heartbeat CPU 0 instructions: 290000000 cycles: 4654876265 heartbeat IPC: 0.0606676 cumulative IPC: 0.0620916 (Simulation time: 1 hr 12 min 38 sec) 
Heartbeat CPU 0 instructions: 291000000 cycles: 4671332485 heartbeat IPC: 0.0607673 cumulative IPC: 0.0620869 (Simulation time: 1 hr 12 min 53 sec) 
Heartbeat CPU 0 instructions: 292000000 cycles: 4687585024 heartbeat IPC: 0.0615288 cumulative IPC: 0.062085 (Simulation time: 1 hr 13 min 8 sec) 
Heartbeat CPU 0 instructions: 293000000 cycles: 4704073685 heartbeat IPC: 0.0606477 cumulative IPC: 0.0620799 (Simulation time: 1 hr 13 min 21 sec) 
Heartbeat CPU 0 instructions: 294000000 cycles: 4720870548 heartbeat IPC: 0.0595349 cumulative IPC: 0.0620709 (Simulation time: 1 hr 13 min 36 sec) 
Heartbeat CPU 0 instructions: 295000002 cycles: 4735732004 heartbeat IPC: 0.0672883 cumulative IPC: 0.0620872 (Simulation time: 1 hr 13 min 51 sec) 
Heartbeat CPU 0 instructions: 296000002 cycles: 4749769993 heartbeat IPC: 0.0712353 cumulative IPC: 0.0621143 (Simulation time: 1 hr 14 min 5 sec) 
Heartbeat CPU 0 instructions: 297000000 cycles: 4764493945 heartbeat IPC: 0.0679164 cumulative IPC: 0.0621322 (Simulation time: 1 hr 14 min 20 sec) 
Heartbeat CPU 0 instructions: 298000000 cycles: 4780292094 heartbeat IPC: 0.0632986 cumulative IPC: 0.0621361 (Simulation time: 1 hr 14 min 36 sec) 
Heartbeat CPU 0 instructions: 299000002 cycles: 4794530267 heartbeat IPC: 0.0702339 cumulative IPC: 0.0621601 (Simulation time: 1 hr 14 min 48 sec) 
Heartbeat CPU 0 instructions: 300000000 cycles: 4811000673 heartbeat IPC: 0.0607148 cumulative IPC: 0.0621552 (Simulation time: 1 hr 15 min 1 sec) 
Heartbeat CPU 0 instructions: 301000000 cycles: 4827266793 heartbeat IPC: 0.0614775 cumulative IPC: 0.0621529 (Simulation time: 1 hr 15 min 14 sec) 
Heartbeat CPU 0 instructions: 302000002 cycles: 4842417936 heartbeat IPC: 0.0660018 cumulative IPC: 0.0621649 (Simulation time: 1 hr 15 min 27 sec) 
Heartbeat CPU 0 instructions: 303000001 cycles: 4857401885 heartbeat IPC: 0.066738 cumulative IPC: 0.062179 (Simulation time: 1 hr 15 min 39 sec) 
Heartbeat CPU 0 instructions: 304000002 cycles: 4872072222 heartbeat IPC: 0.0681648 cumulative IPC: 0.0621971 (Simulation time: 1 hr 15 min 52 sec) 
Heartbeat CPU 0 instructions: 305000000 cycles: 4888557678 heartbeat IPC: 0.0606594 cumulative IPC: 0.0621919 (Simulation time: 1 hr 16 min 7 sec) 
Heartbeat CPU 0 instructions: 306000000 cycles: 4904991612 heartbeat IPC: 0.0608497 cumulative IPC: 0.0621874 (Simulation time: 1 hr 16 min 20 sec) 
Heartbeat CPU 0 instructions: 307000003 cycles: 4921400816 heartbeat IPC: 0.0609416 cumulative IPC: 0.0621832 (Simulation time: 1 hr 16 min 34 sec) 
Heartbeat CPU 0 instructions: 308000000 cycles: 4937779200 heartbeat IPC: 0.0610559 cumulative IPC: 0.0621795 (Simulation time: 1 hr 16 min 50 sec) 
Heartbeat CPU 0 instructions: 309000000 cycles: 4954132014 heartbeat IPC: 0.0611516 cumulative IPC: 0.0621761 (Simulation time: 1 hr 17 min 5 sec) 
Heartbeat CPU 0 instructions: 310000000 cycles: 4970569710 heartbeat IPC: 0.0608358 cumulative IPC: 0.0621717 (Simulation time: 1 hr 17 min 20 sec) 
Heartbeat CPU 0 instructions: 311000002 cycles: 4986942261 heartbeat IPC: 0.061078 cumulative IPC: 0.0621681 (Simulation time: 1 hr 17 min 36 sec) 
Heartbeat CPU 0 instructions: 312000000 cycles: 5003104005 heartbeat IPC: 0.0618744 cumulative IPC: 0.0621671 (Simulation time: 1 hr 17 min 51 sec) 
Heartbeat CPU 0 instructions: 313000000 cycles: 5019192717 heartbeat IPC: 0.0621554 cumulative IPC: 0.0621671 (Simulation time: 1 hr 18 min 7 sec) 
Heartbeat CPU 0 instructions: 314000000 cycles: 5035244163 heartbeat IPC: 0.0622997 cumulative IPC: 0.0621675 (Simulation time: 1 hr 18 min 22 sec) 
Heartbeat CPU 0 instructions: 315000001 cycles: 5051391467 heartbeat IPC: 0.0619299 cumulative IPC: 0.0621668 (Simulation time: 1 hr 18 min 37 sec) 
Heartbeat CPU 0 instructions: 316000003 cycles: 5067618548 heartbeat IPC: 0.0616255 cumulative IPC: 0.062165 (Simulation time: 1 hr 18 min 53 sec) 
Heartbeat CPU 0 instructions: 317000000 cycles: 5083928606 heartbeat IPC: 0.0613117 cumulative IPC: 0.0621623 (Simulation time: 1 hr 19 min 8 sec) 
Heartbeat CPU 0 instructions: 318000000 cycles: 5100345406 heartbeat IPC: 0.0609132 cumulative IPC: 0.0621583 (Simulation time: 1 hr 19 min 24 sec) 
Heartbeat CPU 0 instructions: 319000000 cycles: 5116792655 heartbeat IPC: 0.0608004 cumulative IPC: 0.0621539 (Simulation time: 1 hr 19 min 39 sec) 
Heartbeat CPU 0 instructions: 320000000 cycles: 5132925325 heartbeat IPC: 0.061986 cumulative IPC: 0.0621534 (Simulation time: 1 hr 19 min 55 sec) 
Heartbeat CPU 0 instructions: 321000000 cycles: 5149238074 heartbeat IPC: 0.0613017 cumulative IPC: 0.0621507 (Simulation time: 1 hr 20 min 10 sec) 
Heartbeat CPU 0 instructions: 322000002 cycles: 5165462625 heartbeat IPC: 0.0616351 cumulative IPC: 0.0621491 (Simulation time: 1 hr 20 min 26 sec) 
Heartbeat CPU 0 instructions: 323000001 cycles: 5181586178 heartbeat IPC: 0.062021 cumulative IPC: 0.0621487 (Simulation time: 1 hr 20 min 42 sec) 
Heartbeat CPU 0 instructions: 324000000 cycles: 5198015425 heartbeat IPC: 0.060867 cumulative IPC: 0.0621446 (Simulation time: 1 hr 20 min 57 sec) 
Heartbeat CPU 0 instructions: 325000000 cycles: 5214125965 heartbeat IPC: 0.0620712 cumulative IPC: 0.0621444 (Simulation time: 1 hr 21 min 12 sec) 
Heartbeat CPU 0 instructions: 326000000 cycles: 5230711720 heartbeat IPC: 0.0602927 cumulative IPC: 0.0621385 (Simulation time: 1 hr 21 min 28 sec) 
Heartbeat CPU 0 instructions: 327000000 cycles: 5247264028 heartbeat IPC: 0.0604145 cumulative IPC: 0.0621331 (Simulation time: 1 hr 21 min 43 sec) 
Heartbeat CPU 0 instructions: 328000000 cycles: 5263784403 heartbeat IPC: 0.0605313 cumulative IPC: 0.062128 (Simulation time: 1 hr 21 min 59 sec) 
Heartbeat CPU 0 instructions: 329000002 cycles: 5280447035 heartbeat IPC: 0.0600146 cumulative IPC: 0.0621214 (Simulation time: 1 hr 22 min 14 sec) 
Heartbeat CPU 0 instructions: 330000000 cycles: 5296983564 heartbeat IPC: 0.0604721 cumulative IPC: 0.0621162 (Simulation time: 1 hr 22 min 30 sec) 
Heartbeat CPU 0 instructions: 331000000 cycles: 5313374435 heartbeat IPC: 0.0610096 cumulative IPC: 0.0621128 (Simulation time: 1 hr 22 min 45 sec) 
Heartbeat CPU 0 instructions: 332000000 cycles: 5330111436 heartbeat IPC: 0.0597479 cumulative IPC: 0.0621054 (Simulation time: 1 hr 23 min 0 sec) 
Heartbeat CPU 0 instructions: 333000000 cycles: 5346465444 heartbeat IPC: 0.0611471 cumulative IPC: 0.0621024 (Simulation time: 1 hr 23 min 16 sec) 
Heartbeat CPU 0 instructions: 334000001 cycles: 5363148957 heartbeat IPC: 0.0599395 cumulative IPC: 0.0620957 (Simulation time: 1 hr 23 min 31 sec) 
Heartbeat CPU 0 instructions: 335000002 cycles: 5379814331 heartbeat IPC: 0.0600047 cumulative IPC: 0.0620892 (Simulation time: 1 hr 23 min 47 sec) 
Heartbeat CPU 0 instructions: 336000000 cycles: 5396479496 heartbeat IPC: 0.0600053 cumulative IPC: 0.0620828 (Simulation time: 1 hr 24 min 2 sec) 
Heartbeat CPU 0 instructions: 337000000 cycles: 5413381825 heartbeat IPC: 0.0591634 cumulative IPC: 0.0620737 (Simulation time: 1 hr 24 min 18 sec) 
Heartbeat CPU 0 instructions: 338000000 cycles: 5429894473 heartbeat IPC: 0.0605596 cumulative IPC: 0.0620691 (Simulation time: 1 hr 24 min 33 sec) 
Heartbeat CPU 0 instructions: 339000000 cycles: 5446326971 heartbeat IPC: 0.060855 cumulative IPC: 0.0620654 (Simulation time: 1 hr 24 min 48 sec) 
Heartbeat CPU 0 instructions: 340000001 cycles: 5462472174 heartbeat IPC: 0.061938 cumulative IPC: 0.062065 (Simulation time: 1 hr 25 min 1 sec) 
Heartbeat CPU 0 instructions: 341000000 cycles: 5478792221 heartbeat IPC: 0.0612743 cumulative IPC: 0.0620627 (Simulation time: 1 hr 25 min 16 sec) 
Heartbeat CPU 0 instructions: 342000001 cycles: 5494952039 heartbeat IPC: 0.0618819 cumulative IPC: 0.0620622 (Simulation time: 1 hr 25 min 32 sec) 
Heartbeat CPU 0 instructions: 343000002 cycles: 5511224007 heartbeat IPC: 0.0614554 cumulative IPC: 0.0620604 (Simulation time: 1 hr 25 min 47 sec) 
Heartbeat CPU 0 instructions: 344000000 cycles: 5527268297 heartbeat IPC: 0.0623273 cumulative IPC: 0.0620611 (Simulation time: 1 hr 26 min 1 sec) 
Heartbeat CPU 0 instructions: 345000002 cycles: 5543464671 heartbeat IPC: 0.0617423 cumulative IPC: 0.0620602 (Simulation time: 1 hr 26 min 17 sec) 
Heartbeat CPU 0 instructions: 346000000 cycles: 5559516478 heartbeat IPC: 0.0622982 cumulative IPC: 0.0620609 (Simulation time: 1 hr 26 min 34 sec) 
Heartbeat CPU 0 instructions: 347000000 cycles: 5575764962 heartbeat IPC: 0.0615442 cumulative IPC: 0.0620594 (Simulation time: 1 hr 26 min 48 sec) 
Heartbeat CPU 0 instructions: 348000001 cycles: 5592200307 heartbeat IPC: 0.0608445 cumulative IPC: 0.0620558 (Simulation time: 1 hr 27 min 3 sec) 
Heartbeat CPU 0 instructions: 349000001 cycles: 5608631145 heartbeat IPC: 0.0608612 cumulative IPC: 0.0620523 (Simulation time: 1 hr 27 min 18 sec) 
Heartbeat CPU 0 instructions: 350000001 cycles: 5624978962 heartbeat IPC: 0.0611702 cumulative IPC: 0.0620498 (Simulation time: 1 hr 27 min 33 sec) 
Heartbeat CPU 0 instructions: 351000000 cycles: 5641167631 heartbeat IPC: 0.0617715 cumulative IPC: 0.062049 (Simulation time: 1 hr 27 min 48 sec) 
Heartbeat CPU 0 instructions: 352000000 cycles: 5657628787 heartbeat IPC: 0.0607491 cumulative IPC: 0.0620452 (Simulation time: 1 hr 28 min 4 sec) 
Heartbeat CPU 0 instructions: 353000000 cycles: 5674225535 heartbeat IPC: 0.0602528 cumulative IPC: 0.0620399 (Simulation time: 1 hr 28 min 20 sec) 
Heartbeat CPU 0 instructions: 354000000 cycles: 5691113283 heartbeat IPC: 0.0592145 cumulative IPC: 0.0620315 (Simulation time: 1 hr 28 min 35 sec) 
Heartbeat CPU 0 instructions: 355000000 cycles: 5707819803 heartbeat IPC: 0.0598569 cumulative IPC: 0.0620252 (Simulation time: 1 hr 28 min 51 sec) 
Heartbeat CPU 0 instructions: 356000000 cycles: 5724459885 heartbeat IPC: 0.0600959 cumulative IPC: 0.0620196 (Simulation time: 1 hr 29 min 6 sec) 
Heartbeat CPU 0 instructions: 357000000 cycles: 5741063261 heartbeat IPC: 0.0602287 cumulative IPC: 0.0620144 (Simulation time: 1 hr 29 min 22 sec) 
Heartbeat CPU 0 instructions: 358000000 cycles: 5757619963 heartbeat IPC: 0.0603985 cumulative IPC: 0.0620097 (Simulation time: 1 hr 29 min 37 sec) 
Heartbeat CPU 0 instructions: 359000001 cycles: 5774216653 heartbeat IPC: 0.060253 cumulative IPC: 0.0620047 (Simulation time: 1 hr 29 min 53 sec) 
Heartbeat CPU 0 instructions: 360000000 cycles: 5790759352 heartbeat IPC: 0.0604496 cumulative IPC: 0.0620003 (Simulation time: 1 hr 30 min 8 sec) 
Heartbeat CPU 0 instructions: 361000000 cycles: 5807350290 heartbeat IPC: 0.0602739 cumulative IPC: 0.0619953 (Simulation time: 1 hr 30 min 23 sec) 
Heartbeat CPU 0 instructions: 362000002 cycles: 5823797557 heartbeat IPC: 0.0608005 cumulative IPC: 0.0619919 (Simulation time: 1 hr 30 min 38 sec) 
Heartbeat CPU 0 instructions: 363000000 cycles: 5840372846 heartbeat IPC: 0.0603307 cumulative IPC: 0.0619872 (Simulation time: 1 hr 30 min 52 sec) 
Heartbeat CPU 0 instructions: 364000001 cycles: 5857052011 heartbeat IPC: 0.0599551 cumulative IPC: 0.0619814 (Simulation time: 1 hr 31 min 8 sec) 
Heartbeat CPU 0 instructions: 365000000 cycles: 5873851141 heartbeat IPC: 0.0595268 cumulative IPC: 0.0619744 (Simulation time: 1 hr 31 min 21 sec) 
Heartbeat CPU 0 instructions: 366000001 cycles: 5890629240 heartbeat IPC: 0.0596016 cumulative IPC: 0.0619677 (Simulation time: 1 hr 31 min 37 sec) 
Heartbeat CPU 0 instructions: 367000000 cycles: 5907183251 heartbeat IPC: 0.0604083 cumulative IPC: 0.0619633 (Simulation time: 1 hr 31 min 52 sec) 
Heartbeat CPU 0 instructions: 368000001 cycles: 5923731864 heartbeat IPC: 0.0604281 cumulative IPC: 0.061959 (Simulation time: 1 hr 32 min 7 sec) 
Heartbeat CPU 0 instructions: 369000002 cycles: 5940390674 heartbeat IPC: 0.0600284 cumulative IPC: 0.0619536 (Simulation time: 1 hr 32 min 20 sec) 
Heartbeat CPU 0 instructions: 370000000 cycles: 5957275325 heartbeat IPC: 0.0592253 cumulative IPC: 0.0619459 (Simulation time: 1 hr 32 min 33 sec) 
Heartbeat CPU 0 instructions: 371000000 cycles: 5974081630 heartbeat IPC: 0.0595015 cumulative IPC: 0.061939 (Simulation time: 1 hr 32 min 47 sec) 
Heartbeat CPU 0 instructions: 372000000 cycles: 5990846446 heartbeat IPC: 0.0596487 cumulative IPC: 0.0619326 (Simulation time: 1 hr 33 min 1 sec) 
Heartbeat CPU 0 instructions: 373000002 cycles: 6007520341 heartbeat IPC: 0.0599741 cumulative IPC: 0.0619271 (Simulation time: 1 hr 33 min 15 sec) 
Heartbeat CPU 0 instructions: 374000000 cycles: 6023857508 heartbeat IPC: 0.06121 cumulative IPC: 0.0619252 (Simulation time: 1 hr 33 min 29 sec) 
Heartbeat CPU 0 instructions: 375000000 cycles: 6040333372 heartbeat IPC: 0.0606948 cumulative IPC: 0.0619218 (Simulation time: 1 hr 33 min 44 sec) 
Heartbeat CPU 0 instructions: 376000001 cycles: 6056849667 heartbeat IPC: 0.0605463 cumulative IPC: 0.0619181 (Simulation time: 1 hr 34 min 1 sec) 
Heartbeat CPU 0 instructions: 377000002 cycles: 6073578707 heartbeat IPC: 0.0597764 cumulative IPC: 0.0619122 (Simulation time: 1 hr 34 min 16 sec) 
Heartbeat CPU 0 instructions: 378000000 cycles: 6090351089 heartbeat IPC: 0.0596217 cumulative IPC: 0.0619059 (Simulation time: 1 hr 34 min 29 sec) 
Heartbeat CPU 0 instructions: 379000002 cycles: 6107098186 heartbeat IPC: 0.059712 cumulative IPC: 0.0618999 (Simulation time: 1 hr 34 min 44 sec) 
Heartbeat CPU 0 instructions: 380000001 cycles: 6123863163 heartbeat IPC: 0.0596481 cumulative IPC: 0.0618937 (Simulation time: 1 hr 34 min 59 sec) 
Heartbeat CPU 0 instructions: 381000000 cycles: 6140738390 heartbeat IPC: 0.0592584 cumulative IPC: 0.0618864 (Simulation time: 1 hr 35 min 14 sec) 
Heartbeat CPU 0 instructions: 382000000 cycles: 6157429195 heartbeat IPC: 0.0599132 cumulative IPC: 0.0618811 (Simulation time: 1 hr 35 min 30 sec) 
Heartbeat CPU 0 instructions: 383000000 cycles: 6173998008 heartbeat IPC: 0.0603544 cumulative IPC: 0.061877 (Simulation time: 1 hr 35 min 47 sec) 
Heartbeat CPU 0 instructions: 384000003 cycles: 6191124240 heartbeat IPC: 0.0583901 cumulative IPC: 0.0618674 (Simulation time: 1 hr 36 min 2 sec) 
Heartbeat CPU 0 instructions: 385000000 cycles: 6210198529 heartbeat IPC: 0.0524264 cumulative IPC: 0.0618384 (Simulation time: 1 hr 36 min 20 sec) 
Heartbeat CPU 0 instructions: 386000002 cycles: 6226867464 heartbeat IPC: 0.059992 cumulative IPC: 0.0618334 (Simulation time: 1 hr 36 min 37 sec) 
Heartbeat CPU 0 instructions: 387000000 cycles: 6243381654 heartbeat IPC: 0.0605539 cumulative IPC: 0.06183 (Simulation time: 1 hr 36 min 53 sec) 
Heartbeat CPU 0 instructions: 388000000 cycles: 6259747945 heartbeat IPC: 0.0611012 cumulative IPC: 0.0618281 (Simulation time: 1 hr 37 min 8 sec) 
Heartbeat CPU 0 instructions: 389000002 cycles: 6275886465 heartbeat IPC: 0.0619637 cumulative IPC: 0.0618285 (Simulation time: 1 hr 37 min 23 sec) 
Heartbeat CPU 0 instructions: 390000000 cycles: 6292076219 heartbeat IPC: 0.0617673 cumulative IPC: 0.0618283 (Simulation time: 1 hr 37 min 38 sec) 
Heartbeat CPU 0 instructions: 391000000 cycles: 6308297013 heartbeat IPC: 0.0616493 cumulative IPC: 0.0618279 (Simulation time: 1 hr 37 min 53 sec) 
Heartbeat CPU 0 instructions: 392000002 cycles: 6324544548 heartbeat IPC: 0.0615479 cumulative IPC: 0.0618271 (Simulation time: 1 hr 38 min 7 sec) 
Heartbeat CPU 0 instructions: 393000001 cycles: 6340743916 heartbeat IPC: 0.0617307 cumulative IPC: 0.0618269 (Simulation time: 1 hr 38 min 23 sec) 
Heartbeat CPU 0 instructions: 394000000 cycles: 6357061420 heartbeat IPC: 0.0612838 cumulative IPC: 0.0618255 (Simulation time: 1 hr 38 min 36 sec) 
Heartbeat CPU 0 instructions: 395000000 cycles: 6373505714 heartbeat IPC: 0.0608114 cumulative IPC: 0.0618229 (Simulation time: 1 hr 38 min 51 sec) 
Heartbeat CPU 0 instructions: 396000000 cycles: 6390195341 heartbeat IPC: 0.0599175 cumulative IPC: 0.0618179 (Simulation time: 1 hr 39 min 7 sec) 
Heartbeat CPU 0 instructions: 397000000 cycles: 6406953533 heartbeat IPC: 0.0596723 cumulative IPC: 0.0618123 (Simulation time: 1 hr 39 min 22 sec) 
Heartbeat CPU 0 instructions: 398000002 cycles: 6423646698 heartbeat IPC: 0.0599049 cumulative IPC: 0.0618073 (Simulation time: 1 hr 39 min 38 sec) 
Heartbeat CPU 0 instructions: 399000000 cycles: 6440581904 heartbeat IPC: 0.0590485 cumulative IPC: 0.0618001 (Simulation time: 1 hr 39 min 53 sec) 
Heartbeat CPU 0 instructions: 400000000 cycles: 6457553927 heartbeat IPC: 0.0589205 cumulative IPC: 0.0617925 (Simulation time: 1 hr 40 min 8 sec) 
Heartbeat CPU 0 instructions: 401000000 cycles: 6474646404 heartbeat IPC: 0.0585053 cumulative IPC: 0.0617838 (Simulation time: 1 hr 40 min 23 sec) 
Heartbeat CPU 0 instructions: 402000001 cycles: 6491325506 heartbeat IPC: 0.0599553 cumulative IPC: 0.0617791 (Simulation time: 1 hr 40 min 37 sec) 
Heartbeat CPU 0 instructions: 403000001 cycles: 6506856760 heartbeat IPC: 0.0643863 cumulative IPC: 0.0617854 (Simulation time: 1 hr 40 min 50 sec) 
Heartbeat CPU 0 instructions: 404000000 cycles: 6523377879 heartbeat IPC: 0.0605285 cumulative IPC: 0.0617822 (Simulation time: 1 hr 41 min 5 sec) 
Heartbeat CPU 0 instructions: 405000000 cycles: 6540159453 heartbeat IPC: 0.0595892 cumulative IPC: 0.0617765 (Simulation time: 1 hr 41 min 20 sec) 
Heartbeat CPU 0 instructions: 406000000 cycles: 6556874242 heartbeat IPC: 0.0598273 cumulative IPC: 0.0617716 (Simulation time: 1 hr 41 min 36 sec) 
Heartbeat CPU 0 instructions: 407000000 cycles: 6573667987 heartbeat IPC: 0.059546 cumulative IPC: 0.0617659 (Simulation time: 1 hr 41 min 50 sec) 
Heartbeat CPU 0 instructions: 408000000 cycles: 6590569132 heartbeat IPC: 0.0591676 cumulative IPC: 0.0617592 (Simulation time: 1 hr 42 min 5 sec) 
Heartbeat CPU 0 instructions: 409000001 cycles: 6606975476 heartbeat IPC: 0.0609521 cumulative IPC: 0.0617572 (Simulation time: 1 hr 42 min 21 sec) 
Heartbeat CPU 0 instructions: 410000000 cycles: 6623766419 heartbeat IPC: 0.0595559 cumulative IPC: 0.0617516 (Simulation time: 1 hr 42 min 38 sec) 
Heartbeat CPU 0 instructions: 411000000 cycles: 6640641950 heartbeat IPC: 0.0592574 cumulative IPC: 0.0617453 (Simulation time: 1 hr 42 min 52 sec) 
Heartbeat CPU 0 instructions: 412000002 cycles: 6657435909 heartbeat IPC: 0.0595453 cumulative IPC: 0.0617398 (Simulation time: 1 hr 43 min 5 sec) 
Heartbeat CPU 0 instructions: 413000000 cycles: 6674163557 heartbeat IPC: 0.0597811 cumulative IPC: 0.0617348 (Simulation time: 1 hr 43 min 18 sec) 
Heartbeat CPU 0 instructions: 414000000 cycles: 6690869971 heartbeat IPC: 0.0598572 cumulative IPC: 0.0617302 (Simulation time: 1 hr 43 min 32 sec) 
Heartbeat CPU 0 instructions: 415000002 cycles: 6707570166 heartbeat IPC: 0.0598797 cumulative IPC: 0.0617255 (Simulation time: 1 hr 43 min 47 sec) 
Heartbeat CPU 0 instructions: 416000000 cycles: 6724344166 heartbeat IPC: 0.059616 cumulative IPC: 0.0617203 (Simulation time: 1 hr 44 min 3 sec) 
Heartbeat CPU 0 instructions: 417000001 cycles: 6741070890 heartbeat IPC: 0.0597846 cumulative IPC: 0.0617155 (Simulation time: 1 hr 44 min 18 sec) 
Heartbeat CPU 0 instructions: 418000000 cycles: 6757859640 heartbeat IPC: 0.0595636 cumulative IPC: 0.0617101 (Simulation time: 1 hr 44 min 33 sec) 
Heartbeat CPU 0 instructions: 419000002 cycles: 6774554112 heartbeat IPC: 0.0599002 cumulative IPC: 0.0617057 (Simulation time: 1 hr 44 min 47 sec) 
Heartbeat CPU 0 instructions: 420000001 cycles: 6790957994 heartbeat IPC: 0.0609611 cumulative IPC: 0.0617039 (Simulation time: 1 hr 45 min 2 sec) 
Heartbeat CPU 0 instructions: 421000002 cycles: 6807653315 heartbeat IPC: 0.0598971 cumulative IPC: 0.0616994 (Simulation time: 1 hr 45 min 18 sec) 
Heartbeat CPU 0 instructions: 422000001 cycles: 6824382786 heartbeat IPC: 0.0597747 cumulative IPC: 0.0616947 (Simulation time: 1 hr 45 min 31 sec) 
Heartbeat CPU 0 instructions: 423000003 cycles: 6841125109 heartbeat IPC: 0.059729 cumulative IPC: 0.0616899 (Simulation time: 1 hr 45 min 43 sec) 
Heartbeat CPU 0 instructions: 424000000 cycles: 6857962274 heartbeat IPC: 0.0593922 cumulative IPC: 0.0616843 (Simulation time: 1 hr 45 min 57 sec) 
Heartbeat CPU 0 instructions: 425000000 cycles: 6874804576 heartbeat IPC: 0.0593743 cumulative IPC: 0.0616786 (Simulation time: 1 hr 46 min 14 sec) 
Heartbeat CPU 0 instructions: 426000000 cycles: 6891122349 heartbeat IPC: 0.0612829 cumulative IPC: 0.0616777 (Simulation time: 1 hr 46 min 30 sec) 
Heartbeat CPU 0 instructions: 427000000 cycles: 6907509958 heartbeat IPC: 0.0610217 cumulative IPC: 0.0616761 (Simulation time: 1 hr 46 min 45 sec) 
Heartbeat CPU 0 instructions: 428000000 cycles: 6924203268 heartbeat IPC: 0.0599042 cumulative IPC: 0.0616718 (Simulation time: 1 hr 46 min 59 sec) 
Heartbeat CPU 0 instructions: 429000000 cycles: 6940119188 heartbeat IPC: 0.0628302 cumulative IPC: 0.0616745 (Simulation time: 1 hr 47 min 13 sec) 
Heartbeat CPU 0 instructions: 430000000 cycles: 6956657781 heartbeat IPC: 0.0604646 cumulative IPC: 0.0616716 (Simulation time: 1 hr 47 min 28 sec) 
Heartbeat CPU 0 instructions: 431000000 cycles: 6973517640 heartbeat IPC: 0.0593125 cumulative IPC: 0.0616659 (Simulation time: 1 hr 47 min 43 sec) 
Heartbeat CPU 0 instructions: 432000000 cycles: 6990452019 heartbeat IPC: 0.0590515 cumulative IPC: 0.0616596 (Simulation time: 1 hr 47 min 58 sec) 
Heartbeat CPU 0 instructions: 433000000 cycles: 7007263790 heartbeat IPC: 0.0594821 cumulative IPC: 0.0616544 (Simulation time: 1 hr 48 min 11 sec) 
Heartbeat CPU 0 instructions: 434000000 cycles: 7024151718 heartbeat IPC: 0.0592139 cumulative IPC: 0.0616485 (Simulation time: 1 hr 48 min 26 sec) 
Heartbeat CPU 0 instructions: 435000000 cycles: 7041151359 heartbeat IPC: 0.0588248 cumulative IPC: 0.0616417 (Simulation time: 1 hr 48 min 39 sec) 
Heartbeat CPU 0 instructions: 436000000 cycles: 7058103396 heartbeat IPC: 0.05899 cumulative IPC: 0.0616353 (Simulation time: 1 hr 48 min 52 sec) 
Heartbeat CPU 0 instructions: 437000000 cycles: 7074764641 heartbeat IPC: 0.0600195 cumulative IPC: 0.0616315 (Simulation time: 1 hr 49 min 5 sec) 
Heartbeat CPU 0 instructions: 438000001 cycles: 7091017683 heartbeat IPC: 0.061527 cumulative IPC: 0.0616313 (Simulation time: 1 hr 49 min 18 sec) 
Heartbeat CPU 0 instructions: 439000000 cycles: 7106813053 heartbeat IPC: 0.0633096 cumulative IPC: 0.061635 (Simulation time: 1 hr 49 min 31 sec) 
Heartbeat CPU 0 instructions: 440000000 cycles: 7122736323 heartbeat IPC: 0.0628012 cumulative IPC: 0.0616376 (Simulation time: 1 hr 49 min 46 sec) 
Heartbeat CPU 0 instructions: 441000000 cycles: 7138031997 heartbeat IPC: 0.065378 cumulative IPC: 0.0616456 (Simulation time: 1 hr 50 min 0 sec) 
Heartbeat CPU 0 instructions: 442000002 cycles: 7153674299 heartbeat IPC: 0.0639293 cumulative IPC: 0.0616506 (Simulation time: 1 hr 50 min 13 sec) 
Heartbeat CPU 0 instructions: 443000001 cycles: 7169618949 heartbeat IPC: 0.0627169 cumulative IPC: 0.061653 (Simulation time: 1 hr 50 min 28 sec) 
Heartbeat CPU 0 instructions: 444000000 cycles: 7185162565 heartbeat IPC: 0.064335 cumulative IPC: 0.0616588 (Simulation time: 1 hr 50 min 41 sec) 
Heartbeat CPU 0 instructions: 445000000 cycles: 7198802573 heartbeat IPC: 0.0733137 cumulative IPC: 0.0616809 (Simulation time: 1 hr 50 min 54 sec) 
Heartbeat CPU 0 instructions: 446000000 cycles: 7215542727 heartbeat IPC: 0.0597366 cumulative IPC: 0.0616764 (Simulation time: 1 hr 51 min 9 sec) 
Heartbeat CPU 0 instructions: 447000000 cycles: 7232331832 heartbeat IPC: 0.0595624 cumulative IPC: 0.0616715 (Simulation time: 1 hr 51 min 21 sec) 
Heartbeat CPU 0 instructions: 448000000 cycles: 7248926552 heartbeat IPC: 0.0602601 cumulative IPC: 0.0616682 (Simulation time: 1 hr 51 min 34 sec) 
Heartbeat CPU 0 instructions: 449000000 cycles: 7265546611 heartbeat IPC: 0.0601683 cumulative IPC: 0.0616648 (Simulation time: 1 hr 51 min 47 sec) 
Heartbeat CPU 0 instructions: 450000000 cycles: 7282358343 heartbeat IPC: 0.0594823 cumulative IPC: 0.0616597 (Simulation time: 1 hr 52 min 0 sec) 

Warmup complete CPU 0 instructions: 450000001 cycles: 7282358344 (Simulation time: 1 hr 52 min 0 sec) 

Heartbeat CPU 0 instructions: 451000000 cycles: 7298799394 heartbeat IPC: 0.0608234 cumulative IPC: 0.0608233 (Simulation time: 1 hr 52 min 13 sec) 
Heartbeat CPU 0 instructions: 452000000 cycles: 7315571494 heartbeat IPC: 0.0596228 cumulative IPC: 0.0602171 (Simulation time: 1 hr 52 min 27 sec) 
Heartbeat CPU 0 instructions: 453000002 cycles: 7332151821 heartbeat IPC: 0.0603126 cumulative IPC: 0.0602489 (Simulation time: 1 hr 52 min 42 sec) 
Heartbeat CPU 0 instructions: 454000002 cycles: 7348260397 heartbeat IPC: 0.0620787 cumulative IPC: 0.0606962 (Simulation time: 1 hr 52 min 56 sec) 
Heartbeat CPU 0 instructions: 455000001 cycles: 7365086093 heartbeat IPC: 0.0594328 cumulative IPC: 0.0604392 (Simulation time: 1 hr 53 min 9 sec) 
Heartbeat CPU 0 instructions: 456000000 cycles: 7381880446 heartbeat IPC: 0.0595438 cumulative IPC: 0.0602881 (Simulation time: 1 hr 53 min 24 sec) 
Heartbeat CPU 0 instructions: 457000000 cycles: 7398264946 heartbeat IPC: 0.0610333 cumulative IPC: 0.0603934 (Simulation time: 1 hr 53 min 38 sec) 
Heartbeat CPU 0 instructions: 458000001 cycles: 7414596108 heartbeat IPC: 0.0612327 cumulative IPC: 0.0604971 (Simulation time: 1 hr 53 min 52 sec) 
Heartbeat CPU 0 instructions: 459000000 cycles: 7431067659 heartbeat IPC: 0.0607107 cumulative IPC: 0.0605207 (Simulation time: 1 hr 54 min 7 sec) 
Heartbeat CPU 0 instructions: 460000000 cycles: 7447349834 heartbeat IPC: 0.0614169 cumulative IPC: 0.0606092 (Simulation time: 1 hr 54 min 22 sec) 
Heartbeat CPU 0 instructions: 461000000 cycles: 7463590932 heartbeat IPC: 0.0615722 cumulative IPC: 0.0606955 (Simulation time: 1 hr 54 min 37 sec) 
Heartbeat CPU 0 instructions: 462000000 cycles: 7479471823 heartbeat IPC: 0.0629688 cumulative IPC: 0.0608786 (Simulation time: 1 hr 54 min 51 sec) 
Heartbeat CPU 0 instructions: 463000000 cycles: 7495232788 heartbeat IPC: 0.0634479 cumulative IPC: 0.0610689 (Simulation time: 1 hr 55 min 4 sec) 
Heartbeat CPU 0 instructions: 464000000 cycles: 7509694419 heartbeat IPC: 0.0691485 cumulative IPC: 0.0615828 (Simulation time: 1 hr 55 min 19 sec) 
Heartbeat CPU 0 instructions: 465000002 cycles: 7526106322 heartbeat IPC: 0.0609315 cumulative IPC: 0.061539 (Simulation time: 1 hr 55 min 36 sec) 
Heartbeat CPU 0 instructions: 466000000 cycles: 7542118950 heartbeat IPC: 0.0624506 cumulative IPC: 0.0615952 (Simulation time: 1 hr 55 min 51 sec) 
Heartbeat CPU 0 instructions: 467000001 cycles: 7557534098 heartbeat IPC: 0.0648713 cumulative IPC: 0.0617787 (Simulation time: 1 hr 56 min 3 sec) 
Heartbeat CPU 0 instructions: 468000000 cycles: 7573427053 heartbeat IPC: 0.0629209 cumulative IPC: 0.0618411 (Simulation time: 1 hr 56 min 17 sec) 
Heartbeat CPU 0 instructions: 469000001 cycles: 7588847392 heartbeat IPC: 0.0648495 cumulative IPC: 0.0619924 (Simulation time: 1 hr 56 min 31 sec) 
Heartbeat CPU 0 instructions: 470000003 cycles: 7604802976 heartbeat IPC: 0.0626741 cumulative IPC: 0.0620262 (Simulation time: 1 hr 56 min 44 sec) 
Heartbeat CPU 0 instructions: 471000002 cycles: 7620443995 heartbeat IPC: 0.0639344 cumulative IPC: 0.0621144 (Simulation time: 1 hr 56 min 58 sec) 
Heartbeat CPU 0 instructions: 472000000 cycles: 7636428424 heartbeat IPC: 0.0625608 cumulative IPC: 0.0621346 (Simulation time: 1 hr 57 min 13 sec) 
Heartbeat CPU 0 instructions: 473000000 cycles: 7654645605 heartbeat IPC: 0.0548932 cumulative IPC: 0.0617802 (Simulation time: 1 hr 57 min 29 sec) 
Heartbeat CPU 0 instructions: 474000002 cycles: 7668169435 heartbeat IPC: 0.0739437 cumulative IPC: 0.0622066 (Simulation time: 1 hr 57 min 44 sec) 
Heartbeat CPU 0 instructions: 475000000 cycles: 7678887282 heartbeat IPC: 0.0933021 cumulative IPC: 0.0630471 (Simulation time: 1 hr 57 min 55 sec) 
Heartbeat CPU 0 instructions: 476000002 cycles: 7690224894 heartbeat IPC: 0.0882022 cumulative IPC: 0.0637463 (Simulation time: 1 hr 58 min 8 sec) 
Heartbeat CPU 0 instructions: 477000002 cycles: 7705996187 heartbeat IPC: 0.0634063 cumulative IPC: 0.0637337 (Simulation time: 1 hr 58 min 26 sec) 
Heartbeat CPU 0 instructions: 478000000 cycles: 7721313879 heartbeat IPC: 0.0652839 cumulative IPC: 0.0637878 (Simulation time: 1 hr 58 min 41 sec) 
Heartbeat CPU 0 instructions: 479000001 cycles: 7733864840 heartbeat IPC: 0.0796753 cumulative IPC: 0.0642294 (Simulation time: 1 hr 58 min 53 sec) 
Heartbeat CPU 0 instructions: 480000000 cycles: 7748003154 heartbeat IPC: 0.0707297 cumulative IPC: 0.0644268 (Simulation time: 1 hr 59 min 4 sec) 
Heartbeat CPU 0 instructions: 481000000 cycles: 7761952310 heartbeat IPC: 0.0716889 cumulative IPC: 0.064638 (Simulation time: 1 hr 59 min 17 sec) 
Heartbeat CPU 0 instructions: 482000002 cycles: 7775633482 heartbeat IPC: 0.0730933 cumulative IPC: 0.0648725 (Simulation time: 1 hr 59 min 30 sec) 
Heartbeat CPU 0 instructions: 483000000 cycles: 7789469724 heartbeat IPC: 0.0722738 cumulative IPC: 0.0650745 (Simulation time: 1 hr 59 min 42 sec) 
Heartbeat CPU 0 instructions: 484000000 cycles: 7806201075 heartbeat IPC: 0.059768 cumulative IPC: 0.064905 (Simulation time: 1 hr 59 min 57 sec) 
Heartbeat CPU 0 instructions: 485000000 cycles: 7822737699 heartbeat IPC: 0.0604718 cumulative IPC: 0.0647693 (Simulation time: 2 hr 0 min 11 sec) 
Heartbeat CPU 0 instructions: 486000000 cycles: 7837042226 heartbeat IPC: 0.0699079 cumulative IPC: 0.0649018 (Simulation time: 2 hr 0 min 23 sec) 
Heartbeat CPU 0 instructions: 487000001 cycles: 7853148689 heartbeat IPC: 0.0620869 cumulative IPC: 0.0648224 (Simulation time: 2 hr 0 min 38 sec) 
Heartbeat CPU 0 instructions: 488000001 cycles: 7867840227 heartbeat IPC: 0.0680664 cumulative IPC: 0.0649038 (Simulation time: 2 hr 0 min 52 sec) 
Heartbeat CPU 0 instructions: 489000001 cycles: 7885292129 heartbeat IPC: 0.0573003 cumulative IPC: 0.0646837 (Simulation time: 2 hr 1 min 9 sec) 
Heartbeat CPU 0 instructions: 490000001 cycles: 7898726484 heartbeat IPC: 0.074436 cumulative IPC: 0.0648963 (Simulation time: 2 hr 1 min 24 sec) 
Heartbeat CPU 0 instructions: 491000002 cycles: 7913768857 heartbeat IPC: 0.0664789 cumulative IPC: 0.064934 (Simulation time: 2 hr 1 min 39 sec) 
Heartbeat CPU 0 instructions: 492000000 cycles: 7929422841 heartbeat IPC: 0.0638814 cumulative IPC: 0.0649085 (Simulation time: 2 hr 1 min 55 sec) 
Heartbeat CPU 0 instructions: 493000001 cycles: 7944676819 heartbeat IPC: 0.0655567 cumulative IPC: 0.0649235 (Simulation time: 2 hr 2 min 11 sec) 
Heartbeat CPU 0 instructions: 494000001 cycles: 7960421209 heartbeat IPC: 0.0635147 cumulative IPC: 0.0648907 (Simulation time: 2 hr 2 min 27 sec) 
Heartbeat CPU 0 instructions: 495000000 cycles: 7975952036 heartbeat IPC: 0.064388 cumulative IPC: 0.0648795 (Simulation time: 2 hr 2 min 42 sec) 
Heartbeat CPU 0 instructions: 496000001 cycles: 7991395371 heartbeat IPC: 0.0647529 cumulative IPC: 0.0648767 (Simulation time: 2 hr 2 min 57 sec) 
Heartbeat CPU 0 instructions: 497000000 cycles: 8006873485 heartbeat IPC: 0.0646073 cumulative IPC: 0.064871 (Simulation time: 2 hr 3 min 13 sec) 
Heartbeat CPU 0 instructions: 498000000 cycles: 8023345701 heartbeat IPC: 0.0607083 cumulative IPC: 0.0647784 (Simulation time: 2 hr 3 min 32 sec) 
Heartbeat CPU 0 instructions: 499000000 cycles: 8039444267 heartbeat IPC: 0.0621173 cumulative IPC: 0.0647218 (Simulation time: 2 hr 3 min 49 sec) 
Heartbeat CPU 0 instructions: 500000001 cycles: 8055538840 heartbeat IPC: 0.0621328 cumulative IPC: 0.064668 (Simulation time: 2 hr 4 min 6 sec) 
Heartbeat CPU 0 instructions: 501000001 cycles: 8071403092 heartbeat IPC: 0.0630348 cumulative IPC: 0.0646351 (Simulation time: 2 hr 4 min 23 sec) 
Heartbeat CPU 0 instructions: 502000002 cycles: 8087420113 heartbeat IPC: 0.0624336 cumulative IPC: 0.0645913 (Simulation time: 2 hr 4 min 39 sec) 
Heartbeat CPU 0 instructions: 503000000 cycles: 8102726755 heartbeat IPC: 0.065331 cumulative IPC: 0.0646051 (Simulation time: 2 hr 4 min 55 sec) 
Heartbeat CPU 0 instructions: 504000000 cycles: 8118679174 heartbeat IPC: 0.0626864 cumulative IPC: 0.0645685 (Simulation time: 2 hr 5 min 11 sec) 
Heartbeat CPU 0 instructions: 505000001 cycles: 8134478557 heartbeat IPC: 0.0632937 cumulative IPC: 0.0645449 (Simulation time: 2 hr 5 min 27 sec) 
Heartbeat CPU 0 instructions: 506000000 cycles: 8150414404 heartbeat IPC: 0.0627515 cumulative IPC: 0.064512 (Simulation time: 2 hr 5 min 43 sec) 
Heartbeat CPU 0 instructions: 507000000 cycles: 8166292373 heartbeat IPC: 0.0629803 cumulative IPC: 0.0644844 (Simulation time: 2 hr 5 min 59 sec) 
Heartbeat CPU 0 instructions: 508000000 cycles: 8182308469 heartbeat IPC: 0.0624372 cumulative IPC: 0.064448 (Simulation time: 2 hr 6 min 15 sec) 
Heartbeat CPU 0 instructions: 509000001 cycles: 8197818976 heartbeat IPC: 0.0644725 cumulative IPC: 0.0644484 (Simulation time: 2 hr 6 min 31 sec) 
Heartbeat CPU 0 instructions: 510000000 cycles: 8213203364 heartbeat IPC: 0.0650009 cumulative IPC: 0.0644576 (Simulation time: 2 hr 6 min 47 sec) 
Heartbeat CPU 0 instructions: 511000002 cycles: 8227742558 heartbeat IPC: 0.0687797 cumulative IPC: 0.064524 (Simulation time: 2 hr 7 min 2 sec) 
Heartbeat CPU 0 instructions: 512000000 cycles: 8242759488 heartbeat IPC: 0.0665914 cumulative IPC: 0.0645564 (Simulation time: 2 hr 7 min 17 sec) 
Heartbeat CPU 0 instructions: 513000000 cycles: 8257361575 heartbeat IPC: 0.0684834 cumulative IPC: 0.0646152 (Simulation time: 2 hr 7 min 32 sec) 
Heartbeat CPU 0 instructions: 514000002 cycles: 8272346182 heartbeat IPC: 0.0667353 cumulative IPC: 0.0646473 (Simulation time: 2 hr 7 min 48 sec) 
Heartbeat CPU 0 instructions: 515000001 cycles: 8286589487 heartbeat IPC: 0.0702084 cumulative IPC: 0.0647261 (Simulation time: 2 hr 8 min 3 sec) 
Heartbeat CPU 0 instructions: 516000002 cycles: 8300447828 heartbeat IPC: 0.0721588 cumulative IPC: 0.0648273 (Simulation time: 2 hr 8 min 18 sec) 
Heartbeat CPU 0 instructions: 517000000 cycles: 8314874242 heartbeat IPC: 0.0693172 cumulative IPC: 0.06489 (Simulation time: 2 hr 8 min 33 sec) 
Heartbeat CPU 0 instructions: 518000001 cycles: 8329587234 heartbeat IPC: 0.0679672 cumulative IPC: 0.0649333 (Simulation time: 2 hr 8 min 51 sec) 
Heartbeat CPU 0 instructions: 519000002 cycles: 8343838462 heartbeat IPC: 0.0701695 cumulative IPC: 0.0650036 (Simulation time: 2 hr 9 min 6 sec) 
Heartbeat CPU 0 instructions: 520000000 cycles: 8358642749 heartbeat IPC: 0.0675479 cumulative IPC: 0.0650386 (Simulation time: 2 hr 9 min 21 sec) 
Heartbeat CPU 0 instructions: 521000000 cycles: 8371325079 heartbeat IPC: 0.0788499 cumulative IPC: 0.0651994 (Simulation time: 2 hr 9 min 35 sec) 
Heartbeat CPU 0 instructions: 522000000 cycles: 8384224320 heartbeat IPC: 0.0775239 cumulative IPC: 0.0653437 (Simulation time: 2 hr 9 min 49 sec) 
Heartbeat CPU 0 instructions: 523000000 cycles: 8399223994 heartbeat IPC: 0.0666681 cumulative IPC: 0.0653615 (Simulation time: 2 hr 10 min 5 sec) 
Heartbeat CPU 0 instructions: 524000002 cycles: 8413958412 heartbeat IPC: 0.0678684 cumulative IPC: 0.0653941 (Simulation time: 2 hr 10 min 20 sec) 
Heartbeat CPU 0 instructions: 525000003 cycles: 8429007610 heartbeat IPC: 0.0664488 cumulative IPC: 0.065408 (Simulation time: 2 hr 10 min 36 sec) 
Heartbeat CPU 0 instructions: 526000001 cycles: 8444215832 heartbeat IPC: 0.0657538 cumulative IPC: 0.0654125 (Simulation time: 2 hr 10 min 52 sec) 
Heartbeat CPU 0 instructions: 527000000 cycles: 8459785648 heartbeat IPC: 0.0642268 cumulative IPC: 0.0653968 (Simulation time: 2 hr 11 min 9 sec) 
Heartbeat CPU 0 instructions: 528000000 cycles: 8475679568 heartbeat IPC: 0.0629171 cumulative IPC: 0.0653638 (Simulation time: 2 hr 11 min 27 sec) 
Heartbeat CPU 0 instructions: 529000000 cycles: 8491887878 heartbeat IPC: 0.0616967 cumulative IPC: 0.0653147 (Simulation time: 2 hr 11 min 45 sec) 
Heartbeat CPU 0 instructions: 530000002 cycles: 8507223231 heartbeat IPC: 0.0652089 cumulative IPC: 0.0653133 (Simulation time: 2 hr 12 min 1 sec) 
Heartbeat CPU 0 instructions: 531000002 cycles: 8522565712 heartbeat IPC: 0.0651785 cumulative IPC: 0.0653117 (Simulation time: 2 hr 12 min 17 sec) 
Heartbeat CPU 0 instructions: 532000002 cycles: 8537618827 heartbeat IPC: 0.0664314 cumulative IPC: 0.0653251 (Simulation time: 2 hr 12 min 33 sec) 
Heartbeat CPU 0 instructions: 533000003 cycles: 8552811419 heartbeat IPC: 0.0658216 cumulative IPC: 0.065331 (Simulation time: 2 hr 12 min 49 sec) 
Heartbeat CPU 0 instructions: 534000001 cycles: 8565578306 heartbeat IPC: 0.0783275 cumulative IPC: 0.0654603 (Simulation time: 2 hr 13 min 2 sec) 
Heartbeat CPU 0 instructions: 535000001 cycles: 8577580832 heartbeat IPC: 0.0833158 cumulative IPC: 0.0656258 (Simulation time: 2 hr 13 min 15 sec) 
Heartbeat CPU 0 instructions: 536000000 cycles: 8589273150 heartbeat IPC: 0.0855262 cumulative IPC: 0.0658038 (Simulation time: 2 hr 13 min 28 sec) 
[...]
Heartbeat CPU 0 instructions: 837000000 cycles: 13230867880 heartbeat IPC: 0.0636469 cumulative IPC: 0.0650583 (Simulation time: 3 hr 27 min 20 sec) 
Heartbeat CPU 0 instructions: 838000002 cycles: 13247325965 heartbeat IPC: 0.0607605 cumulative IPC: 0.0650465 (Simulation time: 3 hr 27 min 36 sec) 
Heartbeat CPU 0 instructions: 839000000 cycles: 13263707563 heartbeat IPC: 0.061044 cumulative IPC: 0.0650355 (Simulation time: 3 hr 27 min 51 sec) 
Heartbeat CPU 0 instructions: 840000000 cycles: 13280369269 heartbeat IPC: 0.0600179 cumulative IPC: 0.0650216 (Simulation time: 3 hr 28 min 7 sec) 
Heartbeat CPU 0 instructions: 841000000 cycles: 13297159894 heartbeat IPC: 0.059557 cumulative IPC: 0.0650063 (Simulation time: 3 hr 28 min 22 sec) 
Heartbeat CPU 0 instructions: 842000001 cycles: 13313139333 heartbeat IPC: 0.0625805 cumulative IPC: 0.0649999 (Simulation time: 3 hr 28 min 37 sec) 
Heartbeat CPU 0 instructions: 843000000 cycles: 13326112738 heartbeat IPC: 0.0770807 cumulative IPC: 0.0650258 (Simulation time: 3 hr 28 min 50 sec) 
Heartbeat CPU 0 instructions: 844000000 cycles: 13339779989 heartbeat IPC: 0.0731676 cumulative IPC: 0.0650442 (Simulation time: 3 hr 29 min 4 sec) 
Heartbeat CPU 0 instructions: 845000000 cycles: 13353922088 heartbeat IPC: 0.0707109 cumulative IPC: 0.0650574 (Simulation time: 3 hr 29 min 18 sec) 
Heartbeat CPU 0 instructions: 846000000 cycles: 13368327896 heartbeat IPC: 0.0694164 cumulative IPC: 0.0650677 (Simulation time: 3 hr 29 min 32 sec) 
Heartbeat CPU 0 instructions: 847000000 cycles: 13383963708 heartbeat IPC: 0.0639557 cumulative IPC: 0.0650648 (Simulation time: 3 hr 29 min 47 sec) 
Heartbeat CPU 0 instructions: 848000000 cycles: 13399953430 heartbeat IPC: 0.0625402 cumulative IPC: 0.0650582 (Simulation time: 3 hr 30 min 4 sec) 
Heartbeat CPU 0 instructions: 849000000 cycles: 13414095542 heartbeat IPC: 0.0707108 cumulative IPC: 0.0650713 (Simulation time: 3 hr 30 min 19 sec) 
Heartbeat CPU 0 instructions: 850000000 cycles: 13427754506 heartbeat IPC: 0.073212 cumulative IPC: 0.0650894 (Simulation time: 3 hr 30 min 33 sec) 
Heartbeat CPU 0 instructions: 851000000 cycles: 13441354527 heartbeat IPC: 0.0735293 cumulative IPC: 0.065108 (Simulation time: 3 hr 30 min 46 sec) 
Heartbeat CPU 0 instructions: 852000002 cycles: 13455439358 heartbeat IPC: 0.0709985 cumulative IPC: 0.0651214 (Simulation time: 3 hr 31 min 0 sec) 
Heartbeat CPU 0 instructions: 853000000 cycles: 13470484597 heartbeat IPC: 0.0664661 cumulative IPC: 0.0651247 (Simulation time: 3 hr 31 min 15 sec) 
Heartbeat CPU 0 instructions: 854000000 cycles: 13485316657 heartbeat IPC: 0.0674215 cumulative IPC: 0.0651302 (Simulation time: 3 hr 31 min 29 sec) 
Heartbeat CPU 0 instructions: 855000002 cycles: 13499989481 heartbeat IPC: 0.0681533 cumulative IPC: 0.0651373 (Simulation time: 3 hr 31 min 44 sec) 
Heartbeat CPU 0 instructions: 856000003 cycles: 13515217204 heartbeat IPC: 0.0656698 cumulative IPC: 0.0651386 (Simulation time: 3 hr 32 min 0 sec) 
Heartbeat CPU 0 instructions: 857000001 cycles: 13531244063 heartbeat IPC: 0.0623951 cumulative IPC: 0.0651316 (Simulation time: 3 hr 32 min 17 sec) 
Heartbeat CPU 0 instructions: 858000000 cycles: 13545433205 heartbeat IPC: 0.0704764 cumulative IPC: 0.0651437 (Simulation time: 3 hr 32 min 31 sec) 
Heartbeat CPU 0 instructions: 859000000 cycles: 13561346508 heartbeat IPC: 0.0628405 cumulative IPC: 0.0651379 (Simulation time: 3 hr 32 min 47 sec) 
Heartbeat CPU 0 instructions: 860000000 cycles: 13576761877 heartbeat IPC: 0.0648703 cumulative IPC: 0.0651372 (Simulation time: 3 hr 33 min 3 sec) 
Heartbeat CPU 0 instructions: 861000000 cycles: 13592250302 heartbeat IPC: 0.0645643 cumulative IPC: 0.0651358 (Simulation time: 3 hr 33 min 18 sec) 
Heartbeat CPU 0 instructions: 862000000 cycles: 13607971152 heartbeat IPC: 0.0636098 cumulative IPC: 0.065132 (Simulation time: 3 hr 33 min 34 sec) 
Heartbeat CPU 0 instructions: 863000002 cycles: 13624283512 heartbeat IPC: 0.0613033 cumulative IPC: 0.0651222 (Simulation time: 3 hr 33 min 50 sec) 
Heartbeat CPU 0 instructions: 864000002 cycles: 13641039540 heartbeat IPC: 0.05968 cumulative IPC: 0.0651078 (Simulation time: 3 hr 34 min 6 sec) 
Heartbeat CPU 0 instructions: 865000002 cycles: 13657450862 heartbeat IPC: 0.0609335 cumulative IPC: 0.0650971 (Simulation time: 3 hr 34 min 22 sec) 
Heartbeat CPU 0 instructions: 866000001 cycles: 13673693618 heartbeat IPC: 0.0615658 cumulative IPC: 0.0650881 (Simulation time: 3 hr 34 min 39 sec) 
Heartbeat CPU 0 instructions: 867000002 cycles: 13690502246 heartbeat IPC: 0.0594933 cumulative IPC: 0.0650734 (Simulation time: 3 hr 34 min 55 sec) 
Heartbeat CPU 0 instructions: 868000003 cycles: 13707066278 heartbeat IPC: 0.0603718 cumulative IPC: 0.0650613 (Simulation time: 3 hr 35 min 11 sec) 
Heartbeat CPU 0 instructions: 869000000 cycles: 13723877207 heartbeat IPC: 0.0594849 cumulative IPC: 0.0650468 (Simulation time: 3 hr 35 min 27 sec) 
Heartbeat CPU 0 instructions: 870000003 cycles: 13740860947 heartbeat IPC: 0.05888 cumulative IPC: 0.0650306 (Simulation time: 3 hr 35 min 42 sec) 
Heartbeat CPU 0 instructions: 871000000 cycles: 13757690623 heartbeat IPC: 0.0594187 cumulative IPC: 0.065016 (Simulation time: 3 hr 35 min 59 sec) 
Heartbeat CPU 0 instructions: 872000001 cycles: 13774565048 heartbeat IPC: 0.0592613 cumulative IPC: 0.065001 (Simulation time: 3 hr 36 min 15 sec) 
Heartbeat CPU 0 instructions: 873000002 cycles: 13791167247 heartbeat IPC: 0.060233 cumulative IPC: 0.0649889 (Simulation time: 3 hr 36 min 31 sec) 
Heartbeat CPU 0 instructions: 874000001 cycles: 13807692650 heartbeat IPC: 0.0605128 cumulative IPC: 0.0649775 (Simulation time: 3 hr 36 min 47 sec) 
Heartbeat CPU 0 instructions: 875000000 cycles: 13824362705 heartbeat IPC: 0.0599877 cumulative IPC: 0.0649648 (Simulation time: 3 hr 37 min 4 sec) 
Heartbeat CPU 0 instructions: 876000001 cycles: 13841305451 heartbeat IPC: 0.0590224 cumulative IPC: 0.0649494 (Simulation time: 3 hr 37 min 20 sec) 
Heartbeat CPU 0 instructions: 877000002 cycles: 13857938885 heartbeat IPC: 0.0601199 cumulative IPC: 0.0649372 (Simulation time: 3 hr 37 min 35 sec) 
Heartbeat CPU 0 instructions: 878000001 cycles: 13874341600 heartbeat IPC: 0.0609655 cumulative IPC: 0.0649273 (Simulation time: 3 hr 37 min 50 sec) 
Heartbeat CPU 0 instructions: 879000002 cycles: 13890630180 heartbeat IPC: 0.0613928 cumulative IPC: 0.0649186 (Simulation time: 3 hr 38 min 5 sec) 
Heartbeat CPU 0 instructions: 880000000 cycles: 13906984203 heartbeat IPC: 0.0611469 cumulative IPC: 0.0649093 (Simulation time: 3 hr 38 min 20 sec) 
Heartbeat CPU 0 instructions: 881000000 cycles: 13923381974 heartbeat IPC: 0.0609839 cumulative IPC: 0.0648996 (Simulation time: 3 hr 38 min 36 sec) 
Heartbeat CPU 0 instructions: 882000000 cycles: 13939976344 heartbeat IPC: 0.0602614 cumulative IPC: 0.0648881 (Simulation time: 3 hr 38 min 52 sec) 
Heartbeat CPU 0 instructions: 883000002 cycles: 13956763908 heartbeat IPC: 0.059568 cumulative IPC: 0.0648747 (Simulation time: 3 hr 39 min 7 sec) 
Heartbeat CPU 0 instructions: 884000002 cycles: 13973441657 heartbeat IPC: 0.0599601 cumulative IPC: 0.0648624 (Simulation time: 3 hr 39 min 23 sec) 
Heartbeat CPU 0 instructions: 885000000 cycles: 13990038175 heartbeat IPC: 0.0602535 cumulative IPC: 0.064851 (Simulation time: 3 hr 39 min 39 sec) 
Heartbeat CPU 0 instructions: 886000001 cycles: 14006791293 heartbeat IPC: 0.0596904 cumulative IPC: 0.0648382 (Simulation time: 3 hr 39 min 54 sec) 
Heartbeat CPU 0 instructions: 887000002 cycles: 14023444806 heartbeat IPC: 0.0600475 cumulative IPC: 0.0648263 (Simulation time: 3 hr 40 min 10 sec) 
Heartbeat CPU 0 instructions: 888000000 cycles: 14040180809 heartbeat IPC: 0.0597513 cumulative IPC: 0.0648138 (Simulation time: 3 hr 40 min 27 sec) 
Heartbeat CPU 0 instructions: 889000000 cycles: 14057122589 heartbeat IPC: 0.0590257 cumulative IPC: 0.0647993 (Simulation time: 3 hr 40 min 43 sec) 
Heartbeat CPU 0 instructions: 890000000 cycles: 14074002950 heartbeat IPC: 0.0592404 cumulative IPC: 0.0647855 (Simulation time: 3 hr 40 min 58 sec) 
Heartbeat CPU 0 instructions: 891000000 cycles: 14090470262 heartbeat IPC: 0.0607264 cumulative IPC: 0.0647757 (Simulation time: 3 hr 41 min 14 sec) 
Heartbeat CPU 0 instructions: 892000000 cycles: 14106954140 heartbeat IPC: 0.0606653 cumulative IPC: 0.0647657 (Simulation time: 3 hr 41 min 29 sec) 
Heartbeat CPU 0 instructions: 893000000 cycles: 14123874115 heartbeat IPC: 0.0591017 cumulative IPC: 0.0647517 (Simulation time: 3 hr 41 min 45 sec) 
Heartbeat CPU 0 instructions: 894000000 cycles: 14139296187 heartbeat IPC: 0.0648421 cumulative IPC: 0.0647519 (Simulation time: 3 hr 41 min 59 sec) 
Heartbeat CPU 0 instructions: 895000002 cycles: 14156042204 heartbeat IPC: 0.0597158 cumulative IPC: 0.0647397 (Simulation time: 3 hr 42 min 15 sec) 
Heartbeat CPU 0 instructions: 896000000 cycles: 14173071091 heartbeat IPC: 0.0587236 cumulative IPC: 0.0647248 (Simulation time: 3 hr 42 min 30 sec) 
Heartbeat CPU 0 instructions: 897000002 cycles: 14189707172 heartbeat IPC: 0.0601104 cumulative IPC: 0.0647137 (Simulation time: 3 hr 42 min 46 sec) 
Heartbeat CPU 0 instructions: 898000002 cycles: 14206637552 heartbeat IPC: 0.0590654 cumulative IPC: 0.0646999 (Simulation time: 3 hr 43 min 1 sec) 
Heartbeat CPU 0 instructions: 899000001 cycles: 14223535639 heartbeat IPC: 0.0591782 cumulative IPC: 0.0646864 (Simulation time: 3 hr 43 min 17 sec) 
Heartbeat CPU 0 instructions: 900000001 cycles: 14240369610 heartbeat IPC: 0.0594037 cumulative IPC: 0.0646737 (Simulation time: 3 hr 43 min 32 sec) 
Heartbeat CPU 0 instructions: 901000000 cycles: 14257170156 heartbeat IPC: 0.0595218 cumulative IPC: 0.0646612 (Simulation time: 3 hr 43 min 48 sec) 
Heartbeat CPU 0 instructions: 902000000 cycles: 14274153632 heartbeat IPC: 0.0588808 cumulative IPC: 0.0646472 (Simulation time: 3 hr 44 min 3 sec) 
Heartbeat CPU 0 instructions: 903000000 cycles: 14291073858 heartbeat IPC: 0.0591009 cumulative IPC: 0.0646338 (Simulation time: 3 hr 44 min 19 sec) 
Heartbeat CPU 0 instructions: 904000003 cycles: 14307856598 heartbeat IPC: 0.0595852 cumulative IPC: 0.0646218 (Simulation time: 3 hr 44 min 34 sec) 
Heartbeat CPU 0 instructions: 905000002 cycles: 14324378637 heartbeat IPC: 0.0605252 cumulative IPC: 0.0646121 (Simulation time: 3 hr 44 min 50 sec) 
Heartbeat CPU 0 instructions: 906000002 cycles: 14340979805 heartbeat IPC: 0.0602367 cumulative IPC: 0.0646018 (Simulation time: 3 hr 45 min 5 sec) 
Heartbeat CPU 0 instructions: 907000002 cycles: 14355118975 heartbeat IPC: 0.0707255 cumulative IPC: 0.0646141 (Simulation time: 3 hr 45 min 20 sec) 
Heartbeat CPU 0 instructions: 908000002 cycles: 14370878857 heartbeat IPC: 0.0634523 cumulative IPC: 0.0646115 (Simulation time: 3 hr 45 min 37 sec) 
Heartbeat CPU 0 instructions: 909000000 cycles: 14386888536 heartbeat IPC: 0.0624621 cumulative IPC: 0.0646067 (Simulation time: 3 hr 45 min 53 sec) 
Heartbeat CPU 0 instructions: 910000001 cycles: 14403184898 heartbeat IPC: 0.0613635 cumulative IPC: 0.0645992 (Simulation time: 3 hr 46 min 10 sec) 
Heartbeat CPU 0 instructions: 911000002 cycles: 14419393199 heartbeat IPC: 0.0616968 cumulative IPC: 0.0645927 (Simulation time: 3 hr 46 min 26 sec) 
Heartbeat CPU 0 instructions: 912000002 cycles: 14435669129 heartbeat IPC: 0.0614404 cumulative IPC: 0.0645855 (Simulation time: 3 hr 46 min 43 sec) 
Heartbeat CPU 0 instructions: 913000000 cycles: 14448839902 heartbeat IPC: 0.0759255 cumulative IPC: 0.0646063 (Simulation time: 3 hr 46 min 57 sec) 
Heartbeat CPU 0 instructions: 914000001 cycles: 14464023665 heartbeat IPC: 0.0658599 cumulative IPC: 0.064609 (Simulation time: 3 hr 47 min 12 sec) 
Heartbeat CPU 0 instructions: 915000000 cycles: 14479947706 heartbeat IPC: 0.0627981 cumulative IPC: 0.064605 (Simulation time: 3 hr 47 min 26 sec) 
Heartbeat CPU 0 instructions: 916000001 cycles: 14496711327 heartbeat IPC: 0.059653 cumulative IPC: 0.0645935 (Simulation time: 3 hr 47 min 42 sec) 
Heartbeat CPU 0 instructions: 917000000 cycles: 14512597340 heartbeat IPC: 0.0629484 cumulative IPC: 0.0645898 (Simulation time: 3 hr 47 min 57 sec) 
Heartbeat CPU 0 instructions: 918000001 cycles: 14527384603 heartbeat IPC: 0.0676258 cumulative IPC: 0.064596 (Simulation time: 3 hr 48 min 12 sec) 
Heartbeat CPU 0 instructions: 919000000 cycles: 14544173532 heartbeat IPC: 0.059563 cumulative IPC: 0.0645844 (Simulation time: 3 hr 48 min 29 sec) 
Heartbeat CPU 0 instructions: 920000000 cycles: 14560778197 heartbeat IPC: 0.060224 cumulative IPC: 0.0645745 (Simulation time: 3 hr 48 min 45 sec) 
Heartbeat CPU 0 instructions: 921000000 cycles: 14576947040 heartbeat IPC: 0.0618473 cumulative IPC: 0.0645684 (Simulation time: 3 hr 49 min 1 sec) 
Heartbeat CPU 0 instructions: 922000001 cycles: 14593533891 heartbeat IPC: 0.0602888 cumulative IPC: 0.0645587 (Simulation time: 3 hr 49 min 18 sec) 
Heartbeat CPU 0 instructions: 923000000 cycles: 14610529481 heartbeat IPC: 0.0588387 cumulative IPC: 0.0645454 (Simulation time: 3 hr 49 min 34 sec) 
Heartbeat CPU 0 instructions: 924000000 cycles: 14627342289 heartbeat IPC: 0.0594785 cumulative IPC: 0.0645338 (Simulation time: 3 hr 49 min 51 sec) 
Heartbeat CPU 0 instructions: 925000000 cycles: 14643803942 heartbeat IPC: 0.0607472 cumulative IPC: 0.0645254 (Simulation time: 3 hr 50 min 7 sec) 
Heartbeat CPU 0 instructions: 926000001 cycles: 14660499320 heartbeat IPC: 0.0598969 cumulative IPC: 0.0645149 (Simulation time: 3 hr 50 min 24 sec) 
Heartbeat CPU 0 instructions: 927000000 cycles: 14677160731 heartbeat IPC: 0.0600189 cumulative IPC: 0.0645048 (Simulation time: 3 hr 50 min 40 sec) 
Heartbeat CPU 0 instructions: 928000000 cycles: 14693755829 heartbeat IPC: 0.0602588 cumulative IPC: 0.0644953 (Simulation time: 3 hr 50 min 56 sec) 
Heartbeat CPU 0 instructions: 929000001 cycles: 14710307134 heartbeat IPC: 0.0604183 cumulative IPC: 0.0644862 (Simulation time: 3 hr 51 min 13 sec) 
Heartbeat CPU 0 instructions: 930000000 cycles: 14726638525 heartbeat IPC: 0.0612317 cumulative IPC: 0.064479 (Simulation time: 3 hr 51 min 29 sec) 
Heartbeat CPU 0 instructions: 931000000 cycles: 14742987035 heartbeat IPC: 0.0611677 cumulative IPC: 0.0644718 (Simulation time: 3 hr 51 min 45 sec) 
Heartbeat CPU 0 instructions: 932000000 cycles: 14759494488 heartbeat IPC: 0.0605787 cumulative IPC: 0.0644632 (Simulation time: 3 hr 52 min 1 sec) 
Heartbeat CPU 0 instructions: 933000001 cycles: 14776094015 heartbeat IPC: 0.0602427 cumulative IPC: 0.0644538 (Simulation time: 3 hr 52 min 17 sec) 
Heartbeat CPU 0 instructions: 934000000 cycles: 14792770310 heartbeat IPC: 0.0599653 cumulative IPC: 0.0644439 (Simulation time: 3 hr 52 min 33 sec) 
Heartbeat CPU 0 instructions: 935000000 cycles: 14809112779 heartbeat IPC: 0.0611903 cumulative IPC: 0.0644368 (Simulation time: 3 hr 52 min 48 sec) 
Heartbeat CPU 0 instructions: 936000000 cycles: 14825466757 heartbeat IPC: 0.0611472 cumulative IPC: 0.0644297 (Simulation time: 3 hr 53 min 4 sec) 
Heartbeat CPU 0 instructions: 937000002 cycles: 14841507063 heartbeat IPC: 0.0623431 cumulative IPC: 0.0644252 (Simulation time: 3 hr 53 min 20 sec) 
Heartbeat CPU 0 instructions: 938000002 cycles: 14857702311 heartbeat IPC: 0.0617465 cumulative IPC: 0.0644195 (Simulation time: 3 hr 53 min 36 sec) 
Heartbeat CPU 0 instructions: 939000000 cycles: 14874232018 heartbeat IPC: 0.060497 cumulative IPC: 0.064411 (Simulation time: 3 hr 53 min 52 sec) 
Heartbeat CPU 0 instructions: 940000001 cycles: 14890722732 heartbeat IPC: 0.0606402 cumulative IPC: 0.0644028 (Simulation time: 3 hr 54 min 8 sec) 
Heartbeat CPU 0 instructions: 941000000 cycles: 14907341463 heartbeat IPC: 0.060173 cumulative IPC: 0.0643936 (Simulation time: 3 hr 54 min 24 sec) 
Heartbeat CPU 0 instructions: 942000000 cycles: 14923793149 heartbeat IPC: 0.060784 cumulative IPC: 0.0643858 (Simulation time: 3 hr 54 min 40 sec) 
Heartbeat CPU 0 instructions: 943000000 cycles: 14940432480 heartbeat IPC: 0.0600986 cumulative IPC: 0.0643765 (Simulation time: 3 hr 54 min 56 sec) 
Heartbeat CPU 0 instructions: 944000000 cycles: 14956770256 heartbeat IPC: 0.0612078 cumulative IPC: 0.0643698 (Simulation time: 3 hr 55 min 12 sec) 
Heartbeat CPU 0 instructions: 945000000 cycles: 14973212466 heartbeat IPC: 0.0608191 cumulative IPC: 0.0643622 (Simulation time: 3 hr 55 min 29 sec) 
Heartbeat CPU 0 instructions: 946000000 cycles: 14989071952 heartbeat IPC: 0.0630537 cumulative IPC: 0.0643595 (Simulation time: 3 hr 55 min 44 sec) 
Heartbeat CPU 0 instructions: 947000001 cycles: 15005659044 heartbeat IPC: 0.0602879 cumulative IPC: 0.0643507 (Simulation time: 3 hr 56 min 1 sec) 
Heartbeat CPU 0 instructions: 948000000 cycles: 15021780914 heartbeat IPC: 0.0620275 cumulative IPC: 0.0643459 (Simulation time: 3 hr 56 min 17 sec) 
Heartbeat CPU 0 instructions: 949000000 cycles: 15038108308 heartbeat IPC: 0.0612468 cumulative IPC: 0.0643394 (Simulation time: 3 hr 56 min 34 sec) 
Heartbeat CPU 0 instructions: 950000000 cycles: 15054310080 heartbeat IPC: 0.0617216 cumulative IPC: 0.0643339 (Simulation time: 3 hr 56 min 51 sec) 
Finished CPU 0 instructions: 500000002 cycles: 7771951737 cumulative IPC: 0.0643339 (Simulation time: 3 hr 56 min 51 sec) 

ChampSim completed all CPUs

Region of Interest Statistics

CPU 0 cumulative IPC: 0.0643339 instructions: 500000002 cycles: 7771951737
L1D TOTAL     ACCESS:  105898643  HIT:   18379456  MISS:   87519187
L1D LOAD      ACCESS:  101558634  HIT:   14241789  MISS:   87316845
L1D RFO       ACCESS:    4340009  HIT:    4137667  MISS:     202342
L1D PREFETCH  ACCESS:          0  HIT:          0  MISS:          0
L1D WRITEBACK ACCESS:          0  HIT:          0  MISS:          0
L1D PREFETCH  REQUESTED:          0  ISSUED:          0  USEFUL:          0  USELESS:          0
L1D AVERAGE MISS LATENCY: 217.745 cycles
L1I TOTAL     ACCESS:  100100161  HIT:  100100161  MISS:          0
L1I LOAD      ACCESS:  100100161  HIT:  100100161  MISS:          0
L1I RFO       ACCESS:          0  HIT:          0  MISS:          0
L1I PREFETCH  ACCESS:          0  HIT:          0  MISS:          0
L1I WRITEBACK ACCESS:          0  HIT:          0  MISS:          0
L1I PREFETCH  REQUESTED:          0  ISSUED:          0  USEFUL:          0  USELESS:          0
L1I AVERAGE MISS LATENCY: -nan cycles
L2C TOTAL     ACCESS:   89920371  HIT:   29283785  MISS:   60636586
L2C LOAD      ACCESS:   87316733  HIT:   26816179  MISS:   60500554
L2C RFO       ACCESS:     202338  HIT:      66319  MISS:     136019
L2C PREFETCH  ACCESS:          0  HIT:          0  MISS:          0
L2C WRITEBACK ACCESS:    2401300  HIT:    2401287  MISS:         13
L2C PREFETCH  REQUESTED:          0  ISSUED:          0  USEFUL:          0  USELESS:          0
L2C AVERAGE MISS LATENCY: 291.51 cycles
LLC TOTAL     ACCESS:   62434599  HIT:   18825983  MISS:   43608616
LLC LOAD      ACCESS:   60500509  HIT:   17008366  MISS:   43492143
LLC RFO       ACCESS:     136019  HIT:      31854  MISS:     104165
LLC PREFETCH  ACCESS:          0  HIT:          0  MISS:          0
LLC WRITEBACK ACCESS:    1798071  HIT:    1785763  MISS:      12308
LLC PREFETCH  REQUESTED:          0  ISSUED:          0  USEFUL:          0  USELESS:          0
LLC AVERAGE MISS LATENCY: 363.17 cycles
Major fault: 0 Minor fault: 428297

DRAM Statistics
 CHANNEL 0
 RQ ROW_BUFFER_HIT:     334449  ROW_BUFFER_MISS:   43261531
 DBUS_CONGESTED:    2763458
 WQ ROW_BUFFER_HIT:     508612  ROW_BUFFER_MISS:    1087371  FULL:          0

 AVG_CONGESTED_CYCLE: 6

CPU 0 Branch Prediction Accuracy: 93.5422% MPKI: 19.6887 Average ROB Occupancy at Mispredict: 30.6267

Branch types
NOT_BRANCH: 347558959 69.5118%
BRANCH_DIRECT_JUMP: 1546994 0.309399%
BRANCH_INDIRECT: 0 0%
BRANCH_CONDITIONAL: 150853634 30.1707%
BRANCH_DIRECT_CALL: 20249 0.0040498%
BRANCH_INDIRECT_CALL: 0 0%
BRANCH_RETURN: 20249 0.0040498%
BRANCH_OTHER: 0 0%


gzip: stdout: Broken pipe
