
*** ChampSim Multicore Out-of-Order Simulator ***

Warmup Instructions: 1000000
Prefetch Warmup Instructions: 450000000
Simulation Instructions: 500000000
Stat Printing Period: 1000000
Number of CPUs: 1
LLC sets: 2048
LLC ways: 16
Off-chip DRAM Size: 4096 MB Channels: 1 Width: 64-bit Data Rate: 3200 MT/s

CPU 0 runs /scratch/cluster/cmolder/ML-DPC/ChampSimTraces/spec06/471.omnetpp-s1.trace.gz
Read seed: 1083
Heartbeat CPU 0 instructions: 1000000 cycles: 457829 heartbeat IPC: 2.18422 cumulative IPC: 2.18422 (Simulation time: 0 hr 0 min 6 sec) 

Warmup complete CPU 0 instructions: 1000004 cycles: 457830 (Simulation time: 0 hr 0 min 6 sec) 

Heartbeat CPU 0 instructions: 2000000 cycles: 2896797 heartbeat IPC: 0.410009 cumulative IPC: 0.410008 (Simulation time: 0 hr 0 min 12 sec) 
Heartbeat CPU 0 instructions: 3000001 cycles: 5870267 heartbeat IPC: 0.336308 cumulative IPC: 0.369519 (Simulation time: 0 hr 0 min 19 sec) 
Heartbeat CPU 0 instructions: 4000003 cycles: 8650757 heartbeat IPC: 0.35965 cumulative IPC: 0.366169 (Simulation time: 0 hr 0 min 27 sec) 
Heartbeat CPU 0 instructions: 5000001 cycles: 11582207 heartbeat IPC: 0.341127 cumulative IPC: 0.35957 (Simulation time: 0 hr 0 min 34 sec) 
Heartbeat CPU 0 instructions: 6000002 cycles: 15304748 heartbeat IPC: 0.268634 cumulative IPC: 0.33677 (Simulation time: 0 hr 0 min 42 sec) 
Heartbeat CPU 0 instructions: 7000000 cycles: 18945311 heartbeat IPC: 0.274682 cumulative IPC: 0.324544 (Simulation time: 0 hr 0 min 50 sec) 
Heartbeat CPU 0 instructions: 8000001 cycles: 21721723 heartbeat IPC: 0.360177 cumulative IPC: 0.329196 (Simulation time: 0 hr 0 min 58 sec) 
Heartbeat CPU 0 instructions: 9000002 cycles: 24905778 heartbeat IPC: 0.314065 cumulative IPC: 0.327226 (Simulation time: 0 hr 1 min 5 sec) 
Heartbeat CPU 0 instructions: 10000003 cycles: 28065471 heartbeat IPC: 0.316487 cumulative IPC: 0.325997 (Simulation time: 0 hr 1 min 13 sec) 
Heartbeat CPU 0 instructions: 11000000 cycles: 30666747 heartbeat IPC: 0.384426 cumulative IPC: 0.331028 (Simulation time: 0 hr 1 min 20 sec) 
Heartbeat CPU 0 instructions: 12000003 cycles: 33301902 heartbeat IPC: 0.379485 cumulative IPC: 0.334916 (Simulation time: 0 hr 1 min 27 sec) 
Heartbeat CPU 0 instructions: 13000001 cycles: 36116946 heartbeat IPC: 0.355234 cumulative IPC: 0.33652 (Simulation time: 0 hr 1 min 34 sec) 
Heartbeat CPU 0 instructions: 14000001 cycles: 39113776 heartbeat IPC: 0.333686 cumulative IPC: 0.3363 (Simulation time: 0 hr 1 min 42 sec) 
Heartbeat CPU 0 instructions: 15000000 cycles: 42736416 heartbeat IPC: 0.276042 cumulative IPC: 0.331137 (Simulation time: 0 hr 1 min 50 sec) 
Heartbeat CPU 0 instructions: 16000000 cycles: 46259517 heartbeat IPC: 0.283841 cumulative IPC: 0.327499 (Simulation time: 0 hr 1 min 58 sec) 
Heartbeat CPU 0 instructions: 17000001 cycles: 49237122 heartbeat IPC: 0.335841 cumulative IPC: 0.328008 (Simulation time: 0 hr 2 min 6 sec) 
Heartbeat CPU 0 instructions: 18000001 cycles: 52368339 heartbeat IPC: 0.319365 cumulative IPC: 0.327487 (Simulation time: 0 hr 2 min 13 sec) 
Heartbeat CPU 0 instructions: 19000001 cycles: 55996444 heartbeat IPC: 0.275626 cumulative IPC: 0.324099 (Simulation time: 0 hr 2 min 21 sec) 
Heartbeat CPU 0 instructions: 20000000 cycles: 59449470 heartbeat IPC: 0.289601 cumulative IPC: 0.322079 (Simulation time: 0 hr 2 min 29 sec) 
Heartbeat CPU 0 instructions: 21000001 cycles: 62058283 heartbeat IPC: 0.383316 cumulative IPC: 0.324673 (Simulation time: 0 hr 2 min 36 sec) 
Heartbeat CPU 0 instructions: 22000000 cycles: 64861127 heartbeat IPC: 0.35678 cumulative IPC: 0.32607 (Simulation time: 0 hr 2 min 43 sec) 
Heartbeat CPU 0 instructions: 23000002 cycles: 67667563 heartbeat IPC: 0.356325 cumulative IPC: 0.327334 (Simulation time: 0 hr 2 min 50 sec) 
Heartbeat CPU 0 instructions: 24000001 cycles: 70542074 heartbeat IPC: 0.347885 cumulative IPC: 0.328176 (Simulation time: 0 hr 2 min 57 sec) 
Heartbeat CPU 0 instructions: 25000000 cycles: 73323561 heartbeat IPC: 0.35952 cumulative IPC: 0.329373 (Simulation time: 0 hr 3 min 4 sec) 
Heartbeat CPU 0 instructions: 26000002 cycles: 76405195 heartbeat IPC: 0.324504 cumulative IPC: 0.329175 (Simulation time: 0 hr 3 min 12 sec) 
Heartbeat CPU 0 instructions: 27000000 cycles: 79769952 heartbeat IPC: 0.297198 cumulative IPC: 0.327819 (Simulation time: 0 hr 3 min 19 sec) 
Heartbeat CPU 0 instructions: 28000001 cycles: 83459132 heartbeat IPC: 0.271063 cumulative IPC: 0.325296 (Simulation time: 0 hr 3 min 28 sec) 
Heartbeat CPU 0 instructions: 29000002 cycles: 86692854 heartbeat IPC: 0.309241 cumulative IPC: 0.324694 (Simulation time: 0 hr 3 min 36 sec) 
Heartbeat CPU 0 instructions: 30000002 cycles: 89456790 heartbeat IPC: 0.361803 cumulative IPC: 0.325846 (Simulation time: 0 hr 3 min 43 sec) 
Heartbeat CPU 0 instructions: 31000002 cycles: 92531881 heartbeat IPC: 0.325194 cumulative IPC: 0.325825 (Simulation time: 0 hr 3 min 51 sec) 
Heartbeat CPU 0 instructions: 32000003 cycles: 95228625 heartbeat IPC: 0.370818 cumulative IPC: 0.327105 (Simulation time: 0 hr 3 min 59 sec) 
Heartbeat CPU 0 instructions: 33000000 cycles: 98215390 heartbeat IPC: 0.334809 cumulative IPC: 0.32734 (Simulation time: 0 hr 4 min 7 sec) 
Heartbeat CPU 0 instructions: 34000002 cycles: 101508896 heartbeat IPC: 0.303628 cumulative IPC: 0.326568 (Simulation time: 0 hr 4 min 14 sec) 
Heartbeat CPU 0 instructions: 35000003 cycles: 104259872 heartbeat IPC: 0.363508 cumulative IPC: 0.327547 (Simulation time: 0 hr 4 min 22 sec) 
Heartbeat CPU 0 instructions: 36000000 cycles: 108045639 heartbeat IPC: 0.264146 cumulative IPC: 0.325316 (Simulation time: 0 hr 4 min 31 sec) 
Heartbeat CPU 0 instructions: 37000003 cycles: 112041134 heartbeat IPC: 0.250283 cumulative IPC: 0.322629 (Simulation time: 0 hr 4 min 39 sec) 
Heartbeat CPU 0 instructions: 38000001 cycles: 115060025 heartbeat IPC: 0.331247 cumulative IPC: 0.322856 (Simulation time: 0 hr 4 min 47 sec) 
Heartbeat CPU 0 instructions: 39000000 cycles: 118401709 heartbeat IPC: 0.29925 cumulative IPC: 0.322187 (Simulation time: 0 hr 4 min 55 sec) 
Heartbeat CPU 0 instructions: 40000002 cycles: 121087621 heartbeat IPC: 0.372314 cumulative IPC: 0.323303 (Simulation time: 0 hr 5 min 2 sec) 
Heartbeat CPU 0 instructions: 41000001 cycles: 123921466 heartbeat IPC: 0.352877 cumulative IPC: 0.323982 (Simulation time: 0 hr 5 min 10 sec) 
Heartbeat CPU 0 instructions: 42000002 cycles: 127555364 heartbeat IPC: 0.275187 cumulative IPC: 0.322587 (Simulation time: 0 hr 5 min 18 sec) 
Heartbeat CPU 0 instructions: 43000002 cycles: 131169420 heartbeat IPC: 0.276697 cumulative IPC: 0.321318 (Simulation time: 0 hr 5 min 27 sec) 
Heartbeat CPU 0 instructions: 44000000 cycles: 134349592 heartbeat IPC: 0.314448 cumulative IPC: 0.321155 (Simulation time: 0 hr 5 min 35 sec) 
Heartbeat CPU 0 instructions: 45000002 cycles: 137478960 heartbeat IPC: 0.319554 cumulative IPC: 0.321118 (Simulation time: 0 hr 5 min 42 sec) 
Heartbeat CPU 0 instructions: 46000003 cycles: 140572157 heartbeat IPC: 0.32329 cumulative IPC: 0.321166 (Simulation time: 0 hr 5 min 49 sec) 
Heartbeat CPU 0 instructions: 47000001 cycles: 142699160 heartbeat IPC: 0.470144 cumulative IPC: 0.323394 (Simulation time: 0 hr 5 min 56 sec) 
Heartbeat CPU 0 instructions: 48000000 cycles: 145729753 heartbeat IPC: 0.329968 cumulative IPC: 0.323531 (Simulation time: 0 hr 6 min 3 sec) 
Heartbeat CPU 0 instructions: 49000001 cycles: 147805065 heartbeat IPC: 0.481856 cumulative IPC: 0.325761 (Simulation time: 0 hr 6 min 9 sec) 
Heartbeat CPU 0 instructions: 50000001 cycles: 150857199 heartbeat IPC: 0.32764 cumulative IPC: 0.325799 (Simulation time: 0 hr 6 min 17 sec) 
Heartbeat CPU 0 instructions: 51000002 cycles: 153789251 heartbeat IPC: 0.341058 cumulative IPC: 0.326091 (Simulation time: 0 hr 6 min 24 sec) 
Heartbeat CPU 0 instructions: 52000000 cycles: 157278805 heartbeat IPC: 0.286569 cumulative IPC: 0.325212 (Simulation time: 0 hr 6 min 33 sec) 
Heartbeat CPU 0 instructions: 53000000 cycles: 161482948 heartbeat IPC: 0.237861 cumulative IPC: 0.322931 (Simulation time: 0 hr 6 min 42 sec) 
Heartbeat CPU 0 instructions: 54000003 cycles: 164990449 heartbeat IPC: 0.285104 cumulative IPC: 0.322125 (Simulation time: 0 hr 6 min 50 sec) 
Heartbeat CPU 0 instructions: 55000000 cycles: 168352596 heartbeat IPC: 0.297428 cumulative IPC: 0.32163 (Simulation time: 0 hr 6 min 58 sec) 
Heartbeat CPU 0 instructions: 56000001 cycles: 171982241 heartbeat IPC: 0.275509 cumulative IPC: 0.320654 (Simulation time: 0 hr 7 min 6 sec) 
Heartbeat CPU 0 instructions: 57000002 cycles: 175163335 heartbeat IPC: 0.314358 cumulative IPC: 0.320539 (Simulation time: 0 hr 7 min 14 sec) 
Heartbeat CPU 0 instructions: 58000000 cycles: 177845908 heartbeat IPC: 0.372776 cumulative IPC: 0.321329 (Simulation time: 0 hr 7 min 21 sec) 
Heartbeat CPU 0 instructions: 59000000 cycles: 181256891 heartbeat IPC: 0.293171 cumulative IPC: 0.320798 (Simulation time: 0 hr 7 min 29 sec) 
Heartbeat CPU 0 instructions: 60000002 cycles: 185173383 heartbeat IPC: 0.255331 cumulative IPC: 0.31941 (Simulation time: 0 hr 7 min 37 sec) 
Heartbeat CPU 0 instructions: 61000001 cycles: 189151093 heartbeat IPC: 0.251401 cumulative IPC: 0.317976 (Simulation time: 0 hr 7 min 46 sec) 
Heartbeat CPU 0 instructions: 62000000 cycles: 193104278 heartbeat IPC: 0.25296 cumulative IPC: 0.316642 (Simulation time: 0 hr 7 min 54 sec) 
Heartbeat CPU 0 instructions: 63000002 cycles: 196397079 heartbeat IPC: 0.303693 cumulative IPC: 0.316425 (Simulation time: 0 hr 8 min 2 sec) 
Heartbeat CPU 0 instructions: 64000000 cycles: 199461528 heartbeat IPC: 0.326322 cumulative IPC: 0.316577 (Simulation time: 0 hr 8 min 9 sec) 
Heartbeat CPU 0 instructions: 65000000 cycles: 202018702 heartbeat IPC: 0.391057 cumulative IPC: 0.317522 (Simulation time: 0 hr 8 min 16 sec) 
Heartbeat CPU 0 instructions: 66000000 cycles: 204672759 heartbeat IPC: 0.376782 cumulative IPC: 0.318292 (Simulation time: 0 hr 8 min 23 sec) 
Heartbeat CPU 0 instructions: 67000002 cycles: 207621823 heartbeat IPC: 0.339091 cumulative IPC: 0.318588 (Simulation time: 0 hr 8 min 31 sec) 
Heartbeat CPU 0 instructions: 68000003 cycles: 210522549 heartbeat IPC: 0.344742 cumulative IPC: 0.318949 (Simulation time: 0 hr 8 min 38 sec) 
Heartbeat CPU 0 instructions: 69000001 cycles: 213465723 heartbeat IPC: 0.339769 cumulative IPC: 0.319237 (Simulation time: 0 hr 8 min 45 sec) 
Heartbeat CPU 0 instructions: 70000002 cycles: 215853574 heartbeat IPC: 0.418787 cumulative IPC: 0.320341 (Simulation time: 0 hr 8 min 52 sec) 
Heartbeat CPU 0 instructions: 71000000 cycles: 219104302 heartbeat IPC: 0.307623 cumulative IPC: 0.320152 (Simulation time: 0 hr 9 min 0 sec) 
Heartbeat CPU 0 instructions: 72000001 cycles: 223091594 heartbeat IPC: 0.250797 cumulative IPC: 0.318909 (Simulation time: 0 hr 9 min 8 sec) 
Heartbeat CPU 0 instructions: 73000003 cycles: 226128129 heartbeat IPC: 0.329323 cumulative IPC: 0.31905 (Simulation time: 0 hr 9 min 16 sec) 
Heartbeat CPU 0 instructions: 74000003 cycles: 229166186 heartbeat IPC: 0.329158 cumulative IPC: 0.319184 (Simulation time: 0 hr 9 min 24 sec) 
Heartbeat CPU 0 instructions: 75000003 cycles: 232787963 heartbeat IPC: 0.276108 cumulative IPC: 0.318512 (Simulation time: 0 hr 9 min 32 sec) 
Heartbeat CPU 0 instructions: 76000000 cycles: 236177810 heartbeat IPC: 0.294998 cumulative IPC: 0.318174 (Simulation time: 0 hr 9 min 41 sec) 
Heartbeat CPU 0 instructions: 77000000 cycles: 240715976 heartbeat IPC: 0.220353 cumulative IPC: 0.316326 (Simulation time: 0 hr 9 min 51 sec) 
Heartbeat CPU 0 instructions: 78000001 cycles: 243893501 heartbeat IPC: 0.314711 cumulative IPC: 0.316305 (Simulation time: 0 hr 9 min 59 sec) 
Heartbeat CPU 0 instructions: 79000003 cycles: 247097907 heartbeat IPC: 0.312071 cumulative IPC: 0.31625 (Simulation time: 0 hr 10 min 6 sec) 
Heartbeat CPU 0 instructions: 80000001 cycles: 250029766 heartbeat IPC: 0.34108 cumulative IPC: 0.316542 (Simulation time: 0 hr 10 min 14 sec) 
Heartbeat CPU 0 instructions: 81000000 cycles: 253583268 heartbeat IPC: 0.281412 cumulative IPC: 0.316049 (Simulation time: 0 hr 10 min 23 sec) 
Heartbeat CPU 0 instructions: 82000001 cycles: 257552018 heartbeat IPC: 0.251969 cumulative IPC: 0.31506 (Simulation time: 0 hr 10 min 32 sec) 
Heartbeat CPU 0 instructions: 83000002 cycles: 260511091 heartbeat IPC: 0.337944 cumulative IPC: 0.31532 (Simulation time: 0 hr 10 min 40 sec) 
Heartbeat CPU 0 instructions: 84000002 cycles: 263667367 heartbeat IPC: 0.316829 cumulative IPC: 0.315338 (Simulation time: 0 hr 10 min 48 sec) 
Heartbeat CPU 0 instructions: 85000001 cycles: 266295538 heartbeat IPC: 0.380492 cumulative IPC: 0.315982 (Simulation time: 0 hr 10 min 55 sec) 
Heartbeat CPU 0 instructions: 86000002 cycles: 269218173 heartbeat IPC: 0.342157 cumulative IPC: 0.316267 (Simulation time: 0 hr 11 min 3 sec) 
Heartbeat CPU 0 instructions: 87000002 cycles: 272274532 heartbeat IPC: 0.327187 cumulative IPC: 0.31639 (Simulation time: 0 hr 11 min 10 sec) 
Heartbeat CPU 0 instructions: 88000000 cycles: 275115747 heartbeat IPC: 0.351961 cumulative IPC: 0.316758 (Simulation time: 0 hr 11 min 18 sec) 
Heartbeat CPU 0 instructions: 89000000 cycles: 277539971 heartbeat IPC: 0.412503 cumulative IPC: 0.317595 (Simulation time: 0 hr 11 min 25 sec) 
Heartbeat CPU 0 instructions: 90000000 cycles: 280532647 heartbeat IPC: 0.334149 cumulative IPC: 0.317772 (Simulation time: 0 hr 11 min 32 sec) 
Heartbeat CPU 0 instructions: 91000002 cycles: 283187791 heartbeat IPC: 0.376628 cumulative IPC: 0.318325 (Simulation time: 0 hr 11 min 39 sec) 
Heartbeat CPU 0 instructions: 92000001 cycles: 286520162 heartbeat IPC: 0.300086 cumulative IPC: 0.318112 (Simulation time: 0 hr 11 min 47 sec) 
Heartbeat CPU 0 instructions: 93000003 cycles: 290498395 heartbeat IPC: 0.251368 cumulative IPC: 0.317197 (Simulation time: 0 hr 11 min 56 sec) 
Heartbeat CPU 0 instructions: 94000001 cycles: 293770680 heartbeat IPC: 0.305596 cumulative IPC: 0.317068 (Simulation time: 0 hr 12 min 4 sec) 
Heartbeat CPU 0 instructions: 95000003 cycles: 297297827 heartbeat IPC: 0.283516 cumulative IPC: 0.316669 (Simulation time: 0 hr 12 min 12 sec) 
Heartbeat CPU 0 instructions: 96000001 cycles: 301178160 heartbeat IPC: 0.257709 cumulative IPC: 0.315908 (Simulation time: 0 hr 12 min 21 sec) 
Heartbeat CPU 0 instructions: 97000000 cycles: 303944056 heartbeat IPC: 0.361546 cumulative IPC: 0.316324 (Simulation time: 0 hr 12 min 28 sec) 
Heartbeat CPU 0 instructions: 98000001 cycles: 307648729 heartbeat IPC: 0.26993 cumulative IPC: 0.315765 (Simulation time: 0 hr 12 min 36 sec) 
Heartbeat CPU 0 instructions: 99000000 cycles: 311619995 heartbeat IPC: 0.251809 cumulative IPC: 0.314948 (Simulation time: 0 hr 12 min 45 sec) 
Heartbeat CPU 0 instructions: 100000003 cycles: 314929386 heartbeat IPC: 0.302171 cumulative IPC: 0.314814 (Simulation time: 0 hr 12 min 53 sec) 
Heartbeat CPU 0 instructions: 101000000 cycles: 318077404 heartbeat IPC: 0.317659 cumulative IPC: 0.314842 (Simulation time: 0 hr 13 min 1 sec) 
Heartbeat CPU 0 instructions: 102000000 cycles: 320941471 heartbeat IPC: 0.349154 cumulative IPC: 0.315149 (Simulation time: 0 hr 13 min 8 sec) 
Heartbeat CPU 0 instructions: 103000001 cycles: 323937190 heartbeat IPC: 0.33381 cumulative IPC: 0.315322 (Simulation time: 0 hr 13 min 16 sec) 
Heartbeat CPU 0 instructions: 104000001 cycles: 326831440 heartbeat IPC: 0.345513 cumulative IPC: 0.315589 (Simulation time: 0 hr 13 min 23 sec) 
Heartbeat CPU 0 instructions: 105000002 cycles: 329798038 heartbeat IPC: 0.337087 cumulative IPC: 0.315783 (Simulation time: 0 hr 13 min 31 sec) 
Heartbeat CPU 0 instructions: 106000001 cycles: 332532611 heartbeat IPC: 0.365687 cumulative IPC: 0.316194 (Simulation time: 0 hr 13 min 38 sec) 
Heartbeat CPU 0 instructions: 107000002 cycles: 336099601 heartbeat IPC: 0.280349 cumulative IPC: 0.315813 (Simulation time: 0 hr 13 min 46 sec) 
Heartbeat CPU 0 instructions: 108000002 cycles: 339690963 heartbeat IPC: 0.278446 cumulative IPC: 0.315417 (Simulation time: 0 hr 13 min 55 sec) 
Heartbeat CPU 0 instructions: 109000001 cycles: 343464217 heartbeat IPC: 0.265023 cumulative IPC: 0.314863 (Simulation time: 0 hr 14 min 3 sec) 
Heartbeat CPU 0 instructions: 110000000 cycles: 346373918 heartbeat IPC: 0.343678 cumulative IPC: 0.315105 (Simulation time: 0 hr 14 min 11 sec) 
Heartbeat CPU 0 instructions: 111000002 cycles: 350233142 heartbeat IPC: 0.25912 cumulative IPC: 0.314488 (Simulation time: 0 hr 14 min 19 sec) 
Heartbeat CPU 0 instructions: 112000002 cycles: 353498112 heartbeat IPC: 0.306282 cumulative IPC: 0.314412 (Simulation time: 0 hr 14 min 27 sec) 
Heartbeat CPU 0 instructions: 113000003 cycles: 356353047 heartbeat IPC: 0.350271 cumulative IPC: 0.314699 (Simulation time: 0 hr 14 min 35 sec) 
Heartbeat CPU 0 instructions: 114000000 cycles: 358656332 heartbeat IPC: 0.434161 cumulative IPC: 0.315468 (Simulation time: 0 hr 14 min 42 sec) 
Heartbeat CPU 0 instructions: 115000001 cycles: 361737477 heartbeat IPC: 0.324555 cumulative IPC: 0.315545 (Simulation time: 0 hr 14 min 49 sec) 
Heartbeat CPU 0 instructions: 116000001 cycles: 365400605 heartbeat IPC: 0.272991 cumulative IPC: 0.315118 (Simulation time: 0 hr 14 min 58 sec) 
Heartbeat CPU 0 instructions: 117000001 cycles: 368082479 heartbeat IPC: 0.372874 cumulative IPC: 0.315539 (Simulation time: 0 hr 15 min 5 sec) 
Heartbeat CPU 0 instructions: 118000002 cycles: 370762420 heartbeat IPC: 0.373143 cumulative IPC: 0.315956 (Simulation time: 0 hr 15 min 13 sec) 
Heartbeat CPU 0 instructions: 119000001 cycles: 373750993 heartbeat IPC: 0.334608 cumulative IPC: 0.316105 (Simulation time: 0 hr 15 min 20 sec) 
Heartbeat CPU 0 instructions: 120000000 cycles: 376509335 heartbeat IPC: 0.362536 cumulative IPC: 0.316446 (Simulation time: 0 hr 15 min 28 sec) 
Heartbeat CPU 0 instructions: 121000000 cycles: 379063925 heartbeat IPC: 0.391452 cumulative IPC: 0.316952 (Simulation time: 0 hr 15 min 35 sec) 
Heartbeat CPU 0 instructions: 122000002 cycles: 381821750 heartbeat IPC: 0.362605 cumulative IPC: 0.317282 (Simulation time: 0 hr 15 min 42 sec) 
Heartbeat CPU 0 instructions: 123000003 cycles: 384568897 heartbeat IPC: 0.364014 cumulative IPC: 0.317616 (Simulation time: 0 hr 15 min 50 sec) 
Heartbeat CPU 0 instructions: 124000000 cycles: 387683325 heartbeat IPC: 0.321085 cumulative IPC: 0.317644 (Simulation time: 0 hr 15 min 58 sec) 
Heartbeat CPU 0 instructions: 125000001 cycles: 390426713 heartbeat IPC: 0.364513 cumulative IPC: 0.317974 (Simulation time: 0 hr 16 min 5 sec) 
Heartbeat CPU 0 instructions: 126000000 cycles: 393197344 heartbeat IPC: 0.360928 cumulative IPC: 0.318277 (Simulation time: 0 hr 16 min 13 sec) 
Heartbeat CPU 0 instructions: 127000001 cycles: 395881860 heartbeat IPC: 0.372507 cumulative IPC: 0.318645 (Simulation time: 0 hr 16 min 20 sec) 
Heartbeat CPU 0 instructions: 128000001 cycles: 398708906 heartbeat IPC: 0.353726 cumulative IPC: 0.318894 (Simulation time: 0 hr 16 min 27 sec) 
Heartbeat CPU 0 instructions: 129000002 cycles: 401200663 heartbeat IPC: 0.401324 cumulative IPC: 0.319407 (Simulation time: 0 hr 16 min 34 sec) 
Heartbeat CPU 0 instructions: 130000001 cycles: 403923539 heartbeat IPC: 0.367258 cumulative IPC: 0.31973 (Simulation time: 0 hr 16 min 42 sec) 
Heartbeat CPU 0 instructions: 131000000 cycles: 406691896 heartbeat IPC: 0.361225 cumulative IPC: 0.320013 (Simulation time: 0 hr 16 min 49 sec) 
Heartbeat CPU 0 instructions: 132000000 cycles: 409703033 heartbeat IPC: 0.3321 cumulative IPC: 0.320101 (Simulation time: 0 hr 16 min 57 sec) 
Heartbeat CPU 0 instructions: 133000000 cycles: 412494864 heartbeat IPC: 0.358188 cumulative IPC: 0.32036 (Simulation time: 0 hr 17 min 5 sec) 
Heartbeat CPU 0 instructions: 134000003 cycles: 415709752 heartbeat IPC: 0.311054 cumulative IPC: 0.320287 (Simulation time: 0 hr 17 min 13 sec) 
Heartbeat CPU 0 instructions: 135000002 cycles: 418599345 heartbeat IPC: 0.346069 cumulative IPC: 0.320466 (Simulation time: 0 hr 17 min 21 sec) 
Heartbeat CPU 0 instructions: 136000003 cycles: 421400982 heartbeat IPC: 0.356935 cumulative IPC: 0.320708 (Simulation time: 0 hr 17 min 28 sec) 
Heartbeat CPU 0 instructions: 137000003 cycles: 424289732 heartbeat IPC: 0.34617 cumulative IPC: 0.320882 (Simulation time: 0 hr 17 min 35 sec) 
Heartbeat CPU 0 instructions: 138000001 cycles: 427531905 heartbeat IPC: 0.308434 cumulative IPC: 0.320787 (Simulation time: 0 hr 17 min 43 sec) 
Heartbeat CPU 0 instructions: 139000001 cycles: 430707076 heartbeat IPC: 0.314944 cumulative IPC: 0.320744 (Simulation time: 0 hr 17 min 51 sec) 
Heartbeat CPU 0 instructions: 140000000 cycles: 433648778 heartbeat IPC: 0.339939 cumulative IPC: 0.320875 (Simulation time: 0 hr 17 min 59 sec) 
Heartbeat CPU 0 instructions: 141000002 cycles: 437548313 heartbeat IPC: 0.256441 cumulative IPC: 0.3203 (Simulation time: 0 hr 18 min 8 sec) 
Heartbeat CPU 0 instructions: 142000000 cycles: 441148595 heartbeat IPC: 0.277755 cumulative IPC: 0.319952 (Simulation time: 0 hr 18 min 16 sec) 
Heartbeat CPU 0 instructions: 143000000 cycles: 444488140 heartbeat IPC: 0.299442 cumulative IPC: 0.319798 (Simulation time: 0 hr 18 min 24 sec) 
Heartbeat CPU 0 instructions: 144000001 cycles: 447633239 heartbeat IPC: 0.317955 cumulative IPC: 0.319785 (Simulation time: 0 hr 18 min 32 sec) 
Heartbeat CPU 0 instructions: 145000001 cycles: 450252742 heartbeat IPC: 0.381752 cumulative IPC: 0.320146 (Simulation time: 0 hr 18 min 39 sec) 
Heartbeat CPU 0 instructions: 146000001 cycles: 453780642 heartbeat IPC: 0.283455 cumulative IPC: 0.31986 (Simulation time: 0 hr 18 min 48 sec) 
Heartbeat CPU 0 instructions: 147000003 cycles: 457626648 heartbeat IPC: 0.260011 cumulative IPC: 0.319357 (Simulation time: 0 hr 18 min 56 sec) 
Heartbeat CPU 0 instructions: 148000001 cycles: 461035775 heartbeat IPC: 0.29333 cumulative IPC: 0.319164 (Simulation time: 0 hr 19 min 4 sec) 
Heartbeat CPU 0 instructions: 149000000 cycles: 463987469 heartbeat IPC: 0.338788 cumulative IPC: 0.319289 (Simulation time: 0 hr 19 min 12 sec) 
Heartbeat CPU 0 instructions: 150000003 cycles: 465899486 heartbeat IPC: 0.523009 cumulative IPC: 0.320126 (Simulation time: 0 hr 19 min 18 sec) 
Heartbeat CPU 0 instructions: 151000000 cycles: 469006751 heartbeat IPC: 0.321825 cumulative IPC: 0.320137 (Simulation time: 0 hr 19 min 26 sec) 
Heartbeat CPU 0 instructions: 152000001 cycles: 472659174 heartbeat IPC: 0.273791 cumulative IPC: 0.319779 (Simulation time: 0 hr 19 min 34 sec) 
Heartbeat CPU 0 instructions: 153000000 cycles: 476303893 heartbeat IPC: 0.274369 cumulative IPC: 0.319431 (Simulation time: 0 hr 19 min 43 sec) 
Heartbeat CPU 0 instructions: 154000000 cycles: 479873807 heartbeat IPC: 0.280119 cumulative IPC: 0.319138 (Simulation time: 0 hr 19 min 51 sec) 
Heartbeat CPU 0 instructions: 155000001 cycles: 483470907 heartbeat IPC: 0.278002 cumulative IPC: 0.318832 (Simulation time: 0 hr 20 min 0 sec) 
Heartbeat CPU 0 instructions: 156000003 cycles: 486889751 heartbeat IPC: 0.292497 cumulative IPC: 0.318647 (Simulation time: 0 hr 20 min 8 sec) 
Heartbeat CPU 0 instructions: 157000002 cycles: 490687982 heartbeat IPC: 0.26328 cumulative IPC: 0.318218 (Simulation time: 0 hr 20 min 16 sec) 
Heartbeat CPU 0 instructions: 158000002 cycles: 494619779 heartbeat IPC: 0.254337 cumulative IPC: 0.31771 (Simulation time: 0 hr 20 min 25 sec) 
Heartbeat CPU 0 instructions: 159000002 cycles: 497900084 heartbeat IPC: 0.30485 cumulative IPC: 0.317625 (Simulation time: 0 hr 20 min 33 sec) 
Heartbeat CPU 0 instructions: 160000002 cycles: 500576552 heartbeat IPC: 0.373627 cumulative IPC: 0.317924 (Simulation time: 0 hr 20 min 41 sec) 
Heartbeat CPU 0 instructions: 161000003 cycles: 503645824 heartbeat IPC: 0.32581 cumulative IPC: 0.317973 (Simulation time: 0 hr 20 min 48 sec) 
Heartbeat CPU 0 instructions: 162000000 cycles: 506569762 heartbeat IPC: 0.342003 cumulative IPC: 0.318111 (Simulation time: 0 hr 20 min 56 sec) 
Heartbeat CPU 0 instructions: 163000001 cycles: 509066090 heartbeat IPC: 0.400589 cumulative IPC: 0.318516 (Simulation time: 0 hr 21 min 3 sec) 
Heartbeat CPU 0 instructions: 164000003 cycles: 511659615 heartbeat IPC: 0.385576 cumulative IPC: 0.318856 (Simulation time: 0 hr 21 min 10 sec) 
Heartbeat CPU 0 instructions: 165000000 cycles: 514518310 heartbeat IPC: 0.349809 cumulative IPC: 0.319029 (Simulation time: 0 hr 21 min 17 sec) 
Heartbeat CPU 0 instructions: 166000002 cycles: 517161172 heartbeat IPC: 0.378378 cumulative IPC: 0.319332 (Simulation time: 0 hr 21 min 24 sec) 
Heartbeat CPU 0 instructions: 167000001 cycles: 519893761 heartbeat IPC: 0.365953 cumulative IPC: 0.319577 (Simulation time: 0 hr 21 min 32 sec) 
Heartbeat CPU 0 instructions: 168000000 cycles: 522895335 heartbeat IPC: 0.333158 cumulative IPC: 0.319655 (Simulation time: 0 hr 21 min 39 sec) 
Heartbeat CPU 0 instructions: 169000001 cycles: 526049726 heartbeat IPC: 0.317019 cumulative IPC: 0.31964 (Simulation time: 0 hr 21 min 47 sec) 
Heartbeat CPU 0 instructions: 170000002 cycles: 529602515 heartbeat IPC: 0.281469 cumulative IPC: 0.319383 (Simulation time: 0 hr 21 min 56 sec) 
Heartbeat CPU 0 instructions: 171000002 cycles: 532932115 heartbeat IPC: 0.300336 cumulative IPC: 0.319264 (Simulation time: 0 hr 22 min 3 sec) 
Heartbeat CPU 0 instructions: 172000000 cycles: 536575026 heartbeat IPC: 0.274505 cumulative IPC: 0.31896 (Simulation time: 0 hr 22 min 12 sec) 
Heartbeat CPU 0 instructions: 173000002 cycles: 539919671 heartbeat IPC: 0.298986 cumulative IPC: 0.318836 (Simulation time: 0 hr 22 min 20 sec) 
Heartbeat CPU 0 instructions: 174000000 cycles: 542807367 heartbeat IPC: 0.346296 cumulative IPC: 0.318982 (Simulation time: 0 hr 22 min 28 sec) 
Heartbeat CPU 0 instructions: 175000001 cycles: 545950053 heartbeat IPC: 0.318199 cumulative IPC: 0.318978 (Simulation time: 0 hr 22 min 36 sec) 
Heartbeat CPU 0 instructions: 176000000 cycles: 549071098 heartbeat IPC: 0.320405 cumulative IPC: 0.318986 (Simulation time: 0 hr 22 min 43 sec) 
Heartbeat CPU 0 instructions: 177000002 cycles: 551901925 heartbeat IPC: 0.353254 cumulative IPC: 0.319162 (Simulation time: 0 hr 22 min 51 sec) 
Heartbeat CPU 0 instructions: 178000003 cycles: 554513197 heartbeat IPC: 0.382956 cumulative IPC: 0.319463 (Simulation time: 0 hr 22 min 58 sec) 
Heartbeat CPU 0 instructions: 179000002 cycles: 557278287 heartbeat IPC: 0.361652 cumulative IPC: 0.319672 (Simulation time: 0 hr 23 min 5 sec) 
Heartbeat CPU 0 instructions: 180000003 cycles: 560805620 heartbeat IPC: 0.283501 cumulative IPC: 0.319444 (Simulation time: 0 hr 23 min 13 sec) 
Heartbeat CPU 0 instructions: 181000001 cycles: 563832701 heartbeat IPC: 0.330351 cumulative IPC: 0.319503 (Simulation time: 0 hr 23 min 21 sec) 
Heartbeat CPU 0 instructions: 182000001 cycles: 566961671 heartbeat IPC: 0.319594 cumulative IPC: 0.319504 (Simulation time: 0 hr 23 min 29 sec) 
Heartbeat CPU 0 instructions: 183000001 cycles: 570736924 heartbeat IPC: 0.264883 cumulative IPC: 0.319142 (Simulation time: 0 hr 23 min 38 sec) 
Heartbeat CPU 0 instructions: 184000001 cycles: 574186911 heartbeat IPC: 0.289856 cumulative IPC: 0.318966 (Simulation time: 0 hr 23 min 46 sec) 
Heartbeat CPU 0 instructions: 185000000 cycles: 577262094 heartbeat IPC: 0.325184 cumulative IPC: 0.318999 (Simulation time: 0 hr 23 min 53 sec) 
Heartbeat CPU 0 instructions: 186000003 cycles: 580152021 heartbeat IPC: 0.346031 cumulative IPC: 0.319134 (Simulation time: 0 hr 24 min 1 sec) 
Heartbeat CPU 0 instructions: 187000000 cycles: 582722418 heartbeat IPC: 0.389044 cumulative IPC: 0.319442 (Simulation time: 0 hr 24 min 9 sec) 
Heartbeat CPU 0 instructions: 188000003 cycles: 585767103 heartbeat IPC: 0.328442 cumulative IPC: 0.319489 (Simulation time: 0 hr 24 min 16 sec) 
Heartbeat CPU 0 instructions: 189000000 cycles: 589337519 heartbeat IPC: 0.280079 cumulative IPC: 0.31925 (Simulation time: 0 hr 24 min 25 sec) 
Heartbeat CPU 0 instructions: 190000000 cycles: 592823765 heartbeat IPC: 0.286841 cumulative IPC: 0.31906 (Simulation time: 0 hr 24 min 34 sec) 
Heartbeat CPU 0 instructions: 191000002 cycles: 595887051 heartbeat IPC: 0.326447 cumulative IPC: 0.319098 (Simulation time: 0 hr 24 min 42 sec) 
Heartbeat CPU 0 instructions: 192000000 cycles: 599269116 heartbeat IPC: 0.295677 cumulative IPC: 0.318965 (Simulation time: 0 hr 24 min 50 sec) 
Heartbeat CPU 0 instructions: 193000001 cycles: 603220576 heartbeat IPC: 0.253071 cumulative IPC: 0.318533 (Simulation time: 0 hr 24 min 58 sec) 
Heartbeat CPU 0 instructions: 194000000 cycles: 606315085 heartbeat IPC: 0.323153 cumulative IPC: 0.318557 (Simulation time: 0 hr 25 min 6 sec) 
Heartbeat CPU 0 instructions: 195000000 cycles: 609203599 heartbeat IPC: 0.346199 cumulative IPC: 0.318688 (Simulation time: 0 hr 25 min 14 sec) 
Heartbeat CPU 0 instructions: 196000001 cycles: 612390364 heartbeat IPC: 0.313798 cumulative IPC: 0.318663 (Simulation time: 0 hr 25 min 21 sec) 
Heartbeat CPU 0 instructions: 197000000 cycles: 616066510 heartbeat IPC: 0.272024 cumulative IPC: 0.318384 (Simulation time: 0 hr 25 min 29 sec) 
Heartbeat CPU 0 instructions: 198000000 cycles: 619162943 heartbeat IPC: 0.322952 cumulative IPC: 0.318407 (Simulation time: 0 hr 25 min 37 sec) 
Heartbeat CPU 0 instructions: 199000003 cycles: 621889679 heartbeat IPC: 0.36674 cumulative IPC: 0.318619 (Simulation time: 0 hr 25 min 44 sec) 
Heartbeat CPU 0 instructions: 200000000 cycles: 624408211 heartbeat IPC: 0.397056 cumulative IPC: 0.318936 (Simulation time: 0 hr 25 min 51 sec) 
Heartbeat CPU 0 instructions: 201000000 cycles: 628155484 heartbeat IPC: 0.266861 cumulative IPC: 0.318625 (Simulation time: 0 hr 26 min 0 sec) 
Heartbeat CPU 0 instructions: 202000003 cycles: 631730089 heartbeat IPC: 0.279752 cumulative IPC: 0.318405 (Simulation time: 0 hr 26 min 9 sec) 
Heartbeat CPU 0 instructions: 203000002 cycles: 635580596 heartbeat IPC: 0.259706 cumulative IPC: 0.318049 (Simulation time: 0 hr 26 min 17 sec) 
Heartbeat CPU 0 instructions: 204000001 cycles: 638462812 heartbeat IPC: 0.346955 cumulative IPC: 0.318179 (Simulation time: 0 hr 26 min 25 sec) 
Heartbeat CPU 0 instructions: 205000002 cycles: 642270985 heartbeat IPC: 0.262593 cumulative IPC: 0.31785 (Simulation time: 0 hr 26 min 33 sec) 
Heartbeat CPU 0 instructions: 206000001 cycles: 646155336 heartbeat IPC: 0.257443 cumulative IPC: 0.317486 (Simulation time: 0 hr 26 min 42 sec) 
Heartbeat CPU 0 instructions: 207000001 cycles: 649773683 heartbeat IPC: 0.276369 cumulative IPC: 0.317257 (Simulation time: 0 hr 26 min 50 sec) 
Heartbeat CPU 0 instructions: 208000001 cycles: 653025262 heartbeat IPC: 0.307543 cumulative IPC: 0.317209 (Simulation time: 0 hr 26 min 58 sec) 
Heartbeat CPU 0 instructions: 209000000 cycles: 655632310 heartbeat IPC: 0.383575 cumulative IPC: 0.317473 (Simulation time: 0 hr 27 min 5 sec) 
Heartbeat CPU 0 instructions: 210000002 cycles: 658521191 heartbeat IPC: 0.346155 cumulative IPC: 0.317599 (Simulation time: 0 hr 27 min 13 sec) 
Heartbeat CPU 0 instructions: 211000000 cycles: 661668338 heartbeat IPC: 0.317747 cumulative IPC: 0.317599 (Simulation time: 0 hr 27 min 20 sec) 
Heartbeat CPU 0 instructions: 212000002 cycles: 665845495 heartbeat IPC: 0.239398 cumulative IPC: 0.317108 (Simulation time: 0 hr 27 min 29 sec) 
Heartbeat CPU 0 instructions: 213000003 cycles: 668695025 heartbeat IPC: 0.350935 cumulative IPC: 0.317253 (Simulation time: 0 hr 27 min 36 sec) 
Heartbeat CPU 0 instructions: 214000000 cycles: 671753293 heartbeat IPC: 0.326981 cumulative IPC: 0.317297 (Simulation time: 0 hr 27 min 43 sec) 
Heartbeat CPU 0 instructions: 215000001 cycles: 674657774 heartbeat IPC: 0.344296 cumulative IPC: 0.317413 (Simulation time: 0 hr 27 min 51 sec) 
Heartbeat CPU 0 instructions: 216000001 cycles: 677845898 heartbeat IPC: 0.313664 cumulative IPC: 0.317396 (Simulation time: 0 hr 27 min 58 sec) 
Heartbeat CPU 0 instructions: 217000001 cycles: 680970961 heartbeat IPC: 0.319994 cumulative IPC: 0.317408 (Simulation time: 0 hr 28 min 6 sec) 
Heartbeat CPU 0 instructions: 218000000 cycles: 684647044 heartbeat IPC: 0.272028 cumulative IPC: 0.317164 (Simulation time: 0 hr 28 min 14 sec) 
Heartbeat CPU 0 instructions: 219000001 cycles: 688527953 heartbeat IPC: 0.257672 cumulative IPC: 0.316828 (Simulation time: 0 hr 28 min 22 sec) 
Heartbeat CPU 0 instructions: 220000000 cycles: 692525189 heartbeat IPC: 0.250173 cumulative IPC: 0.316443 (Simulation time: 0 hr 28 min 31 sec) 
Heartbeat CPU 0 instructions: 221000002 cycles: 695840199 heartbeat IPC: 0.301659 cumulative IPC: 0.316373 (Simulation time: 0 hr 28 min 39 sec) 
Heartbeat CPU 0 instructions: 222000001 cycles: 698659742 heartbeat IPC: 0.354667 cumulative IPC: 0.316527 (Simulation time: 0 hr 28 min 46 sec) 
Heartbeat CPU 0 instructions: 223000002 cycles: 701749773 heartbeat IPC: 0.323622 cumulative IPC: 0.316559 (Simulation time: 0 hr 28 min 54 sec) 
Heartbeat CPU 0 instructions: 224000001 cycles: 704596917 heartbeat IPC: 0.351229 cumulative IPC: 0.316699 (Simulation time: 0 hr 29 min 1 sec) 
Heartbeat CPU 0 instructions: 225000001 cycles: 707666958 heartbeat IPC: 0.325729 cumulative IPC: 0.316738 (Simulation time: 0 hr 29 min 9 sec) 
Heartbeat CPU 0 instructions: 226000000 cycles: 710546641 heartbeat IPC: 0.34726 cumulative IPC: 0.316862 (Simulation time: 0 hr 29 min 17 sec) 
Heartbeat CPU 0 instructions: 227000001 cycles: 713385220 heartbeat IPC: 0.352289 cumulative IPC: 0.317003 (Simulation time: 0 hr 29 min 24 sec) 
Heartbeat CPU 0 instructions: 228000001 cycles: 716424576 heartbeat IPC: 0.329017 cumulative IPC: 0.317054 (Simulation time: 0 hr 29 min 32 sec) 
Heartbeat CPU 0 instructions: 229000002 cycles: 719282176 heartbeat IPC: 0.349944 cumulative IPC: 0.317185 (Simulation time: 0 hr 29 min 40 sec) 
Heartbeat CPU 0 instructions: 230000000 cycles: 722073277 heartbeat IPC: 0.358281 cumulative IPC: 0.317344 (Simulation time: 0 hr 29 min 47 sec) 
Heartbeat CPU 0 instructions: 231000000 cycles: 725108549 heartbeat IPC: 0.32946 cumulative IPC: 0.317394 (Simulation time: 0 hr 29 min 55 sec) 
Heartbeat CPU 0 instructions: 232000002 cycles: 728411319 heartbeat IPC: 0.302777 cumulative IPC: 0.317328 (Simulation time: 0 hr 30 min 3 sec) 
Heartbeat CPU 0 instructions: 233000000 cycles: 732252691 heartbeat IPC: 0.260323 cumulative IPC: 0.317029 (Simulation time: 0 hr 30 min 12 sec) 
Heartbeat CPU 0 instructions: 234000000 cycles: 735896650 heartbeat IPC: 0.274427 cumulative IPC: 0.316818 (Simulation time: 0 hr 30 min 20 sec) 
Heartbeat CPU 0 instructions: 235000000 cycles: 738622487 heartbeat IPC: 0.36686 cumulative IPC: 0.317002 (Simulation time: 0 hr 30 min 28 sec) 
Heartbeat CPU 0 instructions: 236000002 cycles: 741653090 heartbeat IPC: 0.329968 cumulative IPC: 0.317055 (Simulation time: 0 hr 30 min 35 sec) 
Heartbeat CPU 0 instructions: 237000002 cycles: 744928463 heartbeat IPC: 0.305309 cumulative IPC: 0.317004 (Simulation time: 0 hr 30 min 43 sec) 
Heartbeat CPU 0 instructions: 238000000 cycles: 747833064 heartbeat IPC: 0.344281 cumulative IPC: 0.31711 (Simulation time: 0 hr 30 min 50 sec) 
Heartbeat CPU 0 instructions: 239000002 cycles: 750697919 heartbeat IPC: 0.349059 cumulative IPC: 0.317232 (Simulation time: 0 hr 30 min 58 sec) 
Heartbeat CPU 0 instructions: 240000001 cycles: 753480974 heartbeat IPC: 0.359317 cumulative IPC: 0.317387 (Simulation time: 0 hr 31 min 5 sec) 
Heartbeat CPU 0 instructions: 241000000 cycles: 756864488 heartbeat IPC: 0.29555 cumulative IPC: 0.31729 (Simulation time: 0 hr 31 min 13 sec) 
Heartbeat CPU 0 instructions: 242000000 cycles: 759902507 heartbeat IPC: 0.329162 cumulative IPC: 0.317337 (Simulation time: 0 hr 31 min 21 sec) 
Heartbeat CPU 0 instructions: 243000003 cycles: 762852299 heartbeat IPC: 0.339008 cumulative IPC: 0.317421 (Simulation time: 0 hr 31 min 29 sec) 
Heartbeat CPU 0 instructions: 244000002 cycles: 766631522 heartbeat IPC: 0.264604 cumulative IPC: 0.31716 (Simulation time: 0 hr 31 min 38 sec) 
Heartbeat CPU 0 instructions: 245000000 cycles: 770229148 heartbeat IPC: 0.277961 cumulative IPC: 0.316977 (Simulation time: 0 hr 31 min 46 sec) 
Heartbeat CPU 0 instructions: 246000003 cycles: 773164724 heartbeat IPC: 0.34065 cumulative IPC: 0.317067 (Simulation time: 0 hr 31 min 54 sec) 
Heartbeat CPU 0 instructions: 247000000 cycles: 776192398 heartbeat IPC: 0.330286 cumulative IPC: 0.317119 (Simulation time: 0 hr 32 min 1 sec) 
Heartbeat CPU 0 instructions: 248000000 cycles: 778735369 heartbeat IPC: 0.393241 cumulative IPC: 0.317367 (Simulation time: 0 hr 32 min 9 sec) 
Heartbeat CPU 0 instructions: 249000000 cycles: 781543210 heartbeat IPC: 0.356146 cumulative IPC: 0.317507 (Simulation time: 0 hr 32 min 17 sec) 
Heartbeat CPU 0 instructions: 250000000 cycles: 784981784 heartbeat IPC: 0.290818 cumulative IPC: 0.31739 (Simulation time: 0 hr 32 min 25 sec) 
Heartbeat CPU 0 instructions: 251000002 cycles: 788527228 heartbeat IPC: 0.282053 cumulative IPC: 0.317231 (Simulation time: 0 hr 32 min 33 sec) 
Heartbeat CPU 0 instructions: 252000001 cycles: 791707234 heartbeat IPC: 0.314465 cumulative IPC: 0.31722 (Simulation time: 0 hr 32 min 41 sec) 
Heartbeat CPU 0 instructions: 253000000 cycles: 794636988 heartbeat IPC: 0.341325 cumulative IPC: 0.317309 (Simulation time: 0 hr 32 min 49 sec) 
Heartbeat CPU 0 instructions: 254000001 cycles: 798839356 heartbeat IPC: 0.237961 cumulative IPC: 0.316891 (Simulation time: 0 hr 32 min 57 sec) 
Heartbeat CPU 0 instructions: 255000000 cycles: 801992204 heartbeat IPC: 0.317173 cumulative IPC: 0.316892 (Simulation time: 0 hr 33 min 5 sec) 
Heartbeat CPU 0 instructions: 256000000 cycles: 805102359 heartbeat IPC: 0.321527 cumulative IPC: 0.31691 (Simulation time: 0 hr 33 min 13 sec) 
Heartbeat CPU 0 instructions: 257000003 cycles: 808215689 heartbeat IPC: 0.3212 cumulative IPC: 0.316927 (Simulation time: 0 hr 33 min 21 sec) 
Heartbeat CPU 0 instructions: 258000002 cycles: 811603267 heartbeat IPC: 0.295196 cumulative IPC: 0.316836 (Simulation time: 0 hr 33 min 29 sec) 
Heartbeat CPU 0 instructions: 259000000 cycles: 814818600 heartbeat IPC: 0.311009 cumulative IPC: 0.316813 (Simulation time: 0 hr 33 min 37 sec) 
Heartbeat CPU 0 instructions: 260000002 cycles: 817745802 heartbeat IPC: 0.341624 cumulative IPC: 0.316902 (Simulation time: 0 hr 33 min 45 sec) 
Heartbeat CPU 0 instructions: 261000000 cycles: 821454302 heartbeat IPC: 0.26965 cumulative IPC: 0.316688 (Simulation time: 0 hr 33 min 54 sec) 
Heartbeat CPU 0 instructions: 262000002 cycles: 825252990 heartbeat IPC: 0.263249 cumulative IPC: 0.316442 (Simulation time: 0 hr 34 min 2 sec) 
Heartbeat CPU 0 instructions: 263000001 cycles: 828407988 heartbeat IPC: 0.316957 cumulative IPC: 0.316444 (Simulation time: 0 hr 34 min 10 sec) 
Heartbeat CPU 0 instructions: 264000000 cycles: 831914239 heartbeat IPC: 0.285205 cumulative IPC: 0.316312 (Simulation time: 0 hr 34 min 18 sec) 
Heartbeat CPU 0 instructions: 265000001 cycles: 835280393 heartbeat IPC: 0.297075 cumulative IPC: 0.316235 (Simulation time: 0 hr 34 min 26 sec) 
Heartbeat CPU 0 instructions: 266000002 cycles: 838029627 heartbeat IPC: 0.363738 cumulative IPC: 0.316391 (Simulation time: 0 hr 34 min 34 sec) 
Heartbeat CPU 0 instructions: 267000003 cycles: 841251593 heartbeat IPC: 0.31037 cumulative IPC: 0.316368 (Simulation time: 0 hr 34 min 42 sec) 
Heartbeat CPU 0 instructions: 268000003 cycles: 844932160 heartbeat IPC: 0.271697 cumulative IPC: 0.316173 (Simulation time: 0 hr 34 min 50 sec) 
Heartbeat CPU 0 instructions: 269000002 cycles: 848936104 heartbeat IPC: 0.249753 cumulative IPC: 0.31586 (Simulation time: 0 hr 34 min 59 sec) 
Heartbeat CPU 0 instructions: 270000001 cycles: 852909516 heartbeat IPC: 0.251673 cumulative IPC: 0.31556 (Simulation time: 0 hr 35 min 9 sec) 
Heartbeat CPU 0 instructions: 271000001 cycles: 856411057 heartbeat IPC: 0.285589 cumulative IPC: 0.315438 (Simulation time: 0 hr 35 min 16 sec) 
Heartbeat CPU 0 instructions: 272000002 cycles: 859246998 heartbeat IPC: 0.352617 cumulative IPC: 0.315561 (Simulation time: 0 hr 35 min 23 sec) 
Heartbeat CPU 0 instructions: 273000001 cycles: 862114717 heartbeat IPC: 0.348709 cumulative IPC: 0.315671 (Simulation time: 0 hr 35 min 31 sec) 
Heartbeat CPU 0 instructions: 274000000 cycles: 864590392 heartbeat IPC: 0.40393 cumulative IPC: 0.315924 (Simulation time: 0 hr 35 min 38 sec) 
Heartbeat CPU 0 instructions: 275000000 cycles: 867420615 heartbeat IPC: 0.353329 cumulative IPC: 0.316046 (Simulation time: 0 hr 35 min 45 sec) 
Heartbeat CPU 0 instructions: 276000000 cycles: 870189050 heartbeat IPC: 0.361215 cumulative IPC: 0.31619 (Simulation time: 0 hr 35 min 53 sec) 
Heartbeat CPU 0 instructions: 277000001 cycles: 872898033 heartbeat IPC: 0.369143 cumulative IPC: 0.316354 (Simulation time: 0 hr 36 min 0 sec) 
Heartbeat CPU 0 instructions: 278000002 cycles: 875648054 heartbeat IPC: 0.363634 cumulative IPC: 0.316503 (Simulation time: 0 hr 36 min 7 sec) 
Heartbeat CPU 0 instructions: 279000000 cycles: 878219818 heartbeat IPC: 0.388837 cumulative IPC: 0.316715 (Simulation time: 0 hr 36 min 14 sec) 
Heartbeat CPU 0 instructions: 280000003 cycles: 882202699 heartbeat IPC: 0.251075 cumulative IPC: 0.316418 (Simulation time: 0 hr 36 min 23 sec) 
Heartbeat CPU 0 instructions: 281000003 cycles: 886200022 heartbeat IPC: 0.250167 cumulative IPC: 0.316119 (Simulation time: 0 hr 36 min 32 sec) 
Heartbeat CPU 0 instructions: 282000002 cycles: 890633889 heartbeat IPC: 0.225537 cumulative IPC: 0.315668 (Simulation time: 0 hr 36 min 41 sec) 
Heartbeat CPU 0 instructions: 283000002 cycles: 894046480 heartbeat IPC: 0.293032 cumulative IPC: 0.315581 (Simulation time: 0 hr 36 min 49 sec) 
Heartbeat CPU 0 instructions: 284000000 cycles: 897650932 heartbeat IPC: 0.277434 cumulative IPC: 0.315428 (Simulation time: 0 hr 36 min 57 sec) 
Heartbeat CPU 0 instructions: 285000001 cycles: 901283717 heartbeat IPC: 0.275271 cumulative IPC: 0.315266 (Simulation time: 0 hr 37 min 6 sec) 
Heartbeat CPU 0 instructions: 286000000 cycles: 904474571 heartbeat IPC: 0.313395 cumulative IPC: 0.31526 (Simulation time: 0 hr 37 min 13 sec) 
Heartbeat CPU 0 instructions: 287000000 cycles: 907108152 heartbeat IPC: 0.379711 cumulative IPC: 0.315447 (Simulation time: 0 hr 37 min 21 sec) 
Heartbeat CPU 0 instructions: 288000001 cycles: 910440569 heartbeat IPC: 0.300083 cumulative IPC: 0.315391 (Simulation time: 0 hr 37 min 29 sec) 
Heartbeat CPU 0 instructions: 289000000 cycles: 913942011 heartbeat IPC: 0.285596 cumulative IPC: 0.315276 (Simulation time: 0 hr 37 min 37 sec) 
Heartbeat CPU 0 instructions: 290000001 cycles: 918163216 heartbeat IPC: 0.236899 cumulative IPC: 0.314916 (Simulation time: 0 hr 37 min 46 sec) 
Heartbeat CPU 0 instructions: 291000000 cycles: 922305849 heartbeat IPC: 0.241392 cumulative IPC: 0.314585 (Simulation time: 0 hr 37 min 55 sec) 
Heartbeat CPU 0 instructions: 292000003 cycles: 925653511 heartbeat IPC: 0.298717 cumulative IPC: 0.314528 (Simulation time: 0 hr 38 min 3 sec) 
Heartbeat CPU 0 instructions: 293000000 cycles: 929062945 heartbeat IPC: 0.293303 cumulative IPC: 0.31445 (Simulation time: 0 hr 38 min 11 sec) 
Heartbeat CPU 0 instructions: 294000003 cycles: 932192111 heartbeat IPC: 0.319575 cumulative IPC: 0.314467 (Simulation time: 0 hr 38 min 18 sec) 
Heartbeat CPU 0 instructions: 295000000 cycles: 935122322 heartbeat IPC: 0.341271 cumulative IPC: 0.314551 (Simulation time: 0 hr 38 min 26 sec) 
Heartbeat CPU 0 instructions: 296000000 cycles: 938928400 heartbeat IPC: 0.262738 cumulative IPC: 0.314341 (Simulation time: 0 hr 38 min 35 sec) 
Heartbeat CPU 0 instructions: 297000000 cycles: 942309323 heartbeat IPC: 0.295777 cumulative IPC: 0.314275 (Simulation time: 0 hr 38 min 43 sec) 
Heartbeat CPU 0 instructions: 298000001 cycles: 944661179 heartbeat IPC: 0.425197 cumulative IPC: 0.314551 (Simulation time: 0 hr 38 min 50 sec) 
Heartbeat CPU 0 instructions: 299000003 cycles: 947664029 heartbeat IPC: 0.333018 cumulative IPC: 0.314609 (Simulation time: 0 hr 38 min 58 sec) 
Heartbeat CPU 0 instructions: 300000000 cycles: 950207598 heartbeat IPC: 0.393147 cumulative IPC: 0.31482 (Simulation time: 0 hr 39 min 5 sec) 
Heartbeat CPU 0 instructions: 301000001 cycles: 952976044 heartbeat IPC: 0.361214 cumulative IPC: 0.314955 (Simulation time: 0 hr 39 min 12 sec) 
Heartbeat CPU 0 instructions: 302000002 cycles: 956293447 heartbeat IPC: 0.301441 cumulative IPC: 0.314908 (Simulation time: 0 hr 39 min 20 sec) 
Heartbeat CPU 0 instructions: 303000003 cycles: 959973652 heartbeat IPC: 0.271724 cumulative IPC: 0.314742 (Simulation time: 0 hr 39 min 28 sec) 
Heartbeat CPU 0 instructions: 304000000 cycles: 963400733 heartbeat IPC: 0.291793 cumulative IPC: 0.31466 (Simulation time: 0 hr 39 min 36 sec) 
Heartbeat CPU 0 instructions: 305000002 cycles: 966418852 heartbeat IPC: 0.331333 cumulative IPC: 0.314712 (Simulation time: 0 hr 39 min 44 sec) 
Heartbeat CPU 0 instructions: 306000001 cycles: 968893598 heartbeat IPC: 0.404081 cumulative IPC: 0.314941 (Simulation time: 0 hr 39 min 51 sec) 
Heartbeat CPU 0 instructions: 307000000 cycles: 971649828 heartbeat IPC: 0.362814 cumulative IPC: 0.315077 (Simulation time: 0 hr 39 min 58 sec) 
Heartbeat CPU 0 instructions: 308000000 cycles: 974849908 heartbeat IPC: 0.312492 cumulative IPC: 0.315068 (Simulation time: 0 hr 40 min 5 sec) 
Heartbeat CPU 0 instructions: 309000002 cycles: 977722603 heartbeat IPC: 0.348106 cumulative IPC: 0.315165 (Simulation time: 0 hr 40 min 12 sec) 
Heartbeat CPU 0 instructions: 310000000 cycles: 980048026 heartbeat IPC: 0.430028 cumulative IPC: 0.315438 (Simulation time: 0 hr 40 min 19 sec) 
Heartbeat CPU 0 instructions: 311000000 cycles: 983793062 heartbeat IPC: 0.26702 cumulative IPC: 0.315254 (Simulation time: 0 hr 40 min 28 sec) 
Heartbeat CPU 0 instructions: 312000000 cycles: 987538252 heartbeat IPC: 0.267009 cumulative IPC: 0.315071 (Simulation time: 0 hr 40 min 37 sec) 
Heartbeat CPU 0 instructions: 313000001 cycles: 992028999 heartbeat IPC: 0.22268 cumulative IPC: 0.314652 (Simulation time: 0 hr 40 min 46 sec) 
Heartbeat CPU 0 instructions: 314000003 cycles: 996384545 heartbeat IPC: 0.229593 cumulative IPC: 0.31428 (Simulation time: 0 hr 40 min 55 sec) 
Heartbeat CPU 0 instructions: 315000000 cycles: 1000652168 heartbeat IPC: 0.234322 cumulative IPC: 0.313939 (Simulation time: 0 hr 41 min 4 sec) 
Heartbeat CPU 0 instructions: 316000000 cycles: 1004012622 heartbeat IPC: 0.297579 cumulative IPC: 0.313884 (Simulation time: 0 hr 41 min 12 sec) 
Heartbeat CPU 0 instructions: 317000000 cycles: 1007552185 heartbeat IPC: 0.282521 cumulative IPC: 0.313774 (Simulation time: 0 hr 41 min 20 sec) 
Heartbeat CPU 0 instructions: 318000000 cycles: 1010653187 heartbeat IPC: 0.322476 cumulative IPC: 0.313801 (Simulation time: 0 hr 41 min 28 sec) 
Heartbeat CPU 0 instructions: 319000000 cycles: 1013963231 heartbeat IPC: 0.302111 cumulative IPC: 0.313763 (Simulation time: 0 hr 41 min 36 sec) 
Heartbeat CPU 0 instructions: 320000002 cycles: 1017989147 heartbeat IPC: 0.248391 cumulative IPC: 0.313504 (Simulation time: 0 hr 41 min 45 sec) 
Heartbeat CPU 0 instructions: 321000000 cycles: 1021172689 heartbeat IPC: 0.314115 cumulative IPC: 0.313506 (Simulation time: 0 hr 41 min 52 sec) 
Heartbeat CPU 0 instructions: 322000001 cycles: 1024330154 heartbeat IPC: 0.31671 cumulative IPC: 0.313516 (Simulation time: 0 hr 42 min 0 sec) 
Heartbeat CPU 0 instructions: 323000002 cycles: 1027790634 heartbeat IPC: 0.288978 cumulative IPC: 0.313433 (Simulation time: 0 hr 42 min 9 sec) 
Heartbeat CPU 0 instructions: 324000000 cycles: 1030366612 heartbeat IPC: 0.388201 cumulative IPC: 0.31362 (Simulation time: 0 hr 42 min 16 sec) 
Heartbeat CPU 0 instructions: 325000003 cycles: 1034156356 heartbeat IPC: 0.263871 cumulative IPC: 0.313438 (Simulation time: 0 hr 42 min 25 sec) 
Heartbeat CPU 0 instructions: 326000000 cycles: 1037733317 heartbeat IPC: 0.279566 cumulative IPC: 0.313321 (Simulation time: 0 hr 42 min 34 sec) 
Heartbeat CPU 0 instructions: 327000002 cycles: 1040501663 heartbeat IPC: 0.361227 cumulative IPC: 0.313448 (Simulation time: 0 hr 42 min 42 sec) 
Heartbeat CPU 0 instructions: 328000000 cycles: 1043267902 heartbeat IPC: 0.361501 cumulative IPC: 0.313576 (Simulation time: 0 hr 42 min 50 sec) 
Heartbeat CPU 0 instructions: 329000000 cycles: 1045960810 heartbeat IPC: 0.371346 cumulative IPC: 0.313725 (Simulation time: 0 hr 42 min 57 sec) 
Heartbeat CPU 0 instructions: 330000000 cycles: 1048917117 heartbeat IPC: 0.33826 cumulative IPC: 0.313794 (Simulation time: 0 hr 43 min 5 sec) 
Heartbeat CPU 0 instructions: 331000001 cycles: 1052115776 heartbeat IPC: 0.312631 cumulative IPC: 0.31379 (Simulation time: 0 hr 43 min 13 sec) 
Heartbeat CPU 0 instructions: 332000000 cycles: 1054634119 heartbeat IPC: 0.397086 cumulative IPC: 0.313989 (Simulation time: 0 hr 43 min 20 sec) 
Heartbeat CPU 0 instructions: 333000001 cycles: 1057295975 heartbeat IPC: 0.375678 cumulative IPC: 0.314145 (Simulation time: 0 hr 43 min 28 sec) 
Heartbeat CPU 0 instructions: 334000000 cycles: 1060921833 heartbeat IPC: 0.275797 cumulative IPC: 0.314013 (Simulation time: 0 hr 43 min 36 sec) 
Heartbeat CPU 0 instructions: 335000001 cycles: 1064516425 heartbeat IPC: 0.278196 cumulative IPC: 0.313892 (Simulation time: 0 hr 43 min 44 sec) 
Heartbeat CPU 0 instructions: 336000000 cycles: 1068760743 heartbeat IPC: 0.235609 cumulative IPC: 0.313581 (Simulation time: 0 hr 43 min 53 sec) 
Heartbeat CPU 0 instructions: 337000000 cycles: 1072120347 heartbeat IPC: 0.297654 cumulative IPC: 0.313532 (Simulation time: 0 hr 44 min 1 sec) 
Heartbeat CPU 0 instructions: 338000001 cycles: 1075122633 heartbeat IPC: 0.33308 cumulative IPC: 0.313586 (Simulation time: 0 hr 44 min 8 sec) 
Heartbeat CPU 0 instructions: 339000000 cycles: 1077944026 heartbeat IPC: 0.354434 cumulative IPC: 0.313693 (Simulation time: 0 hr 44 min 16 sec) 
Heartbeat CPU 0 instructions: 340000001 cycles: 1081270671 heartbeat IPC: 0.300603 cumulative IPC: 0.313653 (Simulation time: 0 hr 44 min 24 sec) 
Heartbeat CPU 0 instructions: 341000000 cycles: 1084053537 heartbeat IPC: 0.359341 cumulative IPC: 0.31377 (Simulation time: 0 hr 44 min 31 sec) 
Heartbeat CPU 0 instructions: 342000001 cycles: 1087367290 heartbeat IPC: 0.301773 cumulative IPC: 0.313734 (Simulation time: 0 hr 44 min 39 sec) 
Heartbeat CPU 0 instructions: 343000000 cycles: 1090159865 heartbeat IPC: 0.358092 cumulative IPC: 0.313847 (Simulation time: 0 hr 44 min 46 sec) 
Heartbeat CPU 0 instructions: 344000001 cycles: 1094156257 heartbeat IPC: 0.250226 cumulative IPC: 0.313615 (Simulation time: 0 hr 44 min 55 sec) 
Heartbeat CPU 0 instructions: 345000001 cycles: 1098709301 heartbeat IPC: 0.219633 cumulative IPC: 0.313225 (Simulation time: 0 hr 45 min 4 sec) 
Heartbeat CPU 0 instructions: 346000000 cycles: 1101823897 heartbeat IPC: 0.321069 cumulative IPC: 0.313247 (Simulation time: 0 hr 45 min 11 sec) 
Heartbeat CPU 0 instructions: 347000003 cycles: 1105025534 heartbeat IPC: 0.312341 cumulative IPC: 0.313245 (Simulation time: 0 hr 45 min 19 sec) 
Heartbeat CPU 0 instructions: 348000002 cycles: 1108124519 heartbeat IPC: 0.322686 cumulative IPC: 0.313271 (Simulation time: 0 hr 45 min 27 sec) 
Heartbeat CPU 0 instructions: 349000001 cycles: 1111512643 heartbeat IPC: 0.295148 cumulative IPC: 0.313216 (Simulation time: 0 hr 45 min 35 sec) 
Heartbeat CPU 0 instructions: 350000003 cycles: 1115366647 heartbeat IPC: 0.259471 cumulative IPC: 0.31303 (Simulation time: 0 hr 45 min 44 sec) 
Heartbeat CPU 0 instructions: 351000003 cycles: 1118518423 heartbeat IPC: 0.317281 cumulative IPC: 0.313042 (Simulation time: 0 hr 45 min 52 sec) 
Heartbeat CPU 0 instructions: 352000000 cycles: 1122104800 heartbeat IPC: 0.278832 cumulative IPC: 0.312933 (Simulation time: 0 hr 46 min 0 sec) 
Heartbeat CPU 0 instructions: 353000002 cycles: 1124810926 heartbeat IPC: 0.369533 cumulative IPC: 0.313069 (Simulation time: 0 hr 46 min 7 sec) 
Heartbeat CPU 0 instructions: 354000000 cycles: 1128261514 heartbeat IPC: 0.289805 cumulative IPC: 0.312998 (Simulation time: 0 hr 46 min 15 sec) 
Heartbeat CPU 0 instructions: 355000000 cycles: 1131868369 heartbeat IPC: 0.27725 cumulative IPC: 0.312884 (Simulation time: 0 hr 46 min 23 sec) 
Heartbeat CPU 0 instructions: 356000000 cycles: 1134792957 heartbeat IPC: 0.341929 cumulative IPC: 0.312959 (Simulation time: 0 hr 46 min 30 sec) 
Heartbeat CPU 0 instructions: 357000002 cycles: 1138062247 heartbeat IPC: 0.305877 cumulative IPC: 0.312938 (Simulation time: 0 hr 46 min 38 sec) 
Heartbeat CPU 0 instructions: 358000000 cycles: 1140709393 heartbeat IPC: 0.377765 cumulative IPC: 0.313089 (Simulation time: 0 hr 46 min 45 sec) 
Heartbeat CPU 0 instructions: 359000000 cycles: 1144264567 heartbeat IPC: 0.28128 cumulative IPC: 0.31299 (Simulation time: 0 hr 46 min 54 sec) 
Heartbeat CPU 0 instructions: 360000000 cycles: 1147598092 heartbeat IPC: 0.299983 cumulative IPC: 0.312952 (Simulation time: 0 hr 47 min 1 sec) 
Heartbeat CPU 0 instructions: 361000001 cycles: 1150492015 heartbeat IPC: 0.345552 cumulative IPC: 0.313034 (Simulation time: 0 hr 47 min 9 sec) 
Heartbeat CPU 0 instructions: 362000003 cycles: 1153168220 heartbeat IPC: 0.373664 cumulative IPC: 0.313175 (Simulation time: 0 hr 47 min 16 sec) 
Heartbeat CPU 0 instructions: 363000000 cycles: 1155852993 heartbeat IPC: 0.37247 cumulative IPC: 0.313313 (Simulation time: 0 hr 47 min 23 sec) 
Heartbeat CPU 0 instructions: 364000000 cycles: 1158251780 heartbeat IPC: 0.416877 cumulative IPC: 0.313527 (Simulation time: 0 hr 47 min 30 sec) 
Heartbeat CPU 0 instructions: 365000002 cycles: 1162196107 heartbeat IPC: 0.253529 cumulative IPC: 0.313324 (Simulation time: 0 hr 47 min 39 sec) 
Heartbeat CPU 0 instructions: 366000002 cycles: 1165967284 heartbeat IPC: 0.265169 cumulative IPC: 0.313168 (Simulation time: 0 hr 47 min 47 sec) 
Heartbeat CPU 0 instructions: 367000001 cycles: 1168872242 heartbeat IPC: 0.344239 cumulative IPC: 0.313245 (Simulation time: 0 hr 47 min 55 sec) 
Heartbeat CPU 0 instructions: 368000002 cycles: 1172004996 heartbeat IPC: 0.319208 cumulative IPC: 0.313261 (Simulation time: 0 hr 48 min 2 sec) 
Heartbeat CPU 0 instructions: 369000003 cycles: 1175021330 heartbeat IPC: 0.331529 cumulative IPC: 0.313308 (Simulation time: 0 hr 48 min 10 sec) 
Heartbeat CPU 0 instructions: 370000000 cycles: 1178322687 heartbeat IPC: 0.302905 cumulative IPC: 0.313279 (Simulation time: 0 hr 48 min 17 sec) 
Heartbeat CPU 0 instructions: 371000002 cycles: 1181324129 heartbeat IPC: 0.333174 cumulative IPC: 0.313329 (Simulation time: 0 hr 48 min 25 sec) 
Heartbeat CPU 0 instructions: 372000002 cycles: 1184545317 heartbeat IPC: 0.310444 cumulative IPC: 0.313321 (Simulation time: 0 hr 48 min 32 sec) 
Heartbeat CPU 0 instructions: 373000000 cycles: 1188421186 heartbeat IPC: 0.258006 cumulative IPC: 0.313141 (Simulation time: 0 hr 48 min 40 sec) 
Heartbeat CPU 0 instructions: 374000000 cycles: 1192862059 heartbeat IPC: 0.225181 cumulative IPC: 0.312813 (Simulation time: 0 hr 48 min 49 sec) 
Heartbeat CPU 0 instructions: 375000000 cycles: 1196461632 heartbeat IPC: 0.277811 cumulative IPC: 0.312708 (Simulation time: 0 hr 48 min 57 sec) 
Heartbeat CPU 0 instructions: 376000003 cycles: 1200221159 heartbeat IPC: 0.265992 cumulative IPC: 0.312562 (Simulation time: 0 hr 49 min 5 sec) 
Heartbeat CPU 0 instructions: 377000002 cycles: 1202971702 heartbeat IPC: 0.363564 cumulative IPC: 0.312678 (Simulation time: 0 hr 49 min 13 sec) 
Heartbeat CPU 0 instructions: 378000000 cycles: 1206525253 heartbeat IPC: 0.281408 cumulative IPC: 0.312586 (Simulation time: 0 hr 49 min 22 sec) 
Heartbeat CPU 0 instructions: 379000001 cycles: 1210350592 heartbeat IPC: 0.261415 cumulative IPC: 0.312424 (Simulation time: 0 hr 49 min 31 sec) 
Heartbeat CPU 0 instructions: 380000002 cycles: 1213109151 heartbeat IPC: 0.362508 cumulative IPC: 0.312538 (Simulation time: 0 hr 49 min 38 sec) 
Heartbeat CPU 0 instructions: 381000001 cycles: 1216822006 heartbeat IPC: 0.269334 cumulative IPC: 0.312406 (Simulation time: 0 hr 49 min 46 sec) 
Heartbeat CPU 0 instructions: 382000000 cycles: 1219501485 heartbeat IPC: 0.373206 cumulative IPC: 0.31254 (Simulation time: 0 hr 49 min 53 sec) 
Heartbeat CPU 0 instructions: 383000001 cycles: 1223316965 heartbeat IPC: 0.26209 cumulative IPC: 0.312383 (Simulation time: 0 hr 50 min 2 sec) 
Heartbeat CPU 0 instructions: 384000001 cycles: 1226770635 heartbeat IPC: 0.289547 cumulative IPC: 0.312318 (Simulation time: 0 hr 50 min 10 sec) 
Heartbeat CPU 0 instructions: 385000000 cycles: 1230010167 heartbeat IPC: 0.308686 cumulative IPC: 0.312309 (Simulation time: 0 hr 50 min 17 sec) 
Heartbeat CPU 0 instructions: 386000003 cycles: 1232932784 heartbeat IPC: 0.34216 cumulative IPC: 0.31238 (Simulation time: 0 hr 50 min 25 sec) 
Heartbeat CPU 0 instructions: 387000000 cycles: 1235939088 heartbeat IPC: 0.332633 cumulative IPC: 0.312429 (Simulation time: 0 hr 50 min 32 sec) 
Heartbeat CPU 0 instructions: 388000003 cycles: 1239430748 heartbeat IPC: 0.286398 cumulative IPC: 0.312355 (Simulation time: 0 hr 50 min 41 sec) 
Heartbeat CPU 0 instructions: 389000001 cycles: 1242398701 heartbeat IPC: 0.336932 cumulative IPC: 0.312414 (Simulation time: 0 hr 50 min 49 sec) 
Heartbeat CPU 0 instructions: 390000001 cycles: 1245361717 heartbeat IPC: 0.337494 cumulative IPC: 0.312474 (Simulation time: 0 hr 50 min 56 sec) 
Heartbeat CPU 0 instructions: 391000003 cycles: 1249345396 heartbeat IPC: 0.251025 cumulative IPC: 0.312278 (Simulation time: 0 hr 51 min 5 sec) 
Heartbeat CPU 0 instructions: 392000000 cycles: 1253376457 heartbeat IPC: 0.248073 cumulative IPC: 0.312071 (Simulation time: 0 hr 51 min 13 sec) 
Heartbeat CPU 0 instructions: 393000003 cycles: 1256666566 heartbeat IPC: 0.303942 cumulative IPC: 0.31205 (Simulation time: 0 hr 51 min 21 sec) 
Heartbeat CPU 0 instructions: 394000003 cycles: 1259671236 heartbeat IPC: 0.332815 cumulative IPC: 0.3121 (Simulation time: 0 hr 51 min 29 sec) 
Heartbeat CPU 0 instructions: 395000001 cycles: 1262288431 heartbeat IPC: 0.382088 cumulative IPC: 0.312245 (Simulation time: 0 hr 51 min 36 sec) 
Heartbeat CPU 0 instructions: 396000000 cycles: 1265635816 heartbeat IPC: 0.29874 cumulative IPC: 0.312209 (Simulation time: 0 hr 51 min 43 sec) 
Heartbeat CPU 0 instructions: 397000003 cycles: 1268285638 heartbeat IPC: 0.377385 cumulative IPC: 0.312345 (Simulation time: 0 hr 51 min 50 sec) 
Heartbeat CPU 0 instructions: 398000001 cycles: 1270704796 heartbeat IPC: 0.413366 cumulative IPC: 0.312538 (Simulation time: 0 hr 51 min 57 sec) 
Heartbeat CPU 0 instructions: 399000001 cycles: 1274348849 heartbeat IPC: 0.27442 cumulative IPC: 0.312429 (Simulation time: 0 hr 52 min 5 sec) 
Heartbeat CPU 0 instructions: 400000000 cycles: 1277234940 heartbeat IPC: 0.346489 cumulative IPC: 0.312506 (Simulation time: 0 hr 52 min 13 sec) 
Heartbeat CPU 0 instructions: 401000003 cycles: 1280828070 heartbeat IPC: 0.27831 cumulative IPC: 0.31241 (Simulation time: 0 hr 52 min 21 sec) 
Heartbeat CPU 0 instructions: 402000000 cycles: 1284871143 heartbeat IPC: 0.247336 cumulative IPC: 0.312205 (Simulation time: 0 hr 52 min 30 sec) 
Heartbeat CPU 0 instructions: 403000003 cycles: 1288096003 heartbeat IPC: 0.310092 cumulative IPC: 0.3122 (Simulation time: 0 hr 52 min 37 sec) 
Heartbeat CPU 0 instructions: 404000000 cycles: 1291932254 heartbeat IPC: 0.26067 cumulative IPC: 0.312046 (Simulation time: 0 hr 52 min 46 sec) 
Heartbeat CPU 0 instructions: 405000001 cycles: 1296199994 heartbeat IPC: 0.234316 cumulative IPC: 0.31179 (Simulation time: 0 hr 52 min 55 sec) 
Heartbeat CPU 0 instructions: 406000003 cycles: 1299729226 heartbeat IPC: 0.283348 cumulative IPC: 0.311713 (Simulation time: 0 hr 53 min 3 sec) 
Heartbeat CPU 0 instructions: 407000000 cycles: 1303165049 heartbeat IPC: 0.29105 cumulative IPC: 0.311659 (Simulation time: 0 hr 53 min 10 sec) 
Heartbeat CPU 0 instructions: 408000001 cycles: 1305802046 heartbeat IPC: 0.37922 cumulative IPC: 0.311795 (Simulation time: 0 hr 53 min 18 sec) 
Heartbeat CPU 0 instructions: 409000001 cycles: 1309495049 heartbeat IPC: 0.270782 cumulative IPC: 0.311679 (Simulation time: 0 hr 53 min 26 sec) 
Heartbeat CPU 0 instructions: 410000000 cycles: 1312950425 heartbeat IPC: 0.289404 cumulative IPC: 0.311621 (Simulation time: 0 hr 53 min 34 sec) 
Heartbeat CPU 0 instructions: 411000000 cycles: 1315663941 heartbeat IPC: 0.368526 cumulative IPC: 0.311738 (Simulation time: 0 hr 53 min 42 sec) 
Heartbeat CPU 0 instructions: 412000001 cycles: 1319115772 heartbeat IPC: 0.289702 cumulative IPC: 0.311681 (Simulation time: 0 hr 53 min 50 sec) 
Heartbeat CPU 0 instructions: 413000001 cycles: 1322203212 heartbeat IPC: 0.323893 cumulative IPC: 0.311709 (Simulation time: 0 hr 53 min 57 sec) 
Heartbeat CPU 0 instructions: 414000000 cycles: 1326469207 heartbeat IPC: 0.234412 cumulative IPC: 0.31146 (Simulation time: 0 hr 54 min 6 sec) 
Heartbeat CPU 0 instructions: 415000001 cycles: 1330382141 heartbeat IPC: 0.255563 cumulative IPC: 0.311296 (Simulation time: 0 hr 54 min 14 sec) 
Heartbeat CPU 0 instructions: 416000000 cycles: 1333298222 heartbeat IPC: 0.342926 cumulative IPC: 0.311365 (Simulation time: 0 hr 54 min 21 sec) 
Heartbeat CPU 0 instructions: 417000001 cycles: 1336648499 heartbeat IPC: 0.298483 cumulative IPC: 0.311333 (Simulation time: 0 hr 54 min 29 sec) 
Heartbeat CPU 0 instructions: 418000000 cycles: 1340319395 heartbeat IPC: 0.272413 cumulative IPC: 0.311226 (Simulation time: 0 hr 54 min 37 sec) 
Heartbeat CPU 0 instructions: 419000002 cycles: 1343156464 heartbeat IPC: 0.352477 cumulative IPC: 0.311313 (Simulation time: 0 hr 54 min 44 sec) 
Heartbeat CPU 0 instructions: 420000003 cycles: 1347178842 heartbeat IPC: 0.248609 cumulative IPC: 0.311126 (Simulation time: 0 hr 54 min 53 sec) 
Heartbeat CPU 0 instructions: 421000001 cycles: 1350955620 heartbeat IPC: 0.264775 cumulative IPC: 0.310996 (Simulation time: 0 hr 55 min 1 sec) 
Heartbeat CPU 0 instructions: 422000001 cycles: 1354074889 heartbeat IPC: 0.320588 cumulative IPC: 0.311019 (Simulation time: 0 hr 55 min 8 sec) 
Heartbeat CPU 0 instructions: 423000000 cycles: 1357572549 heartbeat IPC: 0.285905 cumulative IPC: 0.310954 (Simulation time: 0 hr 55 min 16 sec) 
Heartbeat CPU 0 instructions: 424000001 cycles: 1360632509 heartbeat IPC: 0.326802 cumulative IPC: 0.310989 (Simulation time: 0 hr 55 min 24 sec) 
Heartbeat CPU 0 instructions: 425000001 cycles: 1364464180 heartbeat IPC: 0.260983 cumulative IPC: 0.310849 (Simulation time: 0 hr 55 min 33 sec) 
Heartbeat CPU 0 instructions: 426000002 cycles: 1367675551 heartbeat IPC: 0.311394 cumulative IPC: 0.31085 (Simulation time: 0 hr 55 min 40 sec) 
Heartbeat CPU 0 instructions: 427000000 cycles: 1371112740 heartbeat IPC: 0.290935 cumulative IPC: 0.3108 (Simulation time: 0 hr 55 min 49 sec) 
Heartbeat CPU 0 instructions: 428000001 cycles: 1374531747 heartbeat IPC: 0.292483 cumulative IPC: 0.310755 (Simulation time: 0 hr 55 min 57 sec) 
Heartbeat CPU 0 instructions: 429000000 cycles: 1377136554 heartbeat IPC: 0.383905 cumulative IPC: 0.310893 (Simulation time: 0 hr 56 min 3 sec) 
Heartbeat CPU 0 instructions: 430000002 cycles: 1379715598 heartbeat IPC: 0.387741 cumulative IPC: 0.311037 (Simulation time: 0 hr 56 min 11 sec) 
Heartbeat CPU 0 instructions: 431000002 cycles: 1383228698 heartbeat IPC: 0.284649 cumulative IPC: 0.31097 (Simulation time: 0 hr 56 min 19 sec) 
Heartbeat CPU 0 instructions: 432000001 cycles: 1386397334 heartbeat IPC: 0.315593 cumulative IPC: 0.31098 (Simulation time: 0 hr 56 min 27 sec) 
Heartbeat CPU 0 instructions: 433000002 cycles: 1389586908 heartbeat IPC: 0.313522 cumulative IPC: 0.310986 (Simulation time: 0 hr 56 min 35 sec) 
Heartbeat CPU 0 instructions: 434000003 cycles: 1393225536 heartbeat IPC: 0.274829 cumulative IPC: 0.310892 (Simulation time: 0 hr 56 min 43 sec) 
Heartbeat CPU 0 instructions: 435000002 cycles: 1397200080 heartbeat IPC: 0.251601 cumulative IPC: 0.310723 (Simulation time: 0 hr 56 min 53 sec) 
Heartbeat CPU 0 instructions: 436000002 cycles: 1400499312 heartbeat IPC: 0.303101 cumulative IPC: 0.310705 (Simulation time: 0 hr 57 min 1 sec) 
Heartbeat CPU 0 instructions: 437000000 cycles: 1404294336 heartbeat IPC: 0.263502 cumulative IPC: 0.310577 (Simulation time: 0 hr 57 min 9 sec) 
Heartbeat CPU 0 instructions: 438000001 cycles: 1406994232 heartbeat IPC: 0.370385 cumulative IPC: 0.310692 (Simulation time: 0 hr 57 min 17 sec) 
Heartbeat CPU 0 instructions: 439000003 cycles: 1410860178 heartbeat IPC: 0.258669 cumulative IPC: 0.31055 (Simulation time: 0 hr 57 min 26 sec) 
Heartbeat CPU 0 instructions: 440000000 cycles: 1414385900 heartbeat IPC: 0.283629 cumulative IPC: 0.310483 (Simulation time: 0 hr 57 min 35 sec) 
Heartbeat CPU 0 instructions: 441000003 cycles: 1417855386 heartbeat IPC: 0.288228 cumulative IPC: 0.310428 (Simulation time: 0 hr 57 min 43 sec) 
Heartbeat CPU 0 instructions: 442000001 cycles: 1420877753 heartbeat IPC: 0.330866 cumulative IPC: 0.310472 (Simulation time: 0 hr 57 min 50 sec) 
Heartbeat CPU 0 instructions: 443000002 cycles: 1423727031 heartbeat IPC: 0.350966 cumulative IPC: 0.310553 (Simulation time: 0 hr 57 min 58 sec) 
Heartbeat CPU 0 instructions: 444000002 cycles: 1427474960 heartbeat IPC: 0.266814 cumulative IPC: 0.310438 (Simulation time: 0 hr 58 min 7 sec) 
Heartbeat CPU 0 instructions: 445000000 cycles: 1430737512 heartbeat IPC: 0.306508 cumulative IPC: 0.310429 (Simulation time: 0 hr 58 min 15 sec) 
Heartbeat CPU 0 instructions: 446000000 cycles: 1434112402 heartbeat IPC: 0.296306 cumulative IPC: 0.310396 (Simulation time: 0 hr 58 min 24 sec) 
Heartbeat CPU 0 instructions: 447000000 cycles: 1437966448 heartbeat IPC: 0.259468 cumulative IPC: 0.310259 (Simulation time: 0 hr 58 min 32 sec) 
Heartbeat CPU 0 instructions: 448000000 cycles: 1442300755 heartbeat IPC: 0.230717 cumulative IPC: 0.31002 (Simulation time: 0 hr 58 min 42 sec) 
Heartbeat CPU 0 instructions: 449000003 cycles: 1445335117 heartbeat IPC: 0.32956 cumulative IPC: 0.310061 (Simulation time: 0 hr 58 min 51 sec) 
Heartbeat CPU 0 instructions: 450000003 cycles: 1448728174 heartbeat IPC: 0.294719 cumulative IPC: 0.310025 (Simulation time: 0 hr 58 min 59 sec) 

Warmup complete CPU 0 instructions: 450000003 cycles: 1448728174 (Simulation time: 0 hr 58 min 59 sec) 

Heartbeat CPU 0 instructions: 451000000 cycles: 1451666273 heartbeat IPC: 0.340355 cumulative IPC: 0.340355 (Simulation time: 0 hr 59 min 7 sec) 
Heartbeat CPU 0 instructions: 452000003 cycles: 1455099817 heartbeat IPC: 0.291245 cumulative IPC: 0.313891 (Simulation time: 0 hr 59 min 15 sec) 
Heartbeat CPU 0 instructions: 453000002 cycles: 1458869024 heartbeat IPC: 0.265308 cumulative IPC: 0.295833 (Simulation time: 0 hr 59 min 24 sec) 
Heartbeat CPU 0 instructions: 454000000 cycles: 1462296359 heartbeat IPC: 0.291771 cumulative IPC: 0.294807 (Simulation time: 0 hr 59 min 33 sec) 
Heartbeat CPU 0 instructions: 455000000 cycles: 1465257670 heartbeat IPC: 0.337688 cumulative IPC: 0.302489 (Simulation time: 0 hr 59 min 40 sec) 
Heartbeat CPU 0 instructions: 456000001 cycles: 1468011711 heartbeat IPC: 0.363103 cumulative IPC: 0.311146 (Simulation time: 0 hr 59 min 47 sec) 
Heartbeat CPU 0 instructions: 457000002 cycles: 1471395912 heartbeat IPC: 0.295491 cumulative IPC: 0.308809 (Simulation time: 0 hr 59 min 56 sec) 
Heartbeat CPU 0 instructions: 458000001 cycles: 1475270896 heartbeat IPC: 0.258065 cumulative IPC: 0.301401 (Simulation time: 1 hr 0 min 5 sec) 
Heartbeat CPU 0 instructions: 459000003 cycles: 1478949846 heartbeat IPC: 0.271817 cumulative IPC: 0.2978 (Simulation time: 1 hr 0 min 14 sec) 
Heartbeat CPU 0 instructions: 460000000 cycles: 1482207363 heartbeat IPC: 0.306981 cumulative IPC: 0.298693 (Simulation time: 1 hr 0 min 22 sec) 
Heartbeat CPU 0 instructions: 461000003 cycles: 1485630313 heartbeat IPC: 0.292147 cumulative IPC: 0.298086 (Simulation time: 1 hr 0 min 32 sec) 
Heartbeat CPU 0 instructions: 462000000 cycles: 1488607027 heartbeat IPC: 0.33594 cumulative IPC: 0.300911 (Simulation time: 1 hr 0 min 40 sec) 
Heartbeat CPU 0 instructions: 463000003 cycles: 1492254205 heartbeat IPC: 0.274185 cumulative IPC: 0.298672 (Simulation time: 1 hr 0 min 49 sec) 
Heartbeat CPU 0 instructions: 464000002 cycles: 1495947436 heartbeat IPC: 0.270765 cumulative IPC: 0.296489 (Simulation time: 1 hr 0 min 59 sec) 
Heartbeat CPU 0 instructions: 465000000 cycles: 1498582104 heartbeat IPC: 0.379554 cumulative IPC: 0.300879 (Simulation time: 1 hr 1 min 6 sec) 
Heartbeat CPU 0 instructions: 466000002 cycles: 1500498243 heartbeat IPC: 0.521884 cumulative IPC: 0.309059 (Simulation time: 1 hr 1 min 13 sec) 
Heartbeat CPU 0 instructions: 467000003 cycles: 1503728876 heartbeat IPC: 0.309537 cumulative IPC: 0.309087 (Simulation time: 1 hr 1 min 21 sec) 
Heartbeat CPU 0 instructions: 468000003 cycles: 1506784514 heartbeat IPC: 0.327264 cumulative IPC: 0.310044 (Simulation time: 1 hr 1 min 33 sec) 
Heartbeat CPU 0 instructions: 469000003 cycles: 1509690111 heartbeat IPC: 0.344163 cumulative IPC: 0.31167 (Simulation time: 1 hr 1 min 41 sec) 
Heartbeat CPU 0 instructions: 470000000 cycles: 1512883123 heartbeat IPC: 0.313183 cumulative IPC: 0.311745 (Simulation time: 1 hr 1 min 50 sec) 
Heartbeat CPU 0 instructions: 471000003 cycles: 1515685115 heartbeat IPC: 0.35689 cumulative IPC: 0.313634 (Simulation time: 1 hr 1 min 58 sec) 
Heartbeat CPU 0 instructions: 472000000 cycles: 1519170804 heartbeat IPC: 0.286886 cumulative IPC: 0.312311 (Simulation time: 1 hr 2 min 8 sec) 
Heartbeat CPU 0 instructions: 473000000 cycles: 1523143418 heartbeat IPC: 0.251723 cumulative IPC: 0.309076 (Simulation time: 1 hr 2 min 17 sec) 
Heartbeat CPU 0 instructions: 474000000 cycles: 1525980214 heartbeat IPC: 0.35251 cumulative IPC: 0.310671 (Simulation time: 1 hr 2 min 25 sec) 
Heartbeat CPU 0 instructions: 475000000 cycles: 1528310122 heartbeat IPC: 0.429201 cumulative IPC: 0.314142 (Simulation time: 1 hr 2 min 32 sec) 
Heartbeat CPU 0 instructions: 476000003 cycles: 1531402813 heartbeat IPC: 0.323344 cumulative IPC: 0.314486 (Simulation time: 1 hr 2 min 41 sec) 
Heartbeat CPU 0 instructions: 477000000 cycles: 1534376959 heartbeat IPC: 0.33623 cumulative IPC: 0.315241 (Simulation time: 1 hr 2 min 49 sec) 
Heartbeat CPU 0 instructions: 478000003 cycles: 1537418272 heartbeat IPC: 0.328806 cumulative IPC: 0.315706 (Simulation time: 1 hr 2 min 57 sec) 
Heartbeat CPU 0 instructions: 479000002 cycles: 1541010751 heartbeat IPC: 0.278359 cumulative IPC: 0.314252 (Simulation time: 1 hr 3 min 7 sec) 
Heartbeat CPU 0 instructions: 480000000 cycles: 1544944651 heartbeat IPC: 0.2542 cumulative IPC: 0.311797 (Simulation time: 1 hr 3 min 17 sec) 
Heartbeat CPU 0 instructions: 481000001 cycles: 1547591727 heartbeat IPC: 0.377776 cumulative IPC: 0.313563 (Simulation time: 1 hr 3 min 25 sec) 
Heartbeat CPU 0 instructions: 482000002 cycles: 1551126514 heartbeat IPC: 0.282903 cumulative IPC: 0.312505 (Simulation time: 1 hr 3 min 34 sec) 
Heartbeat CPU 0 instructions: 483000001 cycles: 1553787859 heartbeat IPC: 0.375749 cumulative IPC: 0.314107 (Simulation time: 1 hr 3 min 42 sec) 
Heartbeat CPU 0 instructions: 484000000 cycles: 1557081354 heartbeat IPC: 0.303629 cumulative IPC: 0.313789 (Simulation time: 1 hr 3 min 51 sec) 
Heartbeat CPU 0 instructions: 485000001 cycles: 1559595437 heartbeat IPC: 0.39776 cumulative IPC: 0.315693 (Simulation time: 1 hr 3 min 58 sec) 
Heartbeat CPU 0 instructions: 486000002 cycles: 1561604189 heartbeat IPC: 0.497822 cumulative IPC: 0.318934 (Simulation time: 1 hr 4 min 5 sec) 
Heartbeat CPU 0 instructions: 487000001 cycles: 1564260753 heartbeat IPC: 0.376426 cumulative IPC: 0.320256 (Simulation time: 1 hr 4 min 13 sec) 
Heartbeat CPU 0 instructions: 488000002 cycles: 1567690050 heartbeat IPC: 0.291605 cumulative IPC: 0.31943 (Simulation time: 1 hr 4 min 22 sec) 
Heartbeat CPU 0 instructions: 489000000 cycles: 1570796198 heartbeat IPC: 0.321942 cumulative IPC: 0.319494 (Simulation time: 1 hr 4 min 30 sec) 
Heartbeat CPU 0 instructions: 490000003 cycles: 1573711729 heartbeat IPC: 0.342992 cumulative IPC: 0.320042 (Simulation time: 1 hr 4 min 39 sec) 
Heartbeat CPU 0 instructions: 491000000 cycles: 1577714936 heartbeat IPC: 0.249799 cumulative IPC: 0.317862 (Simulation time: 1 hr 4 min 50 sec) 
Heartbeat CPU 0 instructions: 492000003 cycles: 1580967242 heartbeat IPC: 0.307475 cumulative IPC: 0.317607 (Simulation time: 1 hr 4 min 58 sec) 
Heartbeat CPU 0 instructions: 493000003 cycles: 1583323535 heartbeat IPC: 0.424395 cumulative IPC: 0.319476 (Simulation time: 1 hr 5 min 6 sec) 
Heartbeat CPU 0 instructions: 494000000 cycles: 1586795315 heartbeat IPC: 0.288036 cumulative IPC: 0.318686 (Simulation time: 1 hr 5 min 14 sec) 
Heartbeat CPU 0 instructions: 495000000 cycles: 1589511775 heartbeat IPC: 0.368126 cumulative IPC: 0.319639 (Simulation time: 1 hr 5 min 22 sec) 
Heartbeat CPU 0 instructions: 496000000 cycles: 1593082488 heartbeat IPC: 0.280056 cumulative IPC: 0.31866 (Simulation time: 1 hr 5 min 31 sec) 
Heartbeat CPU 0 instructions: 497000001 cycles: 1596636595 heartbeat IPC: 0.281365 cumulative IPC: 0.317764 (Simulation time: 1 hr 5 min 40 sec) 
Heartbeat CPU 0 instructions: 498000002 cycles: 1599738002 heartbeat IPC: 0.322435 cumulative IPC: 0.31786 (Simulation time: 1 hr 5 min 48 sec) 
Heartbeat CPU 0 instructions: 499000000 cycles: 1602388249 heartbeat IPC: 0.377323 cumulative IPC: 0.318886 (Simulation time: 1 hr 5 min 55 sec) 
Heartbeat CPU 0 instructions: 500000001 cycles: 1604878297 heartbeat IPC: 0.401599 cumulative IPC: 0.320205 (Simulation time: 1 hr 6 min 3 sec) 
Heartbeat CPU 0 instructions: 501000003 cycles: 1607943761 heartbeat IPC: 0.326216 cumulative IPC: 0.32032 (Simulation time: 1 hr 6 min 10 sec) 
Heartbeat CPU 0 instructions: 502000001 cycles: 1611571793 heartbeat IPC: 0.275631 cumulative IPC: 0.319325 (Simulation time: 1 hr 6 min 19 sec) 
Heartbeat CPU 0 instructions: 503000002 cycles: 1615205113 heartbeat IPC: 0.275231 cumulative IPC: 0.318362 (Simulation time: 1 hr 6 min 28 sec) 
Heartbeat CPU 0 instructions: 504000000 cycles: 1617997954 heartbeat IPC: 0.358058 cumulative IPC: 0.319017 (Simulation time: 1 hr 6 min 36 sec) 
Heartbeat CPU 0 instructions: 505000001 cycles: 1621451142 heartbeat IPC: 0.289588 cumulative IPC: 0.318429 (Simulation time: 1 hr 6 min 45 sec) 
Heartbeat CPU 0 instructions: 506000000 cycles: 1624463534 heartbeat IPC: 0.331962 cumulative IPC: 0.318661 (Simulation time: 1 hr 6 min 54 sec) 
Heartbeat CPU 0 instructions: 507000001 cycles: 1628025895 heartbeat IPC: 0.280713 cumulative IPC: 0.317907 (Simulation time: 1 hr 7 min 3 sec) 
Heartbeat CPU 0 instructions: 508000000 cycles: 1630840118 heartbeat IPC: 0.355338 cumulative IPC: 0.318485 (Simulation time: 1 hr 7 min 11 sec) 
Heartbeat CPU 0 instructions: 509000001 cycles: 1634424920 heartbeat IPC: 0.278956 cumulative IPC: 0.317722 (Simulation time: 1 hr 7 min 19 sec) 
Heartbeat CPU 0 instructions: 510000000 cycles: 1638130618 heartbeat IPC: 0.269854 cumulative IPC: 0.316786 (Simulation time: 1 hr 7 min 28 sec) 
Heartbeat CPU 0 instructions: 511000001 cycles: 1641069641 heartbeat IPC: 0.340249 cumulative IPC: 0.317144 (Simulation time: 1 hr 7 min 36 sec) 
Heartbeat CPU 0 instructions: 512000001 cycles: 1644014189 heartbeat IPC: 0.339611 cumulative IPC: 0.317483 (Simulation time: 1 hr 7 min 44 sec) 
Heartbeat CPU 0 instructions: 513000000 cycles: 1646639168 heartbeat IPC: 0.380955 cumulative IPC: 0.318325 (Simulation time: 1 hr 7 min 52 sec) 
Heartbeat CPU 0 instructions: 514000002 cycles: 1649872411 heartbeat IPC: 0.309288 cumulative IPC: 0.31818 (Simulation time: 1 hr 8 min 0 sec) 
Heartbeat CPU 0 instructions: 515000001 cycles: 1653611195 heartbeat IPC: 0.267466 cumulative IPC: 0.317254 (Simulation time: 1 hr 8 min 9 sec) 
Heartbeat CPU 0 instructions: 516000003 cycles: 1657100261 heartbeat IPC: 0.28661 cumulative IPC: 0.316741 (Simulation time: 1 hr 8 min 17 sec) 
Heartbeat CPU 0 instructions: 517000000 cycles: 1661192313 heartbeat IPC: 0.244375 cumulative IPC: 0.315347 (Simulation time: 1 hr 8 min 26 sec) 
Heartbeat CPU 0 instructions: 518000001 cycles: 1663832650 heartbeat IPC: 0.37874 cumulative IPC: 0.316125 (Simulation time: 1 hr 8 min 34 sec) 
Heartbeat CPU 0 instructions: 519000003 cycles: 1666870983 heartbeat IPC: 0.329129 cumulative IPC: 0.316307 (Simulation time: 1 hr 8 min 42 sec) 
Heartbeat CPU 0 instructions: 520000000 cycles: 1669654089 heartbeat IPC: 0.35931 cumulative IPC: 0.316848 (Simulation time: 1 hr 8 min 49 sec) 
Heartbeat CPU 0 instructions: 521000001 cycles: 1671990678 heartbeat IPC: 0.427975 cumulative IPC: 0.318011 (Simulation time: 1 hr 8 min 56 sec) 
Heartbeat CPU 0 instructions: 522000002 cycles: 1675179510 heartbeat IPC: 0.313595 cumulative IPC: 0.317949 (Simulation time: 1 hr 9 min 4 sec) 
Heartbeat CPU 0 instructions: 523000002 cycles: 1677275161 heartbeat IPC: 0.477179 cumulative IPC: 0.319409 (Simulation time: 1 hr 9 min 11 sec) 
Heartbeat CPU 0 instructions: 524000000 cycles: 1680570737 heartbeat IPC: 0.303436 cumulative IPC: 0.319182 (Simulation time: 1 hr 9 min 20 sec) 
Heartbeat CPU 0 instructions: 525000003 cycles: 1683980704 heartbeat IPC: 0.293259 cumulative IPC: 0.318806 (Simulation time: 1 hr 9 min 28 sec) 
Heartbeat CPU 0 instructions: 526000002 cycles: 1686841614 heartbeat IPC: 0.349539 cumulative IPC: 0.319176 (Simulation time: 1 hr 9 min 36 sec) 
Heartbeat CPU 0 instructions: 527000003 cycles: 1689586228 heartbeat IPC: 0.36435 cumulative IPC: 0.31969 (Simulation time: 1 hr 9 min 43 sec) 
Heartbeat CPU 0 instructions: 528000000 cycles: 1692243143 heartbeat IPC: 0.376375 cumulative IPC: 0.320309 (Simulation time: 1 hr 9 min 51 sec) 
Heartbeat CPU 0 instructions: 529000001 cycles: 1695278281 heartbeat IPC: 0.329475 cumulative IPC: 0.320422 (Simulation time: 1 hr 9 min 59 sec) 
Heartbeat CPU 0 instructions: 530000001 cycles: 1698115202 heartbeat IPC: 0.352495 cumulative IPC: 0.320787 (Simulation time: 1 hr 10 min 6 sec) 
Heartbeat CPU 0 instructions: 531000002 cycles: 1701307881 heartbeat IPC: 0.313217 cumulative IPC: 0.320691 (Simulation time: 1 hr 10 min 15 sec) 
Heartbeat CPU 0 instructions: 532000001 cycles: 1703813958 heartbeat IPC: 0.39903 cumulative IPC: 0.32146 (Simulation time: 1 hr 10 min 21 sec) 
Heartbeat CPU 0 instructions: 533000000 cycles: 1706484668 heartbeat IPC: 0.374432 cumulative IPC: 0.322009 (Simulation time: 1 hr 10 min 29 sec) 
Heartbeat CPU 0 instructions: 534000001 cycles: 1709449103 heartbeat IPC: 0.337333 cumulative IPC: 0.322184 (Simulation time: 1 hr 10 min 36 sec) 
Heartbeat CPU 0 instructions: 535000001 cycles: 1712150930 heartbeat IPC: 0.37012 cumulative IPC: 0.322675 (Simulation time: 1 hr 10 min 43 sec) 
Heartbeat CPU 0 instructions: 536000002 cycles: 1715588880 heartbeat IPC: 0.290871 cumulative IPC: 0.322266 (Simulation time: 1 hr 10 min 51 sec) 
Heartbeat CPU 0 instructions: 537000002 cycles: 1718240811 heartbeat IPC: 0.377084 cumulative IPC: 0.322805 (Simulation time: 1 hr 10 min 58 sec) 
Heartbeat CPU 0 instructions: 538000001 cycles: 1721724257 heartbeat IPC: 0.287072 cumulative IPC: 0.322349 (Simulation time: 1 hr 11 min 7 sec) 
Heartbeat CPU 0 instructions: 539000000 cycles: 1725640089 heartbeat IPC: 0.255373 cumulative IPC: 0.321402 (Simulation time: 1 hr 11 min 16 sec) 
Heartbeat CPU 0 instructions: 540000003 cycles: 1728465869 heartbeat IPC: 0.353886 cumulative IPC: 0.32173 (Simulation time: 1 hr 11 min 23 sec) 
Heartbeat CPU 0 instructions: 541000001 cycles: 1731303543 heartbeat IPC: 0.352401 cumulative IPC: 0.322038 (Simulation time: 1 hr 11 min 30 sec) 
Heartbeat CPU 0 instructions: 542000003 cycles: 1734100974 heartbeat IPC: 0.357472 cumulative IPC: 0.322385 (Simulation time: 1 hr 11 min 37 sec) 
Heartbeat CPU 0 instructions: 543000000 cycles: 1737303916 heartbeat IPC: 0.312212 cumulative IPC: 0.322272 (Simulation time: 1 hr 11 min 44 sec) 
Heartbeat CPU 0 instructions: 544000000 cycles: 1740009879 heartbeat IPC: 0.369554 cumulative IPC: 0.322712 (Simulation time: 1 hr 11 min 51 sec) 
Heartbeat CPU 0 instructions: 545000001 cycles: 1743045579 heartbeat IPC: 0.329414 cumulative IPC: 0.322781 (Simulation time: 1 hr 11 min 59 sec) 
[...]
Heartbeat CPU 0 instructions: 834000002 cycles: 2643078563 heartbeat IPC: 0.314452 cumulative IPC: 0.321514 (Simulation time: 1 hr 49 min 47 sec) 
Heartbeat CPU 0 instructions: 835000000 cycles: 2646631386 heartbeat IPC: 0.281466 cumulative IPC: 0.321395 (Simulation time: 1 hr 49 min 55 sec) 
Heartbeat CPU 0 instructions: 836000000 cycles: 2650064026 heartbeat IPC: 0.291321 cumulative IPC: 0.321309 (Simulation time: 1 hr 50 min 3 sec) 
Heartbeat CPU 0 instructions: 837000000 cycles: 2652589015 heartbeat IPC: 0.396041 cumulative IPC: 0.321466 (Simulation time: 1 hr 50 min 10 sec) 
Heartbeat CPU 0 instructions: 838000000 cycles: 2656200467 heartbeat IPC: 0.276897 cumulative IPC: 0.321332 (Simulation time: 1 hr 50 min 19 sec) 
Heartbeat CPU 0 instructions: 839000001 cycles: 2660112798 heartbeat IPC: 0.255602 cumulative IPC: 0.32112 (Simulation time: 1 hr 50 min 27 sec) 
Heartbeat CPU 0 instructions: 840000000 cycles: 2663033126 heartbeat IPC: 0.342427 cumulative IPC: 0.321171 (Simulation time: 1 hr 50 min 35 sec) 
Heartbeat CPU 0 instructions: 841000000 cycles: 2666123401 heartbeat IPC: 0.323596 cumulative IPC: 0.321178 (Simulation time: 1 hr 50 min 43 sec) 
Heartbeat CPU 0 instructions: 842000003 cycles: 2669516416 heartbeat IPC: 0.294724 cumulative IPC: 0.321104 (Simulation time: 1 hr 50 min 52 sec) 
Heartbeat CPU 0 instructions: 843000000 cycles: 2672901922 heartbeat IPC: 0.295376 cumulative IPC: 0.321033 (Simulation time: 1 hr 51 min 0 sec) 
Heartbeat CPU 0 instructions: 844000000 cycles: 2675735259 heartbeat IPC: 0.352941 cumulative IPC: 0.321107 (Simulation time: 1 hr 51 min 7 sec) 
Heartbeat CPU 0 instructions: 845000000 cycles: 2678277056 heartbeat IPC: 0.393422 cumulative IPC: 0.321256 (Simulation time: 1 hr 51 min 15 sec) 
Heartbeat CPU 0 instructions: 846000000 cycles: 2681727499 heartbeat IPC: 0.289818 cumulative IPC: 0.321168 (Simulation time: 1 hr 51 min 23 sec) 
Heartbeat CPU 0 instructions: 847000000 cycles: 2685330050 heartbeat IPC: 0.277581 cumulative IPC: 0.321041 (Simulation time: 1 hr 51 min 31 sec) 
Heartbeat CPU 0 instructions: 848000003 cycles: 2688757520 heartbeat IPC: 0.291761 cumulative IPC: 0.32096 (Simulation time: 1 hr 51 min 40 sec) 
Heartbeat CPU 0 instructions: 849000002 cycles: 2692210543 heartbeat IPC: 0.289601 cumulative IPC: 0.320873 (Simulation time: 1 hr 51 min 48 sec) 
Heartbeat CPU 0 instructions: 850000001 cycles: 2695257143 heartbeat IPC: 0.328234 cumulative IPC: 0.320891 (Simulation time: 1 hr 51 min 56 sec) 
Heartbeat CPU 0 instructions: 851000001 cycles: 2698310795 heartbeat IPC: 0.327477 cumulative IPC: 0.320907 (Simulation time: 1 hr 52 min 3 sec) 
Heartbeat CPU 0 instructions: 852000001 cycles: 2700806816 heartbeat IPC: 0.400638 cumulative IPC: 0.321066 (Simulation time: 1 hr 52 min 10 sec) 
Heartbeat CPU 0 instructions: 853000001 cycles: 2703598589 heartbeat IPC: 0.358195 cumulative IPC: 0.321149 (Simulation time: 1 hr 52 min 18 sec) 
Heartbeat CPU 0 instructions: 854000002 cycles: 2706354490 heartbeat IPC: 0.362858 cumulative IPC: 0.32124 (Simulation time: 1 hr 52 min 25 sec) 
Heartbeat CPU 0 instructions: 855000002 cycles: 2710064392 heartbeat IPC: 0.269549 cumulative IPC: 0.321088 (Simulation time: 1 hr 52 min 33 sec) 
Heartbeat CPU 0 instructions: 856000000 cycles: 2714172453 heartbeat IPC: 0.243423 cumulative IPC: 0.320836 (Simulation time: 1 hr 52 min 42 sec) 
Heartbeat CPU 0 instructions: 857000000 cycles: 2716797464 heartbeat IPC: 0.380951 cumulative IPC: 0.32096 (Simulation time: 1 hr 52 min 49 sec) 
Heartbeat CPU 0 instructions: 858000000 cycles: 2720064017 heartbeat IPC: 0.306133 cumulative IPC: 0.320922 (Simulation time: 1 hr 52 min 57 sec) 
Heartbeat CPU 0 instructions: 859000001 cycles: 2723195257 heartbeat IPC: 0.319363 cumulative IPC: 0.320918 (Simulation time: 1 hr 53 min 5 sec) 
Heartbeat CPU 0 instructions: 860000000 cycles: 2726879563 heartbeat IPC: 0.271421 cumulative IPC: 0.320776 (Simulation time: 1 hr 53 min 13 sec) 
Heartbeat CPU 0 instructions: 861000000 cycles: 2730124139 heartbeat IPC: 0.308207 cumulative IPC: 0.320744 (Simulation time: 1 hr 53 min 20 sec) 
Heartbeat CPU 0 instructions: 862000000 cycles: 2733759952 heartbeat IPC: 0.275042 cumulative IPC: 0.320615 (Simulation time: 1 hr 53 min 28 sec) 
Heartbeat CPU 0 instructions: 863000000 cycles: 2736293608 heartbeat IPC: 0.394687 cumulative IPC: 0.32076 (Simulation time: 1 hr 53 min 34 sec) 
Heartbeat CPU 0 instructions: 864000003 cycles: 2740039544 heartbeat IPC: 0.266957 cumulative IPC: 0.320604 (Simulation time: 1 hr 53 min 43 sec) 
Heartbeat CPU 0 instructions: 865000002 cycles: 2744293783 heartbeat IPC: 0.235059 cumulative IPC: 0.320323 (Simulation time: 1 hr 53 min 52 sec) 
Heartbeat CPU 0 instructions: 866000000 cycles: 2747163435 heartbeat IPC: 0.348474 cumulative IPC: 0.320386 (Simulation time: 1 hr 54 min 0 sec) 
Heartbeat CPU 0 instructions: 867000002 cycles: 2750830936 heartbeat IPC: 0.272666 cumulative IPC: 0.320251 (Simulation time: 1 hr 54 min 8 sec) 
Heartbeat CPU 0 instructions: 868000000 cycles: 2754328357 heartbeat IPC: 0.285924 cumulative IPC: 0.320159 (Simulation time: 1 hr 54 min 16 sec) 
Heartbeat CPU 0 instructions: 869000000 cycles: 2757370326 heartbeat IPC: 0.328734 cumulative IPC: 0.320179 (Simulation time: 1 hr 54 min 24 sec) 
Heartbeat CPU 0 instructions: 870000003 cycles: 2759985609 heartbeat IPC: 0.382369 cumulative IPC: 0.320303 (Simulation time: 1 hr 54 min 32 sec) 
Heartbeat CPU 0 instructions: 871000001 cycles: 2763600877 heartbeat IPC: 0.276604 cumulative IPC: 0.320183 (Simulation time: 1 hr 54 min 41 sec) 
Heartbeat CPU 0 instructions: 872000003 cycles: 2767572600 heartbeat IPC: 0.25178 cumulative IPC: 0.319977 (Simulation time: 1 hr 54 min 50 sec) 
Heartbeat CPU 0 instructions: 873000002 cycles: 2771401014 heartbeat IPC: 0.261205 cumulative IPC: 0.319807 (Simulation time: 1 hr 54 min 58 sec) 
Heartbeat CPU 0 instructions: 874000000 cycles: 2774708824 heartbeat IPC: 0.302314 cumulative IPC: 0.319763 (Simulation time: 1 hr 55 min 7 sec) 
Heartbeat CPU 0 instructions: 875000000 cycles: 2777813422 heartbeat IPC: 0.322103 cumulative IPC: 0.319769 (Simulation time: 1 hr 55 min 14 sec) 
Heartbeat CPU 0 instructions: 876000000 cycles: 2781141390 heartbeat IPC: 0.300484 cumulative IPC: 0.319721 (Simulation time: 1 hr 55 min 22 sec) 
Heartbeat CPU 0 instructions: 877000001 cycles: 2784770651 heartbeat IPC: 0.275538 cumulative IPC: 0.319601 (Simulation time: 1 hr 55 min 30 sec) 
Heartbeat CPU 0 instructions: 878000002 cycles: 2788569237 heartbeat IPC: 0.263256 cumulative IPC: 0.319441 (Simulation time: 1 hr 55 min 38 sec) 
Heartbeat CPU 0 instructions: 879000002 cycles: 2791859174 heartbeat IPC: 0.303957 cumulative IPC: 0.319403 (Simulation time: 1 hr 55 min 46 sec) 
Heartbeat CPU 0 instructions: 880000000 cycles: 2794541484 heartbeat IPC: 0.372812 cumulative IPC: 0.319509 (Simulation time: 1 hr 55 min 54 sec) 
Heartbeat CPU 0 instructions: 881000000 cycles: 2798656209 heartbeat IPC: 0.24303 cumulative IPC: 0.319276 (Simulation time: 1 hr 56 min 3 sec) 
Heartbeat CPU 0 instructions: 882000000 cycles: 2802672046 heartbeat IPC: 0.249014 cumulative IPC: 0.319068 (Simulation time: 1 hr 56 min 12 sec) 
Heartbeat CPU 0 instructions: 883000000 cycles: 2805131560 heartbeat IPC: 0.406584 cumulative IPC: 0.319227 (Simulation time: 1 hr 56 min 19 sec) 
Heartbeat CPU 0 instructions: 884000002 cycles: 2808529786 heartbeat IPC: 0.294272 cumulative IPC: 0.319164 (Simulation time: 1 hr 56 min 28 sec) 
Heartbeat CPU 0 instructions: 885000000 cycles: 2812197111 heartbeat IPC: 0.272678 cumulative IPC: 0.319039 (Simulation time: 1 hr 56 min 36 sec) 
Heartbeat CPU 0 instructions: 886000001 cycles: 2815204676 heartbeat IPC: 0.332495 cumulative IPC: 0.319069 (Simulation time: 1 hr 56 min 43 sec) 
Heartbeat CPU 0 instructions: 887000002 cycles: 2817740358 heartbeat IPC: 0.394372 cumulative IPC: 0.319208 (Simulation time: 1 hr 56 min 51 sec) 
Heartbeat CPU 0 instructions: 888000000 cycles: 2821398526 heartbeat IPC: 0.27336 cumulative IPC: 0.319086 (Simulation time: 1 hr 56 min 59 sec) 
Heartbeat CPU 0 instructions: 889000001 cycles: 2825351266 heartbeat IPC: 0.252989 cumulative IPC: 0.318896 (Simulation time: 1 hr 57 min 8 sec) 
Heartbeat CPU 0 instructions: 890000000 cycles: 2829306985 heartbeat IPC: 0.252798 cumulative IPC: 0.318707 (Simulation time: 1 hr 57 min 16 sec) 
Heartbeat CPU 0 instructions: 891000000 cycles: 2832703782 heartbeat IPC: 0.294395 cumulative IPC: 0.318647 (Simulation time: 1 hr 57 min 24 sec) 
Heartbeat CPU 0 instructions: 892000001 cycles: 2835722348 heartbeat IPC: 0.331283 cumulative IPC: 0.318675 (Simulation time: 1 hr 57 min 32 sec) 
Heartbeat CPU 0 instructions: 893000002 cycles: 2837810469 heartbeat IPC: 0.4789 cumulative IPC: 0.318916 (Simulation time: 1 hr 57 min 39 sec) 
Heartbeat CPU 0 instructions: 894000000 cycles: 2839819699 heartbeat IPC: 0.497702 cumulative IPC: 0.319174 (Simulation time: 1 hr 57 min 45 sec) 
Heartbeat CPU 0 instructions: 895000000 cycles: 2843586837 heartbeat IPC: 0.265454 cumulative IPC: 0.319029 (Simulation time: 1 hr 57 min 53 sec) 
Heartbeat CPU 0 instructions: 896000002 cycles: 2847465596 heartbeat IPC: 0.257815 cumulative IPC: 0.318859 (Simulation time: 1 hr 58 min 2 sec) 
Heartbeat CPU 0 instructions: 897000001 cycles: 2850841871 heartbeat IPC: 0.296184 cumulative IPC: 0.318804 (Simulation time: 1 hr 58 min 11 sec) 
Heartbeat CPU 0 instructions: 898000001 cycles: 2854446472 heartbeat IPC: 0.277423 cumulative IPC: 0.318698 (Simulation time: 1 hr 58 min 19 sec) 
Heartbeat CPU 0 instructions: 899000003 cycles: 2857714200 heartbeat IPC: 0.306024 cumulative IPC: 0.318669 (Simulation time: 1 hr 58 min 27 sec) 
Heartbeat CPU 0 instructions: 900000001 cycles: 2860341308 heartbeat IPC: 0.380646 cumulative IPC: 0.318784 (Simulation time: 1 hr 58 min 35 sec) 
Heartbeat CPU 0 instructions: 901000000 cycles: 2864019006 heartbeat IPC: 0.271909 cumulative IPC: 0.318662 (Simulation time: 1 hr 58 min 43 sec) 
Heartbeat CPU 0 instructions: 902000000 cycles: 2868200260 heartbeat IPC: 0.239163 cumulative IPC: 0.318428 (Simulation time: 1 hr 58 min 53 sec) 
Heartbeat CPU 0 instructions: 903000003 cycles: 2872084440 heartbeat IPC: 0.257455 cumulative IPC: 0.318262 (Simulation time: 1 hr 59 min 2 sec) 
Heartbeat CPU 0 instructions: 904000001 cycles: 2875608435 heartbeat IPC: 0.283768 cumulative IPC: 0.318177 (Simulation time: 1 hr 59 min 9 sec) 
Heartbeat CPU 0 instructions: 905000002 cycles: 2878635561 heartbeat IPC: 0.330347 cumulative IPC: 0.318202 (Simulation time: 1 hr 59 min 17 sec) 
Heartbeat CPU 0 instructions: 906000002 cycles: 2881542591 heartbeat IPC: 0.343994 cumulative IPC: 0.318255 (Simulation time: 1 hr 59 min 25 sec) 
Heartbeat CPU 0 instructions: 907000002 cycles: 2884120600 heartbeat IPC: 0.387896 cumulative IPC: 0.31838 (Simulation time: 1 hr 59 min 33 sec) 
Heartbeat CPU 0 instructions: 908000003 cycles: 2887130120 heartbeat IPC: 0.332279 cumulative IPC: 0.318409 (Simulation time: 1 hr 59 min 40 sec) 
Heartbeat CPU 0 instructions: 909000002 cycles: 2889543071 heartbeat IPC: 0.41443 cumulative IPC: 0.31857 (Simulation time: 1 hr 59 min 46 sec) 
Heartbeat CPU 0 instructions: 910000001 cycles: 2892708869 heartbeat IPC: 0.315876 cumulative IPC: 0.318564 (Simulation time: 1 hr 59 min 54 sec) 
Heartbeat CPU 0 instructions: 911000000 cycles: 2896233040 heartbeat IPC: 0.283754 cumulative IPC: 0.318479 (Simulation time: 2 hr 0 min 3 sec) 
Heartbeat CPU 0 instructions: 912000003 cycles: 2899518883 heartbeat IPC: 0.304337 cumulative IPC: 0.318447 (Simulation time: 2 hr 0 min 11 sec) 
Heartbeat CPU 0 instructions: 913000000 cycles: 2902926902 heartbeat IPC: 0.293425 cumulative IPC: 0.318388 (Simulation time: 2 hr 0 min 19 sec) 
Heartbeat CPU 0 instructions: 914000001 cycles: 2906014282 heartbeat IPC: 0.3239 cumulative IPC: 0.3184 (Simulation time: 2 hr 0 min 27 sec) 
Heartbeat CPU 0 instructions: 915000002 cycles: 2909100482 heartbeat IPC: 0.324023 cumulative IPC: 0.318412 (Simulation time: 2 hr 0 min 35 sec) 
Heartbeat CPU 0 instructions: 916000002 cycles: 2913777827 heartbeat IPC: 0.213796 cumulative IPC: 0.318078 (Simulation time: 2 hr 0 min 45 sec) 
Heartbeat CPU 0 instructions: 917000000 cycles: 2916394834 heartbeat IPC: 0.382115 cumulative IPC: 0.318192 (Simulation time: 2 hr 0 min 52 sec) 
Heartbeat CPU 0 instructions: 918000002 cycles: 2919020524 heartbeat IPC: 0.380853 cumulative IPC: 0.318304 (Simulation time: 2 hr 0 min 59 sec) 
Heartbeat CPU 0 instructions: 919000003 cycles: 2921794994 heartbeat IPC: 0.36043 cumulative IPC: 0.318383 (Simulation time: 2 hr 1 min 6 sec) 
Heartbeat CPU 0 instructions: 920000003 cycles: 2924855078 heartbeat IPC: 0.326788 cumulative IPC: 0.318401 (Simulation time: 2 hr 1 min 14 sec) 
Heartbeat CPU 0 instructions: 921000002 cycles: 2927997097 heartbeat IPC: 0.318266 cumulative IPC: 0.318401 (Simulation time: 2 hr 1 min 22 sec) 
Heartbeat CPU 0 instructions: 922000001 cycles: 2930882409 heartbeat IPC: 0.346583 cumulative IPC: 0.318455 (Simulation time: 2 hr 1 min 29 sec) 
Heartbeat CPU 0 instructions: 923000001 cycles: 2933828359 heartbeat IPC: 0.339449 cumulative IPC: 0.318497 (Simulation time: 2 hr 1 min 37 sec) 
Heartbeat CPU 0 instructions: 924000000 cycles: 2936675763 heartbeat IPC: 0.351197 cumulative IPC: 0.31856 (Simulation time: 2 hr 1 min 45 sec) 
Heartbeat CPU 0 instructions: 925000001 cycles: 2939495740 heartbeat IPC: 0.354613 cumulative IPC: 0.318628 (Simulation time: 2 hr 1 min 51 sec) 
Heartbeat CPU 0 instructions: 926000000 cycles: 2942367512 heartbeat IPC: 0.348217 cumulative IPC: 0.318685 (Simulation time: 2 hr 1 min 59 sec) 
Heartbeat CPU 0 instructions: 927000002 cycles: 2945071035 heartbeat IPC: 0.369888 cumulative IPC: 0.318777 (Simulation time: 2 hr 2 min 6 sec) 
Heartbeat CPU 0 instructions: 928000001 cycles: 2947607036 heartbeat IPC: 0.394321 cumulative IPC: 0.318905 (Simulation time: 2 hr 2 min 13 sec) 
Heartbeat CPU 0 instructions: 929000000 cycles: 2950251749 heartbeat IPC: 0.378112 cumulative IPC: 0.319009 (Simulation time: 2 hr 2 min 21 sec) 
Heartbeat CPU 0 instructions: 930000001 cycles: 2952660739 heartbeat IPC: 0.415112 cumulative IPC: 0.319163 (Simulation time: 2 hr 2 min 27 sec) 
Heartbeat CPU 0 instructions: 931000002 cycles: 2955383911 heartbeat IPC: 0.367219 cumulative IPC: 0.31925 (Simulation time: 2 hr 2 min 34 sec) 
Heartbeat CPU 0 instructions: 932000001 cycles: 2957888728 heartbeat IPC: 0.39923 cumulative IPC: 0.319383 (Simulation time: 2 hr 2 min 42 sec) 
Heartbeat CPU 0 instructions: 933000003 cycles: 2961381768 heartbeat IPC: 0.286284 cumulative IPC: 0.319306 (Simulation time: 2 hr 2 min 50 sec) 
Heartbeat CPU 0 instructions: 934000000 cycles: 2964412463 heartbeat IPC: 0.329956 cumulative IPC: 0.319328 (Simulation time: 2 hr 2 min 58 sec) 
Heartbeat CPU 0 instructions: 935000000 cycles: 2966900814 heartbeat IPC: 0.401873 cumulative IPC: 0.319463 (Simulation time: 2 hr 3 min 5 sec) 
Heartbeat CPU 0 instructions: 936000001 cycles: 2969513677 heartbeat IPC: 0.382722 cumulative IPC: 0.319572 (Simulation time: 2 hr 3 min 13 sec) 
Heartbeat CPU 0 instructions: 937000002 cycles: 2972720342 heartbeat IPC: 0.311851 cumulative IPC: 0.319555 (Simulation time: 2 hr 3 min 21 sec) 
Heartbeat CPU 0 instructions: 938000002 cycles: 2975776248 heartbeat IPC: 0.327235 cumulative IPC: 0.319571 (Simulation time: 2 hr 3 min 28 sec) 
Heartbeat CPU 0 instructions: 939000000 cycles: 2978521527 heartbeat IPC: 0.364261 cumulative IPC: 0.319651 (Simulation time: 2 hr 3 min 37 sec) 
Heartbeat CPU 0 instructions: 940000000 cycles: 2982370244 heartbeat IPC: 0.259827 cumulative IPC: 0.319501 (Simulation time: 2 hr 3 min 46 sec) 
Heartbeat CPU 0 instructions: 941000003 cycles: 2985789165 heartbeat IPC: 0.292491 cumulative IPC: 0.319441 (Simulation time: 2 hr 3 min 54 sec) 
Heartbeat CPU 0 instructions: 942000000 cycles: 2989002155 heartbeat IPC: 0.311236 cumulative IPC: 0.319424 (Simulation time: 2 hr 4 min 2 sec) 
Heartbeat CPU 0 instructions: 943000001 cycles: 2992136283 heartbeat IPC: 0.319068 cumulative IPC: 0.319423 (Simulation time: 2 hr 4 min 10 sec) 
Heartbeat CPU 0 instructions: 944000000 cycles: 2994569291 heartbeat IPC: 0.411013 cumulative IPC: 0.319567 (Simulation time: 2 hr 4 min 17 sec) 
Heartbeat CPU 0 instructions: 945000001 cycles: 2998196493 heartbeat IPC: 0.275695 cumulative IPC: 0.319464 (Simulation time: 2 hr 4 min 26 sec) 
Heartbeat CPU 0 instructions: 946000000 cycles: 3001772169 heartbeat IPC: 0.279667 cumulative IPC: 0.319373 (Simulation time: 2 hr 4 min 34 sec) 
Heartbeat CPU 0 instructions: 947000003 cycles: 3004956128 heartbeat IPC: 0.314075 cumulative IPC: 0.319362 (Simulation time: 2 hr 4 min 42 sec) 
Heartbeat CPU 0 instructions: 948000000 cycles: 3007618445 heartbeat IPC: 0.375612 cumulative IPC: 0.319458 (Simulation time: 2 hr 4 min 49 sec) 
Heartbeat CPU 0 instructions: 949000001 cycles: 3010589254 heartbeat IPC: 0.336609 cumulative IPC: 0.319491 (Simulation time: 2 hr 4 min 57 sec) 
Heartbeat CPU 0 instructions: 950000001 cycles: 3013231457 heartbeat IPC: 0.378472 cumulative IPC: 0.31959 (Simulation time: 2 hr 5 min 4 sec) 
Finished CPU 0 instructions: 500000001 cycles: 1564503289 cumulative IPC: 0.31959 (Simulation time: 2 hr 5 min 4 sec) 

ChampSim completed all CPUs

Region of Interest Statistics

CPU 0 cumulative IPC: 0.31959 instructions: 500000001 cycles: 1564503289
L1D TOTAL     ACCESS:  172852123  HIT:  160227500  MISS:   12624623
L1D LOAD      ACCESS:   95162358  HIT:   84072281  MISS:   11090077
L1D RFO       ACCESS:   77689765  HIT:   76155219  MISS:    1534546
L1D PREFETCH  ACCESS:          0  HIT:          0  MISS:          0
L1D WRITEBACK ACCESS:          0  HIT:          0  MISS:          0
L1D PREFETCH  REQUESTED:          0  ISSUED:          0  USEFUL:          0  USELESS:          0
L1D AVERAGE MISS LATENCY: 150.442 cycles
L1I TOTAL     ACCESS:  104079016  HIT:  104042555  MISS:      36461
L1I LOAD      ACCESS:  104079016  HIT:  104042555  MISS:      36461
L1I RFO       ACCESS:          0  HIT:          0  MISS:          0
L1I PREFETCH  ACCESS:          0  HIT:          0  MISS:          0
L1I WRITEBACK ACCESS:          0  HIT:          0  MISS:          0
L1I PREFETCH  REQUESTED:          0  ISSUED:          0  USEFUL:          0  USELESS:          0
L1I AVERAGE MISS LATENCY: 82.8162 cycles
L2C TOTAL     ACCESS:   18058825  HIT:    7195998  MISS:   10862827
L2C LOAD      ACCESS:   11126290  HIT:    1713427  MISS:    9412863
L2C RFO       ACCESS:    1534536  HIT:      95902  MISS:    1438634
L2C PREFETCH  ACCESS:          0  HIT:          0  MISS:          0
L2C WRITEBACK ACCESS:    5397999  HIT:    5386669  MISS:      11330
L2C PREFETCH  REQUESTED:          0  ISSUED:          0  USEFUL:          0  USELESS:          0
L2C AVERAGE MISS LATENCY: 153.546 cycles
LLC TOTAL     ACCESS:   21152944  HIT:    8385534  MISS:   12767410
LLC LOAD      ACCESS:    9412857  HIT:    2663433  MISS:    6749424
LLC RFO       ACCESS:    1438634  HIT:     284344  MISS:    1154290
LLC PREFETCH  ACCESS:    5621607  HIT:     787495  MISS:    4834112
LLC WRITEBACK ACCESS:    4679846  HIT:    4650262  MISS:      29584
LLC PREFETCH  REQUESTED:    6057432  ISSUED:    6049832  USEFUL:    1321895  USELESS:    3505591
LLC AVERAGE MISS LATENCY: 166.884 cycles
Major fault: 0 Minor fault: 36358

DRAM Statistics
 CHANNEL 0
 RQ ROW_BUFFER_HIT:    1676725  ROW_BUFFER_MISS:   11060960
 DBUS_CONGESTED:    7629839
 WQ ROW_BUFFER_HIT:     878749  ROW_BUFFER_MISS:    3137798  FULL:          0

 AVG_CONGESTED_CYCLE: 6

CPU 0 Branch Prediction Accuracy: 98.4343% MPKI: 3.76231 Average ROB Occupancy at Mispredict: 99.5172

Branch types
NOT_BRANCH: 379852179 75.9704%
BRANCH_DIRECT_JUMP: 8777463 1.75549%
BRANCH_INDIRECT: 1706905 0.341381%
BRANCH_CONDITIONAL: 81114942 16.223%
BRANCH_DIRECT_CALL: 12087033 2.41741%
BRANCH_INDIRECT_CALL: 2187376 0.437475%
BRANCH_RETURN: 14274407 2.85488%
BRANCH_OTHER: 0 0%


gzip: stdout: Broken pipe
