
*** ChampSim Multicore Out-of-Order Simulator ***

Warmup Instructions: 1000000
Prefetch Warmup Instructions: 450000000
Simulation Instructions: 500000000
Stat Printing Period: 1000000
Number of CPUs: 1
LLC sets: 2048
LLC ways: 16
Off-chip DRAM Size: 4096 MB Channels: 1 Width: 64-bit Data Rate: 3200 MT/s

CPU 0 runs /scratch/cluster/cmolder/ML-DPC/ChampSimTraces/spec06/473.astar-s1.trace.gz
Read seed: 801
Heartbeat CPU 0 instructions: 1000003 cycles: 339324 heartbeat IPC: 2.94704 cumulative IPC: 2.94704 (Simulation time: 0 hr 0 min 6 sec) 

Warmup complete CPU 0 instructions: 1000003 cycles: 339324 (Simulation time: 0 hr 0 min 6 sec) 

Heartbeat CPU 0 instructions: 2000000 cycles: 2350143 heartbeat IPC: 0.497308 cumulative IPC: 0.497308 (Simulation time: 0 hr 0 min 9 sec) 
Heartbeat CPU 0 instructions: 3000003 cycles: 4223041 heartbeat IPC: 0.533934 cumulative IPC: 0.514971 (Simulation time: 0 hr 0 min 13 sec) 
Heartbeat CPU 0 instructions: 4000000 cycles: 6156827 heartbeat IPC: 0.517119 cumulative IPC: 0.515685 (Simulation time: 0 hr 0 min 17 sec) 
Heartbeat CPU 0 instructions: 5000003 cycles: 8038579 heartbeat IPC: 0.531421 cumulative IPC: 0.519531 (Simulation time: 0 hr 0 min 21 sec) 
Heartbeat CPU 0 instructions: 6000001 cycles: 9969871 heartbeat IPC: 0.517787 cumulative IPC: 0.519181 (Simulation time: 0 hr 0 min 25 sec) 
Heartbeat CPU 0 instructions: 7000001 cycles: 12254219 heartbeat IPC: 0.437762 cumulative IPC: 0.503571 (Simulation time: 0 hr 0 min 29 sec) 
Heartbeat CPU 0 instructions: 8000002 cycles: 14163777 heartbeat IPC: 0.523682 cumulative IPC: 0.506349 (Simulation time: 0 hr 0 min 33 sec) 
Heartbeat CPU 0 instructions: 9000001 cycles: 16052830 heartbeat IPC: 0.529365 cumulative IPC: 0.509116 (Simulation time: 0 hr 0 min 36 sec) 
Heartbeat CPU 0 instructions: 10000000 cycles: 18154236 heartbeat IPC: 0.475871 cumulative IPC: 0.505195 (Simulation time: 0 hr 0 min 41 sec) 
Heartbeat CPU 0 instructions: 11000000 cycles: 20501654 heartbeat IPC: 0.426 cumulative IPC: 0.495974 (Simulation time: 0 hr 0 min 45 sec) 
Heartbeat CPU 0 instructions: 12000000 cycles: 22525314 heartbeat IPC: 0.494154 cumulative IPC: 0.495808 (Simulation time: 0 hr 0 min 49 sec) 
Heartbeat CPU 0 instructions: 13000003 cycles: 24387499 heartbeat IPC: 0.537005 cumulative IPC: 0.498998 (Simulation time: 0 hr 0 min 53 sec) 
Heartbeat CPU 0 instructions: 14000003 cycles: 26485058 heartbeat IPC: 0.476745 cumulative IPC: 0.497213 (Simulation time: 0 hr 0 min 57 sec) 
Heartbeat CPU 0 instructions: 15000000 cycles: 28836755 heartbeat IPC: 0.425224 cumulative IPC: 0.491272 (Simulation time: 0 hr 1 min 0 sec) 
Heartbeat CPU 0 instructions: 16000002 cycles: 30840945 heartbeat IPC: 0.498956 cumulative IPC: 0.491777 (Simulation time: 0 hr 1 min 4 sec) 
Heartbeat CPU 0 instructions: 17000000 cycles: 32714381 heartbeat IPC: 0.533778 cumulative IPC: 0.494208 (Simulation time: 0 hr 1 min 8 sec) 
Heartbeat CPU 0 instructions: 18000000 cycles: 34653670 heartbeat IPC: 0.515653 cumulative IPC: 0.49542 (Simulation time: 0 hr 1 min 12 sec) 
Heartbeat CPU 0 instructions: 19000000 cycles: 36700295 heartbeat IPC: 0.488609 cumulative IPC: 0.495036 (Simulation time: 0 hr 1 min 16 sec) 
Heartbeat CPU 0 instructions: 20000001 cycles: 38849290 heartbeat IPC: 0.465334 cumulative IPC: 0.493379 (Simulation time: 0 hr 1 min 20 sec) 
Heartbeat CPU 0 instructions: 21000002 cycles: 41025279 heartbeat IPC: 0.459562 cumulative IPC: 0.49157 (Simulation time: 0 hr 1 min 24 sec) 
Heartbeat CPU 0 instructions: 22000000 cycles: 43251147 heartbeat IPC: 0.449262 cumulative IPC: 0.489376 (Simulation time: 0 hr 1 min 28 sec) 
Heartbeat CPU 0 instructions: 23000000 cycles: 45672531 heartbeat IPC: 0.412987 cumulative IPC: 0.485295 (Simulation time: 0 hr 1 min 32 sec) 
Heartbeat CPU 0 instructions: 24000000 cycles: 48294800 heartbeat IPC: 0.381349 cumulative IPC: 0.479611 (Simulation time: 0 hr 1 min 36 sec) 
Heartbeat CPU 0 instructions: 25000000 cycles: 51272829 heartbeat IPC: 0.335793 cumulative IPC: 0.471203 (Simulation time: 0 hr 1 min 41 sec) 
Heartbeat CPU 0 instructions: 26000001 cycles: 54526940 heartbeat IPC: 0.307304 cumulative IPC: 0.46136 (Simulation time: 0 hr 1 min 45 sec) 
Heartbeat CPU 0 instructions: 27000001 cycles: 57646331 heartbeat IPC: 0.320575 cumulative IPC: 0.453697 (Simulation time: 0 hr 1 min 49 sec) 
Heartbeat CPU 0 instructions: 28000003 cycles: 60580072 heartbeat IPC: 0.340862 cumulative IPC: 0.448202 (Simulation time: 0 hr 1 min 53 sec) 
Heartbeat CPU 0 instructions: 29000001 cycles: 63228638 heartbeat IPC: 0.377562 cumulative IPC: 0.445227 (Simulation time: 0 hr 1 min 57 sec) 
Heartbeat CPU 0 instructions: 30000002 cycles: 65944410 heartbeat IPC: 0.36822 cumulative IPC: 0.442039 (Simulation time: 0 hr 2 min 1 sec) 
Heartbeat CPU 0 instructions: 31000002 cycles: 68782203 heartbeat IPC: 0.352387 cumulative IPC: 0.438322 (Simulation time: 0 hr 2 min 5 sec) 
Heartbeat CPU 0 instructions: 32000000 cycles: 71784388 heartbeat IPC: 0.33309 cumulative IPC: 0.4339 (Simulation time: 0 hr 2 min 8 sec) 
Heartbeat CPU 0 instructions: 33000000 cycles: 74950893 heartbeat IPC: 0.315806 cumulative IPC: 0.428888 (Simulation time: 0 hr 2 min 13 sec) 
Heartbeat CPU 0 instructions: 34000003 cycles: 78148091 heartbeat IPC: 0.312775 cumulative IPC: 0.424117 (Simulation time: 0 hr 2 min 17 sec) 
Heartbeat CPU 0 instructions: 35000000 cycles: 81221324 heartbeat IPC: 0.325389 cumulative IPC: 0.420365 (Simulation time: 0 hr 2 min 21 sec) 
Heartbeat CPU 0 instructions: 36000000 cycles: 84520309 heartbeat IPC: 0.303124 cumulative IPC: 0.415771 (Simulation time: 0 hr 2 min 25 sec) 
Heartbeat CPU 0 instructions: 37000000 cycles: 87941792 heartbeat IPC: 0.292271 cumulative IPC: 0.410947 (Simulation time: 0 hr 2 min 30 sec) 
Heartbeat CPU 0 instructions: 38000000 cycles: 91189859 heartbeat IPC: 0.307875 cumulative IPC: 0.407262 (Simulation time: 0 hr 2 min 34 sec) 
Heartbeat CPU 0 instructions: 39000001 cycles: 94268853 heartbeat IPC: 0.324782 cumulative IPC: 0.404559 (Simulation time: 0 hr 2 min 38 sec) 
Heartbeat CPU 0 instructions: 40000002 cycles: 97241762 heartbeat IPC: 0.336371 cumulative IPC: 0.402467 (Simulation time: 0 hr 2 min 42 sec) 
Heartbeat CPU 0 instructions: 41000000 cycles: 100188444 heartbeat IPC: 0.339364 cumulative IPC: 0.400604 (Simulation time: 0 hr 2 min 46 sec) 
Heartbeat CPU 0 instructions: 42000001 cycles: 103042590 heartbeat IPC: 0.350368 cumulative IPC: 0.399208 (Simulation time: 0 hr 2 min 51 sec) 
Heartbeat CPU 0 instructions: 43000001 cycles: 105470737 heartbeat IPC: 0.411837 cumulative IPC: 0.3995 (Simulation time: 0 hr 2 min 55 sec) 
Heartbeat CPU 0 instructions: 44000000 cycles: 107798894 heartbeat IPC: 0.429524 cumulative IPC: 0.40015 (Simulation time: 0 hr 2 min 59 sec) 
Heartbeat CPU 0 instructions: 45000000 cycles: 110283429 heartbeat IPC: 0.40249 cumulative IPC: 0.400203 (Simulation time: 0 hr 3 min 3 sec) 
Heartbeat CPU 0 instructions: 46000001 cycles: 112571496 heartbeat IPC: 0.437051 cumulative IPC: 0.400955 (Simulation time: 0 hr 3 min 7 sec) 
Heartbeat CPU 0 instructions: 47000000 cycles: 114958115 heartbeat IPC: 0.419002 cumulative IPC: 0.40133 (Simulation time: 0 hr 3 min 11 sec) 
Heartbeat CPU 0 instructions: 48000001 cycles: 117380296 heartbeat IPC: 0.412851 cumulative IPC: 0.401569 (Simulation time: 0 hr 3 min 15 sec) 
Heartbeat CPU 0 instructions: 49000001 cycles: 119888492 heartbeat IPC: 0.398693 cumulative IPC: 0.401508 (Simulation time: 0 hr 3 min 20 sec) 
Heartbeat CPU 0 instructions: 50000001 cycles: 122272147 heartbeat IPC: 0.419524 cumulative IPC: 0.401861 (Simulation time: 0 hr 3 min 23 sec) 
Heartbeat CPU 0 instructions: 51000000 cycles: 125301154 heartbeat IPC: 0.330141 cumulative IPC: 0.400122 (Simulation time: 0 hr 3 min 28 sec) 
Heartbeat CPU 0 instructions: 52000001 cycles: 128501187 heartbeat IPC: 0.312497 cumulative IPC: 0.397934 (Simulation time: 0 hr 3 min 32 sec) 
Heartbeat CPU 0 instructions: 53000002 cycles: 130538653 heartbeat IPC: 0.490806 cumulative IPC: 0.399388 (Simulation time: 0 hr 3 min 36 sec) 
Heartbeat CPU 0 instructions: 54000000 cycles: 132566333 heartbeat IPC: 0.493173 cumulative IPC: 0.400826 (Simulation time: 0 hr 3 min 40 sec) 
Heartbeat CPU 0 instructions: 55000000 cycles: 134617798 heartbeat IPC: 0.487457 cumulative IPC: 0.402149 (Simulation time: 0 hr 3 min 44 sec) 
Heartbeat CPU 0 instructions: 56000001 cycles: 136714619 heartbeat IPC: 0.476913 cumulative IPC: 0.403299 (Simulation time: 0 hr 3 min 48 sec) 
Heartbeat CPU 0 instructions: 57000000 cycles: 138705901 heartbeat IPC: 0.502189 cumulative IPC: 0.404722 (Simulation time: 0 hr 3 min 53 sec) 
Heartbeat CPU 0 instructions: 58000002 cycles: 140644682 heartbeat IPC: 0.515789 cumulative IPC: 0.406257 (Simulation time: 0 hr 3 min 57 sec) 
Heartbeat CPU 0 instructions: 59000000 cycles: 142653576 heartbeat IPC: 0.497785 cumulative IPC: 0.407549 (Simulation time: 0 hr 4 min 0 sec) 
Heartbeat CPU 0 instructions: 60000003 cycles: 144552381 heartbeat IPC: 0.526649 cumulative IPC: 0.409117 (Simulation time: 0 hr 4 min 5 sec) 
Heartbeat CPU 0 instructions: 61000001 cycles: 146386774 heartbeat IPC: 0.545138 cumulative IPC: 0.410825 (Simulation time: 0 hr 4 min 9 sec) 
Heartbeat CPU 0 instructions: 62000001 cycles: 148198319 heartbeat IPC: 0.552015 cumulative IPC: 0.412555 (Simulation time: 0 hr 4 min 13 sec) 
Heartbeat CPU 0 instructions: 63000000 cycles: 150079981 heartbeat IPC: 0.531445 cumulative IPC: 0.414049 (Simulation time: 0 hr 4 min 17 sec) 
Heartbeat CPU 0 instructions: 64000003 cycles: 151880220 heartbeat IPC: 0.555483 cumulative IPC: 0.415729 (Simulation time: 0 hr 4 min 21 sec) 
Heartbeat CPU 0 instructions: 65000001 cycles: 153620717 heartbeat IPC: 0.574547 cumulative IPC: 0.417533 (Simulation time: 0 hr 4 min 25 sec) 
Heartbeat CPU 0 instructions: 66000000 cycles: 155391041 heartbeat IPC: 0.564868 cumulative IPC: 0.419215 (Simulation time: 0 hr 4 min 29 sec) 
Heartbeat CPU 0 instructions: 67000001 cycles: 157173331 heartbeat IPC: 0.561076 cumulative IPC: 0.420827 (Simulation time: 0 hr 4 min 33 sec) 
Heartbeat CPU 0 instructions: 68000000 cycles: 158915178 heartbeat IPC: 0.574103 cumulative IPC: 0.422511 (Simulation time: 0 hr 4 min 37 sec) 
Heartbeat CPU 0 instructions: 69000002 cycles: 160861757 heartbeat IPC: 0.513723 cumulative IPC: 0.423617 (Simulation time: 0 hr 4 min 42 sec) 
Heartbeat CPU 0 instructions: 70000001 cycles: 162838932 heartbeat IPC: 0.505772 cumulative IPC: 0.424616 (Simulation time: 0 hr 4 min 46 sec) 
Heartbeat CPU 0 instructions: 71000000 cycles: 164827074 heartbeat IPC: 0.502982 cumulative IPC: 0.425564 (Simulation time: 0 hr 4 min 50 sec) 
Heartbeat CPU 0 instructions: 72000000 cycles: 166824278 heartbeat IPC: 0.5007 cumulative IPC: 0.426465 (Simulation time: 0 hr 4 min 54 sec) 
Heartbeat CPU 0 instructions: 73000002 cycles: 168767280 heartbeat IPC: 0.514669 cumulative IPC: 0.427482 (Simulation time: 0 hr 4 min 58 sec) 
Heartbeat CPU 0 instructions: 74000003 cycles: 170491382 heartbeat IPC: 0.580013 cumulative IPC: 0.429028 (Simulation time: 0 hr 5 min 2 sec) 
Heartbeat CPU 0 instructions: 75000000 cycles: 172402439 heartbeat IPC: 0.523269 cumulative IPC: 0.430075 (Simulation time: 0 hr 5 min 6 sec) 
Heartbeat CPU 0 instructions: 76000002 cycles: 174337074 heartbeat IPC: 0.516894 cumulative IPC: 0.43104 (Simulation time: 0 hr 5 min 11 sec) 
Heartbeat CPU 0 instructions: 77000000 cycles: 176911226 heartbeat IPC: 0.388477 cumulative IPC: 0.43042 (Simulation time: 0 hr 5 min 15 sec) 
Heartbeat CPU 0 instructions: 78000002 cycles: 179436300 heartbeat IPC: 0.396029 cumulative IPC: 0.429935 (Simulation time: 0 hr 5 min 19 sec) 
Heartbeat CPU 0 instructions: 79000002 cycles: 181419673 heartbeat IPC: 0.504192 cumulative IPC: 0.430748 (Simulation time: 0 hr 5 min 23 sec) 
Heartbeat CPU 0 instructions: 80000000 cycles: 183532654 heartbeat IPC: 0.473264 cumulative IPC: 0.431238 (Simulation time: 0 hr 5 min 28 sec) 
Heartbeat CPU 0 instructions: 81000002 cycles: 185625394 heartbeat IPC: 0.477843 cumulative IPC: 0.431765 (Simulation time: 0 hr 5 min 32 sec) 
Heartbeat CPU 0 instructions: 82000000 cycles: 187600735 heartbeat IPC: 0.506241 cumulative IPC: 0.43255 (Simulation time: 0 hr 5 min 36 sec) 
Heartbeat CPU 0 instructions: 83000001 cycles: 189558694 heartbeat IPC: 0.510736 cumulative IPC: 0.433359 (Simulation time: 0 hr 5 min 40 sec) 
Heartbeat CPU 0 instructions: 84000002 cycles: 191518872 heartbeat IPC: 0.510158 cumulative IPC: 0.434147 (Simulation time: 0 hr 5 min 44 sec) 
Heartbeat CPU 0 instructions: 85000000 cycles: 193459851 heartbeat IPC: 0.515203 cumulative IPC: 0.434962 (Simulation time: 0 hr 5 min 48 sec) 
Heartbeat CPU 0 instructions: 86000001 cycles: 195371931 heartbeat IPC: 0.522991 cumulative IPC: 0.435825 (Simulation time: 0 hr 5 min 53 sec) 
Heartbeat CPU 0 instructions: 87000000 cycles: 197246291 heartbeat IPC: 0.533515 cumulative IPC: 0.436754 (Simulation time: 0 hr 5 min 57 sec) 
Heartbeat CPU 0 instructions: 88000000 cycles: 199263473 heartbeat IPC: 0.495741 cumulative IPC: 0.437353 (Simulation time: 0 hr 6 min 1 sec) 
Heartbeat CPU 0 instructions: 89000001 cycles: 201269605 heartbeat IPC: 0.498472 cumulative IPC: 0.437963 (Simulation time: 0 hr 6 min 5 sec) 
Heartbeat CPU 0 instructions: 90000002 cycles: 203175180 heartbeat IPC: 0.524777 cumulative IPC: 0.438778 (Simulation time: 0 hr 6 min 10 sec) 
Heartbeat CPU 0 instructions: 91000003 cycles: 205134990 heartbeat IPC: 0.510254 cumulative IPC: 0.439462 (Simulation time: 0 hr 6 min 14 sec) 
Heartbeat CPU 0 instructions: 92000000 cycles: 207527821 heartbeat IPC: 0.417914 cumulative IPC: 0.439214 (Simulation time: 0 hr 6 min 18 sec) 
Heartbeat CPU 0 instructions: 93000000 cycles: 209533977 heartbeat IPC: 0.498466 cumulative IPC: 0.439782 (Simulation time: 0 hr 6 min 22 sec) 
Heartbeat CPU 0 instructions: 94000000 cycles: 211479136 heartbeat IPC: 0.514097 cumulative IPC: 0.440466 (Simulation time: 0 hr 6 min 26 sec) 
Heartbeat CPU 0 instructions: 95000001 cycles: 213311792 heartbeat IPC: 0.545657 cumulative IPC: 0.441372 (Simulation time: 0 hr 6 min 30 sec) 
Heartbeat CPU 0 instructions: 96000002 cycles: 215167199 heartbeat IPC: 0.538966 cumulative IPC: 0.442214 (Simulation time: 0 hr 6 min 34 sec) 
Heartbeat CPU 0 instructions: 97000000 cycles: 216965939 heartbeat IPC: 0.555944 cumulative IPC: 0.443159 (Simulation time: 0 hr 6 min 38 sec) 
Heartbeat CPU 0 instructions: 98000001 cycles: 218867587 heartbeat IPC: 0.52586 cumulative IPC: 0.443879 (Simulation time: 0 hr 6 min 42 sec) 
Heartbeat CPU 0 instructions: 99000000 cycles: 221222659 heartbeat IPC: 0.424615 cumulative IPC: 0.443673 (Simulation time: 0 hr 6 min 46 sec) 
Heartbeat CPU 0 instructions: 100000003 cycles: 223354145 heartbeat IPC: 0.469158 cumulative IPC: 0.443917 (Simulation time: 0 hr 6 min 50 sec) 
Heartbeat CPU 0 instructions: 101000001 cycles: 225691626 heartbeat IPC: 0.42781 cumulative IPC: 0.44375 (Simulation time: 0 hr 6 min 54 sec) 
Heartbeat CPU 0 instructions: 102000000 cycles: 228514983 heartbeat IPC: 0.354188 cumulative IPC: 0.442641 (Simulation time: 0 hr 6 min 59 sec) 
Heartbeat CPU 0 instructions: 103000003 cycles: 231349465 heartbeat IPC: 0.352799 cumulative IPC: 0.441539 (Simulation time: 0 hr 7 min 3 sec) 
Heartbeat CPU 0 instructions: 104000003 cycles: 233761363 heartbeat IPC: 0.414611 cumulative IPC: 0.441261 (Simulation time: 0 hr 7 min 7 sec) 
Heartbeat CPU 0 instructions: 105000002 cycles: 235826324 heartbeat IPC: 0.48427 cumulative IPC: 0.441638 (Simulation time: 0 hr 7 min 11 sec) 
Heartbeat CPU 0 instructions: 106000002 cycles: 237729389 heartbeat IPC: 0.525468 cumulative IPC: 0.44231 (Simulation time: 0 hr 7 min 15 sec) 
Heartbeat CPU 0 instructions: 107000001 cycles: 239872392 heartbeat IPC: 0.466634 cumulative IPC: 0.442528 (Simulation time: 0 hr 7 min 19 sec) 
Heartbeat CPU 0 instructions: 108000002 cycles: 242174450 heartbeat IPC: 0.434394 cumulative IPC: 0.44245 (Simulation time: 0 hr 7 min 24 sec) 
Heartbeat CPU 0 instructions: 109000000 cycles: 244621192 heartbeat IPC: 0.408706 cumulative IPC: 0.442112 (Simulation time: 0 hr 7 min 28 sec) 
Heartbeat CPU 0 instructions: 110000000 cycles: 246913096 heartbeat IPC: 0.436318 cumulative IPC: 0.442058 (Simulation time: 0 hr 7 min 31 sec) 
Heartbeat CPU 0 instructions: 111000000 cycles: 249326866 heartbeat IPC: 0.41429 cumulative IPC: 0.441789 (Simulation time: 0 hr 7 min 36 sec) 
Heartbeat CPU 0 instructions: 112000002 cycles: 251722748 heartbeat IPC: 0.417384 cumulative IPC: 0.441557 (Simulation time: 0 hr 7 min 40 sec) 
Heartbeat CPU 0 instructions: 113000002 cycles: 253947118 heartbeat IPC: 0.449566 cumulative IPC: 0.441627 (Simulation time: 0 hr 7 min 44 sec) 
Heartbeat CPU 0 instructions: 114000000 cycles: 255998395 heartbeat IPC: 0.4875 cumulative IPC: 0.441995 (Simulation time: 0 hr 7 min 48 sec) 
Heartbeat CPU 0 instructions: 115000002 cycles: 258072539 heartbeat IPC: 0.482128 cumulative IPC: 0.442318 (Simulation time: 0 hr 7 min 52 sec) 
Heartbeat CPU 0 instructions: 116000002 cycles: 260169288 heartbeat IPC: 0.476929 cumulative IPC: 0.442597 (Simulation time: 0 hr 7 min 57 sec) 
Heartbeat CPU 0 instructions: 117000002 cycles: 261970357 heartbeat IPC: 0.555226 cumulative IPC: 0.443372 (Simulation time: 0 hr 8 min 1 sec) 
Heartbeat CPU 0 instructions: 118000003 cycles: 263752599 heartbeat IPC: 0.561092 cumulative IPC: 0.444169 (Simulation time: 0 hr 8 min 5 sec) 
Heartbeat CPU 0 instructions: 119000002 cycles: 265667954 heartbeat IPC: 0.522096 cumulative IPC: 0.444732 (Simulation time: 0 hr 8 min 9 sec) 
Heartbeat CPU 0 instructions: 120000002 cycles: 267840605 heartbeat IPC: 0.460267 cumulative IPC: 0.444858 (Simulation time: 0 hr 8 min 14 sec) 
Heartbeat CPU 0 instructions: 121000000 cycles: 269918611 heartbeat IPC: 0.48123 cumulative IPC: 0.445138 (Simulation time: 0 hr 8 min 18 sec) 
Heartbeat CPU 0 instructions: 122000002 cycles: 272179906 heartbeat IPC: 0.442225 cumulative IPC: 0.445114 (Simulation time: 0 hr 8 min 22 sec) 
Heartbeat CPU 0 instructions: 123000002 cycles: 274837833 heartbeat IPC: 0.376233 cumulative IPC: 0.444447 (Simulation time: 0 hr 8 min 26 sec) 
Heartbeat CPU 0 instructions: 124000003 cycles: 277655046 heartbeat IPC: 0.354961 cumulative IPC: 0.443538 (Simulation time: 0 hr 8 min 30 sec) 
Heartbeat CPU 0 instructions: 125000000 cycles: 280515647 heartbeat IPC: 0.349576 cumulative IPC: 0.442578 (Simulation time: 0 hr 8 min 34 sec) 
Heartbeat CPU 0 instructions: 126000002 cycles: 283783762 heartbeat IPC: 0.305987 cumulative IPC: 0.441004 (Simulation time: 0 hr 8 min 38 sec) 
Heartbeat CPU 0 instructions: 127000003 cycles: 287325161 heartbeat IPC: 0.282375 cumulative IPC: 0.439046 (Simulation time: 0 hr 8 min 42 sec) 
Heartbeat CPU 0 instructions: 128000002 cycles: 290766328 heartbeat IPC: 0.290599 cumulative IPC: 0.437287 (Simulation time: 0 hr 8 min 47 sec) 
Heartbeat CPU 0 instructions: 129000000 cycles: 294293929 heartbeat IPC: 0.283478 cumulative IPC: 0.435441 (Simulation time: 0 hr 8 min 51 sec) 
Heartbeat CPU 0 instructions: 130000000 cycles: 297766864 heartbeat IPC: 0.287941 cumulative IPC: 0.433719 (Simulation time: 0 hr 8 min 55 sec) 
Heartbeat CPU 0 instructions: 131000000 cycles: 300986044 heartbeat IPC: 0.310638 cumulative IPC: 0.432401 (Simulation time: 0 hr 8 min 59 sec) 
Heartbeat CPU 0 instructions: 132000000 cycles: 304381657 heartbeat IPC: 0.294498 cumulative IPC: 0.430861 (Simulation time: 0 hr 9 min 3 sec) 
Heartbeat CPU 0 instructions: 133000002 cycles: 307671905 heartbeat IPC: 0.303929 cumulative IPC: 0.429502 (Simulation time: 0 hr 9 min 8 sec) 
Heartbeat CPU 0 instructions: 134000001 cycles: 310970346 heartbeat IPC: 0.303173 cumulative IPC: 0.428161 (Simulation time: 0 hr 9 min 12 sec) 
Heartbeat CPU 0 instructions: 135000000 cycles: 314503361 heartbeat IPC: 0.283044 cumulative IPC: 0.426529 (Simulation time: 0 hr 9 min 16 sec) 
Heartbeat CPU 0 instructions: 136000002 cycles: 318267295 heartbeat IPC: 0.26568 cumulative IPC: 0.424624 (Simulation time: 0 hr 9 min 21 sec) 
Heartbeat CPU 0 instructions: 137000000 cycles: 322168086 heartbeat IPC: 0.256358 cumulative IPC: 0.422585 (Simulation time: 0 hr 9 min 25 sec) 
Heartbeat CPU 0 instructions: 138000000 cycles: 325411095 heartbeat IPC: 0.308356 cumulative IPC: 0.421445 (Simulation time: 0 hr 9 min 30 sec) 
Heartbeat CPU 0 instructions: 139000001 cycles: 327157061 heartbeat IPC: 0.572749 cumulative IPC: 0.422254 (Simulation time: 0 hr 9 min 34 sec) 
Heartbeat CPU 0 instructions: 140000000 cycles: 328989952 heartbeat IPC: 0.545586 cumulative IPC: 0.422942 (Simulation time: 0 hr 9 min 38 sec) 
Heartbeat CPU 0 instructions: 141000001 cycles: 330521470 heartbeat IPC: 0.652948 cumulative IPC: 0.424008 (Simulation time: 0 hr 9 min 42 sec) 
Heartbeat CPU 0 instructions: 142000000 cycles: 332282973 heartbeat IPC: 0.567696 cumulative IPC: 0.424771 (Simulation time: 0 hr 9 min 45 sec) 
Heartbeat CPU 0 instructions: 143000000 cycles: 334160565 heartbeat IPC: 0.532597 cumulative IPC: 0.425377 (Simulation time: 0 hr 9 min 49 sec) 
Heartbeat CPU 0 instructions: 144000000 cycles: 336098316 heartbeat IPC: 0.516062 cumulative IPC: 0.425901 (Simulation time: 0 hr 9 min 54 sec) 
Heartbeat CPU 0 instructions: 145000000 cycles: 337928965 heartbeat IPC: 0.546254 cumulative IPC: 0.426553 (Simulation time: 0 hr 9 min 58 sec) 
Heartbeat CPU 0 instructions: 146000002 cycles: 340061289 heartbeat IPC: 0.468973 cumulative IPC: 0.42682 (Simulation time: 0 hr 10 min 2 sec) 
Heartbeat CPU 0 instructions: 147000003 cycles: 342057861 heartbeat IPC: 0.500859 cumulative IPC: 0.427252 (Simulation time: 0 hr 10 min 6 sec) 
Heartbeat CPU 0 instructions: 148000002 cycles: 344075815 heartbeat IPC: 0.495551 cumulative IPC: 0.427653 (Simulation time: 0 hr 10 min 10 sec) 
Heartbeat CPU 0 instructions: 149000003 cycles: 345966701 heartbeat IPC: 0.528853 cumulative IPC: 0.428207 (Simulation time: 0 hr 10 min 15 sec) 
Heartbeat CPU 0 instructions: 150000000 cycles: 348366706 heartbeat IPC: 0.416665 cumulative IPC: 0.428127 (Simulation time: 0 hr 10 min 19 sec) 
Heartbeat CPU 0 instructions: 151000001 cycles: 350191442 heartbeat IPC: 0.548025 cumulative IPC: 0.428753 (Simulation time: 0 hr 10 min 23 sec) 
Heartbeat CPU 0 instructions: 152000002 cycles: 352013298 heartbeat IPC: 0.548891 cumulative IPC: 0.429375 (Simulation time: 0 hr 10 min 27 sec) 
Heartbeat CPU 0 instructions: 153000000 cycles: 353830419 heartbeat IPC: 0.55032 cumulative IPC: 0.429997 (Simulation time: 0 hr 10 min 32 sec) 
Heartbeat CPU 0 instructions: 154000000 cycles: 355847792 heartbeat IPC: 0.495694 cumulative IPC: 0.430369 (Simulation time: 0 hr 10 min 36 sec) 
Heartbeat CPU 0 instructions: 155000001 cycles: 359045311 heartbeat IPC: 0.312743 cumulative IPC: 0.429321 (Simulation time: 0 hr 10 min 40 sec) 
Heartbeat CPU 0 instructions: 156000000 cycles: 362475901 heartbeat IPC: 0.291495 cumulative IPC: 0.428015 (Simulation time: 0 hr 10 min 44 sec) 
Heartbeat CPU 0 instructions: 157000001 cycles: 365756967 heartbeat IPC: 0.304779 cumulative IPC: 0.426909 (Simulation time: 0 hr 10 min 48 sec) 
Heartbeat CPU 0 instructions: 158000002 cycles: 368256323 heartbeat IPC: 0.400103 cumulative IPC: 0.426727 (Simulation time: 0 hr 10 min 52 sec) 
Heartbeat CPU 0 instructions: 159000000 cycles: 370297012 heartbeat IPC: 0.49003 cumulative IPC: 0.427076 (Simulation time: 0 hr 10 min 56 sec) 
Heartbeat CPU 0 instructions: 160000001 cycles: 372352196 heartbeat IPC: 0.486575 cumulative IPC: 0.427405 (Simulation time: 0 hr 11 min 1 sec) 
Heartbeat CPU 0 instructions: 161000002 cycles: 374602496 heartbeat IPC: 0.444386 cumulative IPC: 0.427507 (Simulation time: 0 hr 11 min 5 sec) 
Heartbeat CPU 0 instructions: 162000003 cycles: 377495622 heartbeat IPC: 0.345647 cumulative IPC: 0.426879 (Simulation time: 0 hr 11 min 8 sec) 
Heartbeat CPU 0 instructions: 163000000 cycles: 380688362 heartbeat IPC: 0.31321 cumulative IPC: 0.425925 (Simulation time: 0 hr 11 min 12 sec) 
Heartbeat CPU 0 instructions: 164000000 cycles: 383604495 heartbeat IPC: 0.34292 cumulative IPC: 0.425293 (Simulation time: 0 hr 11 min 17 sec) 
Heartbeat CPU 0 instructions: 165000000 cycles: 386661670 heartbeat IPC: 0.327099 cumulative IPC: 0.424516 (Simulation time: 0 hr 11 min 21 sec) 
Heartbeat CPU 0 instructions: 166000001 cycles: 389453413 heartbeat IPC: 0.3582 cumulative IPC: 0.42404 (Simulation time: 0 hr 11 min 25 sec) 
Heartbeat CPU 0 instructions: 167000000 cycles: 391746751 heartbeat IPC: 0.436045 cumulative IPC: 0.424111 (Simulation time: 0 hr 11 min 29 sec) 
Heartbeat CPU 0 instructions: 168000002 cycles: 393709406 heartbeat IPC: 0.509515 cumulative IPC: 0.424537 (Simulation time: 0 hr 11 min 33 sec) 
Heartbeat CPU 0 instructions: 169000000 cycles: 395591865 heartbeat IPC: 0.531219 cumulative IPC: 0.425045 (Simulation time: 0 hr 11 min 37 sec) 
Heartbeat CPU 0 instructions: 170000000 cycles: 397384265 heartbeat IPC: 0.557911 cumulative IPC: 0.425645 (Simulation time: 0 hr 11 min 41 sec) 
Heartbeat CPU 0 instructions: 171000000 cycles: 399086557 heartbeat IPC: 0.587443 cumulative IPC: 0.426335 (Simulation time: 0 hr 11 min 44 sec) 
Heartbeat CPU 0 instructions: 172000001 cycles: 400839885 heartbeat IPC: 0.570345 cumulative IPC: 0.426966 (Simulation time: 0 hr 11 min 49 sec) 
Heartbeat CPU 0 instructions: 173000003 cycles: 402650586 heartbeat IPC: 0.552273 cumulative IPC: 0.42753 (Simulation time: 0 hr 11 min 53 sec) 
Heartbeat CPU 0 instructions: 174000000 cycles: 404364458 heartbeat IPC: 0.583472 cumulative IPC: 0.428191 (Simulation time: 0 hr 11 min 57 sec) 
Heartbeat CPU 0 instructions: 175000000 cycles: 406042552 heartbeat IPC: 0.595914 cumulative IPC: 0.428885 (Simulation time: 0 hr 12 min 1 sec) 
Heartbeat CPU 0 instructions: 176000000 cycles: 407910379 heartbeat IPC: 0.535381 cumulative IPC: 0.429373 (Simulation time: 0 hr 12 min 5 sec) 
Heartbeat CPU 0 instructions: 177000000 cycles: 409838890 heartbeat IPC: 0.518535 cumulative IPC: 0.429793 (Simulation time: 0 hr 12 min 9 sec) 
Heartbeat CPU 0 instructions: 178000001 cycles: 411622815 heartbeat IPC: 0.560562 cumulative IPC: 0.43036 (Simulation time: 0 hr 12 min 13 sec) 
Heartbeat CPU 0 instructions: 179000000 cycles: 413316863 heartbeat IPC: 0.590301 cumulative IPC: 0.431016 (Simulation time: 0 hr 12 min 17 sec) 
Heartbeat CPU 0 instructions: 180000002 cycles: 415101624 heartbeat IPC: 0.5603 cumulative IPC: 0.431572 (Simulation time: 0 hr 12 min 21 sec) 
Heartbeat CPU 0 instructions: 181000000 cycles: 416897804 heartbeat IPC: 0.556736 cumulative IPC: 0.432112 (Simulation time: 0 hr 12 min 25 sec) 
Heartbeat CPU 0 instructions: 182000000 cycles: 418796202 heartbeat IPC: 0.52676 cumulative IPC: 0.432542 (Simulation time: 0 hr 12 min 29 sec) 
Heartbeat CPU 0 instructions: 183000001 cycles: 420736792 heartbeat IPC: 0.515308 cumulative IPC: 0.432924 (Simulation time: 0 hr 12 min 34 sec) 
Heartbeat CPU 0 instructions: 184000000 cycles: 422773681 heartbeat IPC: 0.490944 cumulative IPC: 0.433203 (Simulation time: 0 hr 12 min 37 sec) 
Heartbeat CPU 0 instructions: 185000003 cycles: 424737495 heartbeat IPC: 0.509215 cumulative IPC: 0.433555 (Simulation time: 0 hr 12 min 42 sec) 
Heartbeat CPU 0 instructions: 186000002 cycles: 426660551 heartbeat IPC: 0.520005 cumulative IPC: 0.433945 (Simulation time: 0 hr 12 min 46 sec) 
Heartbeat CPU 0 instructions: 187000000 cycles: 428593244 heartbeat IPC: 0.517412 cumulative IPC: 0.434322 (Simulation time: 0 hr 12 min 50 sec) 
Heartbeat CPU 0 instructions: 188000001 cycles: 430500436 heartbeat IPC: 0.524332 cumulative IPC: 0.434721 (Simulation time: 0 hr 12 min 54 sec) 
Heartbeat CPU 0 instructions: 189000001 cycles: 432431027 heartbeat IPC: 0.517976 cumulative IPC: 0.435093 (Simulation time: 0 hr 12 min 58 sec) 
Heartbeat CPU 0 instructions: 190000003 cycles: 434455707 heartbeat IPC: 0.493906 cumulative IPC: 0.435367 (Simulation time: 0 hr 13 min 2 sec) 
Heartbeat CPU 0 instructions: 191000000 cycles: 436288245 heartbeat IPC: 0.54569 cumulative IPC: 0.435831 (Simulation time: 0 hr 13 min 6 sec) 
Heartbeat CPU 0 instructions: 192000000 cycles: 438015811 heartbeat IPC: 0.578849 cumulative IPC: 0.436395 (Simulation time: 0 hr 13 min 10 sec) 
Heartbeat CPU 0 instructions: 193000002 cycles: 439589222 heartbeat IPC: 0.635563 cumulative IPC: 0.437109 (Simulation time: 0 hr 13 min 14 sec) 
Heartbeat CPU 0 instructions: 194000001 cycles: 441311968 heartbeat IPC: 0.580468 cumulative IPC: 0.437669 (Simulation time: 0 hr 13 min 18 sec) 
Heartbeat CPU 0 instructions: 195000003 cycles: 443225506 heartbeat IPC: 0.522593 cumulative IPC: 0.438036 (Simulation time: 0 hr 13 min 22 sec) 
Heartbeat CPU 0 instructions: 196000002 cycles: 445088356 heartbeat IPC: 0.536811 cumulative IPC: 0.43845 (Simulation time: 0 hr 13 min 26 sec) 
Heartbeat CPU 0 instructions: 197000002 cycles: 446806371 heartbeat IPC: 0.582067 cumulative IPC: 0.439002 (Simulation time: 0 hr 13 min 30 sec) 
Heartbeat CPU 0 instructions: 198000000 cycles: 448755441 heartbeat IPC: 0.513064 cumulative IPC: 0.439324 (Simulation time: 0 hr 13 min 34 sec) 
Heartbeat CPU 0 instructions: 199000003 cycles: 450617848 heartbeat IPC: 0.536941 cumulative IPC: 0.439728 (Simulation time: 0 hr 13 min 39 sec) 
Heartbeat CPU 0 instructions: 200000002 cycles: 452362416 heartbeat IPC: 0.573207 cumulative IPC: 0.440243 (Simulation time: 0 hr 13 min 42 sec) 
Heartbeat CPU 0 instructions: 201000001 cycles: 454249828 heartbeat IPC: 0.529826 cumulative IPC: 0.440615 (Simulation time: 0 hr 13 min 47 sec) 
Heartbeat CPU 0 instructions: 202000003 cycles: 456098230 heartbeat IPC: 0.541009 cumulative IPC: 0.441023 (Simulation time: 0 hr 13 min 51 sec) 
Heartbeat CPU 0 instructions: 203000003 cycles: 457999572 heartbeat IPC: 0.525944 cumulative IPC: 0.441375 (Simulation time: 0 hr 13 min 55 sec) 
Heartbeat CPU 0 instructions: 204000002 cycles: 459913509 heartbeat IPC: 0.522483 cumulative IPC: 0.441713 (Simulation time: 0 hr 13 min 59 sec) 
Heartbeat CPU 0 instructions: 205000000 cycles: 461738969 heartbeat IPC: 0.547806 cumulative IPC: 0.442133 (Simulation time: 0 hr 14 min 3 sec) 
Heartbeat CPU 0 instructions: 206000002 cycles: 463509736 heartbeat IPC: 0.564728 cumulative IPC: 0.442602 (Simulation time: 0 hr 14 min 7 sec) 
Heartbeat CPU 0 instructions: 207000003 cycles: 465370890 heartbeat IPC: 0.537302 cumulative IPC: 0.442981 (Simulation time: 0 hr 14 min 11 sec) 
Heartbeat CPU 0 instructions: 208000000 cycles: 467759558 heartbeat IPC: 0.418642 cumulative IPC: 0.442856 (Simulation time: 0 hr 14 min 16 sec) 
Heartbeat CPU 0 instructions: 209000000 cycles: 469939360 heartbeat IPC: 0.458757 cumulative IPC: 0.44293 (Simulation time: 0 hr 14 min 20 sec) 
Heartbeat CPU 0 instructions: 210000002 cycles: 471847126 heartbeat IPC: 0.524174 cumulative IPC: 0.443259 (Simulation time: 0 hr 14 min 24 sec) 
Heartbeat CPU 0 instructions: 211000000 cycles: 473787717 heartbeat IPC: 0.515306 cumulative IPC: 0.443554 (Simulation time: 0 hr 14 min 28 sec) 
Heartbeat CPU 0 instructions: 212000001 cycles: 475870793 heartbeat IPC: 0.48006 cumulative IPC: 0.443714 (Simulation time: 0 hr 14 min 32 sec) 
Heartbeat CPU 0 instructions: 213000000 cycles: 477888730 heartbeat IPC: 0.495555 cumulative IPC: 0.443933 (Simulation time: 0 hr 14 min 36 sec) 
Heartbeat CPU 0 instructions: 214000001 cycles: 479871554 heartbeat IPC: 0.504332 cumulative IPC: 0.444183 (Simulation time: 0 hr 14 min 40 sec) 
Heartbeat CPU 0 instructions: 215000001 cycles: 481797688 heartbeat IPC: 0.519175 cumulative IPC: 0.444483 (Simulation time: 0 hr 14 min 44 sec) 
Heartbeat CPU 0 instructions: 216000000 cycles: 483724015 heartbeat IPC: 0.519122 cumulative IPC: 0.44478 (Simulation time: 0 hr 14 min 48 sec) 
Heartbeat CPU 0 instructions: 217000000 cycles: 485585761 heartbeat IPC: 0.53713 cumulative IPC: 0.445135 (Simulation time: 0 hr 14 min 52 sec) 
Heartbeat CPU 0 instructions: 218000001 cycles: 487520647 heartbeat IPC: 0.516827 cumulative IPC: 0.445419 (Simulation time: 0 hr 14 min 56 sec) 
Heartbeat CPU 0 instructions: 219000002 cycles: 489332030 heartbeat IPC: 0.552065 cumulative IPC: 0.445814 (Simulation time: 0 hr 15 min 0 sec) 
Heartbeat CPU 0 instructions: 220000000 cycles: 491214934 heartbeat IPC: 0.531093 cumulative IPC: 0.446142 (Simulation time: 0 hr 15 min 4 sec) 
Heartbeat CPU 0 instructions: 221000000 cycles: 493124528 heartbeat IPC: 0.523672 cumulative IPC: 0.446442 (Simulation time: 0 hr 15 min 8 sec) 
Heartbeat CPU 0 instructions: 222000000 cycles: 494932933 heartbeat IPC: 0.552973 cumulative IPC: 0.446831 (Simulation time: 0 hr 15 min 12 sec) 
Heartbeat CPU 0 instructions: 223000001 cycles: 496795029 heartbeat IPC: 0.53703 cumulative IPC: 0.44717 (Simulation time: 0 hr 15 min 16 sec) 
Heartbeat CPU 0 instructions: 224000002 cycles: 498667022 heartbeat IPC: 0.534191 cumulative IPC: 0.447497 (Simulation time: 0 hr 15 min 20 sec) 
Heartbeat CPU 0 instructions: 225000000 cycles: 500778879 heartbeat IPC: 0.473516 cumulative IPC: 0.447607 (Simulation time: 0 hr 15 min 25 sec) 
Heartbeat CPU 0 instructions: 226000001 cycles: 502735643 heartbeat IPC: 0.511048 cumulative IPC: 0.447854 (Simulation time: 0 hr 15 min 29 sec) 
Heartbeat CPU 0 instructions: 227000000 cycles: 504608644 heartbeat IPC: 0.533902 cumulative IPC: 0.448173 (Simulation time: 0 hr 15 min 33 sec) 
Heartbeat CPU 0 instructions: 228000000 cycles: 506426011 heartbeat IPC: 0.550247 cumulative IPC: 0.44854 (Simulation time: 0 hr 15 min 37 sec) 
Heartbeat CPU 0 instructions: 229000002 cycles: 508224436 heartbeat IPC: 0.556043 cumulative IPC: 0.44892 (Simulation time: 0 hr 15 min 41 sec) 
Heartbeat CPU 0 instructions: 230000000 cycles: 510054524 heartbeat IPC: 0.546421 cumulative IPC: 0.44927 (Simulation time: 0 hr 15 min 46 sec) 
Heartbeat CPU 0 instructions: 231000000 cycles: 511966432 heartbeat IPC: 0.523038 cumulative IPC: 0.449546 (Simulation time: 0 hr 15 min 50 sec) 
Heartbeat CPU 0 instructions: 232000000 cycles: 513927316 heartbeat IPC: 0.509974 cumulative IPC: 0.449777 (Simulation time: 0 hr 15 min 54 sec) 
Heartbeat CPU 0 instructions: 233000000 cycles: 515776499 heartbeat IPC: 0.540779 cumulative IPC: 0.450103 (Simulation time: 0 hr 15 min 58 sec) 
Heartbeat CPU 0 instructions: 234000000 cycles: 517671770 heartbeat IPC: 0.527629 cumulative IPC: 0.450387 (Simulation time: 0 hr 16 min 2 sec) 
Heartbeat CPU 0 instructions: 235000002 cycles: 519814747 heartbeat IPC: 0.466641 cumulative IPC: 0.450454 (Simulation time: 0 hr 16 min 6 sec) 
Heartbeat CPU 0 instructions: 236000001 cycles: 521922585 heartbeat IPC: 0.474419 cumulative IPC: 0.450551 (Simulation time: 0 hr 16 min 10 sec) 
Heartbeat CPU 0 instructions: 237000002 cycles: 524118090 heartbeat IPC: 0.455477 cumulative IPC: 0.450572 (Simulation time: 0 hr 16 min 14 sec) 
Heartbeat CPU 0 instructions: 238000003 cycles: 526048025 heartbeat IPC: 0.518153 cumulative IPC: 0.45082 (Simulation time: 0 hr 16 min 18 sec) 
Heartbeat CPU 0 instructions: 239000000 cycles: 527915893 heartbeat IPC: 0.535368 cumulative IPC: 0.451119 (Simulation time: 0 hr 16 min 22 sec) 
Heartbeat CPU 0 instructions: 240000001 cycles: 529980059 heartbeat IPC: 0.484458 cumulative IPC: 0.451249 (Simulation time: 0 hr 16 min 26 sec) 
Heartbeat CPU 0 instructions: 241000000 cycles: 532660539 heartbeat IPC: 0.373067 cumulative IPC: 0.450856 (Simulation time: 0 hr 16 min 30 sec) 
Heartbeat CPU 0 instructions: 242000000 cycles: 535213580 heartbeat IPC: 0.39169 cumulative IPC: 0.450573 (Simulation time: 0 hr 16 min 34 sec) 
Heartbeat CPU 0 instructions: 243000001 cycles: 537733107 heartbeat IPC: 0.3969 cumulative IPC: 0.450322 (Simulation time: 0 hr 16 min 38 sec) 
Heartbeat CPU 0 instructions: 244000003 cycles: 540549790 heartbeat IPC: 0.355028 cumulative IPC: 0.449825 (Simulation time: 0 hr 16 min 42 sec) 
Heartbeat CPU 0 instructions: 245000000 cycles: 543382714 heartbeat IPC: 0.352991 cumulative IPC: 0.44932 (Simulation time: 0 hr 16 min 47 sec) 
Heartbeat CPU 0 instructions: 246000001 cycles: 545902976 heartbeat IPC: 0.396785 cumulative IPC: 0.449077 (Simulation time: 0 hr 16 min 51 sec) 
Heartbeat CPU 0 instructions: 247000000 cycles: 547754632 heartbeat IPC: 0.540057 cumulative IPC: 0.449385 (Simulation time: 0 hr 16 min 55 sec) 
Heartbeat CPU 0 instructions: 248000003 cycles: 549492353 heartbeat IPC: 0.575468 cumulative IPC: 0.449784 (Simulation time: 0 hr 16 min 59 sec) 
Heartbeat CPU 0 instructions: 249000001 cycles: 551555132 heartbeat IPC: 0.484782 cumulative IPC: 0.449915 (Simulation time: 0 hr 17 min 3 sec) 
Heartbeat CPU 0 instructions: 250000002 cycles: 553764607 heartbeat IPC: 0.452597 cumulative IPC: 0.449925 (Simulation time: 0 hr 17 min 6 sec) 
Heartbeat CPU 0 instructions: 251000003 cycles: 556231521 heartbeat IPC: 0.405365 cumulative IPC: 0.449727 (Simulation time: 0 hr 17 min 10 sec) 
Heartbeat CPU 0 instructions: 252000002 cycles: 558867078 heartbeat IPC: 0.379426 cumulative IPC: 0.449396 (Simulation time: 0 hr 17 min 14 sec) 
Heartbeat CPU 0 instructions: 253000000 cycles: 561729253 heartbeat IPC: 0.349384 cumulative IPC: 0.448886 (Simulation time: 0 hr 17 min 19 sec) 
Heartbeat CPU 0 instructions: 254000003 cycles: 564618629 heartbeat IPC: 0.346097 cumulative IPC: 0.44836 (Simulation time: 0 hr 17 min 22 sec) 
Heartbeat CPU 0 instructions: 255000003 cycles: 567420743 heartbeat IPC: 0.356873 cumulative IPC: 0.447907 (Simulation time: 0 hr 17 min 27 sec) 
Heartbeat CPU 0 instructions: 256000002 cycles: 570254984 heartbeat IPC: 0.352828 cumulative IPC: 0.447435 (Simulation time: 0 hr 17 min 31 sec) 
Heartbeat CPU 0 instructions: 257000000 cycles: 573178687 heartbeat IPC: 0.342031 cumulative IPC: 0.446897 (Simulation time: 0 hr 17 min 35 sec) 
Heartbeat CPU 0 instructions: 258000002 cycles: 576231822 heartbeat IPC: 0.327533 cumulative IPC: 0.446264 (Simulation time: 0 hr 17 min 39 sec) 
Heartbeat CPU 0 instructions: 259000000 cycles: 579305523 heartbeat IPC: 0.32534 cumulative IPC: 0.445622 (Simulation time: 0 hr 17 min 44 sec) 
Heartbeat CPU 0 instructions: 260000001 cycles: 582139367 heartbeat IPC: 0.352878 cumulative IPC: 0.44517 (Simulation time: 0 hr 17 min 48 sec) 
Heartbeat CPU 0 instructions: 261000001 cycles: 584820379 heartbeat IPC: 0.372993 cumulative IPC: 0.444839 (Simulation time: 0 hr 17 min 52 sec) 
Heartbeat CPU 0 instructions: 262000000 cycles: 587517464 heartbeat IPC: 0.37077 cumulative IPC: 0.444499 (Simulation time: 0 hr 17 min 56 sec) 
Heartbeat CPU 0 instructions: 263000001 cycles: 590212001 heartbeat IPC: 0.371122 cumulative IPC: 0.444164 (Simulation time: 0 hr 18 min 0 sec) 
Heartbeat CPU 0 instructions: 264000000 cycles: 592634069 heartbeat IPC: 0.41287 cumulative IPC: 0.444036 (Simulation time: 0 hr 18 min 3 sec) 
Heartbeat CPU 0 instructions: 265000003 cycles: 595260352 heartbeat IPC: 0.380767 cumulative IPC: 0.443756 (Simulation time: 0 hr 18 min 7 sec) 
Heartbeat CPU 0 instructions: 266000000 cycles: 598035465 heartbeat IPC: 0.360345 cumulative IPC: 0.443369 (Simulation time: 0 hr 18 min 12 sec) 
Heartbeat CPU 0 instructions: 267000001 cycles: 600816677 heartbeat IPC: 0.359556 cumulative IPC: 0.442981 (Simulation time: 0 hr 18 min 16 sec) 
Heartbeat CPU 0 instructions: 268000002 cycles: 603632015 heartbeat IPC: 0.355197 cumulative IPC: 0.442571 (Simulation time: 0 hr 18 min 20 sec) 
Heartbeat CPU 0 instructions: 269000000 cycles: 606606441 heartbeat IPC: 0.336199 cumulative IPC: 0.442049 (Simulation time: 0 hr 18 min 24 sec) 
Heartbeat CPU 0 instructions: 270000001 cycles: 609791191 heartbeat IPC: 0.313997 cumulative IPC: 0.44138 (Simulation time: 0 hr 18 min 28 sec) 
Heartbeat CPU 0 instructions: 271000002 cycles: 613127349 heartbeat IPC: 0.299746 cumulative IPC: 0.440609 (Simulation time: 0 hr 18 min 32 sec) 
Heartbeat CPU 0 instructions: 272000002 cycles: 616548846 heartbeat IPC: 0.29227 cumulative IPC: 0.439785 (Simulation time: 0 hr 18 min 36 sec) 
Heartbeat CPU 0 instructions: 273000002 cycles: 619490532 heartbeat IPC: 0.339941 cumulative IPC: 0.439311 (Simulation time: 0 hr 18 min 41 sec) 
Heartbeat CPU 0 instructions: 274000000 cycles: 621613077 heartbeat IPC: 0.471132 cumulative IPC: 0.43942 (Simulation time: 0 hr 18 min 45 sec) 
Heartbeat CPU 0 instructions: 275000000 cycles: 623504953 heartbeat IPC: 0.528576 cumulative IPC: 0.43969 (Simulation time: 0 hr 18 min 49 sec) 
Heartbeat CPU 0 instructions: 276000000 cycles: 625433401 heartbeat IPC: 0.518552 cumulative IPC: 0.439934 (Simulation time: 0 hr 18 min 53 sec) 
Heartbeat CPU 0 instructions: 277000001 cycles: 627446852 heartbeat IPC: 0.49666 cumulative IPC: 0.440116 (Simulation time: 0 hr 18 min 57 sec) 
Heartbeat CPU 0 instructions: 278000001 cycles: 629357436 heartbeat IPC: 0.5234 cumulative IPC: 0.440369 (Simulation time: 0 hr 19 min 1 sec) 
Heartbeat CPU 0 instructions: 279000001 cycles: 631191486 heartbeat IPC: 0.545241 cumulative IPC: 0.440674 (Simulation time: 0 hr 19 min 5 sec) 
Heartbeat CPU 0 instructions: 280000003 cycles: 633196832 heartbeat IPC: 0.498668 cumulative IPC: 0.440858 (Simulation time: 0 hr 19 min 9 sec) 
Heartbeat CPU 0 instructions: 281000001 cycles: 635170448 heartbeat IPC: 0.506683 cumulative IPC: 0.441062 (Simulation time: 0 hr 19 min 13 sec) 
Heartbeat CPU 0 instructions: 282000000 cycles: 637128150 heartbeat IPC: 0.510802 cumulative IPC: 0.441277 (Simulation time: 0 hr 19 min 17 sec) 
Heartbeat CPU 0 instructions: 283000001 cycles: 639105673 heartbeat IPC: 0.505684 cumulative IPC: 0.441476 (Simulation time: 0 hr 19 min 21 sec) 
Heartbeat CPU 0 instructions: 284000001 cycles: 641123675 heartbeat IPC: 0.49554 cumulative IPC: 0.441646 (Simulation time: 0 hr 19 min 25 sec) 
Heartbeat CPU 0 instructions: 285000003 cycles: 643028525 heartbeat IPC: 0.524977 cumulative IPC: 0.441893 (Simulation time: 0 hr 19 min 29 sec) 
Heartbeat CPU 0 instructions: 286000000 cycles: 645056580 heartbeat IPC: 0.493082 cumulative IPC: 0.442054 (Simulation time: 0 hr 19 min 33 sec) 
Heartbeat CPU 0 instructions: 287000000 cycles: 646911939 heartbeat IPC: 0.538979 cumulative IPC: 0.442332 (Simulation time: 0 hr 19 min 37 sec) 
Heartbeat CPU 0 instructions: 288000000 cycles: 648689885 heartbeat IPC: 0.562447 cumulative IPC: 0.442662 (Simulation time: 0 hr 19 min 41 sec) 
Heartbeat CPU 0 instructions: 289000000 cycles: 650531892 heartbeat IPC: 0.542886 cumulative IPC: 0.442946 (Simulation time: 0 hr 19 min 46 sec) 
Heartbeat CPU 0 instructions: 290000001 cycles: 652369587 heartbeat IPC: 0.54416 cumulative IPC: 0.443231 (Simulation time: 0 hr 19 min 50 sec) 
Heartbeat CPU 0 instructions: 291000000 cycles: 654096662 heartbeat IPC: 0.579013 cumulative IPC: 0.44359 (Simulation time: 0 hr 19 min 54 sec) 
Heartbeat CPU 0 instructions: 292000000 cycles: 655869573 heartbeat IPC: 0.564044 cumulative IPC: 0.443915 (Simulation time: 0 hr 19 min 58 sec) 
Heartbeat CPU 0 instructions: 293000002 cycles: 657621972 heartbeat IPC: 0.570647 cumulative IPC: 0.444253 (Simulation time: 0 hr 20 min 2 sec) 
Heartbeat CPU 0 instructions: 294000001 cycles: 659391253 heartbeat IPC: 0.565201 cumulative IPC: 0.444578 (Simulation time: 0 hr 20 min 6 sec) 
Heartbeat CPU 0 instructions: 295000002 cycles: 661108952 heartbeat IPC: 0.582175 cumulative IPC: 0.444936 (Simulation time: 0 hr 20 min 10 sec) 
Heartbeat CPU 0 instructions: 296000001 cycles: 662761585 heartbeat IPC: 0.605094 cumulative IPC: 0.445335 (Simulation time: 0 hr 20 min 14 sec) 
Heartbeat CPU 0 instructions: 297000000 cycles: 664423808 heartbeat IPC: 0.601603 cumulative IPC: 0.445726 (Simulation time: 0 hr 20 min 18 sec) 
Heartbeat CPU 0 instructions: 298000000 cycles: 666204402 heartbeat IPC: 0.56161 cumulative IPC: 0.446036 (Simulation time: 0 hr 20 min 23 sec) 
Heartbeat CPU 0 instructions: 299000000 cycles: 667932734 heartbeat IPC: 0.578593 cumulative IPC: 0.446379 (Simulation time: 0 hr 20 min 27 sec) 
Heartbeat CPU 0 instructions: 300000001 cycles: 669683228 heartbeat IPC: 0.571268 cumulative IPC: 0.446706 (Simulation time: 0 hr 20 min 31 sec) 
Heartbeat CPU 0 instructions: 301000003 cycles: 671380918 heartbeat IPC: 0.589037 cumulative IPC: 0.447066 (Simulation time: 0 hr 20 min 35 sec) 
Heartbeat CPU 0 instructions: 302000001 cycles: 673127728 heartbeat IPC: 0.572471 cumulative IPC: 0.447392 (Simulation time: 0 hr 20 min 39 sec) 
Heartbeat CPU 0 instructions: 303000002 cycles: 674910234 heartbeat IPC: 0.561009 cumulative IPC: 0.447692 (Simulation time: 0 hr 20 min 43 sec) 
Heartbeat CPU 0 instructions: 304000000 cycles: 676708884 heartbeat IPC: 0.555971 cumulative IPC: 0.44798 (Simulation time: 0 hr 20 min 47 sec) 
Heartbeat CPU 0 instructions: 305000001 cycles: 678528977 heartbeat IPC: 0.549423 cumulative IPC: 0.448252 (Simulation time: 0 hr 20 min 51 sec) 
Heartbeat CPU 0 instructions: 306000000 cycles: 680380189 heartbeat IPC: 0.540186 cumulative IPC: 0.448502 (Simulation time: 0 hr 20 min 55 sec) 
Heartbeat CPU 0 instructions: 307000000 cycles: 682168725 heartbeat IPC: 0.559116 cumulative IPC: 0.448793 (Simulation time: 0 hr 20 min 59 sec) 
Heartbeat CPU 0 instructions: 308000000 cycles: 684022819 heartbeat IPC: 0.539347 cumulative IPC: 0.449038 (Simulation time: 0 hr 21 min 3 sec) 
Heartbeat CPU 0 instructions: 309000000 cycles: 685976909 heartbeat IPC: 0.511747 cumulative IPC: 0.449217 (Simulation time: 0 hr 21 min 7 sec) 
Heartbeat CPU 0 instructions: 310000001 cycles: 688033146 heartbeat IPC: 0.486326 cumulative IPC: 0.449328 (Simulation time: 0 hr 21 min 11 sec) 
Heartbeat CPU 0 instructions: 311000003 cycles: 690023224 heartbeat IPC: 0.502494 cumulative IPC: 0.449481 (Simulation time: 0 hr 21 min 15 sec) 
Heartbeat CPU 0 instructions: 312000002 cycles: 691939710 heartbeat IPC: 0.521788 cumulative IPC: 0.449682 (Simulation time: 0 hr 21 min 19 sec) 
Heartbeat CPU 0 instructions: 313000001 cycles: 693818348 heartbeat IPC: 0.5323 cumulative IPC: 0.449905 (Simulation time: 0 hr 21 min 23 sec) 
Heartbeat CPU 0 instructions: 314000001 cycles: 695661490 heartbeat IPC: 0.542552 cumulative IPC: 0.450151 (Simulation time: 0 hr 21 min 27 sec) 
Heartbeat CPU 0 instructions: 315000001 cycles: 697473688 heartbeat IPC: 0.551816 cumulative IPC: 0.450415 (Simulation time: 0 hr 21 min 31 sec) 
Heartbeat CPU 0 instructions: 316000003 cycles: 699330586 heartbeat IPC: 0.538534 cumulative IPC: 0.450649 (Simulation time: 0 hr 21 min 35 sec) 
Heartbeat CPU 0 instructions: 317000000 cycles: 701213595 heartbeat IPC: 0.531063 cumulative IPC: 0.450865 (Simulation time: 0 hr 21 min 40 sec) 
Heartbeat CPU 0 instructions: 318000002 cycles: 702943487 heartbeat IPC: 0.578072 cumulative IPC: 0.451179 (Simulation time: 0 hr 21 min 43 sec) 
Heartbeat CPU 0 instructions: 319000000 cycles: 704702604 heartbeat IPC: 0.568466 cumulative IPC: 0.451472 (Simulation time: 0 hr 21 min 47 sec) 
Heartbeat CPU 0 instructions: 320000003 cycles: 706428156 heartbeat IPC: 0.579526 cumulative IPC: 0.451785 (Simulation time: 0 hr 21 min 51 sec) 
Heartbeat CPU 0 instructions: 321000000 cycles: 708201775 heartbeat IPC: 0.563817 cumulative IPC: 0.452065 (Simulation time: 0 hr 21 min 55 sec) 
Heartbeat CPU 0 instructions: 322000000 cycles: 710184208 heartbeat IPC: 0.504431 cumulative IPC: 0.452211 (Simulation time: 0 hr 21 min 59 sec) 
Heartbeat CPU 0 instructions: 323000002 cycles: 712091869 heartbeat IPC: 0.524203 cumulative IPC: 0.452404 (Simulation time: 0 hr 22 min 3 sec) 
Heartbeat CPU 0 instructions: 324000000 cycles: 714145746 heartbeat IPC: 0.486883 cumulative IPC: 0.452504 (Simulation time: 0 hr 22 min 7 sec) 
Heartbeat CPU 0 instructions: 325000000 cycles: 716691842 heartbeat IPC: 0.392758 cumulative IPC: 0.452291 (Simulation time: 0 hr 22 min 12 sec) 
Heartbeat CPU 0 instructions: 326000001 cycles: 719082815 heartbeat IPC: 0.41824 cumulative IPC: 0.452178 (Simulation time: 0 hr 22 min 16 sec) 
Heartbeat CPU 0 instructions: 327000000 cycles: 721352849 heartbeat IPC: 0.440522 cumulative IPC: 0.452141 (Simulation time: 0 hr 22 min 21 sec) 
Heartbeat CPU 0 instructions: 328000002 cycles: 723325096 heartbeat IPC: 0.507037 cumulative IPC: 0.452291 (Simulation time: 0 hr 22 min 25 sec) 
Heartbeat CPU 0 instructions: 329000000 cycles: 725246062 heartbeat IPC: 0.52057 cumulative IPC: 0.452472 (Simulation time: 0 hr 22 min 29 sec) 
Heartbeat CPU 0 instructions: 330000000 cycles: 727016637 heartbeat IPC: 0.564788 cumulative IPC: 0.452746 (Simulation time: 0 hr 22 min 33 sec) 
Heartbeat CPU 0 instructions: 331000003 cycles: 728851267 heartbeat IPC: 0.545071 cumulative IPC: 0.452978 (Simulation time: 0 hr 22 min 36 sec) 
Heartbeat CPU 0 instructions: 332000001 cycles: 730454130 heartbeat IPC: 0.623882 cumulative IPC: 0.453353 (Simulation time: 0 hr 22 min 40 sec) 
Heartbeat CPU 0 instructions: 333000003 cycles: 732174475 heartbeat IPC: 0.58128 cumulative IPC: 0.453654 (Simulation time: 0 hr 22 min 44 sec) 
Heartbeat CPU 0 instructions: 334000000 cycles: 733878822 heartbeat IPC: 0.586733 cumulative IPC: 0.453963 (Simulation time: 0 hr 22 min 48 sec) 
Heartbeat CPU 0 instructions: 335000001 cycles: 735445483 heartbeat IPC: 0.638301 cumulative IPC: 0.454356 (Simulation time: 0 hr 22 min 52 sec) 
Heartbeat CPU 0 instructions: 336000000 cycles: 736924466 heartbeat IPC: 0.67614 cumulative IPC: 0.454801 (Simulation time: 0 hr 22 min 56 sec) 
Heartbeat CPU 0 instructions: 337000002 cycles: 738539805 heartbeat IPC: 0.619066 cumulative IPC: 0.455161 (Simulation time: 0 hr 23 min 0 sec) 
Heartbeat CPU 0 instructions: 338000000 cycles: 740498244 heartbeat IPC: 0.51061 cumulative IPC: 0.455308 (Simulation time: 0 hr 23 min 4 sec) 
Heartbeat CPU 0 instructions: 339000001 cycles: 742412819 heartbeat IPC: 0.52231 cumulative IPC: 0.45548 (Simulation time: 0 hr 23 min 7 sec) 
Heartbeat CPU 0 instructions: 340000000 cycles: 744155290 heartbeat IPC: 0.573897 cumulative IPC: 0.455758 (Simulation time: 0 hr 23 min 11 sec) 
Heartbeat CPU 0 instructions: 341000000 cycles: 745906435 heartbeat IPC: 0.571055 cumulative IPC: 0.456029 (Simulation time: 0 hr 23 min 15 sec) 
Heartbeat CPU 0 instructions: 342000003 cycles: 747810328 heartbeat IPC: 0.525241 cumulative IPC: 0.456205 (Simulation time: 0 hr 23 min 19 sec) 
Heartbeat CPU 0 instructions: 343000000 cycles: 749639409 heartbeat IPC: 0.546721 cumulative IPC: 0.456426 (Simulation time: 0 hr 23 min 23 sec) 
Heartbeat CPU 0 instructions: 344000000 cycles: 751331166 heartbeat IPC: 0.591101 cumulative IPC: 0.456729 (Simulation time: 0 hr 23 min 27 sec) 
Heartbeat CPU 0 instructions: 345000001 cycles: 752965323 heartbeat IPC: 0.611937 cumulative IPC: 0.457066 (Simulation time: 0 hr 23 min 31 sec) 
Heartbeat CPU 0 instructions: 346000003 cycles: 754523285 heartbeat IPC: 0.641865 cumulative IPC: 0.457448 (Simulation time: 0 hr 23 min 34 sec) 
Heartbeat CPU 0 instructions: 347000001 cycles: 756283277 heartbeat IPC: 0.568183 cumulative IPC: 0.457706 (Simulation time: 0 hr 23 min 38 sec) 
Heartbeat CPU 0 instructions: 348000000 cycles: 758051054 heartbeat IPC: 0.565682 cumulative IPC: 0.457958 (Simulation time: 0 hr 23 min 42 sec) 
Heartbeat CPU 0 instructions: 349000002 cycles: 759817718 heartbeat IPC: 0.56604 cumulative IPC: 0.458209 (Simulation time: 0 hr 23 min 46 sec) 
Heartbeat CPU 0 instructions: 350000001 cycles: 761727671 heartbeat IPC: 0.523573 cumulative IPC: 0.458373 (Simulation time: 0 hr 23 min 50 sec) 
Heartbeat CPU 0 instructions: 351000003 cycles: 763678889 heartbeat IPC: 0.512501 cumulative IPC: 0.458512 (Simulation time: 0 hr 23 min 54 sec) 
Heartbeat CPU 0 instructions: 352000000 cycles: 765645006 heartbeat IPC: 0.508615 cumulative IPC: 0.45864 (Simulation time: 0 hr 23 min 58 sec) 
Heartbeat CPU 0 instructions: 353000000 cycles: 767584263 heartbeat IPC: 0.515661 cumulative IPC: 0.458784 (Simulation time: 0 hr 24 min 2 sec) 
Heartbeat CPU 0 instructions: 354000001 cycles: 769518881 heartbeat IPC: 0.516898 cumulative IPC: 0.458931 (Simulation time: 0 hr 24 min 6 sec) 
Heartbeat CPU 0 instructions: 355000002 cycles: 771522926 heartbeat IPC: 0.498991 cumulative IPC: 0.459035 (Simulation time: 0 hr 24 min 11 sec) 
Heartbeat CPU 0 instructions: 356000003 cycles: 773549371 heartbeat IPC: 0.493476 cumulative IPC: 0.459125 (Simulation time: 0 hr 24 min 15 sec) 
Heartbeat CPU 0 instructions: 357000003 cycles: 775566580 heartbeat IPC: 0.495734 cumulative IPC: 0.45922 (Simulation time: 0 hr 24 min 19 sec) 
Heartbeat CPU 0 instructions: 358000000 cycles: 777802189 heartbeat IPC: 0.447304 cumulative IPC: 0.459186 (Simulation time: 0 hr 24 min 23 sec) 
Heartbeat CPU 0 instructions: 359000002 cycles: 779849897 heartbeat IPC: 0.488352 cumulative IPC: 0.459263 (Simulation time: 0 hr 24 min 27 sec) 
Heartbeat CPU 0 instructions: 360000000 cycles: 781854760 heartbeat IPC: 0.498786 cumulative IPC: 0.459364 (Simulation time: 0 hr 24 min 31 sec) 
Heartbeat CPU 0 instructions: 361000000 cycles: 783795385 heartbeat IPC: 0.515298 cumulative IPC: 0.459502 (Simulation time: 0 hr 24 min 35 sec) 
Heartbeat CPU 0 instructions: 362000003 cycles: 786060110 heartbeat IPC: 0.441556 cumulative IPC: 0.459451 (Simulation time: 0 hr 24 min 39 sec) 
Heartbeat CPU 0 instructions: 363000000 cycles: 788230380 heartbeat IPC: 0.460771 cumulative IPC: 0.459454 (Simulation time: 0 hr 24 min 43 sec) 
Heartbeat CPU 0 instructions: 364000000 cycles: 790274359 heartbeat IPC: 0.489242 cumulative IPC: 0.459531 (Simulation time: 0 hr 24 min 47 sec) 
Heartbeat CPU 0 instructions: 365000000 cycles: 792098750 heartbeat IPC: 0.548128 cumulative IPC: 0.459736 (Simulation time: 0 hr 24 min 51 sec) 
Heartbeat CPU 0 instructions: 366000000 cycles: 794064262 heartbeat IPC: 0.508773 cumulative IPC: 0.459857 (Simulation time: 0 hr 24 min 55 sec) 
Heartbeat CPU 0 instructions: 367000000 cycles: 796016373 heartbeat IPC: 0.512266 cumulative IPC: 0.459986 (Simulation time: 0 hr 24 min 59 sec) 
Heartbeat CPU 0 instructions: 368000001 cycles: 797843218 heartbeat IPC: 0.547392 cumulative IPC: 0.460186 (Simulation time: 0 hr 25 min 3 sec) 
Heartbeat CPU 0 instructions: 369000000 cycles: 799692330 heartbeat IPC: 0.5408 cumulative IPC: 0.460372 (Simulation time: 0 hr 25 min 7 sec) 
Heartbeat CPU 0 instructions: 370000000 cycles: 801581494 heartbeat IPC: 0.529335 cumulative IPC: 0.460535 (Simulation time: 0 hr 25 min 12 sec) 
Heartbeat CPU 0 instructions: 371000000 cycles: 803517727 heartbeat IPC: 0.516467 cumulative IPC: 0.46067 (Simulation time: 0 hr 25 min 16 sec) 
Heartbeat CPU 0 instructions: 372000001 cycles: 805365128 heartbeat IPC: 0.541302 cumulative IPC: 0.460855 (Simulation time: 0 hr 25 min 20 sec) 
Heartbeat CPU 0 instructions: 373000000 cycles: 807279153 heartbeat IPC: 0.522459 cumulative IPC: 0.461001 (Simulation time: 0 hr 25 min 24 sec) 
Heartbeat CPU 0 instructions: 374000000 cycles: 809636381 heartbeat IPC: 0.424227 cumulative IPC: 0.460894 (Simulation time: 0 hr 25 min 28 sec) 
Heartbeat CPU 0 instructions: 375000000 cycles: 812214918 heartbeat IPC: 0.387817 cumulative IPC: 0.460662 (Simulation time: 0 hr 25 min 32 sec) 
Heartbeat CPU 0 instructions: 376000003 cycles: 814965074 heartbeat IPC: 0.363617 cumulative IPC: 0.460334 (Simulation time: 0 hr 25 min 36 sec) 
Heartbeat CPU 0 instructions: 377000002 cycles: 817655351 heartbeat IPC: 0.371709 cumulative IPC: 0.460042 (Simulation time: 0 hr 25 min 40 sec) 
Heartbeat CPU 0 instructions: 378000001 cycles: 820013777 heartbeat IPC: 0.424011 cumulative IPC: 0.459939 (Simulation time: 0 hr 25 min 43 sec) 
Heartbeat CPU 0 instructions: 379000001 cycles: 822488907 heartbeat IPC: 0.404019 cumulative IPC: 0.45977 (Simulation time: 0 hr 25 min 47 sec) 
Heartbeat CPU 0 instructions: 380000003 cycles: 825199695 heartbeat IPC: 0.368897 cumulative IPC: 0.459472 (Simulation time: 0 hr 25 min 52 sec) 
Heartbeat CPU 0 instructions: 381000002 cycles: 828117941 heartbeat IPC: 0.342671 cumulative IPC: 0.45906 (Simulation time: 0 hr 25 min 56 sec) 
Heartbeat CPU 0 instructions: 382000000 cycles: 831293211 heartbeat IPC: 0.314933 cumulative IPC: 0.458509 (Simulation time: 0 hr 26 min 0 sec) 
Heartbeat CPU 0 instructions: 383000003 cycles: 834664479 heartbeat IPC: 0.296625 cumulative IPC: 0.457855 (Simulation time: 0 hr 26 min 4 sec) 
Heartbeat CPU 0 instructions: 384000002 cycles: 838047718 heartbeat IPC: 0.295574 cumulative IPC: 0.4572 (Simulation time: 0 hr 26 min 8 sec) 
Heartbeat CPU 0 instructions: 385000000 cycles: 841232838 heartbeat IPC: 0.313959 cumulative IPC: 0.456657 (Simulation time: 0 hr 26 min 13 sec) 
Heartbeat CPU 0 instructions: 386000002 cycles: 844483005 heartbeat IPC: 0.307677 cumulative IPC: 0.456084 (Simulation time: 0 hr 26 min 17 sec) 
Heartbeat CPU 0 instructions: 387000000 cycles: 847845146 heartbeat IPC: 0.297429 cumulative IPC: 0.455454 (Simulation time: 0 hr 26 min 21 sec) 
Heartbeat CPU 0 instructions: 388000000 cycles: 851158615 heartbeat IPC: 0.301799 cumulative IPC: 0.454856 (Simulation time: 0 hr 26 min 25 sec) 
Heartbeat CPU 0 instructions: 389000003 cycles: 854319755 heartbeat IPC: 0.316343 cumulative IPC: 0.454343 (Simulation time: 0 hr 26 min 29 sec) 
Heartbeat CPU 0 instructions: 390000003 cycles: 857440830 heartbeat IPC: 0.320402 cumulative IPC: 0.453855 (Simulation time: 0 hr 26 min 33 sec) 
Heartbeat CPU 0 instructions: 391000002 cycles: 860577950 heartbeat IPC: 0.318763 cumulative IPC: 0.453363 (Simulation time: 0 hr 26 min 37 sec) 
Heartbeat CPU 0 instructions: 392000003 cycles: 863775200 heartbeat IPC: 0.312769 cumulative IPC: 0.452842 (Simulation time: 0 hr 26 min 42 sec) 
Heartbeat CPU 0 instructions: 393000003 cycles: 866929661 heartbeat IPC: 0.317011 cumulative IPC: 0.452348 (Simulation time: 0 hr 26 min 46 sec) 
Heartbeat CPU 0 instructions: 394000000 cycles: 870108963 heartbeat IPC: 0.314534 cumulative IPC: 0.451844 (Simulation time: 0 hr 26 min 50 sec) 
Heartbeat CPU 0 instructions: 395000002 cycles: 873474336 heartbeat IPC: 0.297144 cumulative IPC: 0.451248 (Simulation time: 0 hr 26 min 55 sec) 
Heartbeat CPU 0 instructions: 396000000 cycles: 876905774 heartbeat IPC: 0.291422 cumulative IPC: 0.450622 (Simulation time: 0 hr 26 min 59 sec) 
Heartbeat CPU 0 instructions: 397000003 cycles: 880623471 heartbeat IPC: 0.268985 cumulative IPC: 0.449855 (Simulation time: 0 hr 27 min 3 sec) 
Heartbeat CPU 0 instructions: 398000002 cycles: 883589655 heartbeat IPC: 0.337133 cumulative IPC: 0.449476 (Simulation time: 0 hr 27 min 8 sec) 
Heartbeat CPU 0 instructions: 399000000 cycles: 885315209 heartbeat IPC: 0.579523 cumulative IPC: 0.44973 (Simulation time: 0 hr 27 min 11 sec) 
Heartbeat CPU 0 instructions: 400000002 cycles: 887111862 heartbeat IPC: 0.556592 cumulative IPC: 0.449946 (Simulation time: 0 hr 27 min 16 sec) 
Heartbeat CPU 0 instructions: 401000002 cycles: 888859105 heartbeat IPC: 0.57233 cumulative IPC: 0.450187 (Simulation time: 0 hr 27 min 20 sec) 
Heartbeat CPU 0 instructions: 402000003 cycles: 890694768 heartbeat IPC: 0.544763 cumulative IPC: 0.450382 (Simulation time: 0 hr 27 min 24 sec) 
Heartbeat CPU 0 instructions: 403000000 cycles: 892592130 heartbeat IPC: 0.527046 cumulative IPC: 0.450545 (Simulation time: 0 hr 27 min 28 sec) 
Heartbeat CPU 0 instructions: 404000002 cycles: 894419543 heartbeat IPC: 0.547223 cumulative IPC: 0.450743 (Simulation time: 0 hr 27 min 32 sec) 
Heartbeat CPU 0 instructions: 405000003 cycles: 896386933 heartbeat IPC: 0.508288 cumulative IPC: 0.450869 (Simulation time: 0 hr 27 min 36 sec) 
Heartbeat CPU 0 instructions: 406000001 cycles: 898339843 heartbeat IPC: 0.512055 cumulative IPC: 0.451002 (Simulation time: 0 hr 27 min 40 sec) 
Heartbeat CPU 0 instructions: 407000000 cycles: 900255572 heartbeat IPC: 0.521994 cumulative IPC: 0.451153 (Simulation time: 0 hr 27 min 44 sec) 
Heartbeat CPU 0 instructions: 408000003 cycles: 902227597 heartbeat IPC: 0.507095 cumulative IPC: 0.451275 (Simulation time: 0 hr 27 min 48 sec) 
Heartbeat CPU 0 instructions: 409000000 cycles: 904423942 heartbeat IPC: 0.455301 cumulative IPC: 0.451285 (Simulation time: 0 hr 27 min 52 sec) 
Heartbeat CPU 0 instructions: 410000000 cycles: 906917428 heartbeat IPC: 0.401045 cumulative IPC: 0.451147 (Simulation time: 0 hr 27 min 56 sec) 
Heartbeat CPU 0 instructions: 411000001 cycles: 909277248 heartbeat IPC: 0.423762 cumulative IPC: 0.451076 (Simulation time: 0 hr 28 min 0 sec) 
Heartbeat CPU 0 instructions: 412000003 cycles: 911037005 heartbeat IPC: 0.568261 cumulative IPC: 0.451302 (Simulation time: 0 hr 28 min 4 sec) 
Heartbeat CPU 0 instructions: 413000001 cycles: 912867255 heartbeat IPC: 0.546372 cumulative IPC: 0.451493 (Simulation time: 0 hr 28 min 8 sec) 
Heartbeat CPU 0 instructions: 414000000 cycles: 914638046 heartbeat IPC: 0.564719 cumulative IPC: 0.451712 (Simulation time: 0 hr 28 min 12 sec) 
Heartbeat CPU 0 instructions: 415000001 cycles: 916410497 heartbeat IPC: 0.564191 cumulative IPC: 0.45193 (Simulation time: 0 hr 28 min 17 sec) 
Heartbeat CPU 0 instructions: 416000001 cycles: 918142857 heartbeat IPC: 0.577247 cumulative IPC: 0.452166 (Simulation time: 0 hr 28 min 21 sec) 
Heartbeat CPU 0 instructions: 417000001 cycles: 919887201 heartbeat IPC: 0.573281 cumulative IPC: 0.452396 (Simulation time: 0 hr 28 min 25 sec) 
Heartbeat CPU 0 instructions: 418000000 cycles: 921625949 heartbeat IPC: 0.575126 cumulative IPC: 0.452628 (Simulation time: 0 hr 28 min 29 sec) 
Heartbeat CPU 0 instructions: 419000000 cycles: 923412513 heartbeat IPC: 0.559734 cumulative IPC: 0.452835 (Simulation time: 0 hr 28 min 33 sec) 
Heartbeat CPU 0 instructions: 420000003 cycles: 925186189 heartbeat IPC: 0.563803 cumulative IPC: 0.453048 (Simulation time: 0 hr 28 min 37 sec) 
Heartbeat CPU 0 instructions: 421000002 cycles: 926902479 heartbeat IPC: 0.582652 cumulative IPC: 0.453288 (Simulation time: 0 hr 28 min 42 sec) 
Heartbeat CPU 0 instructions: 422000000 cycles: 928735402 heartbeat IPC: 0.545576 cumulative IPC: 0.45347 (Simulation time: 0 hr 28 min 46 sec) 
Heartbeat CPU 0 instructions: 423000001 cycles: 930591862 heartbeat IPC: 0.53866 cumulative IPC: 0.45364 (Simulation time: 0 hr 28 min 50 sec) 
Heartbeat CPU 0 instructions: 424000000 cycles: 932497485 heartbeat IPC: 0.524762 cumulative IPC: 0.453786 (Simulation time: 0 hr 28 min 54 sec) 
Heartbeat CPU 0 instructions: 425000001 cycles: 934485726 heartbeat IPC: 0.502958 cumulative IPC: 0.45389 (Simulation time: 0 hr 28 min 58 sec) 
Heartbeat CPU 0 instructions: 426000002 cycles: 936585436 heartbeat IPC: 0.476257 cumulative IPC: 0.45394 (Simulation time: 0 hr 29 min 2 sec) 
Heartbeat CPU 0 instructions: 427000000 cycles: 938494730 heartbeat IPC: 0.523753 cumulative IPC: 0.454083 (Simulation time: 0 hr 29 min 6 sec) 
Heartbeat CPU 0 instructions: 428000003 cycles: 940258285 heartbeat IPC: 0.567038 cumulative IPC: 0.454294 (Simulation time: 0 hr 29 min 10 sec) 
Heartbeat CPU 0 instructions: 429000000 cycles: 942013775 heartbeat IPC: 0.56964 cumulative IPC: 0.45451 (Simulation time: 0 hr 29 min 14 sec) 
Heartbeat CPU 0 instructions: 430000001 cycles: 943765361 heartbeat IPC: 0.570912 cumulative IPC: 0.454726 (Simulation time: 0 hr 29 min 18 sec) 
Heartbeat CPU 0 instructions: 431000002 cycles: 945421412 heartbeat IPC: 0.603847 cumulative IPC: 0.454987 (Simulation time: 0 hr 29 min 22 sec) 
Heartbeat CPU 0 instructions: 432000002 cycles: 947060127 heartbeat IPC: 0.610234 cumulative IPC: 0.455256 (Simulation time: 0 hr 29 min 26 sec) 
Heartbeat CPU 0 instructions: 433000003 cycles: 948744262 heartbeat IPC: 0.593777 cumulative IPC: 0.455502 (Simulation time: 0 hr 29 min 30 sec) 
Heartbeat CPU 0 instructions: 434000002 cycles: 950490135 heartbeat IPC: 0.572779 cumulative IPC: 0.455717 (Simulation time: 0 hr 29 min 34 sec) 
Heartbeat CPU 0 instructions: 435000000 cycles: 952221012 heartbeat IPC: 0.577741 cumulative IPC: 0.455939 (Simulation time: 0 hr 29 min 38 sec) 
Heartbeat CPU 0 instructions: 436000001 cycles: 953966183 heartbeat IPC: 0.57301 cumulative IPC: 0.456153 (Simulation time: 0 hr 29 min 42 sec) 
Heartbeat CPU 0 instructions: 437000001 cycles: 955655950 heartbeat IPC: 0.591798 cumulative IPC: 0.456393 (Simulation time: 0 hr 29 min 45 sec) 
Heartbeat CPU 0 instructions: 438000000 cycles: 957428644 heartbeat IPC: 0.564113 cumulative IPC: 0.456593 (Simulation time: 0 hr 29 min 49 sec) 
Heartbeat CPU 0 instructions: 439000001 cycles: 959388500 heartbeat IPC: 0.510242 cumulative IPC: 0.456702 (Simulation time: 0 hr 29 min 54 sec) 
Heartbeat CPU 0 instructions: 440000000 cycles: 961349091 heartbeat IPC: 0.51005 cumulative IPC: 0.456811 (Simulation time: 0 hr 29 min 58 sec) 
Heartbeat CPU 0 instructions: 441000000 cycles: 963789878 heartbeat IPC: 0.409704 cumulative IPC: 0.456692 (Simulation time: 0 hr 30 min 2 sec) 
Heartbeat CPU 0 instructions: 442000000 cycles: 966379948 heartbeat IPC: 0.38609 cumulative IPC: 0.456503 (Simulation time: 0 hr 30 min 6 sec) 
Heartbeat CPU 0 instructions: 443000002 cycles: 968738936 heartbeat IPC: 0.423911 cumulative IPC: 0.456423 (Simulation time: 0 hr 30 min 10 sec) 
Heartbeat CPU 0 instructions: 444000003 cycles: 970951057 heartbeat IPC: 0.452055 cumulative IPC: 0.456413 (Simulation time: 0 hr 30 min 14 sec) 
Heartbeat CPU 0 instructions: 445000000 cycles: 973161871 heartbeat IPC: 0.452321 cumulative IPC: 0.456404 (Simulation time: 0 hr 30 min 18 sec) 
Heartbeat CPU 0 instructions: 446000000 cycles: 975230226 heartbeat IPC: 0.483476 cumulative IPC: 0.456461 (Simulation time: 0 hr 30 min 22 sec) 
Heartbeat CPU 0 instructions: 447000000 cycles: 977180787 heartbeat IPC: 0.512673 cumulative IPC: 0.456574 (Simulation time: 0 hr 30 min 26 sec) 
Heartbeat CPU 0 instructions: 448000000 cycles: 979148237 heartbeat IPC: 0.508272 cumulative IPC: 0.456677 (Simulation time: 0 hr 30 min 30 sec) 
Heartbeat CPU 0 instructions: 449000002 cycles: 981004248 heartbeat IPC: 0.538791 cumulative IPC: 0.456833 (Simulation time: 0 hr 30 min 34 sec) 
Heartbeat CPU 0 instructions: 450000000 cycles: 982956155 heartbeat IPC: 0.512318 cumulative IPC: 0.456943 (Simulation time: 0 hr 30 min 38 sec) 

Warmup complete CPU 0 instructions: 450000004 cycles: 982956156 (Simulation time: 0 hr 30 min 38 sec) 

Heartbeat CPU 0 instructions: 451000000 cycles: 984862841 heartbeat IPC: 0.52447 cumulative IPC: 0.524468 (Simulation time: 0 hr 30 min 43 sec) 
Heartbeat CPU 0 instructions: 452000000 cycles: 986656422 heartbeat IPC: 0.557544 cumulative IPC: 0.540501 (Simulation time: 0 hr 30 min 47 sec) 
Heartbeat CPU 0 instructions: 453000003 cycles: 988442190 heartbeat IPC: 0.559985 cumulative IPC: 0.546843 (Simulation time: 0 hr 30 min 51 sec) 
Heartbeat CPU 0 instructions: 454000000 cycles: 990191930 heartbeat IPC: 0.571512 cumulative IPC: 0.552808 (Simulation time: 0 hr 30 min 55 sec) 
Heartbeat CPU 0 instructions: 455000002 cycles: 991899994 heartbeat IPC: 0.585459 cumulative IPC: 0.559044 (Simulation time: 0 hr 30 min 59 sec) 
Heartbeat CPU 0 instructions: 456000003 cycles: 993699961 heartbeat IPC: 0.555566 cumulative IPC: 0.558461 (Simulation time: 0 hr 31 min 3 sec) 
Heartbeat CPU 0 instructions: 457000002 cycles: 995729440 heartbeat IPC: 0.492737 cumulative IPC: 0.548019 (Simulation time: 0 hr 31 min 7 sec) 
Heartbeat CPU 0 instructions: 458000000 cycles: 998018400 heartbeat IPC: 0.436879 cumulative IPC: 0.531129 (Simulation time: 0 hr 31 min 11 sec) 
Heartbeat CPU 0 instructions: 459000002 cycles: 1000347048 heartbeat IPC: 0.429435 cumulative IPC: 0.517512 (Simulation time: 0 hr 31 min 15 sec) 
Heartbeat CPU 0 instructions: 460000001 cycles: 1002174504 heartbeat IPC: 0.547208 cumulative IPC: 0.520336 (Simulation time: 0 hr 31 min 19 sec) 
Heartbeat CPU 0 instructions: 461000001 cycles: 1003981175 heartbeat IPC: 0.553504 cumulative IPC: 0.523186 (Simulation time: 0 hr 31 min 23 sec) 
Heartbeat CPU 0 instructions: 462000000 cycles: 1006076854 heartbeat IPC: 0.477172 cumulative IPC: 0.519015 (Simulation time: 0 hr 31 min 28 sec) 
Heartbeat CPU 0 instructions: 463000003 cycles: 1008199165 heartbeat IPC: 0.471186 cumulative IPC: 0.514994 (Simulation time: 0 hr 31 min 31 sec) 
Heartbeat CPU 0 instructions: 464000000 cycles: 1010397353 heartbeat IPC: 0.454919 cumulative IPC: 0.510182 (Simulation time: 0 hr 31 min 35 sec) 
Heartbeat CPU 0 instructions: 465000002 cycles: 1012841913 heartbeat IPC: 0.409072 cumulative IPC: 0.501911 (Simulation time: 0 hr 31 min 39 sec) 
Heartbeat CPU 0 instructions: 466000000 cycles: 1015471298 heartbeat IPC: 0.380316 cumulative IPC: 0.492078 (Simulation time: 0 hr 31 min 43 sec) 
Heartbeat CPU 0 instructions: 467000000 cycles: 1017984199 heartbeat IPC: 0.397946 cumulative IPC: 0.485325 (Simulation time: 0 hr 31 min 47 sec) 
Heartbeat CPU 0 instructions: 468000000 cycles: 1020317113 heartbeat IPC: 0.428648 cumulative IPC: 0.481786 (Simulation time: 0 hr 31 min 52 sec) 
Heartbeat CPU 0 instructions: 469000002 cycles: 1022302796 heartbeat IPC: 0.503606 cumulative IPC: 0.482887 (Simulation time: 0 hr 31 min 56 sec) 
Heartbeat CPU 0 instructions: 470000001 cycles: 1024236534 heartbeat IPC: 0.517133 cumulative IPC: 0.484492 (Simulation time: 0 hr 32 min 0 sec) 
Heartbeat CPU 0 instructions: 471000003 cycles: 1026237925 heartbeat IPC: 0.499653 cumulative IPC: 0.485193 (Simulation time: 0 hr 32 min 4 sec) 
Heartbeat CPU 0 instructions: 472000002 cycles: 1028167883 heartbeat IPC: 0.518146 cumulative IPC: 0.486599 (Simulation time: 0 hr 32 min 7 sec) 
Heartbeat CPU 0 instructions: 473000000 cycles: 1030141144 heartbeat IPC: 0.506774 cumulative IPC: 0.487443 (Simulation time: 0 hr 32 min 12 sec) 
Heartbeat CPU 0 instructions: 474000001 cycles: 1032552437 heartbeat IPC: 0.414716 cumulative IPC: 0.483907 (Simulation time: 0 hr 32 min 15 sec) 
Heartbeat CPU 0 instructions: 475000000 cycles: 1035551474 heartbeat IPC: 0.33344 cumulative IPC: 0.475327 (Simulation time: 0 hr 32 min 19 sec) 
Heartbeat CPU 0 instructions: 476000000 cycles: 1038513004 heartbeat IPC: 0.337663 cumulative IPC: 0.467989 (Simulation time: 0 hr 32 min 24 sec) 
Heartbeat CPU 0 instructions: 477000001 cycles: 1041560826 heartbeat IPC: 0.328103 cumulative IPC: 0.460714 (Simulation time: 0 hr 32 min 28 sec) 
Heartbeat CPU 0 instructions: 478000002 cycles: 1044950769 heartbeat IPC: 0.294991 cumulative IPC: 0.451652 (Simulation time: 0 hr 32 min 32 sec) 
Heartbeat CPU 0 instructions: 479000000 cycles: 1048088312 heartbeat IPC: 0.31872 cumulative IPC: 0.445249 (Simulation time: 0 hr 32 min 37 sec) 
Heartbeat CPU 0 instructions: 480000000 cycles: 1050992644 heartbeat IPC: 0.344313 cumulative IPC: 0.44094 (Simulation time: 0 hr 32 min 41 sec) 
Heartbeat CPU 0 instructions: 481000001 cycles: 1053771460 heartbeat IPC: 0.359866 cumulative IPC: 0.437758 (Simulation time: 0 hr 32 min 45 sec) 
Heartbeat CPU 0 instructions: 482000003 cycles: 1056393440 heartbeat IPC: 0.381392 cumulative IPC: 0.435746 (Simulation time: 0 hr 32 min 49 sec) 
Heartbeat CPU 0 instructions: 483000000 cycles: 1058843773 heartbeat IPC: 0.408107 cumulative IPC: 0.434853 (Simulation time: 0 hr 32 min 53 sec) 
Heartbeat CPU 0 instructions: 484000000 cycles: 1061309567 heartbeat IPC: 0.405549 cumulative IPC: 0.433931 (Simulation time: 0 hr 32 min 58 sec) 
Heartbeat CPU 0 instructions: 485000000 cycles: 1064142984 heartbeat IPC: 0.352931 cumulative IPC: 0.431104 (Simulation time: 0 hr 33 min 2 sec) 
Heartbeat CPU 0 instructions: 486000001 cycles: 1067239924 heartbeat IPC: 0.3229 cumulative IPC: 0.427128 (Simulation time: 0 hr 33 min 6 sec) 
Heartbeat CPU 0 instructions: 487000001 cycles: 1070323770 heartbeat IPC: 0.32427 cumulative IPC: 0.423498 (Simulation time: 0 hr 33 min 10 sec) 
Heartbeat CPU 0 instructions: 488000000 cycles: 1073348134 heartbeat IPC: 0.330648 cumulative IPC: 0.420391 (Simulation time: 0 hr 33 min 15 sec) 
Heartbeat CPU 0 instructions: 489000001 cycles: 1076194021 heartbeat IPC: 0.351385 cumulative IPC: 0.418285 (Simulation time: 0 hr 33 min 19 sec) 
Heartbeat CPU 0 instructions: 490000001 cycles: 1079015946 heartbeat IPC: 0.354368 cumulative IPC: 0.416407 (Simulation time: 0 hr 33 min 23 sec) 
Heartbeat CPU 0 instructions: 491000003 cycles: 1081688121 heartbeat IPC: 0.374228 cumulative IPC: 0.415266 (Simulation time: 0 hr 33 min 27 sec) 
Heartbeat CPU 0 instructions: 492000000 cycles: 1084506272 heartbeat IPC: 0.354842 cumulative IPC: 0.413589 (Simulation time: 0 hr 33 min 31 sec) 
Heartbeat CPU 0 instructions: 493000001 cycles: 1087282459 heartbeat IPC: 0.360207 cumulative IPC: 0.412168 (Simulation time: 0 hr 33 min 34 sec) 
Heartbeat CPU 0 instructions: 494000000 cycles: 1090062394 heartbeat IPC: 0.35972 cumulative IPC: 0.410807 (Simulation time: 0 hr 33 min 38 sec) 
Heartbeat CPU 0 instructions: 495000000 cycles: 1092694528 heartbeat IPC: 0.37992 cumulative IPC: 0.410066 (Simulation time: 0 hr 33 min 42 sec) 
Heartbeat CPU 0 instructions: 496000001 cycles: 1095240246 heartbeat IPC: 0.392817 cumulative IPC: 0.409675 (Simulation time: 0 hr 33 min 46 sec) 
Heartbeat CPU 0 instructions: 497000000 cycles: 1097554909 heartbeat IPC: 0.432028 cumulative IPC: 0.410127 (Simulation time: 0 hr 33 min 50 sec) 
Heartbeat CPU 0 instructions: 498000000 cycles: 1099799750 heartbeat IPC: 0.445466 cumulative IPC: 0.410806 (Simulation time: 0 hr 33 min 54 sec) 
Heartbeat CPU 0 instructions: 499000002 cycles: 1101975150 heartbeat IPC: 0.459686 cumulative IPC: 0.411699 (Simulation time: 0 hr 33 min 59 sec) 
Heartbeat CPU 0 instructions: 500000000 cycles: 1104084244 heartbeat IPC: 0.474136 cumulative IPC: 0.412786 (Simulation time: 0 hr 34 min 3 sec) 
Heartbeat CPU 0 instructions: 501000001 cycles: 1106575554 heartbeat IPC: 0.401396 cumulative IPC: 0.412557 (Simulation time: 0 hr 34 min 7 sec) 
Heartbeat CPU 0 instructions: 502000002 cycles: 1109249395 heartbeat IPC: 0.373994 cumulative IPC: 0.41174 (Simulation time: 0 hr 34 min 11 sec) 
Heartbeat CPU 0 instructions: 503000002 cycles: 1111202802 heartbeat IPC: 0.511926 cumulative IPC: 0.413266 (Simulation time: 0 hr 34 min 15 sec) 
Heartbeat CPU 0 instructions: 504000001 cycles: 1113275851 heartbeat IPC: 0.482381 cumulative IPC: 0.414366 (Simulation time: 0 hr 34 min 19 sec) 
Heartbeat CPU 0 instructions: 505000001 cycles: 1115263577 heartbeat IPC: 0.503087 cumulative IPC: 0.415698 (Simulation time: 0 hr 34 min 24 sec) 
Heartbeat CPU 0 instructions: 506000000 cycles: 1117173567 heartbeat IPC: 0.523562 cumulative IPC: 0.417233 (Simulation time: 0 hr 34 min 27 sec) 
Heartbeat CPU 0 instructions: 507000000 cycles: 1118911553 heartbeat IPC: 0.575379 cumulative IPC: 0.419255 (Simulation time: 0 hr 34 min 30 sec) 
Heartbeat CPU 0 instructions: 508000000 cycles: 1120646554 heartbeat IPC: 0.576369 cumulative IPC: 0.421235 (Simulation time: 0 hr 34 min 34 sec) 
Heartbeat CPU 0 instructions: 509000000 cycles: 1122366241 heartbeat IPC: 0.581501 cumulative IPC: 0.423212 (Simulation time: 0 hr 34 min 38 sec) 
Heartbeat CPU 0 instructions: 510000002 cycles: 1124142130 heartbeat IPC: 0.563099 cumulative IPC: 0.424971 (Simulation time: 0 hr 34 min 42 sec) 
Heartbeat CPU 0 instructions: 511000000 cycles: 1125813316 heartbeat IPC: 0.598376 cumulative IPC: 0.427 (Simulation time: 0 hr 34 min 46 sec) 
Heartbeat CPU 0 instructions: 512000000 cycles: 1127464312 heartbeat IPC: 0.605695 cumulative IPC: 0.429042 (Simulation time: 0 hr 34 min 50 sec) 
Heartbeat CPU 0 instructions: 513000001 cycles: 1129063736 heartbeat IPC: 0.625226 cumulative IPC: 0.431189 (Simulation time: 0 hr 34 min 54 sec) 
Heartbeat CPU 0 instructions: 514000003 cycles: 1130616049 heartbeat IPC: 0.644201 cumulative IPC: 0.433428 (Simulation time: 0 hr 34 min 58 sec) 
Heartbeat CPU 0 instructions: 515000001 cycles: 1132362638 heartbeat IPC: 0.572543 cumulative IPC: 0.435055 (Simulation time: 0 hr 35 min 2 sec) 
Heartbeat CPU 0 instructions: 516000000 cycles: 1133961364 heartbeat IPC: 0.625497 cumulative IPC: 0.437071 (Simulation time: 0 hr 35 min 6 sec) 
Heartbeat CPU 0 instructions: 517000000 cycles: 1135539092 heartbeat IPC: 0.633823 cumulative IPC: 0.439105 (Simulation time: 0 hr 35 min 10 sec) 
Heartbeat CPU 0 instructions: 518000001 cycles: 1137056053 heartbeat IPC: 0.659213 cumulative IPC: 0.441272 (Simulation time: 0 hr 35 min 14 sec) 
Heartbeat CPU 0 instructions: 519000001 cycles: 1138583428 heartbeat IPC: 0.654718 cumulative IPC: 0.443367 (Simulation time: 0 hr 35 min 18 sec) 
Heartbeat CPU 0 instructions: 520000000 cycles: 1140163457 heartbeat IPC: 0.632899 cumulative IPC: 0.445272 (Simulation time: 0 hr 35 min 21 sec) 
Heartbeat CPU 0 instructions: 521000002 cycles: 1141881318 heartbeat IPC: 0.58212 cumulative IPC: 0.446751 (Simulation time: 0 hr 35 min 25 sec) 
Heartbeat CPU 0 instructions: 522000001 cycles: 1143596597 heartbeat IPC: 0.582995 cumulative IPC: 0.448206 (Simulation time: 0 hr 35 min 29 sec) 
Heartbeat CPU 0 instructions: 523000000 cycles: 1145326230 heartbeat IPC: 0.578157 cumulative IPC: 0.44959 (Simulation time: 0 hr 35 min 33 sec) 
Heartbeat CPU 0 instructions: 524000003 cycles: 1147429927 heartbeat IPC: 0.475355 cumulative IPC: 0.44992 (Simulation time: 0 hr 35 min 37 sec) 
Heartbeat CPU 0 instructions: 525000002 cycles: 1149592207 heartbeat IPC: 0.462474 cumulative IPC: 0.450083 (Simulation time: 0 hr 35 min 41 sec) 
Heartbeat CPU 0 instructions: 526000000 cycles: 1151590074 heartbeat IPC: 0.500533 cumulative IPC: 0.45068 (Simulation time: 0 hr 35 min 45 sec) 
Heartbeat CPU 0 instructions: 527000001 cycles: 1153507990 heartbeat IPC: 0.5214 cumulative IPC: 0.451476 (Simulation time: 0 hr 35 min 49 sec) 
Heartbeat CPU 0 instructions: 528000000 cycles: 1155452777 heartbeat IPC: 0.514195 cumulative IPC: 0.452183 (Simulation time: 0 hr 35 min 53 sec) 
Heartbeat CPU 0 instructions: 529000000 cycles: 1157222170 heartbeat IPC: 0.565166 cumulative IPC: 0.45333 (Simulation time: 0 hr 35 min 57 sec) 
Heartbeat CPU 0 instructions: 530000000 cycles: 1158870787 heartbeat IPC: 0.606569 cumulative IPC: 0.454766 (Simulation time: 0 hr 36 min 1 sec) 
Heartbeat CPU 0 instructions: 531000000 cycles: 1160595749 heartbeat IPC: 0.579723 cumulative IPC: 0.455979 (Simulation time: 0 hr 36 min 5 sec) 
Heartbeat CPU 0 instructions: 532000003 cycles: 1162210302 heartbeat IPC: 0.619368 cumulative IPC: 0.457451 (Simulation time: 0 hr 36 min 9 sec) 
Heartbeat CPU 0 instructions: 533000003 cycles: 1163982250 heartbeat IPC: 0.564351 cumulative IPC: 0.458497 (Simulation time: 0 hr 36 min 13 sec) 
Heartbeat CPU 0 instructions: 534000000 cycles: 1165782154 heartbeat IPC: 0.555584 cumulative IPC: 0.459453 (Simulation time: 0 hr 36 min 17 sec) 
Heartbeat CPU 0 instructions: 535000000 cycles: 1167466143 heartbeat IPC: 0.593828 cumulative IPC: 0.46068 (Simulation time: 0 hr 36 min 21 sec) 
Heartbeat CPU 0 instructions: 536000001 cycles: 1169170287 heartbeat IPC: 0.586805 cumulative IPC: 0.461834 (Simulation time: 0 hr 36 min 25 sec) 
Heartbeat CPU 0 instructions: 537000002 cycles: 1170866422 heartbeat IPC: 0.589576 cumulative IPC: 0.462987 (Simulation time: 0 hr 36 min 30 sec) 
Heartbeat CPU 0 instructions: 538000000 cycles: 1172520871 heartbeat IPC: 0.60443 cumulative IPC: 0.464221 (Simulation time: 0 hr 36 min 34 sec) 
Heartbeat CPU 0 instructions: 539000000 cycles: 1174200675 heartbeat IPC: 0.595308 cumulative IPC: 0.465373 (Simulation time: 0 hr 36 min 38 sec) 
Heartbeat CPU 0 instructions: 540000003 cycles: 1175935089 heartbeat IPC: 0.576565 cumulative IPC: 0.466372 (Simulation time: 0 hr 36 min 42 sec) 
Heartbeat CPU 0 instructions: 541000002 cycles: 1177664206 heartbeat IPC: 0.578329 cumulative IPC: 0.467366 (Simulation time: 0 hr 36 min 46 sec) 
Heartbeat CPU 0 instructions: 542000001 cycles: 1179501870 heartbeat IPC: 0.544169 cumulative IPC: 0.468084 (Simulation time: 0 hr 36 min 50 sec) 
Heartbeat CPU 0 instructions: 543000001 cycles: 1181755049 heartbeat IPC: 0.443817 cumulative IPC: 0.467809 (Simulation time: 0 hr 36 min 54 sec) 
Heartbeat CPU 0 instructions: 544000003 cycles: 1184148121 heartbeat IPC: 0.417874 cumulative IPC: 0.467215 (Simulation time: 0 hr 36 min 58 sec) 
Heartbeat CPU 0 instructions: 545000000 cycles: 1186328126 heartbeat IPC: 0.458713 cumulative IPC: 0.467124 (Simulation time: 0 hr 37 min 2 sec) 
Heartbeat CPU 0 instructions: 546000001 cycles: 1188077410 heartbeat IPC: 0.571663 cumulative IPC: 0.468016 (Simulation time: 0 hr 37 min 6 sec) 
[...]
Heartbeat CPU 0 instructions: 834000001 cycles: 1791811135 heartbeat IPC: 0.472581 cumulative IPC: 0.474745 (Simulation time: 0 hr 55 min 44 sec) 
Heartbeat CPU 0 instructions: 835000003 cycles: 1793963487 heartbeat IPC: 0.464609 cumulative IPC: 0.474718 (Simulation time: 0 hr 55 min 47 sec) 
Heartbeat CPU 0 instructions: 836000000 cycles: 1796421748 heartbeat IPC: 0.40679 cumulative IPC: 0.474513 (Simulation time: 0 hr 55 min 51 sec) 
Heartbeat CPU 0 instructions: 837000003 cycles: 1798897660 heartbeat IPC: 0.403893 cumulative IPC: 0.474299 (Simulation time: 0 hr 55 min 55 sec) 
Heartbeat CPU 0 instructions: 838000003 cycles: 1801206359 heartbeat IPC: 0.433144 cumulative IPC: 0.474183 (Simulation time: 0 hr 55 min 59 sec) 
Heartbeat CPU 0 instructions: 839000003 cycles: 1803069507 heartbeat IPC: 0.536726 cumulative IPC: 0.474325 (Simulation time: 0 hr 56 min 3 sec) 
Heartbeat CPU 0 instructions: 840000001 cycles: 1805219618 heartbeat IPC: 0.465091 cumulative IPC: 0.474301 (Simulation time: 0 hr 56 min 6 sec) 
Heartbeat CPU 0 instructions: 841000001 cycles: 1807690101 heartbeat IPC: 0.404779 cumulative IPC: 0.474092 (Simulation time: 0 hr 56 min 11 sec) 
Heartbeat CPU 0 instructions: 842000001 cycles: 1810434221 heartbeat IPC: 0.364416 cumulative IPC: 0.473729 (Simulation time: 0 hr 56 min 15 sec) 
Heartbeat CPU 0 instructions: 843000002 cycles: 1813234540 heartbeat IPC: 0.357103 cumulative IPC: 0.473335 (Simulation time: 0 hr 56 min 19 sec) 
Heartbeat CPU 0 instructions: 844000003 cycles: 1816056755 heartbeat IPC: 0.354332 cumulative IPC: 0.472932 (Simulation time: 0 hr 56 min 23 sec) 
Heartbeat CPU 0 instructions: 845000002 cycles: 1818823819 heartbeat IPC: 0.361394 cumulative IPC: 0.472563 (Simulation time: 0 hr 56 min 27 sec) 
Heartbeat CPU 0 instructions: 846000002 cycles: 1821635246 heartbeat IPC: 0.355691 cumulative IPC: 0.472171 (Simulation time: 0 hr 56 min 31 sec) 
Heartbeat CPU 0 instructions: 847000000 cycles: 1824322508 heartbeat IPC: 0.372125 cumulative IPC: 0.471852 (Simulation time: 0 hr 56 min 35 sec) 
Heartbeat CPU 0 instructions: 848000000 cycles: 1827005583 heartbeat IPC: 0.372707 cumulative IPC: 0.471536 (Simulation time: 0 hr 56 min 39 sec) 
Heartbeat CPU 0 instructions: 849000002 cycles: 1829772039 heartbeat IPC: 0.361474 cumulative IPC: 0.471177 (Simulation time: 0 hr 56 min 43 sec) 
Heartbeat CPU 0 instructions: 850000000 cycles: 1832636931 heartbeat IPC: 0.349053 cumulative IPC: 0.470765 (Simulation time: 0 hr 56 min 47 sec) 
Heartbeat CPU 0 instructions: 851000001 cycles: 1835585127 heartbeat IPC: 0.339191 cumulative IPC: 0.47031 (Simulation time: 0 hr 56 min 50 sec) 
Heartbeat CPU 0 instructions: 852000001 cycles: 1838389722 heartbeat IPC: 0.356558 cumulative IPC: 0.469937 (Simulation time: 0 hr 56 min 54 sec) 
Heartbeat CPU 0 instructions: 853000003 cycles: 1841124992 heartbeat IPC: 0.365595 cumulative IPC: 0.469605 (Simulation time: 0 hr 56 min 59 sec) 
Heartbeat CPU 0 instructions: 854000000 cycles: 1843940973 heartbeat IPC: 0.355115 cumulative IPC: 0.46923 (Simulation time: 0 hr 57 min 3 sec) 
Heartbeat CPU 0 instructions: 855000000 cycles: 1846681489 heartbeat IPC: 0.364895 cumulative IPC: 0.468899 (Simulation time: 0 hr 57 min 7 sec) 
Heartbeat CPU 0 instructions: 856000003 cycles: 1849399833 heartbeat IPC: 0.367872 cumulative IPC: 0.468582 (Simulation time: 0 hr 57 min 11 sec) 
Heartbeat CPU 0 instructions: 857000000 cycles: 1852014835 heartbeat IPC: 0.382408 cumulative IPC: 0.468323 (Simulation time: 0 hr 57 min 15 sec) 
Heartbeat CPU 0 instructions: 858000000 cycles: 1854683933 heartbeat IPC: 0.374658 cumulative IPC: 0.468036 (Simulation time: 0 hr 57 min 19 sec) 
Heartbeat CPU 0 instructions: 859000000 cycles: 1857155842 heartbeat IPC: 0.404546 cumulative IPC: 0.467856 (Simulation time: 0 hr 57 min 23 sec) 
Heartbeat CPU 0 instructions: 860000003 cycles: 1859457186 heartbeat IPC: 0.43453 cumulative IPC: 0.467769 (Simulation time: 0 hr 57 min 27 sec) 
Heartbeat CPU 0 instructions: 861000002 cycles: 1861676240 heartbeat IPC: 0.450642 cumulative IPC: 0.467726 (Simulation time: 0 hr 57 min 31 sec) 
Heartbeat CPU 0 instructions: 862000000 cycles: 1864152588 heartbeat IPC: 0.40382 cumulative IPC: 0.467546 (Simulation time: 0 hr 57 min 35 sec) 
Heartbeat CPU 0 instructions: 863000000 cycles: 1866732882 heartbeat IPC: 0.387553 cumulative IPC: 0.467313 (Simulation time: 0 hr 57 min 39 sec) 
Heartbeat CPU 0 instructions: 864000000 cycles: 1868809024 heartbeat IPC: 0.481663 cumulative IPC: 0.467346 (Simulation time: 0 hr 57 min 42 sec) 
Heartbeat CPU 0 instructions: 865000001 cycles: 1870595088 heartbeat IPC: 0.559891 cumulative IPC: 0.467532 (Simulation time: 0 hr 57 min 46 sec) 
Heartbeat CPU 0 instructions: 866000003 cycles: 1872434527 heartbeat IPC: 0.543645 cumulative IPC: 0.46769 (Simulation time: 0 hr 57 min 50 sec) 
Heartbeat CPU 0 instructions: 867000001 cycles: 1874426862 heartbeat IPC: 0.501923 cumulative IPC: 0.467766 (Simulation time: 0 hr 57 min 54 sec) 
Heartbeat CPU 0 instructions: 868000002 cycles: 1876375107 heartbeat IPC: 0.513283 cumulative IPC: 0.467866 (Simulation time: 0 hr 57 min 58 sec) 
Heartbeat CPU 0 instructions: 869000000 cycles: 1878159683 heartbeat IPC: 0.560356 cumulative IPC: 0.46805 (Simulation time: 0 hr 58 min 2 sec) 
Heartbeat CPU 0 instructions: 870000002 cycles: 1880026357 heartbeat IPC: 0.535713 cumulative IPC: 0.468191 (Simulation time: 0 hr 58 min 6 sec) 
Heartbeat CPU 0 instructions: 871000001 cycles: 1881863050 heartbeat IPC: 0.544456 cumulative IPC: 0.468347 (Simulation time: 0 hr 58 min 10 sec) 
Heartbeat CPU 0 instructions: 872000001 cycles: 1883607669 heartbeat IPC: 0.573191 cumulative IPC: 0.46855 (Simulation time: 0 hr 58 min 14 sec) 
Heartbeat CPU 0 instructions: 873000000 cycles: 1885398150 heartbeat IPC: 0.558509 cumulative IPC: 0.468728 (Simulation time: 0 hr 58 min 18 sec) 
Heartbeat CPU 0 instructions: 874000000 cycles: 1887143789 heartbeat IPC: 0.572856 cumulative IPC: 0.468929 (Simulation time: 0 hr 58 min 22 sec) 
Heartbeat CPU 0 instructions: 875000002 cycles: 1888807350 heartbeat IPC: 0.601121 cumulative IPC: 0.469172 (Simulation time: 0 hr 58 min 25 sec) 
Heartbeat CPU 0 instructions: 876000003 cycles: 1890403428 heartbeat IPC: 0.626536 cumulative IPC: 0.469449 (Simulation time: 0 hr 58 min 29 sec) 
Heartbeat CPU 0 instructions: 877000003 cycles: 1892085295 heartbeat IPC: 0.594577 cumulative IPC: 0.46968 (Simulation time: 0 hr 58 min 33 sec) 
Heartbeat CPU 0 instructions: 878000001 cycles: 1893749948 heartbeat IPC: 0.600725 cumulative IPC: 0.46992 (Simulation time: 0 hr 58 min 37 sec) 
Heartbeat CPU 0 instructions: 879000001 cycles: 1895358727 heartbeat IPC: 0.621589 cumulative IPC: 0.470187 (Simulation time: 0 hr 58 min 41 sec) 
Heartbeat CPU 0 instructions: 880000000 cycles: 1896951095 heartbeat IPC: 0.627995 cumulative IPC: 0.470462 (Simulation time: 0 hr 58 min 45 sec) 
Heartbeat CPU 0 instructions: 881000002 cycles: 1898591088 heartbeat IPC: 0.60976 cumulative IPC: 0.470712 (Simulation time: 0 hr 58 min 49 sec) 
Heartbeat CPU 0 instructions: 882000002 cycles: 1900164863 heartbeat IPC: 0.635415 cumulative IPC: 0.470994 (Simulation time: 0 hr 58 min 52 sec) 
Heartbeat CPU 0 instructions: 883000002 cycles: 1901678146 heartbeat IPC: 0.660815 cumulative IPC: 0.471307 (Simulation time: 0 hr 58 min 56 sec) 
Heartbeat CPU 0 instructions: 884000001 cycles: 1903132256 heartbeat IPC: 0.687705 cumulative IPC: 0.471649 (Simulation time: 0 hr 59 min 0 sec) 
Heartbeat CPU 0 instructions: 885000002 cycles: 1904678620 heartbeat IPC: 0.646679 cumulative IPC: 0.471942 (Simulation time: 0 hr 59 min 3 sec) 
Heartbeat CPU 0 instructions: 886000001 cycles: 1906339960 heartbeat IPC: 0.601923 cumulative IPC: 0.472176 (Simulation time: 0 hr 59 min 7 sec) 
Heartbeat CPU 0 instructions: 887000001 cycles: 1907893575 heartbeat IPC: 0.64366 cumulative IPC: 0.472464 (Simulation time: 0 hr 59 min 11 sec) 
Heartbeat CPU 0 instructions: 888000002 cycles: 1909448152 heartbeat IPC: 0.643262 cumulative IPC: 0.472751 (Simulation time: 0 hr 59 min 14 sec) 
Heartbeat CPU 0 instructions: 889000001 cycles: 1911071015 heartbeat IPC: 0.616194 cumulative IPC: 0.473002 (Simulation time: 0 hr 59 min 18 sec) 
Heartbeat CPU 0 instructions: 890000003 cycles: 1912641689 heartbeat IPC: 0.636671 cumulative IPC: 0.473278 (Simulation time: 0 hr 59 min 22 sec) 
Heartbeat CPU 0 instructions: 891000000 cycles: 1914289811 heartbeat IPC: 0.606749 cumulative IPC: 0.473514 (Simulation time: 0 hr 59 min 26 sec) 
Heartbeat CPU 0 instructions: 892000001 cycles: 1915946476 heartbeat IPC: 0.603623 cumulative IPC: 0.473746 (Simulation time: 0 hr 59 min 30 sec) 
Heartbeat CPU 0 instructions: 893000000 cycles: 1917828685 heartbeat IPC: 0.53129 cumulative IPC: 0.473861 (Simulation time: 0 hr 59 min 34 sec) 
Heartbeat CPU 0 instructions: 894000002 cycles: 1919469224 heartbeat IPC: 0.609557 cumulative IPC: 0.474099 (Simulation time: 0 hr 59 min 37 sec) 
Heartbeat CPU 0 instructions: 895000002 cycles: 1921081193 heartbeat IPC: 0.620359 cumulative IPC: 0.47435 (Simulation time: 0 hr 59 min 41 sec) 
Heartbeat CPU 0 instructions: 896000000 cycles: 1922721131 heartbeat IPC: 0.609778 cumulative IPC: 0.474587 (Simulation time: 0 hr 59 min 45 sec) 
Heartbeat CPU 0 instructions: 897000001 cycles: 1924480957 heartbeat IPC: 0.568239 cumulative IPC: 0.474762 (Simulation time: 0 hr 59 min 49 sec) 
Heartbeat CPU 0 instructions: 898000003 cycles: 1926324557 heartbeat IPC: 0.542418 cumulative IPC: 0.474894 (Simulation time: 0 hr 59 min 53 sec) 
Heartbeat CPU 0 instructions: 899000002 cycles: 1928137850 heartbeat IPC: 0.551482 cumulative IPC: 0.475041 (Simulation time: 0 hr 59 min 57 sec) 
Heartbeat CPU 0 instructions: 900000003 cycles: 1929909519 heartbeat IPC: 0.56444 cumulative IPC: 0.475208 (Simulation time: 1 hr 0 min 0 sec) 
Heartbeat CPU 0 instructions: 901000000 cycles: 1931862433 heartbeat IPC: 0.512054 cumulative IPC: 0.475284 (Simulation time: 1 hr 0 min 5 sec) 
Heartbeat CPU 0 instructions: 902000000 cycles: 1933676237 heartbeat IPC: 0.551327 cumulative IPC: 0.475429 (Simulation time: 1 hr 0 min 8 sec) 
Heartbeat CPU 0 instructions: 903000000 cycles: 1935628340 heartbeat IPC: 0.512268 cumulative IPC: 0.475505 (Simulation time: 1 hr 0 min 12 sec) 
Heartbeat CPU 0 instructions: 904000000 cycles: 1937876958 heartbeat IPC: 0.444718 cumulative IPC: 0.475432 (Simulation time: 1 hr 0 min 17 sec) 
Heartbeat CPU 0 instructions: 905000003 cycles: 1940302508 heartbeat IPC: 0.412279 cumulative IPC: 0.475272 (Simulation time: 1 hr 0 min 20 sec) 
Heartbeat CPU 0 instructions: 906000001 cycles: 1942495279 heartbeat IPC: 0.456043 cumulative IPC: 0.475228 (Simulation time: 1 hr 0 min 25 sec) 
Heartbeat CPU 0 instructions: 907000003 cycles: 1944620340 heartbeat IPC: 0.470576 cumulative IPC: 0.475218 (Simulation time: 1 hr 0 min 29 sec) 
Heartbeat CPU 0 instructions: 908000000 cycles: 1946608014 heartbeat IPC: 0.503099 cumulative IPC: 0.475275 (Simulation time: 1 hr 0 min 33 sec) 
Heartbeat CPU 0 instructions: 909000001 cycles: 1948429767 heartbeat IPC: 0.548922 cumulative IPC: 0.475414 (Simulation time: 1 hr 0 min 37 sec) 
Heartbeat CPU 0 instructions: 910000001 cycles: 1950253135 heartbeat IPC: 0.548436 cumulative IPC: 0.475552 (Simulation time: 1 hr 0 min 41 sec) 
Heartbeat CPU 0 instructions: 911000002 cycles: 1952153798 heartbeat IPC: 0.526133 cumulative IPC: 0.475651 (Simulation time: 1 hr 0 min 45 sec) 
Heartbeat CPU 0 instructions: 912000002 cycles: 1953858401 heartbeat IPC: 0.586647 cumulative IPC: 0.475846 (Simulation time: 1 hr 0 min 49 sec) 
Heartbeat CPU 0 instructions: 913000000 cycles: 1955654977 heartbeat IPC: 0.556613 cumulative IPC: 0.475995 (Simulation time: 1 hr 0 min 52 sec) 
Heartbeat CPU 0 instructions: 914000000 cycles: 1957277588 heartbeat IPC: 0.616291 cumulative IPC: 0.476229 (Simulation time: 1 hr 0 min 56 sec) 
Heartbeat CPU 0 instructions: 915000003 cycles: 1958891942 heartbeat IPC: 0.619445 cumulative IPC: 0.476466 (Simulation time: 1 hr 1 min 0 sec) 
Heartbeat CPU 0 instructions: 916000003 cycles: 1960642239 heartbeat IPC: 0.571332 cumulative IPC: 0.476636 (Simulation time: 1 hr 1 min 3 sec) 
Heartbeat CPU 0 instructions: 917000000 cycles: 1962446561 heartbeat IPC: 0.554223 cumulative IPC: 0.476779 (Simulation time: 1 hr 1 min 7 sec) 
Heartbeat CPU 0 instructions: 918000000 cycles: 1964458269 heartbeat IPC: 0.49709 cumulative IPC: 0.47682 (Simulation time: 1 hr 1 min 11 sec) 
Heartbeat CPU 0 instructions: 919000001 cycles: 1966558947 heartbeat IPC: 0.476037 cumulative IPC: 0.476819 (Simulation time: 1 hr 1 min 15 sec) 
Heartbeat CPU 0 instructions: 920000003 cycles: 1969050202 heartbeat IPC: 0.401405 cumulative IPC: 0.476628 (Simulation time: 1 hr 1 min 19 sec) 
Heartbeat CPU 0 instructions: 921000001 cycles: 1971950000 heartbeat IPC: 0.344851 cumulative IPC: 0.476242 (Simulation time: 1 hr 1 min 22 sec) 
Heartbeat CPU 0 instructions: 922000000 cycles: 1974922599 heartbeat IPC: 0.336406 cumulative IPC: 0.475823 (Simulation time: 1 hr 1 min 26 sec) 
Heartbeat CPU 0 instructions: 923000001 cycles: 1977656382 heartbeat IPC: 0.365794 cumulative IPC: 0.47552 (Simulation time: 1 hr 1 min 30 sec) 
Heartbeat CPU 0 instructions: 924000000 cycles: 1980151010 heartbeat IPC: 0.400861 cumulative IPC: 0.475333 (Simulation time: 1 hr 1 min 34 sec) 
Heartbeat CPU 0 instructions: 925000002 cycles: 1982879661 heartbeat IPC: 0.366482 cumulative IPC: 0.475036 (Simulation time: 1 hr 1 min 38 sec) 
Heartbeat CPU 0 instructions: 926000000 cycles: 1985634580 heartbeat IPC: 0.362986 cumulative IPC: 0.474728 (Simulation time: 1 hr 1 min 42 sec) 
Heartbeat CPU 0 instructions: 927000000 cycles: 1988399529 heartbeat IPC: 0.36167 cumulative IPC: 0.474418 (Simulation time: 1 hr 1 min 46 sec) 
Heartbeat CPU 0 instructions: 928000000 cycles: 1991118692 heartbeat IPC: 0.36776 cumulative IPC: 0.47413 (Simulation time: 1 hr 1 min 50 sec) 
Heartbeat CPU 0 instructions: 929000000 cycles: 1993765686 heartbeat IPC: 0.377787 cumulative IPC: 0.473878 (Simulation time: 1 hr 1 min 54 sec) 
Heartbeat CPU 0 instructions: 930000002 cycles: 1996309371 heartbeat IPC: 0.393131 cumulative IPC: 0.473675 (Simulation time: 1 hr 1 min 58 sec) 
Heartbeat CPU 0 instructions: 931000002 cycles: 1998918970 heartbeat IPC: 0.383201 cumulative IPC: 0.473443 (Simulation time: 1 hr 2 min 2 sec) 
Heartbeat CPU 0 instructions: 932000001 cycles: 2001775026 heartbeat IPC: 0.350133 cumulative IPC: 0.473097 (Simulation time: 1 hr 2 min 6 sec) 
Heartbeat CPU 0 instructions: 933000002 cycles: 2004740737 heartbeat IPC: 0.337188 cumulative IPC: 0.472702 (Simulation time: 1 hr 2 min 10 sec) 
Heartbeat CPU 0 instructions: 934000001 cycles: 2007633992 heartbeat IPC: 0.345631 cumulative IPC: 0.472344 (Simulation time: 1 hr 2 min 14 sec) 
Heartbeat CPU 0 instructions: 935000000 cycles: 2010513011 heartbeat IPC: 0.34734 cumulative IPC: 0.471993 (Simulation time: 1 hr 2 min 18 sec) 
Heartbeat CPU 0 instructions: 936000002 cycles: 2013417538 heartbeat IPC: 0.344291 cumulative IPC: 0.471633 (Simulation time: 1 hr 2 min 21 sec) 
Heartbeat CPU 0 instructions: 937000002 cycles: 2016464494 heartbeat IPC: 0.328196 cumulative IPC: 0.471211 (Simulation time: 1 hr 2 min 25 sec) 
Heartbeat CPU 0 instructions: 938000002 cycles: 2019630709 heartbeat IPC: 0.315835 cumulative IPC: 0.470736 (Simulation time: 1 hr 2 min 29 sec) 
Heartbeat CPU 0 instructions: 939000000 cycles: 2022611752 heartbeat IPC: 0.335452 cumulative IPC: 0.470348 (Simulation time: 1 hr 2 min 33 sec) 
Heartbeat CPU 0 instructions: 940000000 cycles: 2025286884 heartbeat IPC: 0.373813 cumulative IPC: 0.4701 (Simulation time: 1 hr 2 min 37 sec) 
Heartbeat CPU 0 instructions: 941000000 cycles: 2027715297 heartbeat IPC: 0.411792 cumulative IPC: 0.469965 (Simulation time: 1 hr 2 min 40 sec) 
Heartbeat CPU 0 instructions: 942000000 cycles: 2030519196 heartbeat IPC: 0.356646 cumulative IPC: 0.469661 (Simulation time: 1 hr 2 min 44 sec) 
Heartbeat CPU 0 instructions: 943000002 cycles: 2033070076 heartbeat IPC: 0.392022 cumulative IPC: 0.469473 (Simulation time: 1 hr 2 min 48 sec) 
Heartbeat CPU 0 instructions: 944000000 cycles: 2035363723 heartbeat IPC: 0.435986 cumulative IPC: 0.4694 (Simulation time: 1 hr 2 min 51 sec) 
Heartbeat CPU 0 instructions: 945000001 cycles: 2038102868 heartbeat IPC: 0.365078 cumulative IPC: 0.469129 (Simulation time: 1 hr 2 min 55 sec) 
Heartbeat CPU 0 instructions: 946000000 cycles: 2041108499 heartbeat IPC: 0.332709 cumulative IPC: 0.468742 (Simulation time: 1 hr 2 min 58 sec) 
Heartbeat CPU 0 instructions: 947000000 cycles: 2044314513 heartbeat IPC: 0.311914 cumulative IPC: 0.468268 (Simulation time: 1 hr 3 min 2 sec) 
Heartbeat CPU 0 instructions: 948000000 cycles: 2047500646 heartbeat IPC: 0.31386 cumulative IPC: 0.467806 (Simulation time: 1 hr 3 min 6 sec) 
Heartbeat CPU 0 instructions: 949000003 cycles: 2050411192 heartbeat IPC: 0.343579 cumulative IPC: 0.467467 (Simulation time: 1 hr 3 min 10 sec) 
Heartbeat CPU 0 instructions: 950000003 cycles: 2053433633 heartbeat IPC: 0.330858 cumulative IPC: 0.467081 (Simulation time: 1 hr 3 min 14 sec) 
Finished CPU 0 instructions: 500000003 cycles: 1070477478 cumulative IPC: 0.467081 (Simulation time: 1 hr 3 min 14 sec) 

ChampSim completed all CPUs

Region of Interest Statistics

CPU 0 cumulative IPC: 0.467081 instructions: 500000003 cycles: 1070477478
L1D TOTAL     ACCESS:  122092443  HIT:  107604330  MISS:   14488113
L1D LOAD      ACCESS:  100636622  HIT:   86313333  MISS:   14323289
L1D RFO       ACCESS:   21455821  HIT:   21290997  MISS:     164824
L1D PREFETCH  ACCESS:          0  HIT:          0  MISS:          0
L1D WRITEBACK ACCESS:          0  HIT:          0  MISS:          0
L1D PREFETCH  REQUESTED:          0  ISSUED:          0  USEFUL:          0  USELESS:          0
L1D AVERAGE MISS LATENCY: 39.7407 cycles
L1I TOTAL     ACCESS:   88015125  HIT:   88015123  MISS:          2
L1I LOAD      ACCESS:   88015125  HIT:   88015123  MISS:          2
L1I RFO       ACCESS:          0  HIT:          0  MISS:          0
L1I PREFETCH  ACCESS:          0  HIT:          0  MISS:          0
L1I WRITEBACK ACCESS:          0  HIT:          0  MISS:          0
L1I PREFETCH  REQUESTED:          0  ISSUED:          0  USEFUL:          0  USELESS:          0
L1I AVERAGE MISS LATENCY: 215 cycles
L2C TOTAL     ACCESS:   19262731  HIT:   13848851  MISS:    5413880
L2C LOAD      ACCESS:   14322738  HIT:    8934775  MISS:    5387963
L2C RFO       ACCESS:     164819  HIT:     139168  MISS:      25651
L2C PREFETCH  ACCESS:          0  HIT:          0  MISS:          0
L2C WRITEBACK ACCESS:    4775174  HIT:    4774908  MISS:        266
L2C PREFETCH  REQUESTED:          0  ISSUED:          0  USEFUL:          0  USELESS:          0
L2C AVERAGE MISS LATENCY: 54.7555 cycles
LLC TOTAL     ACCESS:   12663044  HIT:   11340829  MISS:    1322215
LLC LOAD      ACCESS:    5387690  HIT:    4733746  MISS:     653944
LLC RFO       ACCESS:      25651  HIT:      23892  MISS:       1759
LLC PREFETCH  ACCESS:    5296758  HIT:    4632475  MISS:     664283
LLC WRITEBACK ACCESS:    1952945  HIT:    1950716  MISS:       2229
LLC PREFETCH  REQUESTED:    5387536  ISSUED:    5387536  USEFUL:     497326  USELESS:     160996
LLC AVERAGE MISS LATENCY: 178.899 cycles
Major fault: 0 Minor fault: 6226
performance stats:
mapping cache size: 318422
divergence: 7377566

DRAM Statistics
 CHANNEL 0
 RQ ROW_BUFFER_HIT:     210238  ROW_BUFFER_MISS:    1109646
 DBUS_CONGESTED:     174883
 WQ ROW_BUFFER_HIT:      79541  ROW_BUFFER_MISS:     634045  FULL:          0

 AVG_CONGESTED_CYCLE: 5

CPU 0 Branch Prediction Accuracy: 84.6857% MPKI: 29.2182 Average ROB Occupancy at Mispredict: 13.0657

Branch types
NOT_BRANCH: 404604755 80.921%
BRANCH_DIRECT_JUMP: 42139 0.0084278%
BRANCH_INDIRECT: 0 0%
BRANCH_CONDITIONAL: 95329666 19.0659%
BRANCH_DIRECT_CALL: 11710 0.002342%
BRANCH_INDIRECT_CALL: 0 0%
BRANCH_RETURN: 11710 0.002342%
BRANCH_OTHER: 0 0%


gzip: stdout: Broken pipe
