
*** ChampSim Multicore Out-of-Order Simulator ***

Warmup Instructions: 1000000
Prefetch Warmup Instructions: 450000000
Simulation Instructions: 500000000
Stat Printing Period: 1000000
Number of CPUs: 1
LLC sets: 2048
LLC ways: 16
Off-chip DRAM Size: 4096 MB Channels: 1 Width: 64-bit Data Rate: 3200 MT/s

CPU 0 runs /scratch/cluster/cmolder/ML-DPC/ChampSimTraces/spec17/602.gcc-s1.trace.xz
Read seed: 270
Heartbeat CPU 0 instructions: 1000000 cycles: 486574 heartbeat IPC: 2.05519 cumulative IPC: 2.05519 (Simulation time: 0 hr 0 min 6 sec) 

Warmup complete CPU 0 instructions: 1000004 cycles: 486575 (Simulation time: 0 hr 0 min 6 sec) 

Heartbeat CPU 0 instructions: 2000003 cycles: 9734345 heartbeat IPC: 0.108134 cumulative IPC: 0.108134 (Simulation time: 0 hr 0 min 21 sec) 
Heartbeat CPU 0 instructions: 3000002 cycles: 18973965 heartbeat IPC: 0.108229 cumulative IPC: 0.108182 (Simulation time: 0 hr 0 min 37 sec) 
Heartbeat CPU 0 instructions: 4000000 cycles: 28192318 heartbeat IPC: 0.108479 cumulative IPC: 0.108281 (Simulation time: 0 hr 0 min 52 sec) 
Heartbeat CPU 0 instructions: 5000002 cycles: 37413943 heartbeat IPC: 0.108441 cumulative IPC: 0.108321 (Simulation time: 0 hr 1 min 7 sec) 
Heartbeat CPU 0 instructions: 6000000 cycles: 45886823 heartbeat IPC: 0.118023 cumulative IPC: 0.110131 (Simulation time: 0 hr 1 min 22 sec) 
Heartbeat CPU 0 instructions: 7000001 cycles: 55151446 heartbeat IPC: 0.107938 cumulative IPC: 0.10976 (Simulation time: 0 hr 1 min 37 sec) 
Heartbeat CPU 0 instructions: 8000000 cycles: 64383138 heartbeat IPC: 0.108322 cumulative IPC: 0.109552 (Simulation time: 0 hr 1 min 52 sec) 
Heartbeat CPU 0 instructions: 9000000 cycles: 73649016 heartbeat IPC: 0.107923 cumulative IPC: 0.109346 (Simulation time: 0 hr 2 min 7 sec) 
Heartbeat CPU 0 instructions: 10000002 cycles: 82940325 heartbeat IPC: 0.107628 cumulative IPC: 0.109152 (Simulation time: 0 hr 2 min 22 sec) 
Heartbeat CPU 0 instructions: 11000000 cycles: 92204435 heartbeat IPC: 0.107943 cumulative IPC: 0.10903 (Simulation time: 0 hr 2 min 37 sec) 
Heartbeat CPU 0 instructions: 12000001 cycles: 101463359 heartbeat IPC: 0.108004 cumulative IPC: 0.108936 (Simulation time: 0 hr 2 min 51 sec) 
Heartbeat CPU 0 instructions: 13000002 cycles: 110750381 heartbeat IPC: 0.107677 cumulative IPC: 0.10883 (Simulation time: 0 hr 3 min 6 sec) 
Heartbeat CPU 0 instructions: 14000001 cycles: 120022520 heartbeat IPC: 0.10785 cumulative IPC: 0.108754 (Simulation time: 0 hr 3 min 22 sec) 
Heartbeat CPU 0 instructions: 15000000 cycles: 129287719 heartbeat IPC: 0.107931 cumulative IPC: 0.108695 (Simulation time: 0 hr 3 min 36 sec) 
Heartbeat CPU 0 instructions: 16000001 cycles: 138540249 heartbeat IPC: 0.108079 cumulative IPC: 0.108653 (Simulation time: 0 hr 3 min 49 sec) 
Heartbeat CPU 0 instructions: 17000001 cycles: 147832663 heartbeat IPC: 0.107615 cumulative IPC: 0.108588 (Simulation time: 0 hr 4 min 2 sec) 
Heartbeat CPU 0 instructions: 18000000 cycles: 157100364 heartbeat IPC: 0.107902 cumulative IPC: 0.108547 (Simulation time: 0 hr 4 min 17 sec) 
Heartbeat CPU 0 instructions: 19000001 cycles: 166367831 heartbeat IPC: 0.107904 cumulative IPC: 0.108511 (Simulation time: 0 hr 4 min 31 sec) 
Heartbeat CPU 0 instructions: 20000000 cycles: 175619432 heartbeat IPC: 0.108089 cumulative IPC: 0.108489 (Simulation time: 0 hr 4 min 45 sec) 
Heartbeat CPU 0 instructions: 21000002 cycles: 184887548 heartbeat IPC: 0.107897 cumulative IPC: 0.108459 (Simulation time: 0 hr 4 min 57 sec) 
Heartbeat CPU 0 instructions: 22000000 cycles: 194173093 heartbeat IPC: 0.107694 cumulative IPC: 0.108423 (Simulation time: 0 hr 5 min 5 sec) 
Heartbeat CPU 0 instructions: 23000001 cycles: 203410880 heartbeat IPC: 0.108251 cumulative IPC: 0.108415 (Simulation time: 0 hr 5 min 16 sec) 
Heartbeat CPU 0 instructions: 24000003 cycles: 212675027 heartbeat IPC: 0.107943 cumulative IPC: 0.108394 (Simulation time: 0 hr 5 min 24 sec) 
Heartbeat CPU 0 instructions: 25000000 cycles: 221970673 heartbeat IPC: 0.107577 cumulative IPC: 0.10836 (Simulation time: 0 hr 5 min 31 sec) 
Heartbeat CPU 0 instructions: 26000000 cycles: 231283564 heartbeat IPC: 0.107378 cumulative IPC: 0.10832 (Simulation time: 0 hr 5 min 42 sec) 
Heartbeat CPU 0 instructions: 27000000 cycles: 240572714 heartbeat IPC: 0.107652 cumulative IPC: 0.108294 (Simulation time: 0 hr 5 min 50 sec) 
Heartbeat CPU 0 instructions: 28000000 cycles: 249869596 heartbeat IPC: 0.107563 cumulative IPC: 0.108267 (Simulation time: 0 hr 5 min 57 sec) 
Heartbeat CPU 0 instructions: 29000000 cycles: 259180354 heartbeat IPC: 0.107403 cumulative IPC: 0.108236 (Simulation time: 0 hr 6 min 5 sec) 
Heartbeat CPU 0 instructions: 30000001 cycles: 268444038 heartbeat IPC: 0.107949 cumulative IPC: 0.108226 (Simulation time: 0 hr 6 min 13 sec) 
Heartbeat CPU 0 instructions: 31000001 cycles: 277725862 heartbeat IPC: 0.107737 cumulative IPC: 0.10821 (Simulation time: 0 hr 6 min 22 sec) 
Heartbeat CPU 0 instructions: 32000001 cycles: 287016702 heartbeat IPC: 0.107633 cumulative IPC: 0.108191 (Simulation time: 0 hr 6 min 30 sec) 
Heartbeat CPU 0 instructions: 33000000 cycles: 296280794 heartbeat IPC: 0.107944 cumulative IPC: 0.108183 (Simulation time: 0 hr 6 min 38 sec) 
Heartbeat CPU 0 instructions: 34000003 cycles: 305577365 heartbeat IPC: 0.107567 cumulative IPC: 0.108165 (Simulation time: 0 hr 6 min 45 sec) 
Heartbeat CPU 0 instructions: 35000000 cycles: 314901547 heartbeat IPC: 0.107248 cumulative IPC: 0.108137 (Simulation time: 0 hr 6 min 54 sec) 
Heartbeat CPU 0 instructions: 36000003 cycles: 324203362 heartbeat IPC: 0.107506 cumulative IPC: 0.108119 (Simulation time: 0 hr 7 min 4 sec) 
Heartbeat CPU 0 instructions: 37000003 cycles: 333519186 heartbeat IPC: 0.107344 cumulative IPC: 0.108098 (Simulation time: 0 hr 7 min 12 sec) 
Heartbeat CPU 0 instructions: 38000000 cycles: 342794173 heartbeat IPC: 0.107817 cumulative IPC: 0.10809 (Simulation time: 0 hr 7 min 21 sec) 
Heartbeat CPU 0 instructions: 39000000 cycles: 352021478 heartbeat IPC: 0.108374 cumulative IPC: 0.108097 (Simulation time: 0 hr 7 min 29 sec) 
Heartbeat CPU 0 instructions: 40000002 cycles: 361262077 heartbeat IPC: 0.108218 cumulative IPC: 0.1081 (Simulation time: 0 hr 7 min 38 sec) 
Heartbeat CPU 0 instructions: 41000000 cycles: 370486249 heartbeat IPC: 0.108411 cumulative IPC: 0.108108 (Simulation time: 0 hr 7 min 51 sec) 
Heartbeat CPU 0 instructions: 42000002 cycles: 378960211 heartbeat IPC: 0.118009 cumulative IPC: 0.10833 (Simulation time: 0 hr 7 min 59 sec) 
Heartbeat CPU 0 instructions: 43000000 cycles: 388217999 heartbeat IPC: 0.108017 cumulative IPC: 0.108322 (Simulation time: 0 hr 8 min 8 sec) 
Heartbeat CPU 0 instructions: 44000000 cycles: 397455778 heartbeat IPC: 0.108251 cumulative IPC: 0.108321 (Simulation time: 0 hr 8 min 16 sec) 
Heartbeat CPU 0 instructions: 45000000 cycles: 406719813 heartbeat IPC: 0.107944 cumulative IPC: 0.108312 (Simulation time: 0 hr 8 min 24 sec) 
Heartbeat CPU 0 instructions: 46000003 cycles: 415991795 heartbeat IPC: 0.107852 cumulative IPC: 0.108302 (Simulation time: 0 hr 8 min 32 sec) 
Heartbeat CPU 0 instructions: 47000001 cycles: 425268186 heartbeat IPC: 0.1078 cumulative IPC: 0.108291 (Simulation time: 0 hr 8 min 40 sec) 
Heartbeat CPU 0 instructions: 48000000 cycles: 434516805 heartbeat IPC: 0.108124 cumulative IPC: 0.108287 (Simulation time: 0 hr 8 min 48 sec) 
Heartbeat CPU 0 instructions: 49000003 cycles: 443814155 heartbeat IPC: 0.107558 cumulative IPC: 0.108272 (Simulation time: 0 hr 8 min 56 sec) 
Heartbeat CPU 0 instructions: 50000000 cycles: 453085281 heartbeat IPC: 0.107861 cumulative IPC: 0.108264 (Simulation time: 0 hr 9 min 4 sec) 
Heartbeat CPU 0 instructions: 51000002 cycles: 462344847 heartbeat IPC: 0.107997 cumulative IPC: 0.108258 (Simulation time: 0 hr 9 min 12 sec) 
Heartbeat CPU 0 instructions: 52000000 cycles: 471601455 heartbeat IPC: 0.108031 cumulative IPC: 0.108254 (Simulation time: 0 hr 9 min 20 sec) 
Heartbeat CPU 0 instructions: 53000003 cycles: 480869585 heartbeat IPC: 0.107897 cumulative IPC: 0.108247 (Simulation time: 0 hr 9 min 28 sec) 
Heartbeat CPU 0 instructions: 54000000 cycles: 490179547 heartbeat IPC: 0.107412 cumulative IPC: 0.108231 (Simulation time: 0 hr 9 min 36 sec) 
Heartbeat CPU 0 instructions: 55000000 cycles: 499425481 heartbeat IPC: 0.108156 cumulative IPC: 0.10823 (Simulation time: 0 hr 9 min 44 sec) 
Heartbeat CPU 0 instructions: 56000002 cycles: 508672407 heartbeat IPC: 0.108144 cumulative IPC: 0.108228 (Simulation time: 0 hr 9 min 52 sec) 
Heartbeat CPU 0 instructions: 57000001 cycles: 517965206 heartbeat IPC: 0.10761 cumulative IPC: 0.108217 (Simulation time: 0 hr 10 min 0 sec) 
Heartbeat CPU 0 instructions: 58000000 cycles: 527219949 heartbeat IPC: 0.108053 cumulative IPC: 0.108214 (Simulation time: 0 hr 10 min 8 sec) 
Heartbeat CPU 0 instructions: 59000002 cycles: 536489710 heartbeat IPC: 0.107878 cumulative IPC: 0.108208 (Simulation time: 0 hr 10 min 16 sec) 
Heartbeat CPU 0 instructions: 60000002 cycles: 545714016 heartbeat IPC: 0.108409 cumulative IPC: 0.108212 (Simulation time: 0 hr 10 min 24 sec) 
Heartbeat CPU 0 instructions: 61000002 cycles: 555015551 heartbeat IPC: 0.107509 cumulative IPC: 0.1082 (Simulation time: 0 hr 10 min 32 sec) 
Heartbeat CPU 0 instructions: 62000002 cycles: 564326478 heartbeat IPC: 0.107401 cumulative IPC: 0.108187 (Simulation time: 0 hr 10 min 40 sec) 
Heartbeat CPU 0 instructions: 63000001 cycles: 573604786 heartbeat IPC: 0.107778 cumulative IPC: 0.10818 (Simulation time: 0 hr 10 min 48 sec) 
Heartbeat CPU 0 instructions: 64000000 cycles: 582918277 heartbeat IPC: 0.107371 cumulative IPC: 0.108167 (Simulation time: 0 hr 10 min 56 sec) 
Heartbeat CPU 0 instructions: 65000000 cycles: 592201634 heartbeat IPC: 0.10772 cumulative IPC: 0.10816 (Simulation time: 0 hr 11 min 6 sec) 
Heartbeat CPU 0 instructions: 66000000 cycles: 601508262 heartbeat IPC: 0.10745 cumulative IPC: 0.108149 (Simulation time: 0 hr 11 min 18 sec) 
Heartbeat CPU 0 instructions: 67000000 cycles: 610779446 heartbeat IPC: 0.107861 cumulative IPC: 0.108145 (Simulation time: 0 hr 11 min 32 sec) 
Heartbeat CPU 0 instructions: 68000000 cycles: 620075339 heartbeat IPC: 0.107574 cumulative IPC: 0.108136 (Simulation time: 0 hr 11 min 41 sec) 
Heartbeat CPU 0 instructions: 69000001 cycles: 629336741 heartbeat IPC: 0.107975 cumulative IPC: 0.108134 (Simulation time: 0 hr 11 min 49 sec) 
Heartbeat CPU 0 instructions: 70000000 cycles: 638616376 heartbeat IPC: 0.107763 cumulative IPC: 0.108128 (Simulation time: 0 hr 11 min 57 sec) 
Heartbeat CPU 0 instructions: 71000000 cycles: 647952876 heartbeat IPC: 0.107107 cumulative IPC: 0.108114 (Simulation time: 0 hr 12 min 5 sec) 
Heartbeat CPU 0 instructions: 72000000 cycles: 657241739 heartbeat IPC: 0.107656 cumulative IPC: 0.108107 (Simulation time: 0 hr 12 min 14 sec) 
Heartbeat CPU 0 instructions: 73000003 cycles: 666552831 heartbeat IPC: 0.107399 cumulative IPC: 0.108097 (Simulation time: 0 hr 12 min 22 sec) 
Heartbeat CPU 0 instructions: 74000000 cycles: 675860116 heartbeat IPC: 0.107442 cumulative IPC: 0.108088 (Simulation time: 0 hr 12 min 29 sec) 
Heartbeat CPU 0 instructions: 75000000 cycles: 685108006 heartbeat IPC: 0.108133 cumulative IPC: 0.108089 (Simulation time: 0 hr 12 min 37 sec) 
Heartbeat CPU 0 instructions: 76000001 cycles: 694344764 heartbeat IPC: 0.108263 cumulative IPC: 0.108091 (Simulation time: 0 hr 12 min 47 sec) 
Heartbeat CPU 0 instructions: 77000000 cycles: 703559673 heartbeat IPC: 0.10852 cumulative IPC: 0.108097 (Simulation time: 0 hr 12 min 57 sec) 
Heartbeat CPU 0 instructions: 78000001 cycles: 712780989 heartbeat IPC: 0.108444 cumulative IPC: 0.108101 (Simulation time: 0 hr 13 min 5 sec) 
Heartbeat CPU 0 instructions: 79000003 cycles: 721254287 heartbeat IPC: 0.118018 cumulative IPC: 0.108218 (Simulation time: 0 hr 13 min 12 sec) 
Heartbeat CPU 0 instructions: 80000000 cycles: 730514658 heartbeat IPC: 0.107987 cumulative IPC: 0.108215 (Simulation time: 0 hr 13 min 21 sec) 
Heartbeat CPU 0 instructions: 81000000 cycles: 739764324 heartbeat IPC: 0.108112 cumulative IPC: 0.108214 (Simulation time: 0 hr 13 min 29 sec) 
Heartbeat CPU 0 instructions: 82000002 cycles: 749016630 heartbeat IPC: 0.108081 cumulative IPC: 0.108212 (Simulation time: 0 hr 13 min 37 sec) 
Heartbeat CPU 0 instructions: 83000000 cycles: 758304770 heartbeat IPC: 0.107664 cumulative IPC: 0.108205 (Simulation time: 0 hr 13 min 45 sec) 
Heartbeat CPU 0 instructions: 84000000 cycles: 767564207 heartbeat IPC: 0.107998 cumulative IPC: 0.108203 (Simulation time: 0 hr 13 min 53 sec) 
Heartbeat CPU 0 instructions: 85000000 cycles: 776838756 heartbeat IPC: 0.107822 cumulative IPC: 0.108198 (Simulation time: 0 hr 14 min 1 sec) 
Heartbeat CPU 0 instructions: 86000002 cycles: 786134025 heartbeat IPC: 0.107582 cumulative IPC: 0.108191 (Simulation time: 0 hr 14 min 10 sec) 
Heartbeat CPU 0 instructions: 87000000 cycles: 795388074 heartbeat IPC: 0.108061 cumulative IPC: 0.10819 (Simulation time: 0 hr 14 min 17 sec) 
Heartbeat CPU 0 instructions: 88000000 cycles: 804658818 heartbeat IPC: 0.107866 cumulative IPC: 0.108186 (Simulation time: 0 hr 14 min 25 sec) 
Heartbeat CPU 0 instructions: 89000003 cycles: 813907211 heartbeat IPC: 0.108127 cumulative IPC: 0.108185 (Simulation time: 0 hr 14 min 33 sec) 
Heartbeat CPU 0 instructions: 90000001 cycles: 823205207 heartbeat IPC: 0.10755 cumulative IPC: 0.108178 (Simulation time: 0 hr 14 min 41 sec) 
Heartbeat CPU 0 instructions: 91000000 cycles: 832463057 heartbeat IPC: 0.108016 cumulative IPC: 0.108176 (Simulation time: 0 hr 14 min 48 sec) 
Heartbeat CPU 0 instructions: 92000002 cycles: 841724298 heartbeat IPC: 0.107977 cumulative IPC: 0.108174 (Simulation time: 0 hr 14 min 56 sec) 
Heartbeat CPU 0 instructions: 93000002 cycles: 850983446 heartbeat IPC: 0.108001 cumulative IPC: 0.108172 (Simulation time: 0 hr 15 min 4 sec) 
Heartbeat CPU 0 instructions: 94000001 cycles: 860245161 heartbeat IPC: 0.107971 cumulative IPC: 0.10817 (Simulation time: 0 hr 15 min 14 sec) 
Heartbeat CPU 0 instructions: 95000002 cycles: 869537069 heartbeat IPC: 0.107621 cumulative IPC: 0.108164 (Simulation time: 0 hr 15 min 29 sec) 
Heartbeat CPU 0 instructions: 96000001 cycles: 878768200 heartbeat IPC: 0.108329 cumulative IPC: 0.108166 (Simulation time: 0 hr 15 min 37 sec) 
Heartbeat CPU 0 instructions: 97000001 cycles: 888056010 heartbeat IPC: 0.107668 cumulative IPC: 0.108161 (Simulation time: 0 hr 15 min 45 sec) 
Heartbeat CPU 0 instructions: 98000003 cycles: 897354413 heartbeat IPC: 0.107546 cumulative IPC: 0.108154 (Simulation time: 0 hr 15 min 53 sec) 
Heartbeat CPU 0 instructions: 99000000 cycles: 906656510 heartbeat IPC: 0.107502 cumulative IPC: 0.108147 (Simulation time: 0 hr 16 min 0 sec) 
Heartbeat CPU 0 instructions: 100000001 cycles: 915941887 heartbeat IPC: 0.107696 cumulative IPC: 0.108143 (Simulation time: 0 hr 16 min 8 sec) 
Heartbeat CPU 0 instructions: 101000001 cycles: 925247482 heartbeat IPC: 0.107462 cumulative IPC: 0.108136 (Simulation time: 0 hr 16 min 16 sec) 
Heartbeat CPU 0 instructions: 102000002 cycles: 934542599 heartbeat IPC: 0.107583 cumulative IPC: 0.108131 (Simulation time: 0 hr 16 min 24 sec) 
Heartbeat CPU 0 instructions: 103000001 cycles: 943807484 heartbeat IPC: 0.107934 cumulative IPC: 0.108129 (Simulation time: 0 hr 16 min 31 sec) 
Heartbeat CPU 0 instructions: 104000000 cycles: 953101527 heartbeat IPC: 0.107596 cumulative IPC: 0.108123 (Simulation time: 0 hr 16 min 39 sec) 
Heartbeat CPU 0 instructions: 105000003 cycles: 962376602 heartbeat IPC: 0.107816 cumulative IPC: 0.10812 (Simulation time: 0 hr 16 min 47 sec) 
Heartbeat CPU 0 instructions: 106000000 cycles: 971642673 heartbeat IPC: 0.10792 cumulative IPC: 0.108119 (Simulation time: 0 hr 16 min 54 sec) 
Heartbeat CPU 0 instructions: 107000000 cycles: 980959023 heartbeat IPC: 0.107338 cumulative IPC: 0.108111 (Simulation time: 0 hr 17 min 2 sec) 
Heartbeat CPU 0 instructions: 108000001 cycles: 990275898 heartbeat IPC: 0.107332 cumulative IPC: 0.108104 (Simulation time: 0 hr 17 min 10 sec) 
Heartbeat CPU 0 instructions: 109000002 cycles: 999570186 heartbeat IPC: 0.107593 cumulative IPC: 0.108099 (Simulation time: 0 hr 17 min 17 sec) 
Heartbeat CPU 0 instructions: 110000000 cycles: 1008890695 heartbeat IPC: 0.10729 cumulative IPC: 0.108092 (Simulation time: 0 hr 17 min 25 sec) 
Heartbeat CPU 0 instructions: 111000001 cycles: 1018159491 heartbeat IPC: 0.107889 cumulative IPC: 0.10809 (Simulation time: 0 hr 17 min 33 sec) 
Heartbeat CPU 0 instructions: 112000000 cycles: 1027389167 heartbeat IPC: 0.108346 cumulative IPC: 0.108092 (Simulation time: 0 hr 17 min 41 sec) 
Heartbeat CPU 0 instructions: 113000000 cycles: 1036613860 heartbeat IPC: 0.108405 cumulative IPC: 0.108095 (Simulation time: 0 hr 17 min 49 sec) 
Heartbeat CPU 0 instructions: 114000000 cycles: 1045845534 heartbeat IPC: 0.108323 cumulative IPC: 0.108097 (Simulation time: 0 hr 17 min 57 sec) 
Heartbeat CPU 0 instructions: 115000000 cycles: 1053119676 heartbeat IPC: 0.137473 cumulative IPC: 0.1083 (Simulation time: 0 hr 18 min 3 sec) 
Heartbeat CPU 0 instructions: 116000000 cycles: 1062387608 heartbeat IPC: 0.107899 cumulative IPC: 0.108296 (Simulation time: 0 hr 18 min 11 sec) 
Heartbeat CPU 0 instructions: 117000001 cycles: 1071625965 heartbeat IPC: 0.108244 cumulative IPC: 0.108296 (Simulation time: 0 hr 18 min 18 sec) 
Heartbeat CPU 0 instructions: 118000000 cycles: 1080884656 heartbeat IPC: 0.108007 cumulative IPC: 0.108293 (Simulation time: 0 hr 18 min 32 sec) 
Heartbeat CPU 0 instructions: 119000001 cycles: 1090155928 heartbeat IPC: 0.10786 cumulative IPC: 0.10829 (Simulation time: 0 hr 18 min 46 sec) 
Heartbeat CPU 0 instructions: 120000000 cycles: 1099435497 heartbeat IPC: 0.107764 cumulative IPC: 0.108285 (Simulation time: 0 hr 19 min 0 sec) 
Heartbeat CPU 0 instructions: 121000000 cycles: 1108683784 heartbeat IPC: 0.108128 cumulative IPC: 0.108284 (Simulation time: 0 hr 19 min 14 sec) 
Heartbeat CPU 0 instructions: 122000000 cycles: 1117983972 heartbeat IPC: 0.107525 cumulative IPC: 0.108278 (Simulation time: 0 hr 19 min 29 sec) 
Heartbeat CPU 0 instructions: 123000001 cycles: 1127258216 heartbeat IPC: 0.107826 cumulative IPC: 0.108274 (Simulation time: 0 hr 19 min 43 sec) 
Heartbeat CPU 0 instructions: 124000001 cycles: 1136513550 heartbeat IPC: 0.108046 cumulative IPC: 0.108272 (Simulation time: 0 hr 19 min 57 sec) 
Heartbeat CPU 0 instructions: 125000001 cycles: 1145774461 heartbeat IPC: 0.107981 cumulative IPC: 0.10827 (Simulation time: 0 hr 20 min 11 sec) 
Heartbeat CPU 0 instructions: 126000003 cycles: 1155035556 heartbeat IPC: 0.107979 cumulative IPC: 0.108267 (Simulation time: 0 hr 20 min 26 sec) 
Heartbeat CPU 0 instructions: 127000001 cycles: 1164349745 heartbeat IPC: 0.107363 cumulative IPC: 0.10826 (Simulation time: 0 hr 20 min 34 sec) 
Heartbeat CPU 0 instructions: 128000001 cycles: 1173596641 heartbeat IPC: 0.108144 cumulative IPC: 0.108259 (Simulation time: 0 hr 20 min 41 sec) 
Heartbeat CPU 0 instructions: 129000000 cycles: 1182842420 heartbeat IPC: 0.108157 cumulative IPC: 0.108258 (Simulation time: 0 hr 20 min 49 sec) 
Heartbeat CPU 0 instructions: 130000001 cycles: 1192127059 heartbeat IPC: 0.107705 cumulative IPC: 0.108254 (Simulation time: 0 hr 20 min 57 sec) 
Heartbeat CPU 0 instructions: 131000000 cycles: 1201382281 heartbeat IPC: 0.108047 cumulative IPC: 0.108253 (Simulation time: 0 hr 21 min 4 sec) 
Heartbeat CPU 0 instructions: 132000000 cycles: 1210656008 heartbeat IPC: 0.107832 cumulative IPC: 0.108249 (Simulation time: 0 hr 21 min 12 sec) 
Heartbeat CPU 0 instructions: 133000001 cycles: 1219875202 heartbeat IPC: 0.108469 cumulative IPC: 0.108251 (Simulation time: 0 hr 21 min 20 sec) 
Heartbeat CPU 0 instructions: 134000001 cycles: 1229185818 heartbeat IPC: 0.107404 cumulative IPC: 0.108245 (Simulation time: 0 hr 21 min 27 sec) 
Heartbeat CPU 0 instructions: 135000000 cycles: 1238494111 heartbeat IPC: 0.107431 cumulative IPC: 0.108238 (Simulation time: 0 hr 21 min 35 sec) 
Heartbeat CPU 0 instructions: 136000000 cycles: 1247775063 heartbeat IPC: 0.107748 cumulative IPC: 0.108235 (Simulation time: 0 hr 21 min 43 sec) 
Heartbeat CPU 0 instructions: 137000002 cycles: 1257082338 heartbeat IPC: 0.107443 cumulative IPC: 0.108229 (Simulation time: 0 hr 21 min 50 sec) 
Heartbeat CPU 0 instructions: 138000000 cycles: 1266363855 heartbeat IPC: 0.107741 cumulative IPC: 0.108225 (Simulation time: 0 hr 21 min 58 sec) 
Heartbeat CPU 0 instructions: 139000001 cycles: 1275674423 heartbeat IPC: 0.107405 cumulative IPC: 0.108219 (Simulation time: 0 hr 22 min 6 sec) 
Heartbeat CPU 0 instructions: 140000000 cycles: 1284946683 heartbeat IPC: 0.107848 cumulative IPC: 0.108217 (Simulation time: 0 hr 22 min 14 sec) 
Heartbeat CPU 0 instructions: 141000001 cycles: 1294236992 heartbeat IPC: 0.107639 cumulative IPC: 0.108213 (Simulation time: 0 hr 22 min 22 sec) 
Heartbeat CPU 0 instructions: 142000000 cycles: 1303500373 heartbeat IPC: 0.107952 cumulative IPC: 0.108211 (Simulation time: 0 hr 22 min 30 sec) 
Heartbeat CPU 0 instructions: 143000000 cycles: 1312772278 heartbeat IPC: 0.107853 cumulative IPC: 0.108208 (Simulation time: 0 hr 22 min 37 sec) 
Heartbeat CPU 0 instructions: 144000003 cycles: 1322106671 heartbeat IPC: 0.107131 cumulative IPC: 0.108201 (Simulation time: 0 hr 22 min 45 sec) 
Heartbeat CPU 0 instructions: 145000001 cycles: 1331399518 heartbeat IPC: 0.107609 cumulative IPC: 0.108196 (Simulation time: 0 hr 22 min 53 sec) 
Heartbeat CPU 0 instructions: 146000000 cycles: 1340706133 heartbeat IPC: 0.10745 cumulative IPC: 0.108191 (Simulation time: 0 hr 23 min 1 sec) 
Heartbeat CPU 0 instructions: 147000000 cycles: 1350012550 heartbeat IPC: 0.107453 cumulative IPC: 0.108186 (Simulation time: 0 hr 23 min 8 sec) 
Heartbeat CPU 0 instructions: 148000000 cycles: 1359266274 heartbeat IPC: 0.108065 cumulative IPC: 0.108185 (Simulation time: 0 hr 23 min 16 sec) 
Heartbeat CPU 0 instructions: 149000000 cycles: 1368493283 heartbeat IPC: 0.108377 cumulative IPC: 0.108187 (Simulation time: 0 hr 23 min 24 sec) 
Heartbeat CPU 0 instructions: 150000001 cycles: 1377710627 heartbeat IPC: 0.108491 cumulative IPC: 0.108189 (Simulation time: 0 hr 23 min 32 sec) 
Heartbeat CPU 0 instructions: 151000000 cycles: 1386939776 heartbeat IPC: 0.108352 cumulative IPC: 0.10819 (Simulation time: 0 hr 23 min 39 sec) 
Heartbeat CPU 0 instructions: 152000001 cycles: 1395425796 heartbeat IPC: 0.117841 cumulative IPC: 0.108248 (Simulation time: 0 hr 23 min 47 sec) 
Heartbeat CPU 0 instructions: 153000002 cycles: 1404681901 heartbeat IPC: 0.108037 cumulative IPC: 0.108247 (Simulation time: 0 hr 23 min 54 sec) 
Heartbeat CPU 0 instructions: 154000000 cycles: 1413938671 heartbeat IPC: 0.108029 cumulative IPC: 0.108246 (Simulation time: 0 hr 24 min 2 sec) 
Heartbeat CPU 0 instructions: 155000000 cycles: 1423194931 heartbeat IPC: 0.108035 cumulative IPC: 0.108244 (Simulation time: 0 hr 24 min 10 sec) 
Heartbeat CPU 0 instructions: 156000000 cycles: 1432487904 heartbeat IPC: 0.107608 cumulative IPC: 0.10824 (Simulation time: 0 hr 24 min 18 sec) 
Heartbeat CPU 0 instructions: 157000000 cycles: 1441741648 heartbeat IPC: 0.108064 cumulative IPC: 0.108239 (Simulation time: 0 hr 24 min 25 sec) 
Heartbeat CPU 0 instructions: 158000001 cycles: 1451017373 heartbeat IPC: 0.107808 cumulative IPC: 0.108236 (Simulation time: 0 hr 24 min 33 sec) 
Heartbeat CPU 0 instructions: 159000000 cycles: 1460308015 heartbeat IPC: 0.107635 cumulative IPC: 0.108232 (Simulation time: 0 hr 24 min 41 sec) 
Heartbeat CPU 0 instructions: 160000002 cycles: 1469573146 heartbeat IPC: 0.107932 cumulative IPC: 0.108231 (Simulation time: 0 hr 24 min 49 sec) 
Heartbeat CPU 0 instructions: 161000001 cycles: 1478833575 heartbeat IPC: 0.107986 cumulative IPC: 0.108229 (Simulation time: 0 hr 24 min 57 sec) 
Heartbeat CPU 0 instructions: 162000000 cycles: 1488080524 heartbeat IPC: 0.108144 cumulative IPC: 0.108228 (Simulation time: 0 hr 25 min 4 sec) 
Heartbeat CPU 0 instructions: 163000003 cycles: 1497374476 heartbeat IPC: 0.107597 cumulative IPC: 0.108225 (Simulation time: 0 hr 25 min 12 sec) 
Heartbeat CPU 0 instructions: 164000001 cycles: 1506632919 heartbeat IPC: 0.108009 cumulative IPC: 0.108223 (Simulation time: 0 hr 25 min 20 sec) 
Heartbeat CPU 0 instructions: 165000000 cycles: 1515906378 heartbeat IPC: 0.107835 cumulative IPC: 0.108221 (Simulation time: 0 hr 25 min 27 sec) 
Heartbeat CPU 0 instructions: 166000000 cycles: 1525164549 heartbeat IPC: 0.108013 cumulative IPC: 0.10822 (Simulation time: 0 hr 25 min 35 sec) 
Heartbeat CPU 0 instructions: 167000001 cycles: 1534430018 heartbeat IPC: 0.107928 cumulative IPC: 0.108218 (Simulation time: 0 hr 25 min 43 sec) 
Heartbeat CPU 0 instructions: 168000001 cycles: 1543710972 heartbeat IPC: 0.107748 cumulative IPC: 0.108215 (Simulation time: 0 hr 25 min 50 sec) 
Heartbeat CPU 0 instructions: 169000001 cycles: 1552949658 heartbeat IPC: 0.108241 cumulative IPC: 0.108215 (Simulation time: 0 hr 25 min 58 sec) 
Heartbeat CPU 0 instructions: 170000001 cycles: 1562237014 heartbeat IPC: 0.107673 cumulative IPC: 0.108212 (Simulation time: 0 hr 26 min 6 sec) 
Heartbeat CPU 0 instructions: 171000000 cycles: 1571528180 heartbeat IPC: 0.107629 cumulative IPC: 0.108208 (Simulation time: 0 hr 26 min 13 sec) 
Heartbeat CPU 0 instructions: 172000002 cycles: 1580833645 heartbeat IPC: 0.107464 cumulative IPC: 0.108204 (Simulation time: 0 hr 26 min 21 sec) 
Heartbeat CPU 0 instructions: 173000001 cycles: 1590113547 heartbeat IPC: 0.10776 cumulative IPC: 0.108201 (Simulation time: 0 hr 26 min 29 sec) 
Heartbeat CPU 0 instructions: 174000003 cycles: 1599420594 heartbeat IPC: 0.107446 cumulative IPC: 0.108197 (Simulation time: 0 hr 26 min 36 sec) 
Heartbeat CPU 0 instructions: 175000000 cycles: 1608719082 heartbeat IPC: 0.107544 cumulative IPC: 0.108193 (Simulation time: 0 hr 26 min 44 sec) 
Heartbeat CPU 0 instructions: 176000000 cycles: 1617982808 heartbeat IPC: 0.107948 cumulative IPC: 0.108192 (Simulation time: 0 hr 26 min 52 sec) 
Heartbeat CPU 0 instructions: 177000001 cycles: 1627269483 heartbeat IPC: 0.107681 cumulative IPC: 0.108189 (Simulation time: 0 hr 27 min 0 sec) 
Heartbeat CPU 0 instructions: 178000000 cycles: 1636545003 heartbeat IPC: 0.107811 cumulative IPC: 0.108187 (Simulation time: 0 hr 27 min 7 sec) 
Heartbeat CPU 0 instructions: 179000001 cycles: 1645809207 heartbeat IPC: 0.107942 cumulative IPC: 0.108185 (Simulation time: 0 hr 27 min 15 sec) 
Heartbeat CPU 0 instructions: 180000000 cycles: 1655123691 heartbeat IPC: 0.10736 cumulative IPC: 0.108181 (Simulation time: 0 hr 27 min 23 sec) 
Heartbeat CPU 0 instructions: 181000002 cycles: 1664443948 heartbeat IPC: 0.107293 cumulative IPC: 0.108176 (Simulation time: 0 hr 27 min 30 sec) 
Heartbeat CPU 0 instructions: 182000000 cycles: 1673727596 heartbeat IPC: 0.107716 cumulative IPC: 0.108173 (Simulation time: 0 hr 27 min 38 sec) 
Heartbeat CPU 0 instructions: 183000000 cycles: 1683047285 heartbeat IPC: 0.1073 cumulative IPC: 0.108168 (Simulation time: 0 hr 27 min 47 sec) 
Heartbeat CPU 0 instructions: 184000000 cycles: 1692318087 heartbeat IPC: 0.107866 cumulative IPC: 0.108167 (Simulation time: 0 hr 28 min 2 sec) 
Heartbeat CPU 0 instructions: 185000000 cycles: 1701548252 heartbeat IPC: 0.10834 cumulative IPC: 0.108168 (Simulation time: 0 hr 28 min 13 sec) 
Heartbeat CPU 0 instructions: 186000002 cycles: 1710781219 heartbeat IPC: 0.108308 cumulative IPC: 0.108168 (Simulation time: 0 hr 28 min 21 sec) 
Heartbeat CPU 0 instructions: 187000000 cycles: 1720011734 heartbeat IPC: 0.108336 cumulative IPC: 0.108169 (Simulation time: 0 hr 28 min 29 sec) 
Heartbeat CPU 0 instructions: 188000000 cycles: 1727345059 heartbeat IPC: 0.136364 cumulative IPC: 0.108289 (Simulation time: 0 hr 28 min 36 sec) 
Heartbeat CPU 0 instructions: 189000000 cycles: 1736616759 heartbeat IPC: 0.107855 cumulative IPC: 0.108287 (Simulation time: 0 hr 28 min 44 sec) 
Heartbeat CPU 0 instructions: 190000002 cycles: 1745845987 heartbeat IPC: 0.108352 cumulative IPC: 0.108287 (Simulation time: 0 hr 28 min 51 sec) 
Heartbeat CPU 0 instructions: 191000000 cycles: 1755111558 heartbeat IPC: 0.107926 cumulative IPC: 0.108285 (Simulation time: 0 hr 28 min 59 sec) 
Heartbeat CPU 0 instructions: 192000001 cycles: 1764386602 heartbeat IPC: 0.107816 cumulative IPC: 0.108283 (Simulation time: 0 hr 29 min 7 sec) 
Heartbeat CPU 0 instructions: 193000001 cycles: 1773666890 heartbeat IPC: 0.107755 cumulative IPC: 0.10828 (Simulation time: 0 hr 29 min 14 sec) 
Heartbeat CPU 0 instructions: 194000003 cycles: 1782910186 heartbeat IPC: 0.108187 cumulative IPC: 0.10828 (Simulation time: 0 hr 29 min 22 sec) 
Heartbeat CPU 0 instructions: 195000001 cycles: 1792213542 heartbeat IPC: 0.107488 cumulative IPC: 0.108275 (Simulation time: 0 hr 29 min 30 sec) 
Heartbeat CPU 0 instructions: 196000000 cycles: 1801491684 heartbeat IPC: 0.10778 cumulative IPC: 0.108273 (Simulation time: 0 hr 29 min 38 sec) 
Heartbeat CPU 0 instructions: 197000000 cycles: 1810739552 heartbeat IPC: 0.108133 cumulative IPC: 0.108272 (Simulation time: 0 hr 29 min 46 sec) 
Heartbeat CPU 0 instructions: 198000000 cycles: 1820008574 heartbeat IPC: 0.107886 cumulative IPC: 0.10827 (Simulation time: 0 hr 29 min 54 sec) 
Heartbeat CPU 0 instructions: 199000000 cycles: 1829266192 heartbeat IPC: 0.108019 cumulative IPC: 0.108269 (Simulation time: 0 hr 30 min 2 sec) 
Heartbeat CPU 0 instructions: 200000000 cycles: 1838573321 heartbeat IPC: 0.107445 cumulative IPC: 0.108265 (Simulation time: 0 hr 30 min 10 sec) 
Heartbeat CPU 0 instructions: 201000000 cycles: 1847825662 heartbeat IPC: 0.108081 cumulative IPC: 0.108264 (Simulation time: 0 hr 30 min 20 sec) 
Heartbeat CPU 0 instructions: 202000000 cycles: 1857073493 heartbeat IPC: 0.108133 cumulative IPC: 0.108263 (Simulation time: 0 hr 30 min 35 sec) 
Heartbeat CPU 0 instructions: 203000000 cycles: 1866350992 heartbeat IPC: 0.107788 cumulative IPC: 0.108261 (Simulation time: 0 hr 30 min 43 sec) 
Heartbeat CPU 0 instructions: 204000003 cycles: 1875606419 heartbeat IPC: 0.108045 cumulative IPC: 0.10826 (Simulation time: 0 hr 30 min 51 sec) 
Heartbeat CPU 0 instructions: 205000000 cycles: 1884882072 heartbeat IPC: 0.107809 cumulative IPC: 0.108258 (Simulation time: 0 hr 30 min 58 sec) 
Heartbeat CPU 0 instructions: 206000000 cycles: 1894104467 heartbeat IPC: 0.108432 cumulative IPC: 0.108258 (Simulation time: 0 hr 31 min 6 sec) 
Heartbeat CPU 0 instructions: 207000000 cycles: 1903411680 heartbeat IPC: 0.107444 cumulative IPC: 0.108254 (Simulation time: 0 hr 31 min 19 sec) 
Heartbeat CPU 0 instructions: 208000000 cycles: 1912723011 heartbeat IPC: 0.107396 cumulative IPC: 0.10825 (Simulation time: 0 hr 31 min 34 sec) 
Heartbeat CPU 0 instructions: 209000000 cycles: 1921994672 heartbeat IPC: 0.107856 cumulative IPC: 0.108248 (Simulation time: 0 hr 31 min 48 sec) 
Heartbeat CPU 0 instructions: 210000003 cycles: 1931313398 heartbeat IPC: 0.107311 cumulative IPC: 0.108244 (Simulation time: 0 hr 32 min 2 sec) 
Heartbeat CPU 0 instructions: 211000001 cycles: 1940594718 heartbeat IPC: 0.107743 cumulative IPC: 0.108241 (Simulation time: 0 hr 32 min 11 sec) 
Heartbeat CPU 0 instructions: 212000000 cycles: 1949895418 heartbeat IPC: 0.107519 cumulative IPC: 0.108238 (Simulation time: 0 hr 32 min 24 sec) 
Heartbeat CPU 0 instructions: 213000003 cycles: 1959168598 heartbeat IPC: 0.107838 cumulative IPC: 0.108236 (Simulation time: 0 hr 32 min 35 sec) 
Heartbeat CPU 0 instructions: 214000001 cycles: 1968463404 heartbeat IPC: 0.107587 cumulative IPC: 0.108233 (Simulation time: 0 hr 32 min 42 sec) 
Heartbeat CPU 0 instructions: 215000001 cycles: 1977729272 heartbeat IPC: 0.107923 cumulative IPC: 0.108232 (Simulation time: 0 hr 32 min 50 sec) 
Heartbeat CPU 0 instructions: 216000000 cycles: 1987001061 heartbeat IPC: 0.107854 cumulative IPC: 0.10823 (Simulation time: 0 hr 32 min 58 sec) 
Heartbeat CPU 0 instructions: 217000001 cycles: 1996334675 heartbeat IPC: 0.10714 cumulative IPC: 0.108225 (Simulation time: 0 hr 33 min 5 sec) 
Heartbeat CPU 0 instructions: 218000002 cycles: 2005637254 heartbeat IPC: 0.107497 cumulative IPC: 0.108221 (Simulation time: 0 hr 33 min 13 sec) 
Heartbeat CPU 0 instructions: 219000001 cycles: 2014931637 heartbeat IPC: 0.107592 cumulative IPC: 0.108218 (Simulation time: 0 hr 33 min 21 sec) 
Heartbeat CPU 0 instructions: 220000000 cycles: 2024247412 heartbeat IPC: 0.107345 cumulative IPC: 0.108214 (Simulation time: 0 hr 33 min 29 sec) 
Heartbeat CPU 0 instructions: 221000000 cycles: 2033494222 heartbeat IPC: 0.108145 cumulative IPC: 0.108214 (Simulation time: 0 hr 33 min 37 sec) 
Heartbeat CPU 0 instructions: 222000000 cycles: 2042730451 heartbeat IPC: 0.108269 cumulative IPC: 0.108214 (Simulation time: 0 hr 33 min 44 sec) 
Heartbeat CPU 0 instructions: 223000000 cycles: 2051953357 heartbeat IPC: 0.108426 cumulative IPC: 0.108215 (Simulation time: 0 hr 33 min 52 sec) 
Heartbeat CPU 0 instructions: 224000000 cycles: 2061177342 heartbeat IPC: 0.108413 cumulative IPC: 0.108216 (Simulation time: 0 hr 33 min 59 sec) 
Heartbeat CPU 0 instructions: 225000000 cycles: 2069662992 heartbeat IPC: 0.117846 cumulative IPC: 0.108256 (Simulation time: 0 hr 34 min 7 sec) 
Heartbeat CPU 0 instructions: 226000000 cycles: 2078919028 heartbeat IPC: 0.108038 cumulative IPC: 0.108255 (Simulation time: 0 hr 34 min 14 sec) 
Heartbeat CPU 0 instructions: 227000003 cycles: 2088165149 heartbeat IPC: 0.108154 cumulative IPC: 0.108254 (Simulation time: 0 hr 34 min 22 sec) 
Heartbeat CPU 0 instructions: 228000000 cycles: 2097426688 heartbeat IPC: 0.107973 cumulative IPC: 0.108253 (Simulation time: 0 hr 34 min 30 sec) 
Heartbeat CPU 0 instructions: 229000001 cycles: 2106722243 heartbeat IPC: 0.107578 cumulative IPC: 0.10825 (Simulation time: 0 hr 34 min 37 sec) 
Heartbeat CPU 0 instructions: 230000001 cycles: 2115973826 heartbeat IPC: 0.10809 cumulative IPC: 0.108249 (Simulation time: 0 hr 34 min 45 sec) 
Heartbeat CPU 0 instructions: 231000000 cycles: 2125243022 heartbeat IPC: 0.107884 cumulative IPC: 0.108248 (Simulation time: 0 hr 34 min 53 sec) 
Heartbeat CPU 0 instructions: 232000000 cycles: 2134535656 heartbeat IPC: 0.107612 cumulative IPC: 0.108245 (Simulation time: 0 hr 35 min 1 sec) 
Heartbeat CPU 0 instructions: 233000003 cycles: 2143803061 heartbeat IPC: 0.107905 cumulative IPC: 0.108243 (Simulation time: 0 hr 35 min 14 sec) 
Heartbeat CPU 0 instructions: 234000001 cycles: 2153062112 heartbeat IPC: 0.108002 cumulative IPC: 0.108242 (Simulation time: 0 hr 35 min 24 sec) 
Heartbeat CPU 0 instructions: 235000001 cycles: 2162308071 heartbeat IPC: 0.108155 cumulative IPC: 0.108242 (Simulation time: 0 hr 35 min 37 sec) 
Heartbeat CPU 0 instructions: 236000001 cycles: 2171601217 heartbeat IPC: 0.107606 cumulative IPC: 0.108239 (Simulation time: 0 hr 35 min 47 sec) 
Heartbeat CPU 0 instructions: 237000002 cycles: 2180863990 heartbeat IPC: 0.107959 cumulative IPC: 0.108238 (Simulation time: 0 hr 35 min 54 sec) 
Heartbeat CPU 0 instructions: 238000001 cycles: 2190131662 heartbeat IPC: 0.107902 cumulative IPC: 0.108237 (Simulation time: 0 hr 36 min 2 sec) 
Heartbeat CPU 0 instructions: 239000000 cycles: 2199390356 heartbeat IPC: 0.108006 cumulative IPC: 0.108236 (Simulation time: 0 hr 36 min 10 sec) 
Heartbeat CPU 0 instructions: 240000001 cycles: 2208652422 heartbeat IPC: 0.107967 cumulative IPC: 0.108235 (Simulation time: 0 hr 36 min 18 sec) 
Heartbeat CPU 0 instructions: 241000000 cycles: 2217939603 heartbeat IPC: 0.107675 cumulative IPC: 0.108232 (Simulation time: 0 hr 36 min 25 sec) 
Heartbeat CPU 0 instructions: 242000000 cycles: 2227176447 heartbeat IPC: 0.108262 cumulative IPC: 0.108232 (Simulation time: 0 hr 36 min 33 sec) 
Heartbeat CPU 0 instructions: 243000002 cycles: 2236448617 heartbeat IPC: 0.10785 cumulative IPC: 0.108231 (Simulation time: 0 hr 36 min 41 sec) 
Heartbeat CPU 0 instructions: 244000003 cycles: 2245742573 heartbeat IPC: 0.107597 cumulative IPC: 0.108228 (Simulation time: 0 hr 36 min 48 sec) 
Heartbeat CPU 0 instructions: 245000000 cycles: 2255055058 heartbeat IPC: 0.107382 cumulative IPC: 0.108225 (Simulation time: 0 hr 36 min 56 sec) 
Heartbeat CPU 0 instructions: 246000001 cycles: 2264344909 heartbeat IPC: 0.107644 cumulative IPC: 0.108222 (Simulation time: 0 hr 37 min 4 sec) 
Heartbeat CPU 0 instructions: 247000001 cycles: 2273642075 heartbeat IPC: 0.10756 cumulative IPC: 0.10822 (Simulation time: 0 hr 37 min 12 sec) 
Heartbeat CPU 0 instructions: 248000001 cycles: 2282951081 heartbeat IPC: 0.107423 cumulative IPC: 0.108216 (Simulation time: 0 hr 37 min 19 sec) 
Heartbeat CPU 0 instructions: 249000001 cycles: 2292207629 heartbeat IPC: 0.108032 cumulative IPC: 0.108216 (Simulation time: 0 hr 37 min 27 sec) 
Heartbeat CPU 0 instructions: 250000000 cycles: 2301501479 heartbeat IPC: 0.107598 cumulative IPC: 0.108213 (Simulation time: 0 hr 37 min 35 sec) 
Heartbeat CPU 0 instructions: 251000002 cycles: 2310779113 heartbeat IPC: 0.107786 cumulative IPC: 0.108211 (Simulation time: 0 hr 37 min 42 sec) 
Heartbeat CPU 0 instructions: 252000003 cycles: 2320051052 heartbeat IPC: 0.107852 cumulative IPC: 0.10821 (Simulation time: 0 hr 37 min 50 sec) 
Heartbeat CPU 0 instructions: 253000000 cycles: 2329355183 heartbeat IPC: 0.107479 cumulative IPC: 0.108207 (Simulation time: 0 hr 37 min 58 sec) 
Heartbeat CPU 0 instructions: 254000000 cycles: 2338675368 heartbeat IPC: 0.107294 cumulative IPC: 0.108203 (Simulation time: 0 hr 38 min 6 sec) 
Heartbeat CPU 0 instructions: 255000002 cycles: 2347969447 heartbeat IPC: 0.107596 cumulative IPC: 0.108201 (Simulation time: 0 hr 38 min 13 sec) 
Heartbeat CPU 0 instructions: 256000000 cycles: 2357289044 heartbeat IPC: 0.107301 cumulative IPC: 0.108197 (Simulation time: 0 hr 38 min 21 sec) 
Heartbeat CPU 0 instructions: 257000000 cycles: 2366563312 heartbeat IPC: 0.107825 cumulative IPC: 0.108196 (Simulation time: 0 hr 38 min 29 sec) 
Heartbeat CPU 0 instructions: 258000002 cycles: 2375786888 heartbeat IPC: 0.108418 cumulative IPC: 0.108197 (Simulation time: 0 hr 38 min 36 sec) 
Heartbeat CPU 0 instructions: 259000003 cycles: 2385017027 heartbeat IPC: 0.108341 cumulative IPC: 0.108197 (Simulation time: 0 hr 38 min 44 sec) 
Heartbeat CPU 0 instructions: 260000000 cycles: 2394254986 heartbeat IPC: 0.108249 cumulative IPC: 0.108198 (Simulation time: 0 hr 38 min 52 sec) 
Heartbeat CPU 0 instructions: 261000002 cycles: 2402719210 heartbeat IPC: 0.118145 cumulative IPC: 0.108233 (Simulation time: 0 hr 38 min 59 sec) 
Heartbeat CPU 0 instructions: 262000000 cycles: 2411972608 heartbeat IPC: 0.108068 cumulative IPC: 0.108232 (Simulation time: 0 hr 39 min 7 sec) 
Heartbeat CPU 0 instructions: 263000000 cycles: 2421216099 heartbeat IPC: 0.108184 cumulative IPC: 0.108232 (Simulation time: 0 hr 39 min 15 sec) 
Heartbeat CPU 0 instructions: 264000000 cycles: 2430471475 heartbeat IPC: 0.108045 cumulative IPC: 0.108231 (Simulation time: 0 hr 39 min 22 sec) 
Heartbeat CPU 0 instructions: 265000000 cycles: 2439748171 heartbeat IPC: 0.107797 cumulative IPC: 0.108229 (Simulation time: 0 hr 39 min 30 sec) 
Heartbeat CPU 0 instructions: 266000003 cycles: 2449023616 heartbeat IPC: 0.107812 cumulative IPC: 0.108228 (Simulation time: 0 hr 39 min 42 sec) 
Heartbeat CPU 0 instructions: 267000003 cycles: 2458267313 heartbeat IPC: 0.108182 cumulative IPC: 0.108228 (Simulation time: 0 hr 39 min 55 sec) 
Heartbeat CPU 0 instructions: 268000002 cycles: 2467570264 heartbeat IPC: 0.107493 cumulative IPC: 0.108225 (Simulation time: 0 hr 40 min 3 sec) 
Heartbeat CPU 0 instructions: 269000002 cycles: 2476845998 heartbeat IPC: 0.107808 cumulative IPC: 0.108223 (Simulation time: 0 hr 40 min 11 sec) 
Heartbeat CPU 0 instructions: 270000000 cycles: 2486107967 heartbeat IPC: 0.107968 cumulative IPC: 0.108222 (Simulation time: 0 hr 40 min 19 sec) 
Heartbeat CPU 0 instructions: 271000001 cycles: 2495353668 heartbeat IPC: 0.108158 cumulative IPC: 0.108222 (Simulation time: 0 hr 40 min 27 sec) 
Heartbeat CPU 0 instructions: 272000003 cycles: 2504625726 heartbeat IPC: 0.107851 cumulative IPC: 0.108221 (Simulation time: 0 hr 40 min 35 sec) 
Heartbeat CPU 0 instructions: 273000001 cycles: 2513931688 heartbeat IPC: 0.107458 cumulative IPC: 0.108218 (Simulation time: 0 hr 40 min 42 sec) 
Heartbeat CPU 0 instructions: 274000002 cycles: 2523176373 heartbeat IPC: 0.10817 cumulative IPC: 0.108218 (Simulation time: 0 hr 40 min 50 sec) 
Heartbeat CPU 0 instructions: 275000000 cycles: 2532421715 heartbeat IPC: 0.108162 cumulative IPC: 0.108218 (Simulation time: 0 hr 40 min 58 sec) 
Heartbeat CPU 0 instructions: 276000001 cycles: 2541716803 heartbeat IPC: 0.107584 cumulative IPC: 0.108215 (Simulation time: 0 hr 41 min 5 sec) 
Heartbeat CPU 0 instructions: 277000000 cycles: 2550978778 heartbeat IPC: 0.107968 cumulative IPC: 0.108214 (Simulation time: 0 hr 41 min 13 sec) 
Heartbeat CPU 0 instructions: 278000000 cycles: 2560245092 heartbeat IPC: 0.107918 cumulative IPC: 0.108213 (Simulation time: 0 hr 41 min 21 sec) 
Heartbeat CPU 0 instructions: 279000003 cycles: 2569474730 heartbeat IPC: 0.108347 cumulative IPC: 0.108214 (Simulation time: 0 hr 41 min 29 sec) 
Heartbeat CPU 0 instructions: 280000003 cycles: 2578777397 heartbeat IPC: 0.107496 cumulative IPC: 0.108211 (Simulation time: 0 hr 41 min 36 sec) 
Heartbeat CPU 0 instructions: 281000001 cycles: 2588089062 heartbeat IPC: 0.107392 cumulative IPC: 0.108208 (Simulation time: 0 hr 41 min 44 sec) 
Heartbeat CPU 0 instructions: 282000000 cycles: 2597362469 heartbeat IPC: 0.107835 cumulative IPC: 0.108207 (Simulation time: 0 hr 41 min 54 sec) 
Heartbeat CPU 0 instructions: 283000000 cycles: 2606680767 heartbeat IPC: 0.107316 cumulative IPC: 0.108204 (Simulation time: 0 hr 42 min 9 sec) 
Heartbeat CPU 0 instructions: 284000003 cycles: 2615967305 heartbeat IPC: 0.107683 cumulative IPC: 0.108202 (Simulation time: 0 hr 42 min 23 sec) 
Heartbeat CPU 0 instructions: 285000000 cycles: 2625266043 heartbeat IPC: 0.107541 cumulative IPC: 0.1082 (Simulation time: 0 hr 42 min 33 sec) 
Heartbeat CPU 0 instructions: 286000000 cycles: 2634542460 heartbeat IPC: 0.1078 cumulative IPC: 0.108198 (Simulation time: 0 hr 42 min 41 sec) 
Heartbeat CPU 0 instructions: 287000001 cycles: 2643840277 heartbeat IPC: 0.107552 cumulative IPC: 0.108196 (Simulation time: 0 hr 42 min 49 sec) 
Heartbeat CPU 0 instructions: 288000000 cycles: 2653103504 heartbeat IPC: 0.107954 cumulative IPC: 0.108195 (Simulation time: 0 hr 42 min 57 sec) 
Heartbeat CPU 0 instructions: 289000000 cycles: 2662380190 heartbeat IPC: 0.107797 cumulative IPC: 0.108194 (Simulation time: 0 hr 43 min 5 sec) 
Heartbeat CPU 0 instructions: 290000003 cycles: 2671710328 heartbeat IPC: 0.10718 cumulative IPC: 0.10819 (Simulation time: 0 hr 43 min 12 sec) 
Heartbeat CPU 0 instructions: 291000000 cycles: 2680991001 heartbeat IPC: 0.10775 cumulative IPC: 0.108189 (Simulation time: 0 hr 43 min 20 sec) 
Heartbeat CPU 0 instructions: 292000003 cycles: 2690317908 heartbeat IPC: 0.107217 cumulative IPC: 0.108185 (Simulation time: 0 hr 43 min 28 sec) 
Heartbeat CPU 0 instructions: 293000001 cycles: 2699615993 heartbeat IPC: 0.107549 cumulative IPC: 0.108183 (Simulation time: 0 hr 43 min 36 sec) 
Heartbeat CPU 0 instructions: 294000002 cycles: 2708855598 heartbeat IPC: 0.10823 cumulative IPC: 0.108183 (Simulation time: 0 hr 43 min 44 sec) 
Heartbeat CPU 0 instructions: 295000003 cycles: 2718097028 heartbeat IPC: 0.108208 cumulative IPC: 0.108183 (Simulation time: 0 hr 43 min 51 sec) 
Heartbeat CPU 0 instructions: 296000001 cycles: 2727301503 heartbeat IPC: 0.108643 cumulative IPC: 0.108185 (Simulation time: 0 hr 43 min 59 sec) 
Heartbeat CPU 0 instructions: 297000000 cycles: 2736523821 heartbeat IPC: 0.108433 cumulative IPC: 0.108186 (Simulation time: 0 hr 44 min 7 sec) 
Heartbeat CPU 0 instructions: 298000002 cycles: 2745066846 heartbeat IPC: 0.117055 cumulative IPC: 0.108213 (Simulation time: 0 hr 44 min 14 sec) 
Heartbeat CPU 0 instructions: 299000003 cycles: 2754333077 heartbeat IPC: 0.107919 cumulative IPC: 0.108212 (Simulation time: 0 hr 44 min 21 sec) 
Heartbeat CPU 0 instructions: 300000000 cycles: 2763575582 heartbeat IPC: 0.108195 cumulative IPC: 0.108212 (Simulation time: 0 hr 44 min 29 sec) 
Heartbeat CPU 0 instructions: 301000000 cycles: 2772831864 heartbeat IPC: 0.108035 cumulative IPC: 0.108212 (Simulation time: 0 hr 44 min 37 sec) 
Heartbeat CPU 0 instructions: 302000001 cycles: 2782130053 heartbeat IPC: 0.107548 cumulative IPC: 0.108209 (Simulation time: 0 hr 44 min 45 sec) 
Heartbeat CPU 0 instructions: 303000000 cycles: 2791384958 heartbeat IPC: 0.108051 cumulative IPC: 0.108209 (Simulation time: 0 hr 44 min 52 sec) 
Heartbeat CPU 0 instructions: 304000003 cycles: 2800660089 heartbeat IPC: 0.107816 cumulative IPC: 0.108208 (Simulation time: 0 hr 45 min 0 sec) 
Heartbeat CPU 0 instructions: 305000000 cycles: 2809956927 heartbeat IPC: 0.107563 cumulative IPC: 0.108205 (Simulation time: 0 hr 45 min 8 sec) 
Heartbeat CPU 0 instructions: 306000000 cycles: 2819207915 heartbeat IPC: 0.108097 cumulative IPC: 0.108205 (Simulation time: 0 hr 45 min 15 sec) 
Heartbeat CPU 0 instructions: 307000000 cycles: 2828484834 heartbeat IPC: 0.107794 cumulative IPC: 0.108204 (Simulation time: 0 hr 45 min 23 sec) 
Heartbeat CPU 0 instructions: 308000000 cycles: 2837728081 heartbeat IPC: 0.108187 cumulative IPC: 0.108204 (Simulation time: 0 hr 45 min 31 sec) 
Heartbeat CPU 0 instructions: 309000001 cycles: 2847033501 heartbeat IPC: 0.107464 cumulative IPC: 0.108201 (Simulation time: 0 hr 45 min 39 sec) 
Heartbeat CPU 0 instructions: 310000000 cycles: 2856293811 heartbeat IPC: 0.107988 cumulative IPC: 0.108201 (Simulation time: 0 hr 45 min 47 sec) 
Heartbeat CPU 0 instructions: 311000000 cycles: 2865548328 heartbeat IPC: 0.108055 cumulative IPC: 0.1082 (Simulation time: 0 hr 45 min 56 sec) 
Heartbeat CPU 0 instructions: 312000000 cycles: 2874808082 heartbeat IPC: 0.107994 cumulative IPC: 0.108199 (Simulation time: 0 hr 46 min 8 sec) 
Heartbeat CPU 0 instructions: 313000003 cycles: 2884078587 heartbeat IPC: 0.107869 cumulative IPC: 0.108198 (Simulation time: 0 hr 46 min 16 sec) 
Heartbeat CPU 0 instructions: 314000002 cycles: 2893367509 heartbeat IPC: 0.107655 cumulative IPC: 0.108197 (Simulation time: 0 hr 46 min 24 sec) 
Heartbeat CPU 0 instructions: 315000000 cycles: 2902594180 heartbeat IPC: 0.108381 cumulative IPC: 0.108197 (Simulation time: 0 hr 46 min 39 sec) 
Heartbeat CPU 0 instructions: 316000002 cycles: 2911881805 heartbeat IPC: 0.10767 cumulative IPC: 0.108196 (Simulation time: 0 hr 46 min 54 sec) 
Heartbeat CPU 0 instructions: 317000000 cycles: 2921189133 heartbeat IPC: 0.107442 cumulative IPC: 0.108193 (Simulation time: 0 hr 47 min 9 sec) 
Heartbeat CPU 0 instructions: 318000000 cycles: 2930482087 heartbeat IPC: 0.107608 cumulative IPC: 0.108191 (Simulation time: 0 hr 47 min 24 sec) 
Heartbeat CPU 0 instructions: 319000000 cycles: 2939767405 heartbeat IPC: 0.107697 cumulative IPC: 0.10819 (Simulation time: 0 hr 47 min 38 sec) 
Heartbeat CPU 0 instructions: 320000003 cycles: 2949072714 heartbeat IPC: 0.107466 cumulative IPC: 0.108187 (Simulation time: 0 hr 47 min 51 sec) 
Heartbeat CPU 0 instructions: 321000000 cycles: 2958372533 heartbeat IPC: 0.107529 cumulative IPC: 0.108185 (Simulation time: 0 hr 47 min 58 sec) 
Heartbeat CPU 0 instructions: 322000002 cycles: 2967631870 heartbeat IPC: 0.107999 cumulative IPC: 0.108185 (Simulation time: 0 hr 48 min 6 sec) 
Heartbeat CPU 0 instructions: 323000002 cycles: 2976929514 heartbeat IPC: 0.107554 cumulative IPC: 0.108183 (Simulation time: 0 hr 48 min 14 sec) 
Heartbeat CPU 0 instructions: 324000001 cycles: 2986199206 heartbeat IPC: 0.107878 cumulative IPC: 0.108182 (Simulation time: 0 hr 48 min 22 sec) 
Heartbeat CPU 0 instructions: 325000000 cycles: 2995461088 heartbeat IPC: 0.107969 cumulative IPC: 0.108181 (Simulation time: 0 hr 48 min 29 sec) 
Heartbeat CPU 0 instructions: 326000000 cycles: 3004771829 heartbeat IPC: 0.107403 cumulative IPC: 0.108179 (Simulation time: 0 hr 48 min 43 sec) 
Heartbeat CPU 0 instructions: 327000000 cycles: 3014096624 heartbeat IPC: 0.107241 cumulative IPC: 0.108176 (Simulation time: 0 hr 48 min 54 sec) 
Heartbeat CPU 0 instructions: 328000000 cycles: 3023379459 heartbeat IPC: 0.107726 cumulative IPC: 0.108175 (Simulation time: 0 hr 49 min 2 sec) 
Heartbeat CPU 0 instructions: 329000000 cycles: 3032709552 heartbeat IPC: 0.10718 cumulative IPC: 0.108171 (Simulation time: 0 hr 49 min 10 sec) 
Heartbeat CPU 0 instructions: 330000000 cycles: 3041973949 heartbeat IPC: 0.10794 cumulative IPC: 0.108171 (Simulation time: 0 hr 49 min 18 sec) 
Heartbeat CPU 0 instructions: 331000001 cycles: 3051194134 heartbeat IPC: 0.108458 cumulative IPC: 0.108172 (Simulation time: 0 hr 49 min 25 sec) 
Heartbeat CPU 0 instructions: 332000002 cycles: 3060422685 heartbeat IPC: 0.108359 cumulative IPC: 0.108172 (Simulation time: 0 hr 49 min 33 sec) 
Heartbeat CPU 0 instructions: 333000001 cycles: 3069656236 heartbeat IPC: 0.108301 cumulative IPC: 0.108173 (Simulation time: 0 hr 49 min 41 sec) 
Heartbeat CPU 0 instructions: 334000000 cycles: 3078127390 heartbeat IPC: 0.118048 cumulative IPC: 0.1082 (Simulation time: 0 hr 49 min 49 sec) 
Heartbeat CPU 0 instructions: 335000002 cycles: 3087384841 heartbeat IPC: 0.108021 cumulative IPC: 0.108199 (Simulation time: 0 hr 49 min 57 sec) 
Heartbeat CPU 0 instructions: 336000003 cycles: 3096619973 heartbeat IPC: 0.108282 cumulative IPC: 0.108199 (Simulation time: 0 hr 50 min 5 sec) 
Heartbeat CPU 0 instructions: 337000003 cycles: 3105882906 heartbeat IPC: 0.107957 cumulative IPC: 0.108199 (Simulation time: 0 hr 50 min 12 sec) 
Heartbeat CPU 0 instructions: 338000000 cycles: 3115163437 heartbeat IPC: 0.107752 cumulative IPC: 0.108197 (Simulation time: 0 hr 50 min 20 sec) 
Heartbeat CPU 0 instructions: 339000001 cycles: 3124425882 heartbeat IPC: 0.107963 cumulative IPC: 0.108197 (Simulation time: 0 hr 50 min 28 sec) 
Heartbeat CPU 0 instructions: 340000002 cycles: 3133681272 heartbeat IPC: 0.108045 cumulative IPC: 0.108196 (Simulation time: 0 hr 50 min 36 sec) 
Heartbeat CPU 0 instructions: 341000000 cycles: 3142980985 heartbeat IPC: 0.10753 cumulative IPC: 0.108194 (Simulation time: 0 hr 50 min 44 sec) 
Heartbeat CPU 0 instructions: 342000003 cycles: 3152272921 heartbeat IPC: 0.107621 cumulative IPC: 0.108193 (Simulation time: 0 hr 50 min 51 sec) 
Heartbeat CPU 0 instructions: 343000001 cycles: 3161519862 heartbeat IPC: 0.108144 cumulative IPC: 0.108192 (Simulation time: 0 hr 50 min 59 sec) 
Heartbeat CPU 0 instructions: 344000000 cycles: 3170767229 heartbeat IPC: 0.108139 cumulative IPC: 0.108192 (Simulation time: 0 hr 51 min 7 sec) 
Heartbeat CPU 0 instructions: 345000001 cycles: 3180045684 heartbeat IPC: 0.107777 cumulative IPC: 0.108191 (Simulation time: 0 hr 51 min 15 sec) 
Heartbeat CPU 0 instructions: 346000001 cycles: 3189337668 heartbeat IPC: 0.10762 cumulative IPC: 0.108189 (Simulation time: 0 hr 51 min 23 sec) 
Heartbeat CPU 0 instructions: 347000002 cycles: 3198588785 heartbeat IPC: 0.108095 cumulative IPC: 0.108189 (Simulation time: 0 hr 51 min 31 sec) 
Heartbeat CPU 0 instructions: 348000002 cycles: 3207822224 heartbeat IPC: 0.108302 cumulative IPC: 0.108189 (Simulation time: 0 hr 51 min 39 sec) 
Heartbeat CPU 0 instructions: 349000000 cycles: 3217116667 heartbeat IPC: 0.107591 cumulative IPC: 0.108188 (Simulation time: 0 hr 51 min 47 sec) 
Heartbeat CPU 0 instructions: 350000000 cycles: 3226393928 heartbeat IPC: 0.10779 cumulative IPC: 0.108187 (Simulation time: 0 hr 51 min 55 sec) 
Heartbeat CPU 0 instructions: 351000000 cycles: 3235636206 heartbeat IPC: 0.108198 cumulative IPC: 0.108187 (Simulation time: 0 hr 52 min 3 sec) 
Heartbeat CPU 0 instructions: 352000000 cycles: 3244886396 heartbeat IPC: 0.108106 cumulative IPC: 0.108186 (Simulation time: 0 hr 52 min 10 sec) 
Heartbeat CPU 0 instructions: 353000000 cycles: 3254174796 heartbeat IPC: 0.107661 cumulative IPC: 0.108185 (Simulation time: 0 hr 52 min 18 sec) 
Heartbeat CPU 0 instructions: 354000001 cycles: 3263495761 heartbeat IPC: 0.107285 cumulative IPC: 0.108182 (Simulation time: 0 hr 52 min 26 sec) 
Heartbeat CPU 0 instructions: 355000000 cycles: 3272786039 heartbeat IPC: 0.107639 cumulative IPC: 0.108181 (Simulation time: 0 hr 52 min 34 sec) 
Heartbeat CPU 0 instructions: 356000001 cycles: 3282097726 heartbeat IPC: 0.107392 cumulative IPC: 0.108179 (Simulation time: 0 hr 52 min 42 sec) 
Heartbeat CPU 0 instructions: 357000000 cycles: 3291390794 heartbeat IPC: 0.107607 cumulative IPC: 0.108177 (Simulation time: 0 hr 52 min 50 sec) 
Heartbeat CPU 0 instructions: 358000000 cycles: 3300668424 heartbeat IPC: 0.107786 cumulative IPC: 0.108176 (Simulation time: 0 hr 52 min 58 sec) 
Heartbeat CPU 0 instructions: 359000002 cycles: 3309951476 heartbeat IPC: 0.107723 cumulative IPC: 0.108175 (Simulation time: 0 hr 53 min 6 sec) 
Heartbeat CPU 0 instructions: 360000002 cycles: 3319245251 heartbeat IPC: 0.107599 cumulative IPC: 0.108173 (Simulation time: 0 hr 53 min 14 sec) 
Heartbeat CPU 0 instructions: 361000003 cycles: 3328506975 heartbeat IPC: 0.107971 cumulative IPC: 0.108172 (Simulation time: 0 hr 53 min 22 sec) 
Heartbeat CPU 0 instructions: 362000001 cycles: 3337794308 heartbeat IPC: 0.107673 cumulative IPC: 0.108171 (Simulation time: 0 hr 53 min 30 sec) 
Heartbeat CPU 0 instructions: 363000000 cycles: 3347113283 heartbeat IPC: 0.107308 cumulative IPC: 0.108169 (Simulation time: 0 hr 53 min 37 sec) 
Heartbeat CPU 0 instructions: 364000002 cycles: 3356389497 heartbeat IPC: 0.107803 cumulative IPC: 0.108168 (Simulation time: 0 hr 53 min 45 sec) 
Heartbeat CPU 0 instructions: 365000000 cycles: 3365727479 heartbeat IPC: 0.107089 cumulative IPC: 0.108165 (Simulation time: 0 hr 53 min 53 sec) 
Heartbeat CPU 0 instructions: 366000002 cycles: 3375014104 heartbeat IPC: 0.107682 cumulative IPC: 0.108163 (Simulation time: 0 hr 54 min 1 sec) 
Heartbeat CPU 0 instructions: 367000001 cycles: 3384240632 heartbeat IPC: 0.108383 cumulative IPC: 0.108164 (Simulation time: 0 hr 54 min 9 sec) 
Heartbeat CPU 0 instructions: 368000000 cycles: 3393495633 heartbeat IPC: 0.10805 cumulative IPC: 0.108164 (Simulation time: 0 hr 54 min 17 sec) 
Heartbeat CPU 0 instructions: 369000001 cycles: 3402703124 heartbeat IPC: 0.108607 cumulative IPC: 0.108165 (Simulation time: 0 hr 54 min 25 sec) 
Heartbeat CPU 0 instructions: 370000000 cycles: 3411176860 heartbeat IPC: 0.118012 cumulative IPC: 0.108189 (Simulation time: 0 hr 54 min 32 sec) 
Heartbeat CPU 0 instructions: 371000003 cycles: 3420434953 heartbeat IPC: 0.108014 cumulative IPC: 0.108189 (Simulation time: 0 hr 54 min 40 sec) 
Heartbeat CPU 0 instructions: 372000000 cycles: 3429681298 heartbeat IPC: 0.108151 cumulative IPC: 0.108189 (Simulation time: 0 hr 54 min 48 sec) 
Heartbeat CPU 0 instructions: 373000000 cycles: 3438938284 heartbeat IPC: 0.108027 cumulative IPC: 0.108188 (Simulation time: 0 hr 54 min 55 sec) 
Heartbeat CPU 0 instructions: 374000000 cycles: 3448196155 heartbeat IPC: 0.108016 cumulative IPC: 0.108188 (Simulation time: 0 hr 55 min 3 sec) 
Heartbeat CPU 0 instructions: 375000001 cycles: 3457492518 heartbeat IPC: 0.107569 cumulative IPC: 0.108186 (Simulation time: 0 hr 55 min 11 sec) 
Heartbeat CPU 0 instructions: 376000000 cycles: 3466731440 heartbeat IPC: 0.108238 cumulative IPC: 0.108186 (Simulation time: 0 hr 55 min 18 sec) 
Heartbeat CPU 0 instructions: 377000000 cycles: 3476020789 heartbeat IPC: 0.10765 cumulative IPC: 0.108185 (Simulation time: 0 hr 55 min 26 sec) 
Heartbeat CPU 0 instructions: 378000001 cycles: 3485309575 heartbeat IPC: 0.107657 cumulative IPC: 0.108183 (Simulation time: 0 hr 55 min 34 sec) 
Heartbeat CPU 0 instructions: 379000000 cycles: 3494556384 heartbeat IPC: 0.108145 cumulative IPC: 0.108183 (Simulation time: 0 hr 55 min 42 sec) 
Heartbeat CPU 0 instructions: 380000002 cycles: 3503823709 heartbeat IPC: 0.107906 cumulative IPC: 0.108183 (Simulation time: 0 hr 55 min 50 sec) 
Heartbeat CPU 0 instructions: 381000002 cycles: 3513077189 heartbeat IPC: 0.108067 cumulative IPC: 0.108182 (Simulation time: 0 hr 55 min 57 sec) 
Heartbeat CPU 0 instructions: 382000003 cycles: 3522391921 heartbeat IPC: 0.107357 cumulative IPC: 0.10818 (Simulation time: 0 hr 56 min 5 sec) 
Heartbeat CPU 0 instructions: 383000001 cycles: 3531644352 heartbeat IPC: 0.108079 cumulative IPC: 0.10818 (Simulation time: 0 hr 56 min 13 sec) 
Heartbeat CPU 0 instructions: 384000000 cycles: 3540891640 heartbeat IPC: 0.10814 cumulative IPC: 0.10818 (Simulation time: 0 hr 56 min 20 sec) 
Heartbeat CPU 0 instructions: 385000000 cycles: 3550166955 heartbeat IPC: 0.107813 cumulative IPC: 0.108179 (Simulation time: 0 hr 56 min 28 sec) 
Heartbeat CPU 0 instructions: 386000000 cycles: 3559431387 heartbeat IPC: 0.10794 cumulative IPC: 0.108178 (Simulation time: 0 hr 56 min 36 sec) 
Heartbeat CPU 0 instructions: 387000002 cycles: 3568718191 heartbeat IPC: 0.10768 cumulative IPC: 0.108177 (Simulation time: 0 hr 56 min 44 sec) 
Heartbeat CPU 0 instructions: 388000000 cycles: 3577924459 heartbeat IPC: 0.108621 cumulative IPC: 0.108178 (Simulation time: 0 hr 56 min 51 sec) 
Heartbeat CPU 0 instructions: 389000000 cycles: 3587234134 heartbeat IPC: 0.107415 cumulative IPC: 0.108176 (Simulation time: 0 hr 56 min 59 sec) 
Heartbeat CPU 0 instructions: 390000002 cycles: 3596535627 heartbeat IPC: 0.10751 cumulative IPC: 0.108174 (Simulation time: 0 hr 57 min 7 sec) 
Heartbeat CPU 0 instructions: 391000001 cycles: 3605828023 heartbeat IPC: 0.107615 cumulative IPC: 0.108173 (Simulation time: 0 hr 57 min 15 sec) 
Heartbeat CPU 0 instructions: 392000000 cycles: 3615119052 heartbeat IPC: 0.107631 cumulative IPC: 0.108171 (Simulation time: 0 hr 57 min 22 sec) 
Heartbeat CPU 0 instructions: 393000000 cycles: 3624416115 heartbeat IPC: 0.107561 cumulative IPC: 0.10817 (Simulation time: 0 hr 57 min 30 sec) 
Heartbeat CPU 0 instructions: 394000001 cycles: 3633706785 heartbeat IPC: 0.107635 cumulative IPC: 0.108169 (Simulation time: 0 hr 57 min 38 sec) 
Heartbeat CPU 0 instructions: 395000002 cycles: 3642976309 heartbeat IPC: 0.107881 cumulative IPC: 0.108168 (Simulation time: 0 hr 57 min 45 sec) 
Heartbeat CPU 0 instructions: 396000000 cycles: 3652282910 heartbeat IPC: 0.10745 cumulative IPC: 0.108166 (Simulation time: 0 hr 57 min 53 sec) 
Heartbeat CPU 0 instructions: 397000002 cycles: 3661553088 heartbeat IPC: 0.107873 cumulative IPC: 0.108165 (Simulation time: 0 hr 58 min 1 sec) 
Heartbeat CPU 0 instructions: 398000003 cycles: 3670825004 heartbeat IPC: 0.107853 cumulative IPC: 0.108164 (Simulation time: 0 hr 58 min 9 sec) 
Heartbeat CPU 0 instructions: 399000000 cycles: 3680141907 heartbeat IPC: 0.107331 cumulative IPC: 0.108162 (Simulation time: 0 hr 58 min 17 sec) 
Heartbeat CPU 0 instructions: 400000003 cycles: 3689456712 heartbeat IPC: 0.107356 cumulative IPC: 0.10816 (Simulation time: 0 hr 58 min 24 sec) 
Heartbeat CPU 0 instructions: 401000000 cycles: 3698750957 heartbeat IPC: 0.107593 cumulative IPC: 0.108159 (Simulation time: 0 hr 58 min 32 sec) 
Heartbeat CPU 0 instructions: 402000003 cycles: 3708081084 heartbeat IPC: 0.10718 cumulative IPC: 0.108156 (Simulation time: 0 hr 58 min 40 sec) 
Heartbeat CPU 0 instructions: 403000003 cycles: 3717332136 heartbeat IPC: 0.108096 cumulative IPC: 0.108156 (Simulation time: 0 hr 58 min 47 sec) 
Heartbeat CPU 0 instructions: 404000003 cycles: 3726572264 heartbeat IPC: 0.108224 cumulative IPC: 0.108156 (Simulation time: 0 hr 58 min 55 sec) 
Heartbeat CPU 0 instructions: 405000000 cycles: 3735795627 heartbeat IPC: 0.10842 cumulative IPC: 0.108157 (Simulation time: 0 hr 59 min 3 sec) 
Heartbeat CPU 0 instructions: 406000001 cycles: 3745019598 heartbeat IPC: 0.108413 cumulative IPC: 0.108158 (Simulation time: 0 hr 59 min 10 sec) 
Heartbeat CPU 0 instructions: 407000000 cycles: 3753480643 heartbeat IPC: 0.118189 cumulative IPC: 0.10818 (Simulation time: 0 hr 59 min 18 sec) 
Heartbeat CPU 0 instructions: 408000000 cycles: 3762741305 heartbeat IPC: 0.107984 cumulative IPC: 0.10818 (Simulation time: 0 hr 59 min 25 sec) 
Heartbeat CPU 0 instructions: 409000001 cycles: 3771985617 heartbeat IPC: 0.108175 cumulative IPC: 0.10818 (Simulation time: 0 hr 59 min 33 sec) 
Heartbeat CPU 0 instructions: 410000002 cycles: 3781246343 heartbeat IPC: 0.107983 cumulative IPC: 0.108179 (Simulation time: 0 hr 59 min 41 sec) 
Heartbeat CPU 0 instructions: 411000000 cycles: 3790524074 heartbeat IPC: 0.107785 cumulative IPC: 0.108178 (Simulation time: 0 hr 59 min 48 sec) 
Heartbeat CPU 0 instructions: 412000000 cycles: 3799795834 heartbeat IPC: 0.107854 cumulative IPC: 0.108178 (Simulation time: 0 hr 59 min 56 sec) 
Heartbeat CPU 0 instructions: 413000002 cycles: 3809045878 heartbeat IPC: 0.108108 cumulative IPC: 0.108177 (Simulation time: 1 hr 0 min 4 sec) 
Heartbeat CPU 0 instructions: 414000000 cycles: 3818342381 heartbeat IPC: 0.107567 cumulative IPC: 0.108176 (Simulation time: 1 hr 0 min 11 sec) 
Heartbeat CPU 0 instructions: 415000003 cycles: 3827624761 heartbeat IPC: 0.107731 cumulative IPC: 0.108175 (Simulation time: 1 hr 0 min 19 sec) 
Heartbeat CPU 0 instructions: 416000003 cycles: 3836866954 heartbeat IPC: 0.108199 cumulative IPC: 0.108175 (Simulation time: 1 hr 0 min 27 sec) 
Heartbeat CPU 0 instructions: 417000003 cycles: 3846126942 heartbeat IPC: 0.107992 cumulative IPC: 0.108174 (Simulation time: 1 hr 0 min 34 sec) 
Heartbeat CPU 0 instructions: 418000000 cycles: 3855404892 heartbeat IPC: 0.107782 cumulative IPC: 0.108173 (Simulation time: 1 hr 0 min 42 sec) 
Heartbeat CPU 0 instructions: 419000001 cycles: 3864688627 heartbeat IPC: 0.107715 cumulative IPC: 0.108172 (Simulation time: 1 hr 0 min 50 sec) 
Heartbeat CPU 0 instructions: 420000002 cycles: 3873951852 heartbeat IPC: 0.107954 cumulative IPC: 0.108172 (Simulation time: 1 hr 0 min 58 sec) 
Heartbeat CPU 0 instructions: 421000002 cycles: 3883193125 heartbeat IPC: 0.10821 cumulative IPC: 0.108172 (Simulation time: 1 hr 1 min 5 sec) 
Heartbeat CPU 0 instructions: 422000003 cycles: 3892470066 heartbeat IPC: 0.107794 cumulative IPC: 0.108171 (Simulation time: 1 hr 1 min 13 sec) 
Heartbeat CPU 0 instructions: 423000000 cycles: 3901752906 heartbeat IPC: 0.107725 cumulative IPC: 0.10817 (Simulation time: 1 hr 1 min 20 sec) 
Heartbeat CPU 0 instructions: 424000000 cycles: 3911001448 heartbeat IPC: 0.108125 cumulative IPC: 0.10817 (Simulation time: 1 hr 1 min 28 sec) 
Heartbeat CPU 0 instructions: 425000002 cycles: 3920245317 heartbeat IPC: 0.10818 cumulative IPC: 0.10817 (Simulation time: 1 hr 1 min 35 sec) 
Heartbeat CPU 0 instructions: 426000001 cycles: 3929544688 heartbeat IPC: 0.107534 cumulative IPC: 0.108168 (Simulation time: 1 hr 1 min 42 sec) 
Heartbeat CPU 0 instructions: 427000000 cycles: 3938859478 heartbeat IPC: 0.107356 cumulative IPC: 0.108166 (Simulation time: 1 hr 1 min 50 sec) 
Heartbeat CPU 0 instructions: 428000000 cycles: 3948141631 heartbeat IPC: 0.107734 cumulative IPC: 0.108165 (Simulation time: 1 hr 1 min 57 sec) 
Heartbeat CPU 0 instructions: 429000000 cycles: 3957457541 heartbeat IPC: 0.107343 cumulative IPC: 0.108164 (Simulation time: 1 hr 2 min 5 sec) 
Heartbeat CPU 0 instructions: 430000001 cycles: 3966744702 heartbeat IPC: 0.107676 cumulative IPC: 0.108162 (Simulation time: 1 hr 2 min 12 sec) 
Heartbeat CPU 0 instructions: 431000003 cycles: 3976027023 heartbeat IPC: 0.107732 cumulative IPC: 0.108161 (Simulation time: 1 hr 2 min 20 sec) 
Heartbeat CPU 0 instructions: 432000001 cycles: 3985309479 heartbeat IPC: 0.10773 cumulative IPC: 0.10816 (Simulation time: 1 hr 2 min 27 sec) 
Heartbeat CPU 0 instructions: 433000001 cycles: 3994603342 heartbeat IPC: 0.107598 cumulative IPC: 0.108159 (Simulation time: 1 hr 2 min 35 sec) 
Heartbeat CPU 0 instructions: 434000000 cycles: 4003861914 heartbeat IPC: 0.108008 cumulative IPC: 0.108159 (Simulation time: 1 hr 2 min 42 sec) 
Heartbeat CPU 0 instructions: 435000002 cycles: 4013154934 heartbeat IPC: 0.107608 cumulative IPC: 0.108157 (Simulation time: 1 hr 2 min 49 sec) 
Heartbeat CPU 0 instructions: 436000001 cycles: 4022475040 heartbeat IPC: 0.107295 cumulative IPC: 0.108155 (Simulation time: 1 hr 2 min 57 sec) 
Heartbeat CPU 0 instructions: 437000000 cycles: 4031766893 heartbeat IPC: 0.107621 cumulative IPC: 0.108154 (Simulation time: 1 hr 3 min 4 sec) 
Heartbeat CPU 0 instructions: 438000003 cycles: 4041097624 heartbeat IPC: 0.107173 cumulative IPC: 0.108152 (Simulation time: 1 hr 3 min 12 sec) 
Heartbeat CPU 0 instructions: 439000002 cycles: 4050376374 heartbeat IPC: 0.107773 cumulative IPC: 0.108151 (Simulation time: 1 hr 3 min 19 sec) 
Heartbeat CPU 0 instructions: 440000000 cycles: 4059599735 heartbeat IPC: 0.10842 cumulative IPC: 0.108152 (Simulation time: 1 hr 3 min 27 sec) 
Heartbeat CPU 0 instructions: 441000000 cycles: 4068846557 heartbeat IPC: 0.108145 cumulative IPC: 0.108152 (Simulation time: 1 hr 3 min 34 sec) 
Heartbeat CPU 0 instructions: 442000000 cycles: 4078058863 heartbeat IPC: 0.10855 cumulative IPC: 0.108153 (Simulation time: 1 hr 3 min 41 sec) 
Heartbeat CPU 0 instructions: 443000000 cycles: 4085652945 heartbeat IPC: 0.131681 cumulative IPC: 0.108196 (Simulation time: 1 hr 3 min 48 sec) 
Heartbeat CPU 0 instructions: 444000003 cycles: 4090679465 heartbeat IPC: 0.198945 cumulative IPC: 0.108308 (Simulation time: 1 hr 3 min 52 sec) 
Heartbeat CPU 0 instructions: 445000000 cycles: 4100240864 heartbeat IPC: 0.104587 cumulative IPC: 0.108299 (Simulation time: 1 hr 3 min 59 sec) 
Heartbeat CPU 0 instructions: 446000000 cycles: 4109484612 heartbeat IPC: 0.108181 cumulative IPC: 0.108299 (Simulation time: 1 hr 4 min 6 sec) 
Heartbeat CPU 0 instructions: 447000001 cycles: 4118727611 heartbeat IPC: 0.10819 cumulative IPC: 0.108299 (Simulation time: 1 hr 4 min 14 sec) 
Heartbeat CPU 0 instructions: 448000003 cycles: 4127990279 heartbeat IPC: 0.10796 cumulative IPC: 0.108298 (Simulation time: 1 hr 4 min 21 sec) 
Heartbeat CPU 0 instructions: 449000000 cycles: 4137289817 heartbeat IPC: 0.107532 cumulative IPC: 0.108296 (Simulation time: 1 hr 4 min 28 sec) 
Heartbeat CPU 0 instructions: 450000000 cycles: 4146559422 heartbeat IPC: 0.107879 cumulative IPC: 0.108295 (Simulation time: 1 hr 4 min 35 sec) 

Warmup complete CPU 0 instructions: 450000004 cycles: 4146559423 (Simulation time: 1 hr 4 min 35 sec) 

Heartbeat CPU 0 instructions: 451000000 cycles: 4152112274 heartbeat IPC: 0.180088 cumulative IPC: 0.180087 (Simulation time: 1 hr 4 min 40 sec) 
Heartbeat CPU 0 instructions: 452000003 cycles: 4157566767 heartbeat IPC: 0.183336 cumulative IPC: 0.181697 (Simulation time: 1 hr 4 min 45 sec) 
Heartbeat CPU 0 instructions: 453000000 cycles: 4163046535 heartbeat IPC: 0.182489 cumulative IPC: 0.18196 (Simulation time: 1 hr 4 min 51 sec) 
Heartbeat CPU 0 instructions: 454000000 cycles: 4168469654 heartbeat IPC: 0.184396 cumulative IPC: 0.182563 (Simulation time: 1 hr 4 min 56 sec) 
Heartbeat CPU 0 instructions: 455000000 cycles: 4173936759 heartbeat IPC: 0.182912 cumulative IPC: 0.182633 (Simulation time: 1 hr 5 min 1 sec) 
Heartbeat CPU 0 instructions: 456000003 cycles: 4179272247 heartbeat IPC: 0.187425 cumulative IPC: 0.183414 (Simulation time: 1 hr 5 min 6 sec) 
Heartbeat CPU 0 instructions: 457000003 cycles: 4184683829 heartbeat IPC: 0.184789 cumulative IPC: 0.183609 (Simulation time: 1 hr 5 min 11 sec) 
Heartbeat CPU 0 instructions: 458000000 cycles: 4190160496 heartbeat IPC: 0.182592 cumulative IPC: 0.183482 (Simulation time: 1 hr 5 min 17 sec) 
Heartbeat CPU 0 instructions: 459000002 cycles: 4195534673 heartbeat IPC: 0.186075 cumulative IPC: 0.183766 (Simulation time: 1 hr 5 min 22 sec) 
Heartbeat CPU 0 instructions: 460000000 cycles: 4200997936 heartbeat IPC: 0.18304 cumulative IPC: 0.183693 (Simulation time: 1 hr 5 min 27 sec) 
Heartbeat CPU 0 instructions: 461000000 cycles: 4206446596 heartbeat IPC: 0.183531 cumulative IPC: 0.183679 (Simulation time: 1 hr 5 min 32 sec) 
Heartbeat CPU 0 instructions: 462000000 cycles: 4212009362 heartbeat IPC: 0.179767 cumulative IPC: 0.183346 (Simulation time: 1 hr 5 min 37 sec) 
Heartbeat CPU 0 instructions: 463000001 cycles: 4217600590 heartbeat IPC: 0.178852 cumulative IPC: 0.182992 (Simulation time: 1 hr 5 min 43 sec) 
Heartbeat CPU 0 instructions: 464000000 cycles: 4223092890 heartbeat IPC: 0.182073 cumulative IPC: 0.182926 (Simulation time: 1 hr 5 min 48 sec) 
Heartbeat CPU 0 instructions: 465000001 cycles: 4228651038 heartbeat IPC: 0.179916 cumulative IPC: 0.182723 (Simulation time: 1 hr 5 min 53 sec) 
Heartbeat CPU 0 instructions: 466000000 cycles: 4234256937 heartbeat IPC: 0.178383 cumulative IPC: 0.182445 (Simulation time: 1 hr 5 min 58 sec) 
Heartbeat CPU 0 instructions: 467000001 cycles: 4239883997 heartbeat IPC: 0.177713 cumulative IPC: 0.18216 (Simulation time: 1 hr 6 min 4 sec) 
Heartbeat CPU 0 instructions: 468000000 cycles: 4245478473 heartbeat IPC: 0.178748 cumulative IPC: 0.181967 (Simulation time: 1 hr 6 min 9 sec) 
Heartbeat CPU 0 instructions: 469000001 cycles: 4251084368 heartbeat IPC: 0.178384 cumulative IPC: 0.181775 (Simulation time: 1 hr 6 min 15 sec) 
Heartbeat CPU 0 instructions: 470000000 cycles: 4256696463 heartbeat IPC: 0.178186 cumulative IPC: 0.181592 (Simulation time: 1 hr 6 min 20 sec) 
Heartbeat CPU 0 instructions: 471000001 cycles: 4262264083 heartbeat IPC: 0.17961 cumulative IPC: 0.181497 (Simulation time: 1 hr 6 min 25 sec) 
Heartbeat CPU 0 instructions: 472000002 cycles: 4267855678 heartbeat IPC: 0.17884 cumulative IPC: 0.181374 (Simulation time: 1 hr 6 min 31 sec) 
Heartbeat CPU 0 instructions: 473000000 cycles: 4273462644 heartbeat IPC: 0.178349 cumulative IPC: 0.18124 (Simulation time: 1 hr 6 min 36 sec) 
Heartbeat CPU 0 instructions: 474000001 cycles: 4279042137 heartbeat IPC: 0.179228 cumulative IPC: 0.181156 (Simulation time: 1 hr 6 min 41 sec) 
Heartbeat CPU 0 instructions: 475000000 cycles: 4284688457 heartbeat IPC: 0.177106 cumulative IPC: 0.18099 (Simulation time: 1 hr 6 min 46 sec) 
Heartbeat CPU 0 instructions: 476000002 cycles: 4290346045 heartbeat IPC: 0.176754 cumulative IPC: 0.180823 (Simulation time: 1 hr 6 min 52 sec) 
Heartbeat CPU 0 instructions: 477000000 cycles: 4295979249 heartbeat IPC: 0.177519 cumulative IPC: 0.180699 (Simulation time: 1 hr 6 min 57 sec) 
Heartbeat CPU 0 instructions: 478000000 cycles: 4301611409 heartbeat IPC: 0.177552 cumulative IPC: 0.180585 (Simulation time: 1 hr 7 min 2 sec) 
Heartbeat CPU 0 instructions: 479000003 cycles: 4307088524 heartbeat IPC: 0.182578 cumulative IPC: 0.180653 (Simulation time: 1 hr 7 min 8 sec) 
Heartbeat CPU 0 instructions: 480000000 cycles: 4312561675 heartbeat IPC: 0.18271 cumulative IPC: 0.18072 (Simulation time: 1 hr 7 min 13 sec) 
Heartbeat CPU 0 instructions: 481000002 cycles: 4318073455 heartbeat IPC: 0.18143 cumulative IPC: 0.180743 (Simulation time: 1 hr 7 min 18 sec) 
Heartbeat CPU 0 instructions: 482000002 cycles: 4323470730 heartbeat IPC: 0.185279 cumulative IPC: 0.180882 (Simulation time: 1 hr 7 min 23 sec) 
Heartbeat CPU 0 instructions: 483000001 cycles: 4328821170 heartbeat IPC: 0.1869 cumulative IPC: 0.181058 (Simulation time: 1 hr 7 min 28 sec) 
Heartbeat CPU 0 instructions: 484000000 cycles: 4333232344 heartbeat IPC: 0.226697 cumulative IPC: 0.182137 (Simulation time: 1 hr 7 min 33 sec) 
Heartbeat CPU 0 instructions: 485000000 cycles: 4338851447 heartbeat IPC: 0.177964 cumulative IPC: 0.182015 (Simulation time: 1 hr 7 min 38 sec) 
Heartbeat CPU 0 instructions: 486000000 cycles: 4344453347 heartbeat IPC: 0.178511 cumulative IPC: 0.181916 (Simulation time: 1 hr 7 min 44 sec) 
Heartbeat CPU 0 instructions: 487000000 cycles: 4350077897 heartbeat IPC: 0.177792 cumulative IPC: 0.181802 (Simulation time: 1 hr 7 min 49 sec) 
Heartbeat CPU 0 instructions: 488000000 cycles: 4355693546 heartbeat IPC: 0.178074 cumulative IPC: 0.181702 (Simulation time: 1 hr 7 min 54 sec) 
Heartbeat CPU 0 instructions: 489000002 cycles: 4361298867 heartbeat IPC: 0.178402 cumulative IPC: 0.181615 (Simulation time: 1 hr 7 min 59 sec) 
Heartbeat CPU 0 instructions: 490000000 cycles: 4366883386 heartbeat IPC: 0.179066 cumulative IPC: 0.181551 (Simulation time: 1 hr 8 min 5 sec) 
Heartbeat CPU 0 instructions: 491000002 cycles: 4372497970 heartbeat IPC: 0.178108 cumulative IPC: 0.181465 (Simulation time: 1 hr 8 min 10 sec) 
Heartbeat CPU 0 instructions: 492000000 cycles: 4378069250 heartbeat IPC: 0.179492 cumulative IPC: 0.181418 (Simulation time: 1 hr 8 min 15 sec) 
Heartbeat CPU 0 instructions: 493000001 cycles: 4383658176 heartbeat IPC: 0.178925 cumulative IPC: 0.181359 (Simulation time: 1 hr 8 min 21 sec) 
Heartbeat CPU 0 instructions: 494000000 cycles: 4389238062 heartbeat IPC: 0.179215 cumulative IPC: 0.18131 (Simulation time: 1 hr 8 min 26 sec) 
Heartbeat CPU 0 instructions: 495000000 cycles: 4394845026 heartbeat IPC: 0.17835 cumulative IPC: 0.181243 (Simulation time: 1 hr 8 min 31 sec) 
Heartbeat CPU 0 instructions: 496000001 cycles: 4400445917 heartbeat IPC: 0.178543 cumulative IPC: 0.181183 (Simulation time: 1 hr 8 min 36 sec) 
Heartbeat CPU 0 instructions: 497000001 cycles: 4406020289 heartbeat IPC: 0.179392 cumulative IPC: 0.181145 (Simulation time: 1 hr 8 min 42 sec) 
Heartbeat CPU 0 instructions: 498000000 cycles: 4411602524 heartbeat IPC: 0.17914 cumulative IPC: 0.181103 (Simulation time: 1 hr 8 min 47 sec) 
Heartbeat CPU 0 instructions: 499000003 cycles: 4417221982 heartbeat IPC: 0.177954 cumulative IPC: 0.181037 (Simulation time: 1 hr 8 min 52 sec) 
Heartbeat CPU 0 instructions: 500000000 cycles: 4422818381 heartbeat IPC: 0.178686 cumulative IPC: 0.18099 (Simulation time: 1 hr 8 min 57 sec) 
Heartbeat CPU 0 instructions: 501000002 cycles: 4428399927 heartbeat IPC: 0.179162 cumulative IPC: 0.180953 (Simulation time: 1 hr 9 min 3 sec) 
Heartbeat CPU 0 instructions: 502000000 cycles: 4433974378 heartbeat IPC: 0.17939 cumulative IPC: 0.180923 (Simulation time: 1 hr 9 min 8 sec) 
Heartbeat CPU 0 instructions: 503000000 cycles: 4439592267 heartbeat IPC: 0.178003 cumulative IPC: 0.180867 (Simulation time: 1 hr 9 min 13 sec) 
Heartbeat CPU 0 instructions: 504000001 cycles: 4445217921 heartbeat IPC: 0.177757 cumulative IPC: 0.180808 (Simulation time: 1 hr 9 min 19 sec) 
Heartbeat CPU 0 instructions: 505000001 cycles: 4450810349 heartbeat IPC: 0.178813 cumulative IPC: 0.180772 (Simulation time: 1 hr 9 min 24 sec) 
Heartbeat CPU 0 instructions: 506000000 cycles: 4456414011 heartbeat IPC: 0.178455 cumulative IPC: 0.18073 (Simulation time: 1 hr 9 min 29 sec) 
Heartbeat CPU 0 instructions: 507000000 cycles: 4462019544 heartbeat IPC: 0.178395 cumulative IPC: 0.180688 (Simulation time: 1 hr 9 min 34 sec) 
Heartbeat CPU 0 instructions: 508000002 cycles: 4467602726 heartbeat IPC: 0.17911 cumulative IPC: 0.180661 (Simulation time: 1 hr 9 min 40 sec) 
Heartbeat CPU 0 instructions: 509000002 cycles: 4473191304 heartbeat IPC: 0.178936 cumulative IPC: 0.180631 (Simulation time: 1 hr 9 min 45 sec) 
Heartbeat CPU 0 instructions: 510000001 cycles: 4478802053 heartbeat IPC: 0.178229 cumulative IPC: 0.180591 (Simulation time: 1 hr 9 min 50 sec) 
Heartbeat CPU 0 instructions: 511000000 cycles: 4484388253 heartbeat IPC: 0.179012 cumulative IPC: 0.180565 (Simulation time: 1 hr 9 min 56 sec) 
Heartbeat CPU 0 instructions: 512000000 cycles: 4489989653 heartbeat IPC: 0.178527 cumulative IPC: 0.180532 (Simulation time: 1 hr 10 min 1 sec) 
Heartbeat CPU 0 instructions: 513000000 cycles: 4495654991 heartbeat IPC: 0.176512 cumulative IPC: 0.180466 (Simulation time: 1 hr 10 min 6 sec) 
Heartbeat CPU 0 instructions: 514000003 cycles: 4501279389 heartbeat IPC: 0.177797 cumulative IPC: 0.180424 (Simulation time: 1 hr 10 min 11 sec) 
Heartbeat CPU 0 instructions: 515000003 cycles: 4506940211 heartbeat IPC: 0.176653 cumulative IPC: 0.180365 (Simulation time: 1 hr 10 min 17 sec) 
Heartbeat CPU 0 instructions: 516000001 cycles: 4512558919 heartbeat IPC: 0.177977 cumulative IPC: 0.180328 (Simulation time: 1 hr 10 min 22 sec) 
Heartbeat CPU 0 instructions: 517000000 cycles: 4518141211 heartbeat IPC: 0.179138 cumulative IPC: 0.18031 (Simulation time: 1 hr 10 min 27 sec) 
Heartbeat CPU 0 instructions: 518000000 cycles: 4523731218 heartbeat IPC: 0.178891 cumulative IPC: 0.180289 (Simulation time: 1 hr 10 min 33 sec) 
Heartbeat CPU 0 instructions: 519000001 cycles: 4529318964 heartbeat IPC: 0.178963 cumulative IPC: 0.18027 (Simulation time: 1 hr 10 min 38 sec) 
Heartbeat CPU 0 instructions: 520000001 cycles: 4534485637 heartbeat IPC: 0.193548 cumulative IPC: 0.180447 (Simulation time: 1 hr 10 min 43 sec) 
Heartbeat CPU 0 instructions: 521000001 cycles: 4539355078 heartbeat IPC: 0.205362 cumulative IPC: 0.180756 (Simulation time: 1 hr 10 min 48 sec) 
Heartbeat CPU 0 instructions: 522000001 cycles: 4544956018 heartbeat IPC: 0.178541 cumulative IPC: 0.180724 (Simulation time: 1 hr 10 min 53 sec) 
Heartbeat CPU 0 instructions: 523000000 cycles: 4550569712 heartbeat IPC: 0.178136 cumulative IPC: 0.180688 (Simulation time: 1 hr 10 min 59 sec) 
Heartbeat CPU 0 instructions: 524000002 cycles: 4556167218 heartbeat IPC: 0.178651 cumulative IPC: 0.180661 (Simulation time: 1 hr 11 min 4 sec) 
Heartbeat CPU 0 instructions: 525000000 cycles: 4561803834 heartbeat IPC: 0.177411 cumulative IPC: 0.180617 (Simulation time: 1 hr 11 min 9 sec) 
Heartbeat CPU 0 instructions: 526000000 cycles: 4567374116 heartbeat IPC: 0.179524 cumulative IPC: 0.180602 (Simulation time: 1 hr 11 min 14 sec) 
Heartbeat CPU 0 instructions: 527000002 cycles: 4572977660 heartbeat IPC: 0.178459 cumulative IPC: 0.180574 (Simulation time: 1 hr 11 min 20 sec) 
Heartbeat CPU 0 instructions: 528000000 cycles: 4578589497 heartbeat IPC: 0.178194 cumulative IPC: 0.180543 (Simulation time: 1 hr 11 min 25 sec) 
Heartbeat CPU 0 instructions: 529000001 cycles: 4584153438 heartbeat IPC: 0.179729 cumulative IPC: 0.180533 (Simulation time: 1 hr 11 min 30 sec) 
Heartbeat CPU 0 instructions: 530000001 cycles: 4589726167 heartbeat IPC: 0.179445 cumulative IPC: 0.180519 (Simulation time: 1 hr 11 min 35 sec) 
Heartbeat CPU 0 instructions: 531000001 cycles: 4595311756 heartbeat IPC: 0.179032 cumulative IPC: 0.1805 (Simulation time: 1 hr 11 min 41 sec) 
Heartbeat CPU 0 instructions: 532000001 cycles: 4600926168 heartbeat IPC: 0.178113 cumulative IPC: 0.180471 (Simulation time: 1 hr 11 min 46 sec) 
Heartbeat CPU 0 instructions: 533000000 cycles: 4606504897 heartbeat IPC: 0.179252 cumulative IPC: 0.180456 (Simulation time: 1 hr 11 min 51 sec) 
Heartbeat CPU 0 instructions: 534000000 cycles: 4612080518 heartbeat IPC: 0.179352 cumulative IPC: 0.180443 (Simulation time: 1 hr 11 min 57 sec) 
Heartbeat CPU 0 instructions: 535000000 cycles: 4617681202 heartbeat IPC: 0.17855 cumulative IPC: 0.18042 (Simulation time: 1 hr 12 min 2 sec) 
Heartbeat CPU 0 instructions: 536000000 cycles: 4623275152 heartbeat IPC: 0.178765 cumulative IPC: 0.180401 (Simulation time: 1 hr 12 min 7 sec) 
Heartbeat CPU 0 instructions: 537000002 cycles: 4628882990 heartbeat IPC: 0.178322 cumulative IPC: 0.180377 (Simulation time: 1 hr 12 min 12 sec) 
Heartbeat CPU 0 instructions: 538000001 cycles: 4634450580 heartbeat IPC: 0.179611 cumulative IPC: 0.180368 (Simulation time: 1 hr 12 min 18 sec) 
Heartbeat CPU 0 instructions: 539000000 cycles: 4640062114 heartbeat IPC: 0.178204 cumulative IPC: 0.180343 (Simulation time: 1 hr 12 min 23 sec) 
Heartbeat CPU 0 instructions: 540000001 cycles: 4645675202 heartbeat IPC: 0.178155 cumulative IPC: 0.180319 (Simulation time: 1 hr 12 min 28 sec) 
Heartbeat CPU 0 instructions: 541000000 cycles: 4651295005 heartbeat IPC: 0.177942 cumulative IPC: 0.180292 (Simulation time: 1 hr 12 min 34 sec) 
Heartbeat CPU 0 instructions: 542000002 cycles: 4656894556 heartbeat IPC: 0.178586 cumulative IPC: 0.180274 (Simulation time: 1 hr 12 min 39 sec) 
Heartbeat CPU 0 instructions: 543000001 cycles: 4662503006 heartbeat IPC: 0.178302 cumulative IPC: 0.180252 (Simulation time: 1 hr 12 min 44 sec) 
Heartbeat CPU 0 instructions: 544000001 cycles: 4668117960 heartbeat IPC: 0.178096 cumulative IPC: 0.180229 (Simulation time: 1 hr 12 min 50 sec) 
[...]
Heartbeat CPU 0 instructions: 835000000 cycles: 6270002879 heartbeat IPC: 0.179061 cumulative IPC: 0.181309 (Simulation time: 1 hr 38 min 18 sec) 
Heartbeat CPU 0 instructions: 836000000 cycles: 6275578100 heartbeat IPC: 0.179365 cumulative IPC: 0.181304 (Simulation time: 1 hr 38 min 24 sec) 
Heartbeat CPU 0 instructions: 837000000 cycles: 6281196396 heartbeat IPC: 0.17799 cumulative IPC: 0.181295 (Simulation time: 1 hr 38 min 29 sec) 
Heartbeat CPU 0 instructions: 838000001 cycles: 6286786294 heartbeat IPC: 0.178894 cumulative IPC: 0.181289 (Simulation time: 1 hr 38 min 35 sec) 
Heartbeat CPU 0 instructions: 839000001 cycles: 6292392473 heartbeat IPC: 0.178375 cumulative IPC: 0.181282 (Simulation time: 1 hr 38 min 40 sec) 
Heartbeat CPU 0 instructions: 840000000 cycles: 6297958393 heartbeat IPC: 0.179665 cumulative IPC: 0.181277 (Simulation time: 1 hr 38 min 45 sec) 
Heartbeat CPU 0 instructions: 841000001 cycles: 6303571648 heartbeat IPC: 0.17815 cumulative IPC: 0.181269 (Simulation time: 1 hr 38 min 51 sec) 
Heartbeat CPU 0 instructions: 842000001 cycles: 6309180742 heartbeat IPC: 0.178282 cumulative IPC: 0.181262 (Simulation time: 1 hr 38 min 56 sec) 
Heartbeat CPU 0 instructions: 843000003 cycles: 6314800314 heartbeat IPC: 0.17795 cumulative IPC: 0.181253 (Simulation time: 1 hr 39 min 1 sec) 
Heartbeat CPU 0 instructions: 844000000 cycles: 6320403288 heartbeat IPC: 0.178476 cumulative IPC: 0.181246 (Simulation time: 1 hr 39 min 7 sec) 
Heartbeat CPU 0 instructions: 845000001 cycles: 6326009292 heartbeat IPC: 0.17838 cumulative IPC: 0.181238 (Simulation time: 1 hr 39 min 12 sec) 
Heartbeat CPU 0 instructions: 846000000 cycles: 6331606457 heartbeat IPC: 0.178662 cumulative IPC: 0.181232 (Simulation time: 1 hr 39 min 17 sec) 
Heartbeat CPU 0 instructions: 847000000 cycles: 6337183567 heartbeat IPC: 0.179304 cumulative IPC: 0.181227 (Simulation time: 1 hr 39 min 23 sec) 
Heartbeat CPU 0 instructions: 848000001 cycles: 6342790839 heartbeat IPC: 0.17834 cumulative IPC: 0.18122 (Simulation time: 1 hr 39 min 28 sec) 
Heartbeat CPU 0 instructions: 849000003 cycles: 6348385855 heartbeat IPC: 0.178731 cumulative IPC: 0.181213 (Simulation time: 1 hr 39 min 33 sec) 
Heartbeat CPU 0 instructions: 850000000 cycles: 6353966042 heartbeat IPC: 0.179205 cumulative IPC: 0.181208 (Simulation time: 1 hr 39 min 38 sec) 
Heartbeat CPU 0 instructions: 851000000 cycles: 6359613293 heartbeat IPC: 0.177077 cumulative IPC: 0.181198 (Simulation time: 1 hr 39 min 44 sec) 
Heartbeat CPU 0 instructions: 852000003 cycles: 6365272723 heartbeat IPC: 0.176697 cumulative IPC: 0.181186 (Simulation time: 1 hr 39 min 49 sec) 
Heartbeat CPU 0 instructions: 853000000 cycles: 6370897827 heartbeat IPC: 0.177774 cumulative IPC: 0.181177 (Simulation time: 1 hr 39 min 55 sec) 
Heartbeat CPU 0 instructions: 854000001 cycles: 6376536283 heartbeat IPC: 0.177354 cumulative IPC: 0.181168 (Simulation time: 1 hr 40 min 0 sec) 
Heartbeat CPU 0 instructions: 855000001 cycles: 6382159193 heartbeat IPC: 0.177844 cumulative IPC: 0.181159 (Simulation time: 1 hr 40 min 5 sec) 
Heartbeat CPU 0 instructions: 856000000 cycles: 6387745954 heartbeat IPC: 0.178994 cumulative IPC: 0.181154 (Simulation time: 1 hr 40 min 11 sec) 
Heartbeat CPU 0 instructions: 857000003 cycles: 6393315090 heartbeat IPC: 0.179562 cumulative IPC: 0.18115 (Simulation time: 1 hr 40 min 16 sec) 
Heartbeat CPU 0 instructions: 858000000 cycles: 6398899556 heartbeat IPC: 0.179068 cumulative IPC: 0.181145 (Simulation time: 1 hr 40 min 21 sec) 
Heartbeat CPU 0 instructions: 859000001 cycles: 6403247371 heartbeat IPC: 0.230001 cumulative IPC: 0.181239 (Simulation time: 1 hr 40 min 26 sec) 
Heartbeat CPU 0 instructions: 860000001 cycles: 6408894521 heartbeat IPC: 0.17708 cumulative IPC: 0.181229 (Simulation time: 1 hr 40 min 31 sec) 
Heartbeat CPU 0 instructions: 861000001 cycles: 6414502074 heartbeat IPC: 0.178331 cumulative IPC: 0.181222 (Simulation time: 1 hr 40 min 36 sec) 
Heartbeat CPU 0 instructions: 862000002 cycles: 6420114315 heartbeat IPC: 0.178182 cumulative IPC: 0.181214 (Simulation time: 1 hr 40 min 42 sec) 
Heartbeat CPU 0 instructions: 863000001 cycles: 6425737561 heartbeat IPC: 0.177833 cumulative IPC: 0.181206 (Simulation time: 1 hr 40 min 47 sec) 
Heartbeat CPU 0 instructions: 864000003 cycles: 6431366746 heartbeat IPC: 0.177646 cumulative IPC: 0.181197 (Simulation time: 1 hr 40 min 52 sec) 
Heartbeat CPU 0 instructions: 865000000 cycles: 6436935467 heartbeat IPC: 0.179574 cumulative IPC: 0.181193 (Simulation time: 1 hr 40 min 58 sec) 
Heartbeat CPU 0 instructions: 866000000 cycles: 6442547350 heartbeat IPC: 0.178193 cumulative IPC: 0.181186 (Simulation time: 1 hr 41 min 3 sec) 
Heartbeat CPU 0 instructions: 867000000 cycles: 6448137879 heartbeat IPC: 0.178874 cumulative IPC: 0.18118 (Simulation time: 1 hr 41 min 8 sec) 
Heartbeat CPU 0 instructions: 868000002 cycles: 6453710802 heartbeat IPC: 0.179439 cumulative IPC: 0.181176 (Simulation time: 1 hr 41 min 14 sec) 
Heartbeat CPU 0 instructions: 869000000 cycles: 6459283933 heartbeat IPC: 0.179432 cumulative IPC: 0.181172 (Simulation time: 1 hr 41 min 19 sec) 
Heartbeat CPU 0 instructions: 870000002 cycles: 6464886691 heartbeat IPC: 0.178484 cumulative IPC: 0.181165 (Simulation time: 1 hr 41 min 24 sec) 
Heartbeat CPU 0 instructions: 871000000 cycles: 6470496414 heartbeat IPC: 0.178262 cumulative IPC: 0.181158 (Simulation time: 1 hr 41 min 29 sec) 
Heartbeat CPU 0 instructions: 872000001 cycles: 6476058459 heartbeat IPC: 0.17979 cumulative IPC: 0.181155 (Simulation time: 1 hr 41 min 35 sec) 
Heartbeat CPU 0 instructions: 873000001 cycles: 6481619479 heartbeat IPC: 0.179823 cumulative IPC: 0.181152 (Simulation time: 1 hr 41 min 40 sec) 
Heartbeat CPU 0 instructions: 874000000 cycles: 6487216963 heartbeat IPC: 0.178652 cumulative IPC: 0.181146 (Simulation time: 1 hr 41 min 45 sec) 
Heartbeat CPU 0 instructions: 875000000 cycles: 6492805691 heartbeat IPC: 0.178932 cumulative IPC: 0.18114 (Simulation time: 1 hr 41 min 51 sec) 
Heartbeat CPU 0 instructions: 876000000 cycles: 6498408448 heartbeat IPC: 0.178484 cumulative IPC: 0.181134 (Simulation time: 1 hr 41 min 56 sec) 
Heartbeat CPU 0 instructions: 877000001 cycles: 6503959347 heartbeat IPC: 0.180151 cumulative IPC: 0.181132 (Simulation time: 1 hr 42 min 1 sec) 
Heartbeat CPU 0 instructions: 878000003 cycles: 6509598437 heartbeat IPC: 0.177334 cumulative IPC: 0.181123 (Simulation time: 1 hr 42 min 7 sec) 
Heartbeat CPU 0 instructions: 879000001 cycles: 6515213083 heartbeat IPC: 0.178105 cumulative IPC: 0.181116 (Simulation time: 1 hr 42 min 12 sec) 
Heartbeat CPU 0 instructions: 880000000 cycles: 6520823782 heartbeat IPC: 0.178231 cumulative IPC: 0.181109 (Simulation time: 1 hr 42 min 17 sec) 
Heartbeat CPU 0 instructions: 881000000 cycles: 6526434894 heartbeat IPC: 0.178218 cumulative IPC: 0.181102 (Simulation time: 1 hr 42 min 23 sec) 
Heartbeat CPU 0 instructions: 882000002 cycles: 6532017945 heartbeat IPC: 0.179114 cumulative IPC: 0.181097 (Simulation time: 1 hr 42 min 28 sec) 
Heartbeat CPU 0 instructions: 883000000 cycles: 6537637012 heartbeat IPC: 0.177965 cumulative IPC: 0.18109 (Simulation time: 1 hr 42 min 33 sec) 
Heartbeat CPU 0 instructions: 884000001 cycles: 6543226281 heartbeat IPC: 0.178914 cumulative IPC: 0.181085 (Simulation time: 1 hr 42 min 39 sec) 
Heartbeat CPU 0 instructions: 885000000 cycles: 6548833940 heartbeat IPC: 0.178327 cumulative IPC: 0.181078 (Simulation time: 1 hr 42 min 44 sec) 
Heartbeat CPU 0 instructions: 886000002 cycles: 6554410659 heartbeat IPC: 0.179317 cumulative IPC: 0.181074 (Simulation time: 1 hr 42 min 49 sec) 
Heartbeat CPU 0 instructions: 887000000 cycles: 6560005532 heartbeat IPC: 0.178735 cumulative IPC: 0.181069 (Simulation time: 1 hr 42 min 54 sec) 
Heartbeat CPU 0 instructions: 888000000 cycles: 6565682661 heartbeat IPC: 0.176145 cumulative IPC: 0.181057 (Simulation time: 1 hr 43 min 0 sec) 
Heartbeat CPU 0 instructions: 889000003 cycles: 6571305841 heartbeat IPC: 0.177836 cumulative IPC: 0.18105 (Simulation time: 1 hr 43 min 5 sec) 
Heartbeat CPU 0 instructions: 890000003 cycles: 6576946916 heartbeat IPC: 0.177271 cumulative IPC: 0.181041 (Simulation time: 1 hr 43 min 11 sec) 
Heartbeat CPU 0 instructions: 891000000 cycles: 6582576741 heartbeat IPC: 0.177625 cumulative IPC: 0.181033 (Simulation time: 1 hr 43 min 16 sec) 
Heartbeat CPU 0 instructions: 892000000 cycles: 6588180640 heartbeat IPC: 0.178447 cumulative IPC: 0.181027 (Simulation time: 1 hr 43 min 21 sec) 
Heartbeat CPU 0 instructions: 893000000 cycles: 6593751317 heartbeat IPC: 0.179511 cumulative IPC: 0.181024 (Simulation time: 1 hr 43 min 27 sec) 
Heartbeat CPU 0 instructions: 894000000 cycles: 6599323495 heartbeat IPC: 0.179463 cumulative IPC: 0.18102 (Simulation time: 1 hr 43 min 32 sec) 
Heartbeat CPU 0 instructions: 895000000 cycles: 6604896368 heartbeat IPC: 0.179441 cumulative IPC: 0.181017 (Simulation time: 1 hr 43 min 37 sec) 
Heartbeat CPU 0 instructions: 896000000 cycles: 6610106139 heartbeat IPC: 0.191947 cumulative IPC: 0.18104 (Simulation time: 1 hr 43 min 42 sec) 
Heartbeat CPU 0 instructions: 897000000 cycles: 6615709872 heartbeat IPC: 0.178452 cumulative IPC: 0.181034 (Simulation time: 1 hr 43 min 48 sec) 
Heartbeat CPU 0 instructions: 898000000 cycles: 6621286296 heartbeat IPC: 0.179326 cumulative IPC: 0.18103 (Simulation time: 1 hr 43 min 53 sec) 
Heartbeat CPU 0 instructions: 899000002 cycles: 6626891449 heartbeat IPC: 0.178408 cumulative IPC: 0.181024 (Simulation time: 1 hr 43 min 58 sec) 
Heartbeat CPU 0 instructions: 900000000 cycles: 6632534249 heartbeat IPC: 0.177217 cumulative IPC: 0.181016 (Simulation time: 1 hr 44 min 3 sec) 
Heartbeat CPU 0 instructions: 901000000 cycles: 6638144843 heartbeat IPC: 0.178234 cumulative IPC: 0.181009 (Simulation time: 1 hr 44 min 9 sec) 
Heartbeat CPU 0 instructions: 902000000 cycles: 6643733267 heartbeat IPC: 0.178941 cumulative IPC: 0.181005 (Simulation time: 1 hr 44 min 14 sec) 
Heartbeat CPU 0 instructions: 903000000 cycles: 6649335355 heartbeat IPC: 0.178505 cumulative IPC: 0.180999 (Simulation time: 1 hr 44 min 19 sec) 
Heartbeat CPU 0 instructions: 904000000 cycles: 6654925467 heartbeat IPC: 0.178887 cumulative IPC: 0.180994 (Simulation time: 1 hr 44 min 25 sec) 
Heartbeat CPU 0 instructions: 905000001 cycles: 6660502389 heartbeat IPC: 0.179311 cumulative IPC: 0.180991 (Simulation time: 1 hr 44 min 30 sec) 
Heartbeat CPU 0 instructions: 906000000 cycles: 6666111239 heartbeat IPC: 0.178289 cumulative IPC: 0.180985 (Simulation time: 1 hr 44 min 35 sec) 
Heartbeat CPU 0 instructions: 907000002 cycles: 6671754891 heartbeat IPC: 0.177191 cumulative IPC: 0.180976 (Simulation time: 1 hr 44 min 41 sec) 
Heartbeat CPU 0 instructions: 908000000 cycles: 6677347716 heartbeat IPC: 0.1788 cumulative IPC: 0.180971 (Simulation time: 1 hr 44 min 46 sec) 
Heartbeat CPU 0 instructions: 909000003 cycles: 6682973760 heartbeat IPC: 0.177745 cumulative IPC: 0.180964 (Simulation time: 1 hr 44 min 51 sec) 
Heartbeat CPU 0 instructions: 910000003 cycles: 6688574332 heartbeat IPC: 0.178553 cumulative IPC: 0.180959 (Simulation time: 1 hr 44 min 57 sec) 
Heartbeat CPU 0 instructions: 911000000 cycles: 6694159460 heartbeat IPC: 0.179046 cumulative IPC: 0.180955 (Simulation time: 1 hr 45 min 2 sec) 
Heartbeat CPU 0 instructions: 912000000 cycles: 6699765228 heartbeat IPC: 0.178388 cumulative IPC: 0.180949 (Simulation time: 1 hr 45 min 7 sec) 
Heartbeat CPU 0 instructions: 913000000 cycles: 6705369267 heartbeat IPC: 0.178443 cumulative IPC: 0.180943 (Simulation time: 1 hr 45 min 13 sec) 
Heartbeat CPU 0 instructions: 914000001 cycles: 6710972318 heartbeat IPC: 0.178474 cumulative IPC: 0.180938 (Simulation time: 1 hr 45 min 18 sec) 
Heartbeat CPU 0 instructions: 915000001 cycles: 6716544508 heartbeat IPC: 0.179463 cumulative IPC: 0.180935 (Simulation time: 1 hr 45 min 23 sec) 
Heartbeat CPU 0 instructions: 916000001 cycles: 6722149914 heartbeat IPC: 0.178399 cumulative IPC: 0.180929 (Simulation time: 1 hr 45 min 29 sec) 
Heartbeat CPU 0 instructions: 917000002 cycles: 6727759564 heartbeat IPC: 0.178264 cumulative IPC: 0.180924 (Simulation time: 1 hr 45 min 34 sec) 
Heartbeat CPU 0 instructions: 918000000 cycles: 6733387170 heartbeat IPC: 0.177695 cumulative IPC: 0.180917 (Simulation time: 1 hr 45 min 39 sec) 
Heartbeat CPU 0 instructions: 919000001 cycles: 6738989345 heartbeat IPC: 0.178502 cumulative IPC: 0.180911 (Simulation time: 1 hr 45 min 45 sec) 
Heartbeat CPU 0 instructions: 920000000 cycles: 6744595394 heartbeat IPC: 0.178379 cumulative IPC: 0.180906 (Simulation time: 1 hr 45 min 50 sec) 
Heartbeat CPU 0 instructions: 921000002 cycles: 6750208384 heartbeat IPC: 0.178159 cumulative IPC: 0.1809 (Simulation time: 1 hr 45 min 55 sec) 
Heartbeat CPU 0 instructions: 922000000 cycles: 6755782669 heartbeat IPC: 0.179395 cumulative IPC: 0.180897 (Simulation time: 1 hr 46 min 1 sec) 
Heartbeat CPU 0 instructions: 923000001 cycles: 6761367664 heartbeat IPC: 0.179051 cumulative IPC: 0.180893 (Simulation time: 1 hr 46 min 6 sec) 
Heartbeat CPU 0 instructions: 924000000 cycles: 6766965029 heartbeat IPC: 0.178655 cumulative IPC: 0.180888 (Simulation time: 1 hr 46 min 11 sec) 
Heartbeat CPU 0 instructions: 925000001 cycles: 6772548375 heartbeat IPC: 0.179104 cumulative IPC: 0.180884 (Simulation time: 1 hr 46 min 16 sec) 
Heartbeat CPU 0 instructions: 926000000 cycles: 6778184520 heartbeat IPC: 0.177426 cumulative IPC: 0.180877 (Simulation time: 1 hr 46 min 22 sec) 
Heartbeat CPU 0 instructions: 927000002 cycles: 6783841636 heartbeat IPC: 0.176769 cumulative IPC: 0.180868 (Simulation time: 1 hr 46 min 27 sec) 
Heartbeat CPU 0 instructions: 928000001 cycles: 6789462870 heartbeat IPC: 0.177897 cumulative IPC: 0.180862 (Simulation time: 1 hr 46 min 33 sec) 
Heartbeat CPU 0 instructions: 929000002 cycles: 6795094921 heartbeat IPC: 0.177555 cumulative IPC: 0.180855 (Simulation time: 1 hr 46 min 38 sec) 
Heartbeat CPU 0 instructions: 930000001 cycles: 6800703026 heartbeat IPC: 0.178313 cumulative IPC: 0.180849 (Simulation time: 1 hr 46 min 43 sec) 
Heartbeat CPU 0 instructions: 931000002 cycles: 6806271325 heartbeat IPC: 0.179588 cumulative IPC: 0.180847 (Simulation time: 1 hr 46 min 48 sec) 
Heartbeat CPU 0 instructions: 932000001 cycles: 6811844298 heartbeat IPC: 0.179437 cumulative IPC: 0.180844 (Simulation time: 1 hr 46 min 54 sec) 
Heartbeat CPU 0 instructions: 933000003 cycles: 6817436293 heartbeat IPC: 0.178827 cumulative IPC: 0.180839 (Simulation time: 1 hr 46 min 59 sec) 
Heartbeat CPU 0 instructions: 934000003 cycles: 6823024169 heartbeat IPC: 0.178959 cumulative IPC: 0.180836 (Simulation time: 1 hr 47 min 4 sec) 
Heartbeat CPU 0 instructions: 935000000 cycles: 6826061245 heartbeat IPC: 0.329263 cumulative IPC: 0.181004 (Simulation time: 1 hr 47 min 8 sec) 
Heartbeat CPU 0 instructions: 936000000 cycles: 6827821780 heartbeat IPC: 0.568009 cumulative IPC: 0.181258 (Simulation time: 1 hr 47 min 10 sec) 
Heartbeat CPU 0 instructions: 937000001 cycles: 6832796623 heartbeat IPC: 0.201012 cumulative IPC: 0.181294 (Simulation time: 1 hr 47 min 16 sec) 
Heartbeat CPU 0 instructions: 938000002 cycles: 6838408143 heartbeat IPC: 0.178205 cumulative IPC: 0.181288 (Simulation time: 1 hr 47 min 21 sec) 
Heartbeat CPU 0 instructions: 939000001 cycles: 6844013281 heartbeat IPC: 0.178408 cumulative IPC: 0.181282 (Simulation time: 1 hr 47 min 26 sec) 
Heartbeat CPU 0 instructions: 940000001 cycles: 6849634213 heartbeat IPC: 0.177906 cumulative IPC: 0.181275 (Simulation time: 1 hr 47 min 32 sec) 
Heartbeat CPU 0 instructions: 941000000 cycles: 6855269159 heartbeat IPC: 0.177464 cumulative IPC: 0.181267 (Simulation time: 1 hr 47 min 37 sec) 
Heartbeat CPU 0 instructions: 942000000 cycles: 6860874025 heartbeat IPC: 0.178416 cumulative IPC: 0.181261 (Simulation time: 1 hr 47 min 42 sec) 
Heartbeat CPU 0 instructions: 943000000 cycles: 6866446430 heartbeat IPC: 0.179456 cumulative IPC: 0.181258 (Simulation time: 1 hr 47 min 48 sec) 
Heartbeat CPU 0 instructions: 944000003 cycles: 6872069468 heartbeat IPC: 0.17784 cumulative IPC: 0.18125 (Simulation time: 1 hr 47 min 53 sec) 
Heartbeat CPU 0 instructions: 945000000 cycles: 6877639518 heartbeat IPC: 0.179531 cumulative IPC: 0.181247 (Simulation time: 1 hr 47 min 59 sec) 
Heartbeat CPU 0 instructions: 946000000 cycles: 6883232498 heartbeat IPC: 0.178796 cumulative IPC: 0.181242 (Simulation time: 1 hr 48 min 7 sec) 
Heartbeat CPU 0 instructions: 947000001 cycles: 6888823240 heartbeat IPC: 0.178867 cumulative IPC: 0.181237 (Simulation time: 1 hr 48 min 12 sec) 
Heartbeat CPU 0 instructions: 948000002 cycles: 6894430811 heartbeat IPC: 0.178331 cumulative IPC: 0.181231 (Simulation time: 1 hr 48 min 18 sec) 
Heartbeat CPU 0 instructions: 949000000 cycles: 6900035719 heartbeat IPC: 0.178415 cumulative IPC: 0.181225 (Simulation time: 1 hr 48 min 23 sec) 
Heartbeat CPU 0 instructions: 950000000 cycles: 6905607206 heartbeat IPC: 0.179485 cumulative IPC: 0.181222 (Simulation time: 1 hr 48 min 28 sec) 
Finished CPU 0 instructions: 500000000 cycles: 2759047873 cumulative IPC: 0.181222 (Simulation time: 1 hr 48 min 28 sec) 

ChampSim completed all CPUs

Region of Interest Statistics

CPU 0 cumulative IPC: 0.181222 instructions: 500000000 cycles: 2759047873
L1D TOTAL     ACCESS:   77893511  HIT:   43391588  MISS:   34501923
L1D LOAD      ACCESS:   70516359  HIT:   36044345  MISS:   34472014
L1D RFO       ACCESS:    7377152  HIT:    7347243  MISS:      29909
L1D PREFETCH  ACCESS:          0  HIT:          0  MISS:          0
L1D WRITEBACK ACCESS:          0  HIT:          0  MISS:          0
L1D PREFETCH  REQUESTED:          0  ISSUED:          0  USEFUL:          0  USELESS:          0
L1D AVERAGE MISS LATENCY: 67.8596 cycles
L1I TOTAL     ACCESS:  116319632  HIT:  116319617  MISS:         15
L1I LOAD      ACCESS:  116319632  HIT:  116319617  MISS:         15
L1I RFO       ACCESS:          0  HIT:          0  MISS:          0
L1I PREFETCH  ACCESS:          0  HIT:          0  MISS:          0
L1I WRITEBACK ACCESS:          0  HIT:          0  MISS:          0
L1I PREFETCH  REQUESTED:          0  ISSUED:          0  USEFUL:          0  USELESS:          0
L1I AVERAGE MISS LATENCY: 204.067 cycles
L2C TOTAL     ACCESS:   34574175  HIT:     127730  MISS:   34446445
L2C LOAD      ACCESS:   34472022  HIT:      46388  MISS:   34425634
L2C RFO       ACCESS:      29909  HIT:       9253  MISS:      20656
L2C PREFETCH  ACCESS:          0  HIT:          0  MISS:          0
L2C WRITEBACK ACCESS:      72244  HIT:      72089  MISS:        155
L2C PREFETCH  REQUESTED:          0  ISSUED:          0  USEFUL:          0  USELESS:          0
L2C AVERAGE MISS LATENCY: 52.9325 cycles
LLC TOTAL     ACCESS:   43621953  HIT:    9215348  MISS:   34406605
LLC LOAD      ACCESS:   34425634  HIT:    9086331  MISS:   25339303
LLC RFO       ACCESS:      20656  HIT:       2775  MISS:      17881
LLC PREFETCH  ACCESS:    9111258  HIT:      61947  MISS:    9049311
LLC WRITEBACK ACCESS:      64405  HIT:      64295  MISS:        110
LLC PREFETCH  REQUESTED:   34425619  ISSUED:   34416880  USEFUL:    9031081  USELESS:      18209
LLC AVERAGE MISS LATENCY: 57.6082 cycles
Major fault: 0 Minor fault: 55995
performance stats:
mapping cache size: 2842516
divergence: 58435

DRAM Statistics
 CHANNEL 0
 RQ ROW_BUFFER_HIT:   31847243  ROW_BUFFER_MISS:    2559252
 DBUS_CONGESTED:     770425
 WQ ROW_BUFFER_HIT:      41940  ROW_BUFFER_MISS:      17866  FULL:          0

 AVG_CONGESTED_CYCLE: 8

CPU 0 Branch Prediction Accuracy: 99.6802% MPKI: 1.13185 Average ROB Occupancy at Mispredict: 249.073

Branch types
NOT_BRANCH: 323063470 64.6127%
BRANCH_DIRECT_JUMP: 1925294 0.385059%
BRANCH_INDIRECT: 0 0%
BRANCH_CONDITIONAL: 173147419 34.6295%
BRANCH_DIRECT_CALL: 931949 0.18639%
BRANCH_INDIRECT_CALL: 0 0%
BRANCH_RETURN: 931949 0.18639%
BRANCH_OTHER: 0 0%

