
*** ChampSim Multicore Out-of-Order Simulator ***

Warmup Instructions: 1000000
Prefetch Warmup Instructions: 450000000
Simulation Instructions: 500000000
Stat Printing Period: 1000000
Number of CPUs: 1
LLC sets: 2048
LLC ways: 16
Off-chip DRAM Size: 4096 MB Channels: 1 Width: 64-bit Data Rate: 3200 MT/s

CPU 0 runs /scratch/cluster/cmolder/ML-DPC/ChampSimTraces/spec17/605.mcf-s7.trace.xz
Read seed: 227
Heartbeat CPU 0 instructions: 1000001 cycles: 452955 heartbeat IPC: 2.20773 cumulative IPC: 2.20773 (Simulation time: 0 hr 0 min 5 sec) 

Warmup complete CPU 0 instructions: 1000001 cycles: 452955 (Simulation time: 0 hr 0 min 5 sec) 

Heartbeat CPU 0 instructions: 2000001 cycles: 6257927 heartbeat IPC: 0.172266 cumulative IPC: 0.172266 (Simulation time: 0 hr 0 min 15 sec) 
Heartbeat CPU 0 instructions: 3000000 cycles: 12054053 heartbeat IPC: 0.172529 cumulative IPC: 0.172397 (Simulation time: 0 hr 0 min 24 sec) 
Heartbeat CPU 0 instructions: 4000001 cycles: 21438193 heartbeat IPC: 0.106563 cumulative IPC: 0.142958 (Simulation time: 0 hr 0 min 36 sec) 
Heartbeat CPU 0 instructions: 5000000 cycles: 27647648 heartbeat IPC: 0.161045 cumulative IPC: 0.147087 (Simulation time: 0 hr 0 min 46 sec) 
Heartbeat CPU 0 instructions: 6000001 cycles: 33344402 heartbeat IPC: 0.175539 cumulative IPC: 0.152015 (Simulation time: 0 hr 0 min 55 sec) 
Heartbeat CPU 0 instructions: 7000001 cycles: 38941679 heartbeat IPC: 0.178658 cumulative IPC: 0.15589 (Simulation time: 0 hr 1 min 5 sec) 
Heartbeat CPU 0 instructions: 8000002 cycles: 44512384 heartbeat IPC: 0.179511 cumulative IPC: 0.158876 (Simulation time: 0 hr 1 min 14 sec) 
Heartbeat CPU 0 instructions: 9000001 cycles: 50174634 heartbeat IPC: 0.176608 cumulative IPC: 0.160896 (Simulation time: 0 hr 1 min 23 sec) 
Heartbeat CPU 0 instructions: 10000000 cycles: 55919347 heartbeat IPC: 0.174073 cumulative IPC: 0.16226 (Simulation time: 0 hr 1 min 33 sec) 
Heartbeat CPU 0 instructions: 11000000 cycles: 61505745 heartbeat IPC: 0.179006 cumulative IPC: 0.163793 (Simulation time: 0 hr 1 min 42 sec) 
Heartbeat CPU 0 instructions: 12000003 cycles: 67062226 heartbeat IPC: 0.179971 cumulative IPC: 0.165142 (Simulation time: 0 hr 1 min 51 sec) 
Heartbeat CPU 0 instructions: 13000000 cycles: 72797514 heartbeat IPC: 0.174359 cumulative IPC: 0.165873 (Simulation time: 0 hr 2 min 1 sec) 
Heartbeat CPU 0 instructions: 14000000 cycles: 78346781 heartbeat IPC: 0.180204 cumulative IPC: 0.166894 (Simulation time: 0 hr 2 min 10 sec) 
Heartbeat CPU 0 instructions: 15000000 cycles: 83895374 heartbeat IPC: 0.180226 cumulative IPC: 0.16778 (Simulation time: 0 hr 2 min 19 sec) 
Heartbeat CPU 0 instructions: 16000001 cycles: 89308283 heartbeat IPC: 0.184744 cumulative IPC: 0.168814 (Simulation time: 0 hr 2 min 28 sec) 
Heartbeat CPU 0 instructions: 17000001 cycles: 94967041 heartbeat IPC: 0.176717 cumulative IPC: 0.169287 (Simulation time: 0 hr 2 min 38 sec) 
Heartbeat CPU 0 instructions: 18000000 cycles: 100661062 heartbeat IPC: 0.175623 cumulative IPC: 0.169647 (Simulation time: 0 hr 2 min 47 sec) 
Heartbeat CPU 0 instructions: 19000003 cycles: 106367345 heartbeat IPC: 0.175246 cumulative IPC: 0.169949 (Simulation time: 0 hr 2 min 57 sec) 
Heartbeat CPU 0 instructions: 20000000 cycles: 112352255 heartbeat IPC: 0.167086 cumulative IPC: 0.169796 (Simulation time: 0 hr 3 min 7 sec) 
Heartbeat CPU 0 instructions: 21000000 cycles: 118545271 heartbeat IPC: 0.161472 cumulative IPC: 0.169359 (Simulation time: 0 hr 3 min 17 sec) 
Heartbeat CPU 0 instructions: 22000000 cycles: 126585745 heartbeat IPC: 0.124371 cumulative IPC: 0.166491 (Simulation time: 0 hr 3 min 29 sec) 
Heartbeat CPU 0 instructions: 23000002 cycles: 132776773 heartbeat IPC: 0.161524 cumulative IPC: 0.166259 (Simulation time: 0 hr 3 min 38 sec) 
Heartbeat CPU 0 instructions: 24000002 cycles: 138776611 heartbeat IPC: 0.166671 cumulative IPC: 0.166277 (Simulation time: 0 hr 3 min 48 sec) 
Heartbeat CPU 0 instructions: 25000000 cycles: 144691898 heartbeat IPC: 0.169053 cumulative IPC: 0.166391 (Simulation time: 0 hr 3 min 57 sec) 
Heartbeat CPU 0 instructions: 26000003 cycles: 150810270 heartbeat IPC: 0.163443 cumulative IPC: 0.166271 (Simulation time: 0 hr 4 min 7 sec) 
Heartbeat CPU 0 instructions: 27000002 cycles: 156903380 heartbeat IPC: 0.16412 cumulative IPC: 0.166187 (Simulation time: 0 hr 4 min 16 sec) 
Heartbeat CPU 0 instructions: 28000001 cycles: 163106290 heartbeat IPC: 0.161215 cumulative IPC: 0.165997 (Simulation time: 0 hr 4 min 26 sec) 
Heartbeat CPU 0 instructions: 29000002 cycles: 169359119 heartbeat IPC: 0.159928 cumulative IPC: 0.165773 (Simulation time: 0 hr 4 min 36 sec) 
Heartbeat CPU 0 instructions: 30000001 cycles: 176159992 heartbeat IPC: 0.14704 cumulative IPC: 0.165047 (Simulation time: 0 hr 4 min 47 sec) 
Heartbeat CPU 0 instructions: 31000001 cycles: 182586367 heartbeat IPC: 0.155609 cumulative IPC: 0.164714 (Simulation time: 0 hr 4 min 56 sec) 
Heartbeat CPU 0 instructions: 32000000 cycles: 188269327 heartbeat IPC: 0.175964 cumulative IPC: 0.165055 (Simulation time: 0 hr 5 min 6 sec) 
Heartbeat CPU 0 instructions: 33000000 cycles: 195219528 heartbeat IPC: 0.143881 cumulative IPC: 0.164299 (Simulation time: 0 hr 5 min 16 sec) 
Heartbeat CPU 0 instructions: 34000000 cycles: 200804485 heartbeat IPC: 0.179052 cumulative IPC: 0.16471 (Simulation time: 0 hr 5 min 26 sec) 
Heartbeat CPU 0 instructions: 35000002 cycles: 207260636 heartbeat IPC: 0.154891 cumulative IPC: 0.164404 (Simulation time: 0 hr 5 min 37 sec) 
Heartbeat CPU 0 instructions: 36000002 cycles: 214231034 heartbeat IPC: 0.143464 cumulative IPC: 0.163721 (Simulation time: 0 hr 5 min 47 sec) 
Heartbeat CPU 0 instructions: 37000001 cycles: 220375895 heartbeat IPC: 0.162737 cumulative IPC: 0.163694 (Simulation time: 0 hr 5 min 57 sec) 
Heartbeat CPU 0 instructions: 38000000 cycles: 226319814 heartbeat IPC: 0.168239 cumulative IPC: 0.163813 (Simulation time: 0 hr 6 min 7 sec) 
Heartbeat CPU 0 instructions: 39000003 cycles: 232688454 heartbeat IPC: 0.15702 cumulative IPC: 0.163627 (Simulation time: 0 hr 6 min 17 sec) 
Heartbeat CPU 0 instructions: 40000002 cycles: 238656376 heartbeat IPC: 0.167562 cumulative IPC: 0.163726 (Simulation time: 0 hr 6 min 26 sec) 
Heartbeat CPU 0 instructions: 41000001 cycles: 244689440 heartbeat IPC: 0.165753 cumulative IPC: 0.163776 (Simulation time: 0 hr 6 min 34 sec) 
Heartbeat CPU 0 instructions: 42000001 cycles: 255155707 heartbeat IPC: 0.095545 cumulative IPC: 0.160972 (Simulation time: 0 hr 6 min 46 sec) 
Heartbeat CPU 0 instructions: 43000000 cycles: 261461050 heartbeat IPC: 0.158596 cumulative IPC: 0.160915 (Simulation time: 0 hr 6 min 56 sec) 
Heartbeat CPU 0 instructions: 44000000 cycles: 267281132 heartbeat IPC: 0.171819 cumulative IPC: 0.161152 (Simulation time: 0 hr 7 min 6 sec) 
Heartbeat CPU 0 instructions: 45000000 cycles: 273355838 heartbeat IPC: 0.164617 cumulative IPC: 0.16123 (Simulation time: 0 hr 7 min 16 sec) 
Heartbeat CPU 0 instructions: 46000002 cycles: 279546409 heartbeat IPC: 0.161536 cumulative IPC: 0.161236 (Simulation time: 0 hr 7 min 25 sec) 
Heartbeat CPU 0 instructions: 47000000 cycles: 285684087 heartbeat IPC: 0.162928 cumulative IPC: 0.161273 (Simulation time: 0 hr 7 min 35 sec) 
Heartbeat CPU 0 instructions: 48000001 cycles: 291735744 heartbeat IPC: 0.165244 cumulative IPC: 0.161355 (Simulation time: 0 hr 7 min 45 sec) 
Heartbeat CPU 0 instructions: 49000003 cycles: 298352997 heartbeat IPC: 0.15112 cumulative IPC: 0.161128 (Simulation time: 0 hr 7 min 55 sec) 
Heartbeat CPU 0 instructions: 50000000 cycles: 304306632 heartbeat IPC: 0.167964 cumulative IPC: 0.161262 (Simulation time: 0 hr 8 min 4 sec) 
Heartbeat CPU 0 instructions: 51000001 cycles: 310074751 heartbeat IPC: 0.173367 cumulative IPC: 0.161487 (Simulation time: 0 hr 8 min 14 sec) 
Heartbeat CPU 0 instructions: 52000000 cycles: 315633541 heartbeat IPC: 0.179895 cumulative IPC: 0.161812 (Simulation time: 0 hr 8 min 22 sec) 
Heartbeat CPU 0 instructions: 53000001 cycles: 321358776 heartbeat IPC: 0.174665 cumulative IPC: 0.162041 (Simulation time: 0 hr 8 min 32 sec) 
Heartbeat CPU 0 instructions: 54000003 cycles: 327432974 heartbeat IPC: 0.164631 cumulative IPC: 0.162089 (Simulation time: 0 hr 8 min 41 sec) 
Heartbeat CPU 0 instructions: 55000000 cycles: 333556256 heartbeat IPC: 0.163311 cumulative IPC: 0.162112 (Simulation time: 0 hr 8 min 50 sec) 
Heartbeat CPU 0 instructions: 56000001 cycles: 340137437 heartbeat IPC: 0.151949 cumulative IPC: 0.161915 (Simulation time: 0 hr 9 min 1 sec) 
Heartbeat CPU 0 instructions: 57000001 cycles: 346333367 heartbeat IPC: 0.161396 cumulative IPC: 0.161906 (Simulation time: 0 hr 9 min 10 sec) 
Heartbeat CPU 0 instructions: 58000000 cycles: 352082816 heartbeat IPC: 0.17393 cumulative IPC: 0.162102 (Simulation time: 0 hr 9 min 20 sec) 
Heartbeat CPU 0 instructions: 59000000 cycles: 357785445 heartbeat IPC: 0.175358 cumulative IPC: 0.162314 (Simulation time: 0 hr 9 min 29 sec) 
Heartbeat CPU 0 instructions: 60000000 cycles: 363500374 heartbeat IPC: 0.17498 cumulative IPC: 0.162513 (Simulation time: 0 hr 9 min 39 sec) 
Heartbeat CPU 0 instructions: 61000001 cycles: 369347866 heartbeat IPC: 0.171014 cumulative IPC: 0.162648 (Simulation time: 0 hr 9 min 49 sec) 
Heartbeat CPU 0 instructions: 62000002 cycles: 375116748 heartbeat IPC: 0.173344 cumulative IPC: 0.162813 (Simulation time: 0 hr 9 min 58 sec) 
Heartbeat CPU 0 instructions: 63000000 cycles: 381010311 heartbeat IPC: 0.169676 cumulative IPC: 0.162919 (Simulation time: 0 hr 10 min 8 sec) 
Heartbeat CPU 0 instructions: 64000001 cycles: 387005750 heartbeat IPC: 0.166794 cumulative IPC: 0.162979 (Simulation time: 0 hr 10 min 18 sec) 
Heartbeat CPU 0 instructions: 65000002 cycles: 393269822 heartbeat IPC: 0.159641 cumulative IPC: 0.162926 (Simulation time: 0 hr 10 min 28 sec) 
Heartbeat CPU 0 instructions: 66000000 cycles: 399094122 heartbeat IPC: 0.171694 cumulative IPC: 0.163054 (Simulation time: 0 hr 10 min 38 sec) 
Heartbeat CPU 0 instructions: 67000000 cycles: 405016561 heartbeat IPC: 0.168849 cumulative IPC: 0.163139 (Simulation time: 0 hr 10 min 47 sec) 
Heartbeat CPU 0 instructions: 68000001 cycles: 410705879 heartbeat IPC: 0.175768 cumulative IPC: 0.163314 (Simulation time: 0 hr 10 min 57 sec) 
Heartbeat CPU 0 instructions: 69000002 cycles: 416549158 heartbeat IPC: 0.171137 cumulative IPC: 0.163424 (Simulation time: 0 hr 11 min 7 sec) 
Heartbeat CPU 0 instructions: 70000002 cycles: 422299326 heartbeat IPC: 0.173908 cumulative IPC: 0.163567 (Simulation time: 0 hr 11 min 16 sec) 
Heartbeat CPU 0 instructions: 71000000 cycles: 428082516 heartbeat IPC: 0.172915 cumulative IPC: 0.163693 (Simulation time: 0 hr 11 min 26 sec) 
Heartbeat CPU 0 instructions: 72000001 cycles: 433860331 heartbeat IPC: 0.173076 cumulative IPC: 0.163818 (Simulation time: 0 hr 11 min 35 sec) 
Heartbeat CPU 0 instructions: 73000002 cycles: 439592683 heartbeat IPC: 0.174449 cumulative IPC: 0.163957 (Simulation time: 0 hr 11 min 44 sec) 
Heartbeat CPU 0 instructions: 74000000 cycles: 445463169 heartbeat IPC: 0.170343 cumulative IPC: 0.164041 (Simulation time: 0 hr 11 min 54 sec) 
Heartbeat CPU 0 instructions: 75000000 cycles: 451391154 heartbeat IPC: 0.168691 cumulative IPC: 0.164102 (Simulation time: 0 hr 12 min 3 sec) 
Heartbeat CPU 0 instructions: 76000000 cycles: 457334696 heartbeat IPC: 0.16825 cumulative IPC: 0.164156 (Simulation time: 0 hr 12 min 12 sec) 
Heartbeat CPU 0 instructions: 77000000 cycles: 463283445 heartbeat IPC: 0.168103 cumulative IPC: 0.164207 (Simulation time: 0 hr 12 min 22 sec) 
Heartbeat CPU 0 instructions: 78000000 cycles: 469252314 heartbeat IPC: 0.167536 cumulative IPC: 0.164249 (Simulation time: 0 hr 12 min 33 sec) 
Heartbeat CPU 0 instructions: 79000001 cycles: 475249963 heartbeat IPC: 0.166732 cumulative IPC: 0.164281 (Simulation time: 0 hr 12 min 42 sec) 
Heartbeat CPU 0 instructions: 80000002 cycles: 481147862 heartbeat IPC: 0.169552 cumulative IPC: 0.164345 (Simulation time: 0 hr 12 min 52 sec) 
Heartbeat CPU 0 instructions: 81000001 cycles: 487098916 heartbeat IPC: 0.168037 cumulative IPC: 0.164391 (Simulation time: 0 hr 13 min 2 sec) 
Heartbeat CPU 0 instructions: 82000002 cycles: 493185189 heartbeat IPC: 0.164304 cumulative IPC: 0.164389 (Simulation time: 0 hr 13 min 12 sec) 
Heartbeat CPU 0 instructions: 83000002 cycles: 499316406 heartbeat IPC: 0.1631 cumulative IPC: 0.164374 (Simulation time: 0 hr 13 min 22 sec) 
Heartbeat CPU 0 instructions: 84000001 cycles: 505647205 heartbeat IPC: 0.157958 cumulative IPC: 0.164293 (Simulation time: 0 hr 13 min 32 sec) 
Heartbeat CPU 0 instructions: 85000003 cycles: 512387153 heartbeat IPC: 0.148369 cumulative IPC: 0.164084 (Simulation time: 0 hr 13 min 42 sec) 
Heartbeat CPU 0 instructions: 86000000 cycles: 518634303 heartbeat IPC: 0.160073 cumulative IPC: 0.164035 (Simulation time: 0 hr 13 min 52 sec) 
Heartbeat CPU 0 instructions: 87000001 cycles: 525631948 heartbeat IPC: 0.142905 cumulative IPC: 0.163754 (Simulation time: 0 hr 14 min 3 sec) 
Heartbeat CPU 0 instructions: 88000000 cycles: 532092111 heartbeat IPC: 0.154795 cumulative IPC: 0.163645 (Simulation time: 0 hr 14 min 13 sec) 
Heartbeat CPU 0 instructions: 89000000 cycles: 538137611 heartbeat IPC: 0.165412 cumulative IPC: 0.163665 (Simulation time: 0 hr 14 min 23 sec) 
Heartbeat CPU 0 instructions: 90000000 cycles: 544135419 heartbeat IPC: 0.166728 cumulative IPC: 0.163698 (Simulation time: 0 hr 14 min 33 sec) 
Heartbeat CPU 0 instructions: 91000000 cycles: 554118714 heartbeat IPC: 0.100167 cumulative IPC: 0.162553 (Simulation time: 0 hr 14 min 45 sec) 
Heartbeat CPU 0 instructions: 92000003 cycles: 560022761 heartbeat IPC: 0.169376 cumulative IPC: 0.162625 (Simulation time: 0 hr 14 min 54 sec) 
Heartbeat CPU 0 instructions: 93000000 cycles: 566032111 heartbeat IPC: 0.166407 cumulative IPC: 0.162665 (Simulation time: 0 hr 15 min 4 sec) 
Heartbeat CPU 0 instructions: 94000001 cycles: 572625471 heartbeat IPC: 0.151668 cumulative IPC: 0.162538 (Simulation time: 0 hr 15 min 14 sec) 
Heartbeat CPU 0 instructions: 95000000 cycles: 578648255 heartbeat IPC: 0.166036 cumulative IPC: 0.162575 (Simulation time: 0 hr 15 min 24 sec) 
Heartbeat CPU 0 instructions: 96000000 cycles: 584739015 heartbeat IPC: 0.164183 cumulative IPC: 0.162592 (Simulation time: 0 hr 15 min 34 sec) 
Heartbeat CPU 0 instructions: 97000001 cycles: 590784245 heartbeat IPC: 0.16542 cumulative IPC: 0.162621 (Simulation time: 0 hr 15 min 43 sec) 
Heartbeat CPU 0 instructions: 98000000 cycles: 597093904 heartbeat IPC: 0.158487 cumulative IPC: 0.162577 (Simulation time: 0 hr 15 min 52 sec) 
Heartbeat CPU 0 instructions: 99000000 cycles: 603395066 heartbeat IPC: 0.158701 cumulative IPC: 0.162536 (Simulation time: 0 hr 16 min 2 sec) 
Heartbeat CPU 0 instructions: 100000001 cycles: 609237172 heartbeat IPC: 0.171171 cumulative IPC: 0.162619 (Simulation time: 0 hr 16 min 11 sec) 
Heartbeat CPU 0 instructions: 101000000 cycles: 615030313 heartbeat IPC: 0.172618 cumulative IPC: 0.162713 (Simulation time: 0 hr 16 min 21 sec) 
Heartbeat CPU 0 instructions: 102000000 cycles: 620778561 heartbeat IPC: 0.173966 cumulative IPC: 0.162818 (Simulation time: 0 hr 16 min 30 sec) 
Heartbeat CPU 0 instructions: 103000002 cycles: 626686949 heartbeat IPC: 0.169251 cumulative IPC: 0.162878 (Simulation time: 0 hr 16 min 40 sec) 
Heartbeat CPU 0 instructions: 104000002 cycles: 632467175 heartbeat IPC: 0.173004 cumulative IPC: 0.162971 (Simulation time: 0 hr 16 min 49 sec) 
Heartbeat CPU 0 instructions: 105000000 cycles: 643105059 heartbeat IPC: 0.0940035 cumulative IPC: 0.161829 (Simulation time: 0 hr 17 min 2 sec) 
Heartbeat CPU 0 instructions: 106000002 cycles: 651589048 heartbeat IPC: 0.117869 cumulative IPC: 0.161257 (Simulation time: 0 hr 17 min 13 sec) 
Heartbeat CPU 0 instructions: 107000002 cycles: 657757379 heartbeat IPC: 0.162118 cumulative IPC: 0.161265 (Simulation time: 0 hr 17 min 22 sec) 
Heartbeat CPU 0 instructions: 108000000 cycles: 663691792 heartbeat IPC: 0.168508 cumulative IPC: 0.16133 (Simulation time: 0 hr 17 min 31 sec) 
Heartbeat CPU 0 instructions: 109000000 cycles: 669764842 heartbeat IPC: 0.164662 cumulative IPC: 0.16136 (Simulation time: 0 hr 17 min 41 sec) 
Heartbeat CPU 0 instructions: 110000000 cycles: 676074399 heartbeat IPC: 0.15849 cumulative IPC: 0.161333 (Simulation time: 0 hr 17 min 50 sec) 
Heartbeat CPU 0 instructions: 111000000 cycles: 683545899 heartbeat IPC: 0.133842 cumulative IPC: 0.161032 (Simulation time: 0 hr 18 min 0 sec) 
Heartbeat CPU 0 instructions: 112000000 cycles: 689764563 heartbeat IPC: 0.160806 cumulative IPC: 0.16103 (Simulation time: 0 hr 18 min 9 sec) 
Heartbeat CPU 0 instructions: 113000000 cycles: 695791451 heartbeat IPC: 0.165923 cumulative IPC: 0.161073 (Simulation time: 0 hr 18 min 18 sec) 
Heartbeat CPU 0 instructions: 114000000 cycles: 701772463 heartbeat IPC: 0.167196 cumulative IPC: 0.161125 (Simulation time: 0 hr 18 min 27 sec) 
Heartbeat CPU 0 instructions: 115000001 cycles: 708532328 heartbeat IPC: 0.147932 cumulative IPC: 0.160999 (Simulation time: 0 hr 18 min 36 sec) 
Heartbeat CPU 0 instructions: 116000001 cycles: 715568772 heartbeat IPC: 0.142117 cumulative IPC: 0.160813 (Simulation time: 0 hr 18 min 47 sec) 
Heartbeat CPU 0 instructions: 117000001 cycles: 721431919 heartbeat IPC: 0.170557 cumulative IPC: 0.160892 (Simulation time: 0 hr 18 min 56 sec) 
Heartbeat CPU 0 instructions: 118000000 cycles: 727274513 heartbeat IPC: 0.171157 cumulative IPC: 0.160975 (Simulation time: 0 hr 19 min 4 sec) 
Heartbeat CPU 0 instructions: 119000000 cycles: 733439702 heartbeat IPC: 0.162201 cumulative IPC: 0.160985 (Simulation time: 0 hr 19 min 14 sec) 
Heartbeat CPU 0 instructions: 120000000 cycles: 739323499 heartbeat IPC: 0.169958 cumulative IPC: 0.161057 (Simulation time: 0 hr 19 min 23 sec) 
Heartbeat CPU 0 instructions: 121000000 cycles: 745268558 heartbeat IPC: 0.168207 cumulative IPC: 0.161114 (Simulation time: 0 hr 19 min 33 sec) 
Heartbeat CPU 0 instructions: 122000001 cycles: 751102709 heartbeat IPC: 0.171405 cumulative IPC: 0.161194 (Simulation time: 0 hr 19 min 42 sec) 
Heartbeat CPU 0 instructions: 123000000 cycles: 757197016 heartbeat IPC: 0.164087 cumulative IPC: 0.161217 (Simulation time: 0 hr 19 min 51 sec) 
Heartbeat CPU 0 instructions: 124000001 cycles: 763161359 heartbeat IPC: 0.167663 cumulative IPC: 0.161267 (Simulation time: 0 hr 20 min 0 sec) 
Heartbeat CPU 0 instructions: 125000000 cycles: 769435084 heartbeat IPC: 0.159395 cumulative IPC: 0.161252 (Simulation time: 0 hr 20 min 9 sec) 
Heartbeat CPU 0 instructions: 126000000 cycles: 775724161 heartbeat IPC: 0.159006 cumulative IPC: 0.161234 (Simulation time: 0 hr 20 min 19 sec) 
Heartbeat CPU 0 instructions: 127000003 cycles: 782261839 heartbeat IPC: 0.15296 cumulative IPC: 0.161165 (Simulation time: 0 hr 20 min 29 sec) 
Heartbeat CPU 0 instructions: 128000002 cycles: 788871584 heartbeat IPC: 0.151292 cumulative IPC: 0.161082 (Simulation time: 0 hr 20 min 39 sec) 
Heartbeat CPU 0 instructions: 129000002 cycles: 794970170 heartbeat IPC: 0.163972 cumulative IPC: 0.161104 (Simulation time: 0 hr 20 min 48 sec) 
Heartbeat CPU 0 instructions: 130000000 cycles: 800801786 heartbeat IPC: 0.171479 cumulative IPC: 0.16118 (Simulation time: 0 hr 20 min 56 sec) 
Heartbeat CPU 0 instructions: 131000003 cycles: 806482727 heartbeat IPC: 0.176028 cumulative IPC: 0.161284 (Simulation time: 0 hr 21 min 5 sec) 
Heartbeat CPU 0 instructions: 132000000 cycles: 812147931 heartbeat IPC: 0.176516 cumulative IPC: 0.161391 (Simulation time: 0 hr 21 min 15 sec) 
Heartbeat CPU 0 instructions: 133000001 cycles: 818383759 heartbeat IPC: 0.160364 cumulative IPC: 0.161383 (Simulation time: 0 hr 21 min 24 sec) 
Heartbeat CPU 0 instructions: 134000001 cycles: 824116736 heartbeat IPC: 0.174429 cumulative IPC: 0.161474 (Simulation time: 0 hr 21 min 33 sec) 
Heartbeat CPU 0 instructions: 135000000 cycles: 829954185 heartbeat IPC: 0.171308 cumulative IPC: 0.161543 (Simulation time: 0 hr 21 min 43 sec) 
Heartbeat CPU 0 instructions: 136000000 cycles: 835844377 heartbeat IPC: 0.169774 cumulative IPC: 0.161601 (Simulation time: 0 hr 21 min 52 sec) 
Heartbeat CPU 0 instructions: 137000000 cycles: 841775295 heartbeat IPC: 0.168608 cumulative IPC: 0.16165 (Simulation time: 0 hr 22 min 0 sec) 
Heartbeat CPU 0 instructions: 138000000 cycles: 847660503 heartbeat IPC: 0.169918 cumulative IPC: 0.161708 (Simulation time: 0 hr 22 min 9 sec) 
Heartbeat CPU 0 instructions: 139000003 cycles: 853546158 heartbeat IPC: 0.169905 cumulative IPC: 0.161764 (Simulation time: 0 hr 22 min 19 sec) 
Heartbeat CPU 0 instructions: 140000001 cycles: 860093455 heartbeat IPC: 0.152734 cumulative IPC: 0.161695 (Simulation time: 0 hr 22 min 28 sec) 
Heartbeat CPU 0 instructions: 141000002 cycles: 866210381 heartbeat IPC: 0.163481 cumulative IPC: 0.161708 (Simulation time: 0 hr 22 min 39 sec) 
Heartbeat CPU 0 instructions: 142000000 cycles: 871983204 heartbeat IPC: 0.173225 cumulative IPC: 0.161784 (Simulation time: 0 hr 22 min 48 sec) 
Heartbeat CPU 0 instructions: 143000000 cycles: 877888942 heartbeat IPC: 0.169327 cumulative IPC: 0.161835 (Simulation time: 0 hr 22 min 56 sec) 
Heartbeat CPU 0 instructions: 144000001 cycles: 883912716 heartbeat IPC: 0.166009 cumulative IPC: 0.161864 (Simulation time: 0 hr 23 min 6 sec) 
Heartbeat CPU 0 instructions: 145000000 cycles: 889869618 heartbeat IPC: 0.167872 cumulative IPC: 0.161904 (Simulation time: 0 hr 23 min 16 sec) 
Heartbeat CPU 0 instructions: 146000002 cycles: 897212802 heartbeat IPC: 0.136181 cumulative IPC: 0.161693 (Simulation time: 0 hr 23 min 26 sec) 
Heartbeat CPU 0 instructions: 147000001 cycles: 903109243 heartbeat IPC: 0.169594 cumulative IPC: 0.161745 (Simulation time: 0 hr 23 min 35 sec) 
Heartbeat CPU 0 instructions: 148000000 cycles: 908831256 heartbeat IPC: 0.174764 cumulative IPC: 0.161827 (Simulation time: 0 hr 23 min 44 sec) 
Heartbeat CPU 0 instructions: 149000001 cycles: 914563270 heartbeat IPC: 0.174459 cumulative IPC: 0.161906 (Simulation time: 0 hr 23 min 52 sec) 
Heartbeat CPU 0 instructions: 150000000 cycles: 920538754 heartbeat IPC: 0.16735 cumulative IPC: 0.161941 (Simulation time: 0 hr 24 min 1 sec) 
Heartbeat CPU 0 instructions: 151000002 cycles: 926850201 heartbeat IPC: 0.158443 cumulative IPC: 0.161918 (Simulation time: 0 hr 24 min 11 sec) 
Heartbeat CPU 0 instructions: 152000001 cycles: 932696117 heartbeat IPC: 0.171059 cumulative IPC: 0.161975 (Simulation time: 0 hr 24 min 20 sec) 
Heartbeat CPU 0 instructions: 153000002 cycles: 938620662 heartbeat IPC: 0.16879 cumulative IPC: 0.162018 (Simulation time: 0 hr 24 min 28 sec) 
Heartbeat CPU 0 instructions: 154000000 cycles: 944667390 heartbeat IPC: 0.165378 cumulative IPC: 0.162039 (Simulation time: 0 hr 24 min 37 sec) 
Heartbeat CPU 0 instructions: 155000003 cycles: 950739933 heartbeat IPC: 0.164676 cumulative IPC: 0.162056 (Simulation time: 0 hr 24 min 46 sec) 
Heartbeat CPU 0 instructions: 156000000 cycles: 956724455 heartbeat IPC: 0.167097 cumulative IPC: 0.162088 (Simulation time: 0 hr 24 min 53 sec) 
Heartbeat CPU 0 instructions: 157000003 cycles: 962965813 heartbeat IPC: 0.160222 cumulative IPC: 0.162076 (Simulation time: 0 hr 25 min 3 sec) 
Heartbeat CPU 0 instructions: 158000000 cycles: 969527053 heartbeat IPC: 0.15241 cumulative IPC: 0.16201 (Simulation time: 0 hr 25 min 13 sec) 
Heartbeat CPU 0 instructions: 159000000 cycles: 975876095 heartbeat IPC: 0.157504 cumulative IPC: 0.161981 (Simulation time: 0 hr 25 min 22 sec) 
Heartbeat CPU 0 instructions: 160000002 cycles: 982313923 heartbeat IPC: 0.155332 cumulative IPC: 0.161937 (Simulation time: 0 hr 25 min 31 sec) 
Heartbeat CPU 0 instructions: 161000001 cycles: 988539274 heartbeat IPC: 0.160633 cumulative IPC: 0.161929 (Simulation time: 0 hr 25 min 41 sec) 
Heartbeat CPU 0 instructions: 162000001 cycles: 995237157 heartbeat IPC: 0.149301 cumulative IPC: 0.161844 (Simulation time: 0 hr 25 min 51 sec) 
Heartbeat CPU 0 instructions: 163000002 cycles: 1001702126 heartbeat IPC: 0.15468 cumulative IPC: 0.161798 (Simulation time: 0 hr 26 min 0 sec) 
Heartbeat CPU 0 instructions: 164000000 cycles: 1008619689 heartbeat IPC: 0.144559 cumulative IPC: 0.16168 (Simulation time: 0 hr 26 min 11 sec) 
Heartbeat CPU 0 instructions: 165000000 cycles: 1014901981 heartbeat IPC: 0.159178 cumulative IPC: 0.161664 (Simulation time: 0 hr 26 min 20 sec) 
Heartbeat CPU 0 instructions: 166000002 cycles: 1020678175 heartbeat IPC: 0.173125 cumulative IPC: 0.161729 (Simulation time: 0 hr 26 min 29 sec) 
Heartbeat CPU 0 instructions: 167000001 cycles: 1027224976 heartbeat IPC: 0.152746 cumulative IPC: 0.161672 (Simulation time: 0 hr 26 min 39 sec) 
Heartbeat CPU 0 instructions: 168000002 cycles: 1033398996 heartbeat IPC: 0.161969 cumulative IPC: 0.161674 (Simulation time: 0 hr 26 min 48 sec) 
Heartbeat CPU 0 instructions: 169000000 cycles: 1039485827 heartbeat IPC: 0.164289 cumulative IPC: 0.161689 (Simulation time: 0 hr 26 min 57 sec) 
Heartbeat CPU 0 instructions: 170000001 cycles: 1045503797 heartbeat IPC: 0.166169 cumulative IPC: 0.161715 (Simulation time: 0 hr 27 min 5 sec) 
Heartbeat CPU 0 instructions: 171000000 cycles: 1051189473 heartbeat IPC: 0.17588 cumulative IPC: 0.161791 (Simulation time: 0 hr 27 min 14 sec) 
Heartbeat CPU 0 instructions: 172000003 cycles: 1057068019 heartbeat IPC: 0.170111 cumulative IPC: 0.161838 (Simulation time: 0 hr 27 min 24 sec) 
Heartbeat CPU 0 instructions: 173000000 cycles: 1063043574 heartbeat IPC: 0.167348 cumulative IPC: 0.161869 (Simulation time: 0 hr 27 min 33 sec) 
Heartbeat CPU 0 instructions: 174000001 cycles: 1069641639 heartbeat IPC: 0.15156 cumulative IPC: 0.161805 (Simulation time: 0 hr 27 min 44 sec) 
Heartbeat CPU 0 instructions: 175000003 cycles: 1076280706 heartbeat IPC: 0.150624 cumulative IPC: 0.161736 (Simulation time: 0 hr 27 min 53 sec) 
Heartbeat CPU 0 instructions: 176000000 cycles: 1082695896 heartbeat IPC: 0.15588 cumulative IPC: 0.161701 (Simulation time: 0 hr 28 min 3 sec) 
Heartbeat CPU 0 instructions: 177000002 cycles: 1088978235 heartbeat IPC: 0.159177 cumulative IPC: 0.161687 (Simulation time: 0 hr 28 min 11 sec) 
Heartbeat CPU 0 instructions: 178000003 cycles: 1095244393 heartbeat IPC: 0.159588 cumulative IPC: 0.161675 (Simulation time: 0 hr 28 min 20 sec) 
Heartbeat CPU 0 instructions: 179000003 cycles: 1101283578 heartbeat IPC: 0.165585 cumulative IPC: 0.161696 (Simulation time: 0 hr 28 min 29 sec) 
Heartbeat CPU 0 instructions: 180000002 cycles: 1107779568 heartbeat IPC: 0.153941 cumulative IPC: 0.161651 (Simulation time: 0 hr 28 min 39 sec) 
Heartbeat CPU 0 instructions: 181000001 cycles: 1114269802 heartbeat IPC: 0.154078 cumulative IPC: 0.161606 (Simulation time: 0 hr 28 min 48 sec) 
Heartbeat CPU 0 instructions: 182000000 cycles: 1121035012 heartbeat IPC: 0.147815 cumulative IPC: 0.161523 (Simulation time: 0 hr 28 min 59 sec) 
Heartbeat CPU 0 instructions: 183000001 cycles: 1127575977 heartbeat IPC: 0.152883 cumulative IPC: 0.161473 (Simulation time: 0 hr 29 min 7 sec) 
Heartbeat CPU 0 instructions: 184000002 cycles: 1134463773 heartbeat IPC: 0.145184 cumulative IPC: 0.161374 (Simulation time: 0 hr 29 min 18 sec) 
Heartbeat CPU 0 instructions: 185000000 cycles: 1141102298 heartbeat IPC: 0.150636 cumulative IPC: 0.161312 (Simulation time: 0 hr 29 min 27 sec) 
Heartbeat CPU 0 instructions: 186000000 cycles: 1147467356 heartbeat IPC: 0.157108 cumulative IPC: 0.161288 (Simulation time: 0 hr 29 min 36 sec) 
Heartbeat CPU 0 instructions: 187000000 cycles: 1153760930 heartbeat IPC: 0.158892 cumulative IPC: 0.161275 (Simulation time: 0 hr 29 min 45 sec) 
Heartbeat CPU 0 instructions: 188000000 cycles: 1159952110 heartbeat IPC: 0.16152 cumulative IPC: 0.161277 (Simulation time: 0 hr 29 min 55 sec) 
Heartbeat CPU 0 instructions: 189000000 cycles: 1169719563 heartbeat IPC: 0.102381 cumulative IPC: 0.160785 (Simulation time: 0 hr 30 min 5 sec) 
Heartbeat CPU 0 instructions: 190000003 cycles: 1176949168 heartbeat IPC: 0.138321 cumulative IPC: 0.160646 (Simulation time: 0 hr 30 min 15 sec) 
Heartbeat CPU 0 instructions: 191000000 cycles: 1183915079 heartbeat IPC: 0.143556 cumulative IPC: 0.160546 (Simulation time: 0 hr 30 min 26 sec) 
Heartbeat CPU 0 instructions: 192000001 cycles: 1190966548 heartbeat IPC: 0.141815 cumulative IPC: 0.160435 (Simulation time: 0 hr 30 min 35 sec) 
Heartbeat CPU 0 instructions: 193000002 cycles: 1197348214 heartbeat IPC: 0.156699 cumulative IPC: 0.160415 (Simulation time: 0 hr 30 min 45 sec) 
Heartbeat CPU 0 instructions: 194000002 cycles: 1203889948 heartbeat IPC: 0.152865 cumulative IPC: 0.160374 (Simulation time: 0 hr 30 min 55 sec) 
Heartbeat CPU 0 instructions: 195000000 cycles: 1210463396 heartbeat IPC: 0.152127 cumulative IPC: 0.160329 (Simulation time: 0 hr 31 min 4 sec) 
Heartbeat CPU 0 instructions: 196000001 cycles: 1216463752 heartbeat IPC: 0.166657 cumulative IPC: 0.16036 (Simulation time: 0 hr 31 min 13 sec) 
Heartbeat CPU 0 instructions: 197000001 cycles: 1226510644 heartbeat IPC: 0.0995333 cumulative IPC: 0.159862 (Simulation time: 0 hr 31 min 25 sec) 
Heartbeat CPU 0 instructions: 198000000 cycles: 1233057378 heartbeat IPC: 0.152748 cumulative IPC: 0.159824 (Simulation time: 0 hr 31 min 34 sec) 
Heartbeat CPU 0 instructions: 199000000 cycles: 1239760903 heartbeat IPC: 0.149175 cumulative IPC: 0.159767 (Simulation time: 0 hr 31 min 44 sec) 
Heartbeat CPU 0 instructions: 200000002 cycles: 1246295247 heartbeat IPC: 0.153038 cumulative IPC: 0.159731 (Simulation time: 0 hr 31 min 53 sec) 
Heartbeat CPU 0 instructions: 201000000 cycles: 1252871098 heartbeat IPC: 0.152071 cumulative IPC: 0.159691 (Simulation time: 0 hr 32 min 2 sec) 
Heartbeat CPU 0 instructions: 202000001 cycles: 1259855610 heartbeat IPC: 0.143174 cumulative IPC: 0.159599 (Simulation time: 0 hr 32 min 12 sec) 
Heartbeat CPU 0 instructions: 203000001 cycles: 1266484546 heartbeat IPC: 0.150854 cumulative IPC: 0.159554 (Simulation time: 0 hr 32 min 22 sec) 
Heartbeat CPU 0 instructions: 204000000 cycles: 1273582385 heartbeat IPC: 0.140888 cumulative IPC: 0.15945 (Simulation time: 0 hr 32 min 31 sec) 
Heartbeat CPU 0 instructions: 205000001 cycles: 1280272841 heartbeat IPC: 0.149467 cumulative IPC: 0.159397 (Simulation time: 0 hr 32 min 42 sec) 
Heartbeat CPU 0 instructions: 206000001 cycles: 1286782537 heartbeat IPC: 0.153617 cumulative IPC: 0.159368 (Simulation time: 0 hr 32 min 51 sec) 
Heartbeat CPU 0 instructions: 207000001 cycles: 1292963297 heartbeat IPC: 0.161792 cumulative IPC: 0.15938 (Simulation time: 0 hr 33 min 1 sec) 
Heartbeat CPU 0 instructions: 208000000 cycles: 1299476702 heartbeat IPC: 0.153529 cumulative IPC: 0.15935 (Simulation time: 0 hr 33 min 10 sec) 
Heartbeat CPU 0 instructions: 209000000 cycles: 1305866971 heartbeat IPC: 0.156488 cumulative IPC: 0.159336 (Simulation time: 0 hr 33 min 20 sec) 
Heartbeat CPU 0 instructions: 210000003 cycles: 1313644105 heartbeat IPC: 0.128582 cumulative IPC: 0.159154 (Simulation time: 0 hr 33 min 30 sec) 
Heartbeat CPU 0 instructions: 211000000 cycles: 1320238877 heartbeat IPC: 0.151635 cumulative IPC: 0.159117 (Simulation time: 0 hr 33 min 40 sec) 
Heartbeat CPU 0 instructions: 212000000 cycles: 1326596226 heartbeat IPC: 0.157298 cumulative IPC: 0.159108 (Simulation time: 0 hr 33 min 49 sec) 
Heartbeat CPU 0 instructions: 213000001 cycles: 1333360429 heartbeat IPC: 0.147837 cumulative IPC: 0.159051 (Simulation time: 0 hr 33 min 59 sec) 
Heartbeat CPU 0 instructions: 214000002 cycles: 1339887239 heartbeat IPC: 0.153214 cumulative IPC: 0.159022 (Simulation time: 0 hr 34 min 9 sec) 
Heartbeat CPU 0 instructions: 215000001 cycles: 1346769094 heartbeat IPC: 0.14531 cumulative IPC: 0.158952 (Simulation time: 0 hr 34 min 18 sec) 
Heartbeat CPU 0 instructions: 216000000 cycles: 1353039084 heartbeat IPC: 0.15949 cumulative IPC: 0.158955 (Simulation time: 0 hr 34 min 28 sec) 
Heartbeat CPU 0 instructions: 217000000 cycles: 1359976844 heartbeat IPC: 0.144139 cumulative IPC: 0.158879 (Simulation time: 0 hr 34 min 38 sec) 
Heartbeat CPU 0 instructions: 218000003 cycles: 1366512851 heartbeat IPC: 0.152999 cumulative IPC: 0.158851 (Simulation time: 0 hr 34 min 46 sec) 
Heartbeat CPU 0 instructions: 219000000 cycles: 1373273280 heartbeat IPC: 0.147919 cumulative IPC: 0.158797 (Simulation time: 0 hr 34 min 55 sec) 
Heartbeat CPU 0 instructions: 220000000 cycles: 1379591463 heartbeat IPC: 0.158273 cumulative IPC: 0.158795 (Simulation time: 0 hr 35 min 4 sec) 
Heartbeat CPU 0 instructions: 221000000 cycles: 1385559430 heartbeat IPC: 0.167561 cumulative IPC: 0.158833 (Simulation time: 0 hr 35 min 13 sec) 
Heartbeat CPU 0 instructions: 222000000 cycles: 1391351217 heartbeat IPC: 0.172658 cumulative IPC: 0.15889 (Simulation time: 0 hr 35 min 22 sec) 
Heartbeat CPU 0 instructions: 223000001 cycles: 1397282226 heartbeat IPC: 0.168606 cumulative IPC: 0.158931 (Simulation time: 0 hr 35 min 31 sec) 
Heartbeat CPU 0 instructions: 224000001 cycles: 1403709098 heartbeat IPC: 0.155597 cumulative IPC: 0.158916 (Simulation time: 0 hr 35 min 41 sec) 
Heartbeat CPU 0 instructions: 225000001 cycles: 1410347007 heartbeat IPC: 0.15065 cumulative IPC: 0.158877 (Simulation time: 0 hr 35 min 51 sec) 
Heartbeat CPU 0 instructions: 226000003 cycles: 1416958459 heartbeat IPC: 0.151253 cumulative IPC: 0.158842 (Simulation time: 0 hr 36 min 0 sec) 
Heartbeat CPU 0 instructions: 227000003 cycles: 1424137234 heartbeat IPC: 0.1393 cumulative IPC: 0.158743 (Simulation time: 0 hr 36 min 10 sec) 
Heartbeat CPU 0 instructions: 228000000 cycles: 1431179993 heartbeat IPC: 0.141989 cumulative IPC: 0.158661 (Simulation time: 0 hr 36 min 21 sec) 
Heartbeat CPU 0 instructions: 229000002 cycles: 1438194186 heartbeat IPC: 0.142568 cumulative IPC: 0.158582 (Simulation time: 0 hr 36 min 30 sec) 
Heartbeat CPU 0 instructions: 230000001 cycles: 1445309815 heartbeat IPC: 0.140536 cumulative IPC: 0.158493 (Simulation time: 0 hr 36 min 40 sec) 
Heartbeat CPU 0 instructions: 231000000 cycles: 1452436375 heartbeat IPC: 0.14032 cumulative IPC: 0.158404 (Simulation time: 0 hr 36 min 50 sec) 
Heartbeat CPU 0 instructions: 232000000 cycles: 1459430223 heartbeat IPC: 0.142983 cumulative IPC: 0.15833 (Simulation time: 0 hr 37 min 0 sec) 
Heartbeat CPU 0 instructions: 233000000 cycles: 1465579977 heartbeat IPC: 0.162608 cumulative IPC: 0.158348 (Simulation time: 0 hr 37 min 9 sec) 
Heartbeat CPU 0 instructions: 234000000 cycles: 1471445046 heartbeat IPC: 0.170501 cumulative IPC: 0.158396 (Simulation time: 0 hr 37 min 18 sec) 
Heartbeat CPU 0 instructions: 235000001 cycles: 1477721985 heartbeat IPC: 0.159313 cumulative IPC: 0.1584 (Simulation time: 0 hr 37 min 27 sec) 
Heartbeat CPU 0 instructions: 236000003 cycles: 1484814198 heartbeat IPC: 0.141 cumulative IPC: 0.158317 (Simulation time: 0 hr 37 min 36 sec) 
Heartbeat CPU 0 instructions: 237000000 cycles: 1491632616 heartbeat IPC: 0.146661 cumulative IPC: 0.158264 (Simulation time: 0 hr 37 min 46 sec) 
Heartbeat CPU 0 instructions: 238000000 cycles: 1497536048 heartbeat IPC: 0.169393 cumulative IPC: 0.158308 (Simulation time: 0 hr 37 min 56 sec) 
Heartbeat CPU 0 instructions: 239000000 cycles: 1503629867 heartbeat IPC: 0.164101 cumulative IPC: 0.158331 (Simulation time: 0 hr 38 min 5 sec) 
Heartbeat CPU 0 instructions: 240000003 cycles: 1509672015 heartbeat IPC: 0.165505 cumulative IPC: 0.15836 (Simulation time: 0 hr 38 min 14 sec) 
Heartbeat CPU 0 instructions: 241000001 cycles: 1515815197 heartbeat IPC: 0.162782 cumulative IPC: 0.158378 (Simulation time: 0 hr 38 min 23 sec) 
Heartbeat CPU 0 instructions: 242000000 cycles: 1521840775 heartbeat IPC: 0.165959 cumulative IPC: 0.158408 (Simulation time: 0 hr 38 min 32 sec) 
Heartbeat CPU 0 instructions: 243000000 cycles: 1527693733 heartbeat IPC: 0.170854 cumulative IPC: 0.158456 (Simulation time: 0 hr 38 min 41 sec) 
Heartbeat CPU 0 instructions: 244000000 cycles: 1533940447 heartbeat IPC: 0.160084 cumulative IPC: 0.158462 (Simulation time: 0 hr 38 min 50 sec) 
Heartbeat CPU 0 instructions: 245000002 cycles: 1540167337 heartbeat IPC: 0.160594 cumulative IPC: 0.158471 (Simulation time: 0 hr 38 min 59 sec) 
Heartbeat CPU 0 instructions: 246000000 cycles: 1546752280 heartbeat IPC: 0.151861 cumulative IPC: 0.158443 (Simulation time: 0 hr 39 min 8 sec) 
Heartbeat CPU 0 instructions: 247000002 cycles: 1553422405 heartbeat IPC: 0.149923 cumulative IPC: 0.158406 (Simulation time: 0 hr 39 min 18 sec) 
Heartbeat CPU 0 instructions: 248000000 cycles: 1560254436 heartbeat IPC: 0.146369 cumulative IPC: 0.158353 (Simulation time: 0 hr 39 min 28 sec) 
Heartbeat CPU 0 instructions: 249000000 cycles: 1566481378 heartbeat IPC: 0.160592 cumulative IPC: 0.158362 (Simulation time: 0 hr 39 min 37 sec) 
Heartbeat CPU 0 instructions: 250000003 cycles: 1572339231 heartbeat IPC: 0.170712 cumulative IPC: 0.158408 (Simulation time: 0 hr 39 min 45 sec) 
Heartbeat CPU 0 instructions: 251000002 cycles: 1579269963 heartbeat IPC: 0.144285 cumulative IPC: 0.158346 (Simulation time: 0 hr 39 min 56 sec) 
Heartbeat CPU 0 instructions: 252000000 cycles: 1585001487 heartbeat IPC: 0.174473 cumulative IPC: 0.158405 (Simulation time: 0 hr 40 min 5 sec) 
Heartbeat CPU 0 instructions: 253000000 cycles: 1590687848 heartbeat IPC: 0.175859 cumulative IPC: 0.158467 (Simulation time: 0 hr 40 min 14 sec) 
Heartbeat CPU 0 instructions: 254000002 cycles: 1596395503 heartbeat IPC: 0.175204 cumulative IPC: 0.158527 (Simulation time: 0 hr 40 min 23 sec) 
Heartbeat CPU 0 instructions: 255000002 cycles: 1602311772 heartbeat IPC: 0.169025 cumulative IPC: 0.158566 (Simulation time: 0 hr 40 min 32 sec) 
Heartbeat CPU 0 instructions: 256000001 cycles: 1608923776 heartbeat IPC: 0.15124 cumulative IPC: 0.158536 (Simulation time: 0 hr 40 min 40 sec) 
Heartbeat CPU 0 instructions: 257000002 cycles: 1615340402 heartbeat IPC: 0.155845 cumulative IPC: 0.158525 (Simulation time: 0 hr 40 min 49 sec) 
Heartbeat CPU 0 instructions: 258000002 cycles: 1621925905 heartbeat IPC: 0.151849 cumulative IPC: 0.158498 (Simulation time: 0 hr 40 min 59 sec) 
Heartbeat CPU 0 instructions: 259000001 cycles: 1628172068 heartbeat IPC: 0.160098 cumulative IPC: 0.158504 (Simulation time: 0 hr 41 min 8 sec) 
Heartbeat CPU 0 instructions: 260000002 cycles: 1634364101 heartbeat IPC: 0.161498 cumulative IPC: 0.158515 (Simulation time: 0 hr 41 min 18 sec) 
Heartbeat CPU 0 instructions: 261000003 cycles: 1640882821 heartbeat IPC: 0.153405 cumulative IPC: 0.158495 (Simulation time: 0 hr 41 min 28 sec) 
Heartbeat CPU 0 instructions: 262000002 cycles: 1646654701 heartbeat IPC: 0.173254 cumulative IPC: 0.158547 (Simulation time: 0 hr 41 min 38 sec) 
Heartbeat CPU 0 instructions: 263000001 cycles: 1652710468 heartbeat IPC: 0.165132 cumulative IPC: 0.158571 (Simulation time: 0 hr 41 min 47 sec) 
Heartbeat CPU 0 instructions: 264000000 cycles: 1659166234 heartbeat IPC: 0.1549 cumulative IPC: 0.158557 (Simulation time: 0 hr 41 min 57 sec) 
Heartbeat CPU 0 instructions: 265000001 cycles: 1665476872 heartbeat IPC: 0.158463 cumulative IPC: 0.158556 (Simulation time: 0 hr 42 min 7 sec) 
Heartbeat CPU 0 instructions: 266000002 cycles: 1671260350 heartbeat IPC: 0.172907 cumulative IPC: 0.158606 (Simulation time: 0 hr 42 min 16 sec) 
Heartbeat CPU 0 instructions: 267000001 cycles: 1677168714 heartbeat IPC: 0.169251 cumulative IPC: 0.158643 (Simulation time: 0 hr 42 min 26 sec) 
Heartbeat CPU 0 instructions: 268000002 cycles: 1683128261 heartbeat IPC: 0.167798 cumulative IPC: 0.158676 (Simulation time: 0 hr 42 min 35 sec) 
Heartbeat CPU 0 instructions: 269000000 cycles: 1689137858 heartbeat IPC: 0.1664 cumulative IPC: 0.158703 (Simulation time: 0 hr 42 min 45 sec) 
Heartbeat CPU 0 instructions: 270000000 cycles: 1695210202 heartbeat IPC: 0.164681 cumulative IPC: 0.158725 (Simulation time: 0 hr 42 min 54 sec) 
Heartbeat CPU 0 instructions: 271000000 cycles: 1700973002 heartbeat IPC: 0.173527 cumulative IPC: 0.158775 (Simulation time: 0 hr 43 min 3 sec) 
Heartbeat CPU 0 instructions: 272000002 cycles: 1706976157 heartbeat IPC: 0.166579 cumulative IPC: 0.158802 (Simulation time: 0 hr 43 min 13 sec) 
Heartbeat CPU 0 instructions: 273000000 cycles: 1713018011 heartbeat IPC: 0.165512 cumulative IPC: 0.158826 (Simulation time: 0 hr 43 min 22 sec) 
Heartbeat CPU 0 instructions: 274000000 cycles: 1719300862 heartbeat IPC: 0.159163 cumulative IPC: 0.158827 (Simulation time: 0 hr 43 min 32 sec) 
Heartbeat CPU 0 instructions: 275000000 cycles: 1725381280 heartbeat IPC: 0.164462 cumulative IPC: 0.158847 (Simulation time: 0 hr 43 min 41 sec) 
Heartbeat CPU 0 instructions: 276000000 cycles: 1730881534 heartbeat IPC: 0.18181 cumulative IPC: 0.15892 (Simulation time: 0 hr 43 min 52 sec) 
Heartbeat CPU 0 instructions: 277000000 cycles: 1740453540 heartbeat IPC: 0.104471 cumulative IPC: 0.158621 (Simulation time: 0 hr 44 min 3 sec) 
Heartbeat CPU 0 instructions: 278000000 cycles: 1746509502 heartbeat IPC: 0.165127 cumulative IPC: 0.158643 (Simulation time: 0 hr 44 min 13 sec) 
Heartbeat CPU 0 instructions: 279000002 cycles: 1752430362 heartbeat IPC: 0.168895 cumulative IPC: 0.158678 (Simulation time: 0 hr 44 min 22 sec) 
Heartbeat CPU 0 instructions: 280000001 cycles: 1758436107 heartbeat IPC: 0.166507 cumulative IPC: 0.158705 (Simulation time: 0 hr 44 min 32 sec) 
Heartbeat CPU 0 instructions: 281000001 cycles: 1764554275 heartbeat IPC: 0.163448 cumulative IPC: 0.158721 (Simulation time: 0 hr 44 min 41 sec) 
Heartbeat CPU 0 instructions: 282000001 cycles: 1770756818 heartbeat IPC: 0.161224 cumulative IPC: 0.15873 (Simulation time: 0 hr 44 min 51 sec) 
Heartbeat CPU 0 instructions: 283000000 cycles: 1777149545 heartbeat IPC: 0.156428 cumulative IPC: 0.158722 (Simulation time: 0 hr 45 min 0 sec) 
Heartbeat CPU 0 instructions: 284000003 cycles: 1783130667 heartbeat IPC: 0.167193 cumulative IPC: 0.15875 (Simulation time: 0 hr 45 min 10 sec) 
Heartbeat CPU 0 instructions: 285000001 cycles: 1789594014 heartbeat IPC: 0.154718 cumulative IPC: 0.158735 (Simulation time: 0 hr 45 min 19 sec) 
Heartbeat CPU 0 instructions: 286000000 cycles: 1796092994 heartbeat IPC: 0.15387 cumulative IPC: 0.158718 (Simulation time: 0 hr 45 min 28 sec) 
Heartbeat CPU 0 instructions: 287000000 cycles: 1801861610 heartbeat IPC: 0.173352 cumulative IPC: 0.158765 (Simulation time: 0 hr 45 min 37 sec) 
Heartbeat CPU 0 instructions: 288000001 cycles: 1807428379 heartbeat IPC: 0.179638 cumulative IPC: 0.158829 (Simulation time: 0 hr 45 min 45 sec) 
Heartbeat CPU 0 instructions: 289000001 cycles: 1813243357 heartbeat IPC: 0.17197 cumulative IPC: 0.158871 (Simulation time: 0 hr 45 min 54 sec) 
Heartbeat CPU 0 instructions: 290000002 cycles: 1819185014 heartbeat IPC: 0.168303 cumulative IPC: 0.158902 (Simulation time: 0 hr 46 min 3 sec) 
Heartbeat CPU 0 instructions: 291000001 cycles: 1825280198 heartbeat IPC: 0.164064 cumulative IPC: 0.158919 (Simulation time: 0 hr 46 min 12 sec) 
Heartbeat CPU 0 instructions: 292000000 cycles: 1830994372 heartbeat IPC: 0.175003 cumulative IPC: 0.158969 (Simulation time: 0 hr 46 min 21 sec) 
Heartbeat CPU 0 instructions: 293000001 cycles: 1836711127 heartbeat IPC: 0.174925 cumulative IPC: 0.159019 (Simulation time: 0 hr 46 min 29 sec) 
Heartbeat CPU 0 instructions: 294000000 cycles: 1842776862 heartbeat IPC: 0.16486 cumulative IPC: 0.159038 (Simulation time: 0 hr 46 min 38 sec) 
Heartbeat CPU 0 instructions: 295000002 cycles: 1848731130 heartbeat IPC: 0.167947 cumulative IPC: 0.159067 (Simulation time: 0 hr 46 min 48 sec) 
Heartbeat CPU 0 instructions: 296000003 cycles: 1854437152 heartbeat IPC: 0.175254 cumulative IPC: 0.159117 (Simulation time: 0 hr 46 min 57 sec) 
Heartbeat CPU 0 instructions: 297000000 cycles: 1860254285 heartbeat IPC: 0.171905 cumulative IPC: 0.159157 (Simulation time: 0 hr 47 min 7 sec) 
Heartbeat CPU 0 instructions: 298000000 cycles: 1865941128 heartbeat IPC: 0.175844 cumulative IPC: 0.159208 (Simulation time: 0 hr 47 min 16 sec) 
Heartbeat CPU 0 instructions: 299000002 cycles: 1872051893 heartbeat IPC: 0.163646 cumulative IPC: 0.159222 (Simulation time: 0 hr 47 min 26 sec) 
Heartbeat CPU 0 instructions: 300000000 cycles: 1879996403 heartbeat IPC: 0.125873 cumulative IPC: 0.159081 (Simulation time: 0 hr 47 min 36 sec) 
Heartbeat CPU 0 instructions: 301000001 cycles: 1887016242 heartbeat IPC: 0.142454 cumulative IPC: 0.159019 (Simulation time: 0 hr 47 min 45 sec) 
Heartbeat CPU 0 instructions: 302000001 cycles: 1892631637 heartbeat IPC: 0.178082 cumulative IPC: 0.159076 (Simulation time: 0 hr 47 min 54 sec) 
Heartbeat CPU 0 instructions: 303000000 cycles: 1898406627 heartbeat IPC: 0.17316 cumulative IPC: 0.159119 (Simulation time: 0 hr 48 min 3 sec) 
Heartbeat CPU 0 instructions: 304000000 cycles: 1904415450 heartbeat IPC: 0.166422 cumulative IPC: 0.159142 (Simulation time: 0 hr 48 min 12 sec) 
Heartbeat CPU 0 instructions: 305000000 cycles: 1910209489 heartbeat IPC: 0.172591 cumulative IPC: 0.159183 (Simulation time: 0 hr 48 min 21 sec) 
Heartbeat CPU 0 instructions: 306000002 cycles: 1916150014 heartbeat IPC: 0.168336 cumulative IPC: 0.159211 (Simulation time: 0 hr 48 min 31 sec) 
Heartbeat CPU 0 instructions: 307000001 cycles: 1921916514 heartbeat IPC: 0.173415 cumulative IPC: 0.159254 (Simulation time: 0 hr 48 min 39 sec) 
Heartbeat CPU 0 instructions: 308000000 cycles: 1927684435 heartbeat IPC: 0.173373 cumulative IPC: 0.159296 (Simulation time: 0 hr 48 min 49 sec) 
Heartbeat CPU 0 instructions: 309000000 cycles: 1934149751 heartbeat IPC: 0.154671 cumulative IPC: 0.15928 (Simulation time: 0 hr 48 min 58 sec) 
Heartbeat CPU 0 instructions: 310000000 cycles: 1940040534 heartbeat IPC: 0.169757 cumulative IPC: 0.159312 (Simulation time: 0 hr 49 min 8 sec) 
Heartbeat CPU 0 instructions: 311000001 cycles: 1945944299 heartbeat IPC: 0.169384 cumulative IPC: 0.159343 (Simulation time: 0 hr 49 min 17 sec) 
Heartbeat CPU 0 instructions: 312000001 cycles: 1951635501 heartbeat IPC: 0.17571 cumulative IPC: 0.159391 (Simulation time: 0 hr 49 min 25 sec) 
Heartbeat CPU 0 instructions: 313000002 cycles: 1957182810 heartbeat IPC: 0.180268 cumulative IPC: 0.15945 (Simulation time: 0 hr 49 min 35 sec) 
Heartbeat CPU 0 instructions: 314000002 cycles: 1963027167 heartbeat IPC: 0.171105 cumulative IPC: 0.159484 (Simulation time: 0 hr 49 min 44 sec) 
Heartbeat CPU 0 instructions: 315000000 cycles: 1968940132 heartbeat IPC: 0.16912 cumulative IPC: 0.159513 (Simulation time: 0 hr 49 min 52 sec) 
Heartbeat CPU 0 instructions: 316000000 cycles: 1974925876 heartbeat IPC: 0.167064 cumulative IPC: 0.159536 (Simulation time: 0 hr 50 min 2 sec) 
Heartbeat CPU 0 instructions: 317000003 cycles: 1980639436 heartbeat IPC: 0.175023 cumulative IPC: 0.159581 (Simulation time: 0 hr 50 min 11 sec) 
Heartbeat CPU 0 instructions: 318000002 cycles: 1986750851 heartbeat IPC: 0.163628 cumulative IPC: 0.159593 (Simulation time: 0 hr 50 min 19 sec) 
Heartbeat CPU 0 instructions: 319000000 cycles: 1992705749 heartbeat IPC: 0.167929 cumulative IPC: 0.159618 (Simulation time: 0 hr 50 min 28 sec) 
Heartbeat CPU 0 instructions: 320000002 cycles: 1998791010 heartbeat IPC: 0.164332 cumulative IPC: 0.159633 (Simulation time: 0 hr 50 min 37 sec) 
Heartbeat CPU 0 instructions: 321000002 cycles: 2004484792 heartbeat IPC: 0.17563 cumulative IPC: 0.159678 (Simulation time: 0 hr 50 min 46 sec) 
Heartbeat CPU 0 instructions: 322000000 cycles: 2010246490 heartbeat IPC: 0.17356 cumulative IPC: 0.159718 (Simulation time: 0 hr 50 min 55 sec) 
Heartbeat CPU 0 instructions: 323000000 cycles: 2015823956 heartbeat IPC: 0.179293 cumulative IPC: 0.159772 (Simulation time: 0 hr 51 min 4 sec) 
Heartbeat CPU 0 instructions: 324000000 cycles: 2021601871 heartbeat IPC: 0.173073 cumulative IPC: 0.15981 (Simulation time: 0 hr 51 min 13 sec) 
Heartbeat CPU 0 instructions: 325000002 cycles: 2027803478 heartbeat IPC: 0.161249 cumulative IPC: 0.159814 (Simulation time: 0 hr 51 min 23 sec) 
Heartbeat CPU 0 instructions: 326000001 cycles: 2033866650 heartbeat IPC: 0.16493 cumulative IPC: 0.15983 (Simulation time: 0 hr 51 min 32 sec) 
Heartbeat CPU 0 instructions: 327000001 cycles: 2039835259 heartbeat IPC: 0.167543 cumulative IPC: 0.159852 (Simulation time: 0 hr 51 min 41 sec) 
Heartbeat CPU 0 instructions: 328000000 cycles: 2045555800 heartbeat IPC: 0.174808 cumulative IPC: 0.159894 (Simulation time: 0 hr 51 min 50 sec) 
Heartbeat CPU 0 instructions: 329000000 cycles: 2051481159 heartbeat IPC: 0.168766 cumulative IPC: 0.15992 (Simulation time: 0 hr 52 min 0 sec) 
Heartbeat CPU 0 instructions: 330000000 cycles: 2057550544 heartbeat IPC: 0.164761 cumulative IPC: 0.159934 (Simulation time: 0 hr 52 min 9 sec) 
Heartbeat CPU 0 instructions: 331000003 cycles: 2063457754 heartbeat IPC: 0.169285 cumulative IPC: 0.159961 (Simulation time: 0 hr 52 min 18 sec) 
Heartbeat CPU 0 instructions: 332000000 cycles: 2069323390 heartbeat IPC: 0.170484 cumulative IPC: 0.159991 (Simulation time: 0 hr 52 min 27 sec) 
Heartbeat CPU 0 instructions: 333000000 cycles: 2075115297 heartbeat IPC: 0.172655 cumulative IPC: 0.160026 (Simulation time: 0 hr 52 min 36 sec) 
Heartbeat CPU 0 instructions: 334000000 cycles: 2085175505 heartbeat IPC: 0.0994015 cumulative IPC: 0.159733 (Simulation time: 0 hr 52 min 47 sec) 
Heartbeat CPU 0 instructions: 335000000 cycles: 2091329619 heartbeat IPC: 0.162493 cumulative IPC: 0.159742 (Simulation time: 0 hr 52 min 57 sec) 
Heartbeat CPU 0 instructions: 336000002 cycles: 2096983026 heartbeat IPC: 0.176885 cumulative IPC: 0.159788 (Simulation time: 0 hr 53 min 5 sec) 
Heartbeat CPU 0 instructions: 337000000 cycles: 2102696670 heartbeat IPC: 0.175019 cumulative IPC: 0.159829 (Simulation time: 0 hr 53 min 15 sec) 
Heartbeat CPU 0 instructions: 338000001 cycles: 2108445908 heartbeat IPC: 0.173936 cumulative IPC: 0.159868 (Simulation time: 0 hr 53 min 25 sec) 
Heartbeat CPU 0 instructions: 339000000 cycles: 2114541817 heartbeat IPC: 0.164044 cumulative IPC: 0.15988 (Simulation time: 0 hr 53 min 35 sec) 
Heartbeat CPU 0 instructions: 340000000 cycles: 2120684064 heartbeat IPC: 0.162807 cumulative IPC: 0.159888 (Simulation time: 0 hr 53 min 46 sec) 
Heartbeat CPU 0 instructions: 341000000 cycles: 2126205603 heartbeat IPC: 0.181109 cumulative IPC: 0.159943 (Simulation time: 0 hr 53 min 55 sec) 
Heartbeat CPU 0 instructions: 342000003 cycles: 2132241201 heartbeat IPC: 0.165684 cumulative IPC: 0.15996 (Simulation time: 0 hr 54 min 5 sec) 
Heartbeat CPU 0 instructions: 343000002 cycles: 2138134271 heartbeat IPC: 0.169691 cumulative IPC: 0.159986 (Simulation time: 0 hr 54 min 15 sec) 
Heartbeat CPU 0 instructions: 344000002 cycles: 2144261244 heartbeat IPC: 0.163213 cumulative IPC: 0.159996 (Simulation time: 0 hr 54 min 25 sec) 
Heartbeat CPU 0 instructions: 345000000 cycles: 2150295850 heartbeat IPC: 0.165711 cumulative IPC: 0.160012 (Simulation time: 0 hr 54 min 36 sec) 
Heartbeat CPU 0 instructions: 346000000 cycles: 2156356794 heartbeat IPC: 0.164991 cumulative IPC: 0.160026 (Simulation time: 0 hr 54 min 46 sec) 
Heartbeat CPU 0 instructions: 347000003 cycles: 2162269830 heartbeat IPC: 0.169118 cumulative IPC: 0.160051 (Simulation time: 0 hr 54 min 56 sec) 
Heartbeat CPU 0 instructions: 348000002 cycles: 2168149369 heartbeat IPC: 0.170081 cumulative IPC: 0.160078 (Simulation time: 0 hr 55 min 6 sec) 
Heartbeat CPU 0 instructions: 349000001 cycles: 2174028887 heartbeat IPC: 0.170082 cumulative IPC: 0.160105 (Simulation time: 0 hr 55 min 16 sec) 
Heartbeat CPU 0 instructions: 350000001 cycles: 2180159922 heartbeat IPC: 0.163105 cumulative IPC: 0.160113 (Simulation time: 0 hr 55 min 26 sec) 
Heartbeat CPU 0 instructions: 351000002 cycles: 2186395367 heartbeat IPC: 0.160374 cumulative IPC: 0.160114 (Simulation time: 0 hr 55 min 36 sec) 
Heartbeat CPU 0 instructions: 352000000 cycles: 2192473111 heartbeat IPC: 0.164534 cumulative IPC: 0.160126 (Simulation time: 0 hr 55 min 47 sec) 
Heartbeat CPU 0 instructions: 353000000 cycles: 2198517250 heartbeat IPC: 0.16545 cumulative IPC: 0.160141 (Simulation time: 0 hr 55 min 57 sec) 
Heartbeat CPU 0 instructions: 354000002 cycles: 2204679349 heartbeat IPC: 0.162283 cumulative IPC: 0.160147 (Simulation time: 0 hr 56 min 7 sec) 
Heartbeat CPU 0 instructions: 355000001 cycles: 2210576455 heartbeat IPC: 0.169575 cumulative IPC: 0.160172 (Simulation time: 0 hr 56 min 17 sec) 
Heartbeat CPU 0 instructions: 356000000 cycles: 2216306071 heartbeat IPC: 0.174532 cumulative IPC: 0.160209 (Simulation time: 0 hr 56 min 27 sec) 
Heartbeat CPU 0 instructions: 357000002 cycles: 2222262134 heartbeat IPC: 0.167896 cumulative IPC: 0.16023 (Simulation time: 0 hr 56 min 37 sec) 
Heartbeat CPU 0 instructions: 358000001 cycles: 2228150564 heartbeat IPC: 0.169824 cumulative IPC: 0.160255 (Simulation time: 0 hr 56 min 47 sec) 
Heartbeat CPU 0 instructions: 359000001 cycles: 2233968644 heartbeat IPC: 0.171878 cumulative IPC: 0.160285 (Simulation time: 0 hr 56 min 57 sec) 
Heartbeat CPU 0 instructions: 360000001 cycles: 2239626831 heartbeat IPC: 0.176735 cumulative IPC: 0.160327 (Simulation time: 0 hr 57 min 7 sec) 
Heartbeat CPU 0 instructions: 361000000 cycles: 2245325332 heartbeat IPC: 0.175485 cumulative IPC: 0.160365 (Simulation time: 0 hr 57 min 17 sec) 
Heartbeat CPU 0 instructions: 362000002 cycles: 2251117170 heartbeat IPC: 0.172657 cumulative IPC: 0.160397 (Simulation time: 0 hr 57 min 28 sec) 
Heartbeat CPU 0 instructions: 363000000 cycles: 2256931012 heartbeat IPC: 0.172003 cumulative IPC: 0.160427 (Simulation time: 0 hr 57 min 38 sec) 
Heartbeat CPU 0 instructions: 364000001 cycles: 2262765211 heartbeat IPC: 0.171403 cumulative IPC: 0.160455 (Simulation time: 0 hr 57 min 49 sec) 
Heartbeat CPU 0 instructions: 365000001 cycles: 2268528207 heartbeat IPC: 0.173521 cumulative IPC: 0.160489 (Simulation time: 0 hr 57 min 59 sec) 
Heartbeat CPU 0 instructions: 366000001 cycles: 2274259012 heartbeat IPC: 0.174496 cumulative IPC: 0.160524 (Simulation time: 0 hr 58 min 9 sec) 
Heartbeat CPU 0 instructions: 367000000 cycles: 2279950925 heartbeat IPC: 0.175688 cumulative IPC: 0.160562 (Simulation time: 0 hr 58 min 19 sec) 
Heartbeat CPU 0 instructions: 368000000 cycles: 2286176293 heartbeat IPC: 0.160633 cumulative IPC: 0.160562 (Simulation time: 0 hr 58 min 30 sec) 
Heartbeat CPU 0 instructions: 369000000 cycles: 2292433819 heartbeat IPC: 0.159808 cumulative IPC: 0.16056 (Simulation time: 0 hr 58 min 41 sec) 
Heartbeat CPU 0 instructions: 370000002 cycles: 2298542987 heartbeat IPC: 0.163689 cumulative IPC: 0.160568 (Simulation time: 0 hr 58 min 51 sec) 
Heartbeat CPU 0 instructions: 371000000 cycles: 2304301126 heartbeat IPC: 0.173667 cumulative IPC: 0.160601 (Simulation time: 0 hr 59 min 2 sec) 
Heartbeat CPU 0 instructions: 372000000 cycles: 2311161235 heartbeat IPC: 0.14577 cumulative IPC: 0.160557 (Simulation time: 0 hr 59 min 13 sec) 
Heartbeat CPU 0 instructions: 373000001 cycles: 2317222246 heartbeat IPC: 0.164989 cumulative IPC: 0.160568 (Simulation time: 0 hr 59 min 23 sec) 
Heartbeat CPU 0 instructions: 374000000 cycles: 2322927391 heartbeat IPC: 0.17528 cumulative IPC: 0.160605 (Simulation time: 0 hr 59 min 33 sec) 
Heartbeat CPU 0 instructions: 375000000 cycles: 2329026509 heartbeat IPC: 0.163958 cumulative IPC: 0.160613 (Simulation time: 0 hr 59 min 43 sec) 
Heartbeat CPU 0 instructions: 376000001 cycles: 2335130032 heartbeat IPC: 0.16384 cumulative IPC: 0.160622 (Simulation time: 0 hr 59 min 54 sec) 
Heartbeat CPU 0 instructions: 377000002 cycles: 2344203636 heartbeat IPC: 0.11021 cumulative IPC: 0.160427 (Simulation time: 1 hr 0 min 6 sec) 
Heartbeat CPU 0 instructions: 378000002 cycles: 2350299379 heartbeat IPC: 0.164049 cumulative IPC: 0.160436 (Simulation time: 1 hr 0 min 17 sec) 
Heartbeat CPU 0 instructions: 379000000 cycles: 2356059256 heartbeat IPC: 0.173614 cumulative IPC: 0.160468 (Simulation time: 1 hr 0 min 27 sec) 
Heartbeat CPU 0 instructions: 380000000 cycles: 2361860000 heartbeat IPC: 0.172392 cumulative IPC: 0.160498 (Simulation time: 1 hr 0 min 37 sec) 
Heartbeat CPU 0 instructions: 381000001 cycles: 2367644720 heartbeat IPC: 0.172869 cumulative IPC: 0.160528 (Simulation time: 1 hr 0 min 47 sec) 
Heartbeat CPU 0 instructions: 382000001 cycles: 2373430005 heartbeat IPC: 0.172852 cumulative IPC: 0.160558 (Simulation time: 1 hr 0 min 57 sec) 
Heartbeat CPU 0 instructions: 383000001 cycles: 2379472905 heartbeat IPC: 0.165483 cumulative IPC: 0.16057 (Simulation time: 1 hr 1 min 8 sec) 
Heartbeat CPU 0 instructions: 384000003 cycles: 2386345100 heartbeat IPC: 0.145514 cumulative IPC: 0.160527 (Simulation time: 1 hr 1 min 18 sec) 
Heartbeat CPU 0 instructions: 385000000 cycles: 2392439023 heartbeat IPC: 0.164097 cumulative IPC: 0.160536 (Simulation time: 1 hr 1 min 28 sec) 
Heartbeat CPU 0 instructions: 386000000 cycles: 2398732189 heartbeat IPC: 0.158903 cumulative IPC: 0.160532 (Simulation time: 1 hr 1 min 38 sec) 
Heartbeat CPU 0 instructions: 387000003 cycles: 2404839080 heartbeat IPC: 0.16375 cumulative IPC: 0.16054 (Simulation time: 1 hr 1 min 47 sec) 
Heartbeat CPU 0 instructions: 388000002 cycles: 2410666717 heartbeat IPC: 0.171596 cumulative IPC: 0.160567 (Simulation time: 1 hr 1 min 57 sec) 
Heartbeat CPU 0 instructions: 389000002 cycles: 2416635688 heartbeat IPC: 0.167533 cumulative IPC: 0.160584 (Simulation time: 1 hr 2 min 7 sec) 
Heartbeat CPU 0 instructions: 390000002 cycles: 2422987405 heartbeat IPC: 0.157438 cumulative IPC: 0.160576 (Simulation time: 1 hr 2 min 17 sec) 
Heartbeat CPU 0 instructions: 391000001 cycles: 2428267262 heartbeat IPC: 0.189399 cumulative IPC: 0.160638 (Simulation time: 1 hr 2 min 27 sec) 
Heartbeat CPU 0 instructions: 392000000 cycles: 2433824023 heartbeat IPC: 0.179961 cumulative IPC: 0.160682 (Simulation time: 1 hr 2 min 37 sec) 
Heartbeat CPU 0 instructions: 393000001 cycles: 2439008440 heartbeat IPC: 0.192886 cumulative IPC: 0.160751 (Simulation time: 1 hr 2 min 46 sec) 
Heartbeat CPU 0 instructions: 394000001 cycles: 2444443189 heartbeat IPC: 0.184001 cumulative IPC: 0.160803 (Simulation time: 1 hr 2 min 55 sec) 
Heartbeat CPU 0 instructions: 395000000 cycles: 2450272155 heartbeat IPC: 0.171557 cumulative IPC: 0.160828 (Simulation time: 1 hr 3 min 5 sec) 
Heartbeat CPU 0 instructions: 396000000 cycles: 2455667976 heartbeat IPC: 0.185329 cumulative IPC: 0.160882 (Simulation time: 1 hr 3 min 15 sec) 
Heartbeat CPU 0 instructions: 397000000 cycles: 2461463914 heartbeat IPC: 0.172535 cumulative IPC: 0.160909 (Simulation time: 1 hr 3 min 25 sec) 
Heartbeat CPU 0 instructions: 398000000 cycles: 2467224241 heartbeat IPC: 0.173601 cumulative IPC: 0.160939 (Simulation time: 1 hr 3 min 35 sec) 
Heartbeat CPU 0 instructions: 399000000 cycles: 2472659133 heartbeat IPC: 0.183996 cumulative IPC: 0.16099 (Simulation time: 1 hr 3 min 45 sec) 
Heartbeat CPU 0 instructions: 400000001 cycles: 2478214822 heartbeat IPC: 0.179996 cumulative IPC: 0.161032 (Simulation time: 1 hr 3 min 55 sec) 
Heartbeat CPU 0 instructions: 401000002 cycles: 2483875161 heartbeat IPC: 0.176668 cumulative IPC: 0.161068 (Simulation time: 1 hr 4 min 5 sec) 
Heartbeat CPU 0 instructions: 402000001 cycles: 2489843778 heartbeat IPC: 0.167543 cumulative IPC: 0.161084 (Simulation time: 1 hr 4 min 15 sec) 
Heartbeat CPU 0 instructions: 403000001 cycles: 2495612153 heartbeat IPC: 0.173359 cumulative IPC: 0.161112 (Simulation time: 1 hr 4 min 25 sec) 
Heartbeat CPU 0 instructions: 404000002 cycles: 2501553867 heartbeat IPC: 0.168302 cumulative IPC: 0.161129 (Simulation time: 1 hr 4 min 35 sec) 
Heartbeat CPU 0 instructions: 405000000 cycles: 2507277122 heartbeat IPC: 0.174725 cumulative IPC: 0.16116 (Simulation time: 1 hr 4 min 45 sec) 
Heartbeat CPU 0 instructions: 406000001 cycles: 2513099203 heartbeat IPC: 0.17176 cumulative IPC: 0.161185 (Simulation time: 1 hr 4 min 55 sec) 
Heartbeat CPU 0 instructions: 407000000 cycles: 2518981080 heartbeat IPC: 0.170014 cumulative IPC: 0.161205 (Simulation time: 1 hr 5 min 5 sec) 
Heartbeat CPU 0 instructions: 408000000 cycles: 2524790294 heartbeat IPC: 0.17214 cumulative IPC: 0.16123 (Simulation time: 1 hr 5 min 16 sec) 
Heartbeat CPU 0 instructions: 409000001 cycles: 2530764240 heartbeat IPC: 0.167394 cumulative IPC: 0.161245 (Simulation time: 1 hr 5 min 26 sec) 
Heartbeat CPU 0 instructions: 410000003 cycles: 2536439859 heartbeat IPC: 0.176193 cumulative IPC: 0.161278 (Simulation time: 1 hr 5 min 36 sec) 
Heartbeat CPU 0 instructions: 411000002 cycles: 2542053334 heartbeat IPC: 0.178143 cumulative IPC: 0.161316 (Simulation time: 1 hr 5 min 46 sec) 
Heartbeat CPU 0 instructions: 412000000 cycles: 2547811720 heartbeat IPC: 0.173659 cumulative IPC: 0.161344 (Simulation time: 1 hr 5 min 56 sec) 
Heartbeat CPU 0 instructions: 413000000 cycles: 2553382089 heartbeat IPC: 0.179521 cumulative IPC: 0.161383 (Simulation time: 1 hr 6 min 5 sec) 
Heartbeat CPU 0 instructions: 414000000 cycles: 2558991853 heartbeat IPC: 0.178261 cumulative IPC: 0.16142 (Simulation time: 1 hr 6 min 15 sec) 
Heartbeat CPU 0 instructions: 415000003 cycles: 2564901272 heartbeat IPC: 0.169222 cumulative IPC: 0.161438 (Simulation time: 1 hr 6 min 25 sec) 
Heartbeat CPU 0 instructions: 416000000 cycles: 2570541302 heartbeat IPC: 0.177303 cumulative IPC: 0.161473 (Simulation time: 1 hr 6 min 35 sec) 
Heartbeat CPU 0 instructions: 417000000 cycles: 2576142706 heartbeat IPC: 0.178527 cumulative IPC: 0.16151 (Simulation time: 1 hr 6 min 45 sec) 
Heartbeat CPU 0 instructions: 418000000 cycles: 2581756354 heartbeat IPC: 0.178137 cumulative IPC: 0.161546 (Simulation time: 1 hr 6 min 55 sec) 
Heartbeat CPU 0 instructions: 419000001 cycles: 2587476581 heartbeat IPC: 0.174818 cumulative IPC: 0.161576 (Simulation time: 1 hr 7 min 5 sec) 
Heartbeat CPU 0 instructions: 420000002 cycles: 2593489581 heartbeat IPC: 0.166306 cumulative IPC: 0.161587 (Simulation time: 1 hr 7 min 15 sec) 
Heartbeat CPU 0 instructions: 421000002 cycles: 2599784096 heartbeat IPC: 0.158868 cumulative IPC: 0.16158 (Simulation time: 1 hr 7 min 25 sec) 
Heartbeat CPU 0 instructions: 422000001 cycles: 2605994603 heartbeat IPC: 0.161017 cumulative IPC: 0.161579 (Simulation time: 1 hr 7 min 35 sec) 
Heartbeat CPU 0 instructions: 423000002 cycles: 2611578690 heartbeat IPC: 0.17908 cumulative IPC: 0.161616 (Simulation time: 1 hr 7 min 45 sec) 
Heartbeat CPU 0 instructions: 424000000 cycles: 2617118344 heartbeat IPC: 0.180516 cumulative IPC: 0.161656 (Simulation time: 1 hr 7 min 55 sec) 
Heartbeat CPU 0 instructions: 425000000 cycles: 2622566570 heartbeat IPC: 0.183546 cumulative IPC: 0.161702 (Simulation time: 1 hr 8 min 4 sec) 
Heartbeat CPU 0 instructions: 426000001 cycles: 2628501694 heartbeat IPC: 0.168489 cumulative IPC: 0.161717 (Simulation time: 1 hr 8 min 14 sec) 
Heartbeat CPU 0 instructions: 427000001 cycles: 2634392455 heartbeat IPC: 0.169757 cumulative IPC: 0.161735 (Simulation time: 1 hr 8 min 24 sec) 
Heartbeat CPU 0 instructions: 428000002 cycles: 2639714209 heartbeat IPC: 0.187908 cumulative IPC: 0.161788 (Simulation time: 1 hr 8 min 33 sec) 
Heartbeat CPU 0 instructions: 429000000 cycles: 2645016284 heartbeat IPC: 0.188605 cumulative IPC: 0.161841 (Simulation time: 1 hr 8 min 43 sec) 
Heartbeat CPU 0 instructions: 430000001 cycles: 2650346940 heartbeat IPC: 0.187594 cumulative IPC: 0.161893 (Simulation time: 1 hr 8 min 52 sec) 
Heartbeat CPU 0 instructions: 431000003 cycles: 2655670762 heartbeat IPC: 0.187835 cumulative IPC: 0.161945 (Simulation time: 1 hr 9 min 1 sec) 
Heartbeat CPU 0 instructions: 432000001 cycles: 2662219497 heartbeat IPC: 0.152701 cumulative IPC: 0.161923 (Simulation time: 1 hr 9 min 11 sec) 
Heartbeat CPU 0 instructions: 433000000 cycles: 2668874678 heartbeat IPC: 0.150259 cumulative IPC: 0.161893 (Simulation time: 1 hr 9 min 22 sec) 
Heartbeat CPU 0 instructions: 434000000 cycles: 2674697203 heartbeat IPC: 0.171747 cumulative IPC: 0.161915 (Simulation time: 1 hr 9 min 32 sec) 
Heartbeat CPU 0 instructions: 435000002 cycles: 2680147564 heartbeat IPC: 0.183474 cumulative IPC: 0.161959 (Simulation time: 1 hr 9 min 42 sec) 
Heartbeat CPU 0 instructions: 436000001 cycles: 2685809684 heartbeat IPC: 0.176612 cumulative IPC: 0.16199 (Simulation time: 1 hr 9 min 52 sec) 
Heartbeat CPU 0 instructions: 437000000 cycles: 2691416604 heartbeat IPC: 0.178351 cumulative IPC: 0.162024 (Simulation time: 1 hr 10 min 2 sec) 
Heartbeat CPU 0 instructions: 438000000 cycles: 2700286866 heartbeat IPC: 0.112736 cumulative IPC: 0.161862 (Simulation time: 1 hr 10 min 14 sec) 
Heartbeat CPU 0 instructions: 439000002 cycles: 2706102394 heartbeat IPC: 0.171954 cumulative IPC: 0.161884 (Simulation time: 1 hr 10 min 24 sec) 
Heartbeat CPU 0 instructions: 440000000 cycles: 2711722371 heartbeat IPC: 0.177936 cumulative IPC: 0.161917 (Simulation time: 1 hr 10 min 34 sec) 
Heartbeat CPU 0 instructions: 441000001 cycles: 2717273768 heartbeat IPC: 0.180135 cumulative IPC: 0.161954 (Simulation time: 1 hr 10 min 44 sec) 
Heartbeat CPU 0 instructions: 442000000 cycles: 2722867468 heartbeat IPC: 0.178772 cumulative IPC: 0.161989 (Simulation time: 1 hr 10 min 54 sec) 
Heartbeat CPU 0 instructions: 443000001 cycles: 2728422742 heartbeat IPC: 0.180009 cumulative IPC: 0.162025 (Simulation time: 1 hr 11 min 4 sec) 
Heartbeat CPU 0 instructions: 444000003 cycles: 2733852366 heartbeat IPC: 0.184175 cumulative IPC: 0.162069 (Simulation time: 1 hr 11 min 14 sec) 
Heartbeat CPU 0 instructions: 445000000 cycles: 2739494980 heartbeat IPC: 0.177222 cumulative IPC: 0.1621 (Simulation time: 1 hr 11 min 24 sec) 
Heartbeat CPU 0 instructions: 446000001 cycles: 2747114469 heartbeat IPC: 0.131243 cumulative IPC: 0.162015 (Simulation time: 1 hr 11 min 36 sec) 
Heartbeat CPU 0 instructions: 447000000 cycles: 2752613685 heartbeat IPC: 0.181844 cumulative IPC: 0.162054 (Simulation time: 1 hr 11 min 46 sec) 
Heartbeat CPU 0 instructions: 448000002 cycles: 2758271078 heartbeat IPC: 0.17676 cumulative IPC: 0.162085 (Simulation time: 1 hr 11 min 55 sec) 
Heartbeat CPU 0 instructions: 449000000 cycles: 2765204379 heartbeat IPC: 0.144231 cumulative IPC: 0.16204 (Simulation time: 1 hr 12 min 7 sec) 
Heartbeat CPU 0 instructions: 450000000 cycles: 2771484364 heartbeat IPC: 0.159236 cumulative IPC: 0.162034 (Simulation time: 1 hr 12 min 17 sec) 

Warmup complete CPU 0 instructions: 450000004 cycles: 2771484365 (Simulation time: 1 hr 12 min 17 sec) 

Heartbeat CPU 0 instructions: 451000000 cycles: 2777290093 heartbeat IPC: 0.172244 cumulative IPC: 0.172243 (Simulation time: 1 hr 12 min 28 sec) 
Heartbeat CPU 0 instructions: 452000000 cycles: 2782928882 heartbeat IPC: 0.177343 cumulative IPC: 0.174756 (Simulation time: 1 hr 12 min 38 sec) 
Heartbeat CPU 0 instructions: 453000001 cycles: 2788383966 heartbeat IPC: 0.183315 cumulative IPC: 0.177519 (Simulation time: 1 hr 12 min 48 sec) 
Heartbeat CPU 0 instructions: 454000000 cycles: 2793958643 heartbeat IPC: 0.179382 cumulative IPC: 0.177981 (Simulation time: 1 hr 12 min 59 sec) 
Heartbeat CPU 0 instructions: 455000003 cycles: 2799500193 heartbeat IPC: 0.180455 cumulative IPC: 0.178471 (Simulation time: 1 hr 13 min 9 sec) 
Heartbeat CPU 0 instructions: 456000001 cycles: 2804909972 heartbeat IPC: 0.18485 cumulative IPC: 0.179503 (Simulation time: 1 hr 13 min 19 sec) 
Heartbeat CPU 0 instructions: 457000000 cycles: 2811130363 heartbeat IPC: 0.160761 cumulative IPC: 0.176562 (Simulation time: 1 hr 13 min 30 sec) 
Heartbeat CPU 0 instructions: 458000000 cycles: 2817160440 heartbeat IPC: 0.165835 cumulative IPC: 0.175146 (Simulation time: 1 hr 13 min 41 sec) 
Heartbeat CPU 0 instructions: 459000001 cycles: 2823094980 heartbeat IPC: 0.168505 cumulative IPC: 0.174383 (Simulation time: 1 hr 13 min 52 sec) 
Heartbeat CPU 0 instructions: 460000001 cycles: 2829094624 heartbeat IPC: 0.166677 cumulative IPC: 0.17358 (Simulation time: 1 hr 14 min 3 sec) 
Heartbeat CPU 0 instructions: 461000001 cycles: 2835221343 heartbeat IPC: 0.163219 cumulative IPC: 0.172584 (Simulation time: 1 hr 14 min 14 sec) 
Heartbeat CPU 0 instructions: 462000000 cycles: 2841100435 heartbeat IPC: 0.170094 cumulative IPC: 0.172374 (Simulation time: 1 hr 14 min 25 sec) 
Heartbeat CPU 0 instructions: 463000001 cycles: 2847705140 heartbeat IPC: 0.151407 cumulative IPC: 0.170557 (Simulation time: 1 hr 14 min 36 sec) 
Heartbeat CPU 0 instructions: 464000001 cycles: 2854350041 heartbeat IPC: 0.150491 cumulative IPC: 0.168948 (Simulation time: 1 hr 14 min 47 sec) 
Heartbeat CPU 0 instructions: 465000002 cycles: 2860997629 heartbeat IPC: 0.150431 cumulative IPC: 0.167573 (Simulation time: 1 hr 14 min 59 sec) 
Heartbeat CPU 0 instructions: 466000002 cycles: 2867616633 heartbeat IPC: 0.15108 cumulative IPC: 0.166437 (Simulation time: 1 hr 15 min 10 sec) 
Heartbeat CPU 0 instructions: 467000001 cycles: 2874207346 heartbeat IPC: 0.151728 cumulative IPC: 0.165494 (Simulation time: 1 hr 15 min 21 sec) 
Heartbeat CPU 0 instructions: 468000002 cycles: 2880780878 heartbeat IPC: 0.152125 cumulative IPC: 0.16469 (Simulation time: 1 hr 15 min 33 sec) 
Heartbeat CPU 0 instructions: 469000002 cycles: 2887356634 heartbeat IPC: 0.152074 cumulative IPC: 0.163974 (Simulation time: 1 hr 15 min 44 sec) 
Heartbeat CPU 0 instructions: 470000000 cycles: 2893121012 heartbeat IPC: 0.173479 cumulative IPC: 0.164424 (Simulation time: 1 hr 15 min 54 sec) 
Heartbeat CPU 0 instructions: 471000002 cycles: 2898828094 heartbeat IPC: 0.175221 cumulative IPC: 0.164908 (Simulation time: 1 hr 16 min 5 sec) 
Heartbeat CPU 0 instructions: 472000000 cycles: 2905252839 heartbeat IPC: 0.155648 cumulative IPC: 0.164463 (Simulation time: 1 hr 16 min 16 sec) 
Heartbeat CPU 0 instructions: 473000000 cycles: 2910681117 heartbeat IPC: 0.18422 cumulative IPC: 0.165234 (Simulation time: 1 hr 16 min 26 sec) 
Heartbeat CPU 0 instructions: 474000001 cycles: 2916257080 heartbeat IPC: 0.179341 cumulative IPC: 0.165777 (Simulation time: 1 hr 16 min 36 sec) 
Heartbeat CPU 0 instructions: 475000000 cycles: 2921725795 heartbeat IPC: 0.182858 cumulative IPC: 0.166399 (Simulation time: 1 hr 16 min 47 sec) 
Heartbeat CPU 0 instructions: 476000003 cycles: 2927168336 heartbeat IPC: 0.183738 cumulative IPC: 0.167005 (Simulation time: 1 hr 16 min 57 sec) 
Heartbeat CPU 0 instructions: 477000001 cycles: 2932815277 heartbeat IPC: 0.177087 cumulative IPC: 0.167358 (Simulation time: 1 hr 17 min 7 sec) 
Heartbeat CPU 0 instructions: 478000000 cycles: 2938454686 heartbeat IPC: 0.177323 cumulative IPC: 0.167694 (Simulation time: 1 hr 17 min 17 sec) 
Heartbeat CPU 0 instructions: 479000000 cycles: 2944138229 heartbeat IPC: 0.175947 cumulative IPC: 0.167966 (Simulation time: 1 hr 17 min 28 sec) 
Heartbeat CPU 0 instructions: 480000001 cycles: 2949862184 heartbeat IPC: 0.174705 cumulative IPC: 0.168182 (Simulation time: 1 hr 17 min 38 sec) 
Heartbeat CPU 0 instructions: 481000000 cycles: 2955258241 heartbeat IPC: 0.18532 cumulative IPC: 0.168686 (Simulation time: 1 hr 17 min 48 sec) 
Heartbeat CPU 0 instructions: 482000001 cycles: 2960794289 heartbeat IPC: 0.180634 cumulative IPC: 0.169035 (Simulation time: 1 hr 17 min 59 sec) 
Heartbeat CPU 0 instructions: 483000001 cycles: 2966337620 heartbeat IPC: 0.180397 cumulative IPC: 0.169358 (Simulation time: 1 hr 18 min 9 sec) 
Heartbeat CPU 0 instructions: 484000000 cycles: 2972035351 heartbeat IPC: 0.175508 cumulative IPC: 0.169533 (Simulation time: 1 hr 18 min 19 sec) 
Heartbeat CPU 0 instructions: 485000002 cycles: 2977771038 heartbeat IPC: 0.174347 cumulative IPC: 0.169667 (Simulation time: 1 hr 18 min 30 sec) 
Heartbeat CPU 0 instructions: 486000002 cycles: 2983137241 heartbeat IPC: 0.186352 cumulative IPC: 0.17009 (Simulation time: 1 hr 18 min 40 sec) 
Heartbeat CPU 0 instructions: 487000000 cycles: 2988598290 heartbeat IPC: 0.183115 cumulative IPC: 0.170417 (Simulation time: 1 hr 18 min 50 sec) 
Heartbeat CPU 0 instructions: 488000000 cycles: 2994156158 heartbeat IPC: 0.179925 cumulative IPC: 0.170655 (Simulation time: 1 hr 19 min 1 sec) 
Heartbeat CPU 0 instructions: 489000002 cycles: 2999701853 heartbeat IPC: 0.18032 cumulative IPC: 0.17089 (Simulation time: 1 hr 19 min 11 sec) 
Heartbeat CPU 0 instructions: 490000000 cycles: 3005122112 heartbeat IPC: 0.184493 cumulative IPC: 0.171205 (Simulation time: 1 hr 19 min 21 sec) 
Heartbeat CPU 0 instructions: 491000002 cycles: 3010694513 heartbeat IPC: 0.179456 cumulative IPC: 0.171397 (Simulation time: 1 hr 19 min 32 sec) 
Heartbeat CPU 0 instructions: 492000000 cycles: 3016072152 heartbeat IPC: 0.185955 cumulative IPC: 0.171717 (Simulation time: 1 hr 19 min 42 sec) 
Heartbeat CPU 0 instructions: 493000001 cycles: 3022991252 heartbeat IPC: 0.144528 cumulative IPC: 0.170969 (Simulation time: 1 hr 19 min 54 sec) 
Heartbeat CPU 0 instructions: 494000003 cycles: 3028554477 heartbeat IPC: 0.179752 cumulative IPC: 0.17116 (Simulation time: 1 hr 20 min 4 sec) 
Heartbeat CPU 0 instructions: 495000000 cycles: 3034162323 heartbeat IPC: 0.178321 cumulative IPC: 0.171312 (Simulation time: 1 hr 20 min 14 sec) 
Heartbeat CPU 0 instructions: 496000000 cycles: 3039706003 heartbeat IPC: 0.180386 cumulative IPC: 0.1715 (Simulation time: 1 hr 20 min 25 sec) 
Heartbeat CPU 0 instructions: 497000000 cycles: 3045349780 heartbeat IPC: 0.177186 cumulative IPC: 0.171617 (Simulation time: 1 hr 20 min 35 sec) 
Heartbeat CPU 0 instructions: 498000000 cycles: 3050883023 heartbeat IPC: 0.180726 cumulative IPC: 0.171798 (Simulation time: 1 hr 20 min 46 sec) 
Heartbeat CPU 0 instructions: 499000002 cycles: 3056351626 heartbeat IPC: 0.182862 cumulative IPC: 0.17201 (Simulation time: 1 hr 20 min 56 sec) 
Heartbeat CPU 0 instructions: 500000001 cycles: 3061657000 heartbeat IPC: 0.188488 cumulative IPC: 0.172311 (Simulation time: 1 hr 21 min 6 sec) 
Heartbeat CPU 0 instructions: 501000002 cycles: 3068142951 heartbeat IPC: 0.15418 cumulative IPC: 0.171915 (Simulation time: 1 hr 21 min 18 sec) 
Heartbeat CPU 0 instructions: 502000001 cycles: 3073923418 heartbeat IPC: 0.172996 cumulative IPC: 0.171935 (Simulation time: 1 hr 21 min 28 sec) 
Heartbeat CPU 0 instructions: 503000001 cycles: 3080242949 heartbeat IPC: 0.15824 cumulative IPC: 0.171655 (Simulation time: 1 hr 21 min 39 sec) 
Heartbeat CPU 0 instructions: 504000000 cycles: 3086105604 heartbeat IPC: 0.170571 cumulative IPC: 0.171635 (Simulation time: 1 hr 21 min 50 sec) 
Heartbeat CPU 0 instructions: 505000002 cycles: 3092112182 heartbeat IPC: 0.166484 cumulative IPC: 0.171538 (Simulation time: 1 hr 22 min 0 sec) 
Heartbeat CPU 0 instructions: 506000000 cycles: 3098536684 heartbeat IPC: 0.155654 cumulative IPC: 0.171226 (Simulation time: 1 hr 22 min 12 sec) 
Heartbeat CPU 0 instructions: 507000001 cycles: 3104611712 heartbeat IPC: 0.164608 cumulative IPC: 0.171106 (Simulation time: 1 hr 22 min 22 sec) 
Heartbeat CPU 0 instructions: 508000000 cycles: 3110499036 heartbeat IPC: 0.169856 cumulative IPC: 0.171084 (Simulation time: 1 hr 22 min 33 sec) 
Heartbeat CPU 0 instructions: 509000000 cycles: 3116507871 heartbeat IPC: 0.166422 cumulative IPC: 0.171003 (Simulation time: 1 hr 22 min 44 sec) 
Heartbeat CPU 0 instructions: 510000000 cycles: 3122522316 heartbeat IPC: 0.166266 cumulative IPC: 0.170922 (Simulation time: 1 hr 22 min 54 sec) 
Heartbeat CPU 0 instructions: 511000003 cycles: 3128507911 heartbeat IPC: 0.167068 cumulative IPC: 0.170857 (Simulation time: 1 hr 23 min 5 sec) 
Heartbeat CPU 0 instructions: 512000000 cycles: 3134182343 heartbeat IPC: 0.176229 cumulative IPC: 0.170941 (Simulation time: 1 hr 23 min 15 sec) 
Heartbeat CPU 0 instructions: 513000000 cycles: 3140087401 heartbeat IPC: 0.169346 cumulative IPC: 0.170916 (Simulation time: 1 hr 23 min 25 sec) 
Heartbeat CPU 0 instructions: 514000001 cycles: 3145997204 heartbeat IPC: 0.169211 cumulative IPC: 0.170889 (Simulation time: 1 hr 23 min 36 sec) 
Heartbeat CPU 0 instructions: 515000002 cycles: 3151906482 heartbeat IPC: 0.169226 cumulative IPC: 0.170863 (Simulation time: 1 hr 23 min 46 sec) 
Heartbeat CPU 0 instructions: 516000001 cycles: 3158083910 heartbeat IPC: 0.16188 cumulative IPC: 0.170719 (Simulation time: 1 hr 23 min 57 sec) 
Heartbeat CPU 0 instructions: 517000000 cycles: 3163915856 heartbeat IPC: 0.171469 cumulative IPC: 0.17073 (Simulation time: 1 hr 24 min 7 sec) 
Heartbeat CPU 0 instructions: 518000002 cycles: 3169690436 heartbeat IPC: 0.173173 cumulative IPC: 0.170766 (Simulation time: 1 hr 24 min 17 sec) 
Heartbeat CPU 0 instructions: 519000000 cycles: 3175955297 heartbeat IPC: 0.15962 cumulative IPC: 0.170593 (Simulation time: 1 hr 24 min 28 sec) 
Heartbeat CPU 0 instructions: 520000000 cycles: 3182047769 heartbeat IPC: 0.164137 cumulative IPC: 0.170497 (Simulation time: 1 hr 24 min 39 sec) 
Heartbeat CPU 0 instructions: 521000000 cycles: 3187937486 heartbeat IPC: 0.169787 cumulative IPC: 0.170487 (Simulation time: 1 hr 24 min 49 sec) 
Heartbeat CPU 0 instructions: 522000000 cycles: 3194007752 heartbeat IPC: 0.164737 cumulative IPC: 0.170405 (Simulation time: 1 hr 25 min 0 sec) 
Heartbeat CPU 0 instructions: 523000000 cycles: 3200342327 heartbeat IPC: 0.157864 cumulative IPC: 0.17022 (Simulation time: 1 hr 25 min 11 sec) 
Heartbeat CPU 0 instructions: 524000001 cycles: 3206348247 heartbeat IPC: 0.166503 cumulative IPC: 0.170168 (Simulation time: 1 hr 25 min 22 sec) 
Heartbeat CPU 0 instructions: 525000000 cycles: 3212306753 heartbeat IPC: 0.167827 cumulative IPC: 0.170137 (Simulation time: 1 hr 25 min 33 sec) 
Heartbeat CPU 0 instructions: 526000000 cycles: 3217769390 heartbeat IPC: 0.183062 cumulative IPC: 0.170295 (Simulation time: 1 hr 25 min 43 sec) 
Heartbeat CPU 0 instructions: 527000001 cycles: 3223012785 heartbeat IPC: 0.190716 cumulative IPC: 0.170532 (Simulation time: 1 hr 25 min 53 sec) 
Heartbeat CPU 0 instructions: 528000000 cycles: 3228485475 heartbeat IPC: 0.182725 cumulative IPC: 0.170678 (Simulation time: 1 hr 26 min 4 sec) 
Heartbeat CPU 0 instructions: 529000000 cycles: 3234441910 heartbeat IPC: 0.167886 cumulative IPC: 0.170642 (Simulation time: 1 hr 26 min 15 sec) 
Heartbeat CPU 0 instructions: 530000001 cycles: 3241575834 heartbeat IPC: 0.140175 cumulative IPC: 0.17018 (Simulation time: 1 hr 26 min 26 sec) 
Heartbeat CPU 0 instructions: 531000002 cycles: 3247000152 heartbeat IPC: 0.184355 cumulative IPC: 0.170341 (Simulation time: 1 hr 26 min 37 sec) 
Heartbeat CPU 0 instructions: 532000000 cycles: 3251994677 heartbeat IPC: 0.200219 cumulative IPC: 0.170652 (Simulation time: 1 hr 26 min 47 sec) 
Heartbeat CPU 0 instructions: 533000002 cycles: 3257152702 heartbeat IPC: 0.193873 cumulative IPC: 0.170899 (Simulation time: 1 hr 26 min 57 sec) 
Heartbeat CPU 0 instructions: 534000001 cycles: 3262741453 heartbeat IPC: 0.178931 cumulative IPC: 0.17099 (Simulation time: 1 hr 27 min 7 sec) 
Heartbeat CPU 0 instructions: 535000001 cycles: 3268165128 heartbeat IPC: 0.184377 cumulative IPC: 0.171136 (Simulation time: 1 hr 27 min 17 sec) 
Heartbeat CPU 0 instructions: 536000000 cycles: 3273592778 heartbeat IPC: 0.184242 cumulative IPC: 0.171278 (Simulation time: 1 hr 27 min 28 sec) 
Heartbeat CPU 0 instructions: 537000002 cycles: 3279252924 heartbeat IPC: 0.176674 cumulative IPC: 0.171338 (Simulation time: 1 hr 27 min 38 sec) 
Heartbeat CPU 0 instructions: 538000003 cycles: 3284445011 heartbeat IPC: 0.192601 cumulative IPC: 0.171553 (Simulation time: 1 hr 27 min 48 sec) 
Heartbeat CPU 0 instructions: 539000000 cycles: 3289604290 heartbeat IPC: 0.193825 cumulative IPC: 0.171775 (Simulation time: 1 hr 27 min 59 sec) 
Heartbeat CPU 0 instructions: 540000000 cycles: 3294849254 heartbeat IPC: 0.190659 cumulative IPC: 0.171964 (Simulation time: 1 hr 28 min 9 sec) 
Heartbeat CPU 0 instructions: 541000001 cycles: 3300139782 heartbeat IPC: 0.189017 cumulative IPC: 0.172135 (Simulation time: 1 hr 28 min 19 sec) 
Heartbeat CPU 0 instructions: 542000002 cycles: 3305606169 heartbeat IPC: 0.182936 cumulative IPC: 0.172245 (Simulation time: 1 hr 28 min 29 sec) 
Heartbeat CPU 0 instructions: 543000002 cycles: 3310798464 heartbeat IPC: 0.192593 cumulative IPC: 0.172441 (Simulation time: 1 hr 28 min 39 sec) 
Heartbeat CPU 0 instructions: 544000002 cycles: 3316425020 heartbeat IPC: 0.177729 cumulative IPC: 0.172496 (Simulation time: 1 hr 28 min 50 sec) 
[...]
Heartbeat CPU 0 instructions: 835000000 cycles: 4853235985 heartbeat IPC: 0.206052 cumulative IPC: 0.18494 (Simulation time: 2 hr 16 min 26 sec) 
Heartbeat CPU 0 instructions: 836000000 cycles: 4858479254 heartbeat IPC: 0.190721 cumulative IPC: 0.184955 (Simulation time: 2 hr 16 min 37 sec) 
Heartbeat CPU 0 instructions: 837000002 cycles: 4863427768 heartbeat IPC: 0.202081 cumulative IPC: 0.184995 (Simulation time: 2 hr 16 min 47 sec) 
Heartbeat CPU 0 instructions: 838000002 cycles: 4868400506 heartbeat IPC: 0.201096 cumulative IPC: 0.185034 (Simulation time: 2 hr 16 min 58 sec) 
Heartbeat CPU 0 instructions: 839000001 cycles: 4873423946 heartbeat IPC: 0.199067 cumulative IPC: 0.185067 (Simulation time: 2 hr 17 min 9 sec) 
Heartbeat CPU 0 instructions: 840000000 cycles: 4878325224 heartbeat IPC: 0.204028 cumulative IPC: 0.185111 (Simulation time: 2 hr 17 min 19 sec) 
Heartbeat CPU 0 instructions: 841000002 cycles: 4883186740 heartbeat IPC: 0.205698 cumulative IPC: 0.185159 (Simulation time: 2 hr 17 min 29 sec) 
Heartbeat CPU 0 instructions: 842000000 cycles: 4888237671 heartbeat IPC: 0.197983 cumulative IPC: 0.185189 (Simulation time: 2 hr 17 min 40 sec) 
Heartbeat CPU 0 instructions: 843000000 cycles: 4893285109 heartbeat IPC: 0.19812 cumulative IPC: 0.18522 (Simulation time: 2 hr 17 min 51 sec) 
Heartbeat CPU 0 instructions: 844000000 cycles: 4898396072 heartbeat IPC: 0.195658 cumulative IPC: 0.185245 (Simulation time: 2 hr 18 min 2 sec) 
Heartbeat CPU 0 instructions: 845000001 cycles: 4903300967 heartbeat IPC: 0.203878 cumulative IPC: 0.185288 (Simulation time: 2 hr 18 min 13 sec) 
Heartbeat CPU 0 instructions: 846000003 cycles: 4908198079 heartbeat IPC: 0.204202 cumulative IPC: 0.185331 (Simulation time: 2 hr 18 min 23 sec) 
Heartbeat CPU 0 instructions: 847000000 cycles: 4913323931 heartbeat IPC: 0.195089 cumulative IPC: 0.185355 (Simulation time: 2 hr 18 min 33 sec) 
Heartbeat CPU 0 instructions: 848000000 cycles: 4918132202 heartbeat IPC: 0.207975 cumulative IPC: 0.185405 (Simulation time: 2 hr 18 min 43 sec) 
Heartbeat CPU 0 instructions: 849000001 cycles: 4923414006 heartbeat IPC: 0.189329 cumulative IPC: 0.185415 (Simulation time: 2 hr 18 min 54 sec) 
Heartbeat CPU 0 instructions: 850000000 cycles: 4928644018 heartbeat IPC: 0.191204 cumulative IPC: 0.185429 (Simulation time: 2 hr 19 min 4 sec) 
Heartbeat CPU 0 instructions: 851000002 cycles: 4933687406 heartbeat IPC: 0.19828 cumulative IPC: 0.185459 (Simulation time: 2 hr 19 min 15 sec) 
Heartbeat CPU 0 instructions: 852000000 cycles: 4938798796 heartbeat IPC: 0.195641 cumulative IPC: 0.185483 (Simulation time: 2 hr 19 min 25 sec) 
Heartbeat CPU 0 instructions: 853000003 cycles: 4943953741 heartbeat IPC: 0.193989 cumulative IPC: 0.185503 (Simulation time: 2 hr 19 min 35 sec) 
Heartbeat CPU 0 instructions: 854000001 cycles: 4949758941 heartbeat IPC: 0.172259 cumulative IPC: 0.185468 (Simulation time: 2 hr 19 min 46 sec) 
Heartbeat CPU 0 instructions: 855000000 cycles: 4955013996 heartbeat IPC: 0.190293 cumulative IPC: 0.18548 (Simulation time: 2 hr 19 min 57 sec) 
Heartbeat CPU 0 instructions: 856000000 cycles: 4960421611 heartbeat IPC: 0.184924 cumulative IPC: 0.185478 (Simulation time: 2 hr 20 min 7 sec) 
Heartbeat CPU 0 instructions: 857000003 cycles: 4966318765 heartbeat IPC: 0.169574 cumulative IPC: 0.185435 (Simulation time: 2 hr 20 min 18 sec) 
Heartbeat CPU 0 instructions: 858000000 cycles: 4972015324 heartbeat IPC: 0.175544 cumulative IPC: 0.18541 (Simulation time: 2 hr 20 min 29 sec) 
Heartbeat CPU 0 instructions: 859000000 cycles: 4977272136 heartbeat IPC: 0.190229 cumulative IPC: 0.185421 (Simulation time: 2 hr 20 min 40 sec) 
Heartbeat CPU 0 instructions: 860000000 cycles: 4982456324 heartbeat IPC: 0.192894 cumulative IPC: 0.185439 (Simulation time: 2 hr 20 min 50 sec) 
Heartbeat CPU 0 instructions: 861000001 cycles: 4987703295 heartbeat IPC: 0.190586 cumulative IPC: 0.185451 (Simulation time: 2 hr 21 min 0 sec) 
Heartbeat CPU 0 instructions: 862000000 cycles: 4992833893 heartbeat IPC: 0.194909 cumulative IPC: 0.185473 (Simulation time: 2 hr 21 min 11 sec) 
Heartbeat CPU 0 instructions: 863000001 cycles: 4998052714 heartbeat IPC: 0.191614 cumulative IPC: 0.185487 (Simulation time: 2 hr 21 min 22 sec) 
Heartbeat CPU 0 instructions: 864000000 cycles: 5003566923 heartbeat IPC: 0.181349 cumulative IPC: 0.185477 (Simulation time: 2 hr 21 min 32 sec) 
Heartbeat CPU 0 instructions: 865000001 cycles: 5009161447 heartbeat IPC: 0.178746 cumulative IPC: 0.18546 (Simulation time: 2 hr 21 min 43 sec) 
Heartbeat CPU 0 instructions: 866000000 cycles: 5014311274 heartbeat IPC: 0.194181 cumulative IPC: 0.18548 (Simulation time: 2 hr 21 min 53 sec) 
Heartbeat CPU 0 instructions: 867000001 cycles: 5019266777 heartbeat IPC: 0.201796 cumulative IPC: 0.185516 (Simulation time: 2 hr 22 min 3 sec) 
Heartbeat CPU 0 instructions: 868000001 cycles: 5024268817 heartbeat IPC: 0.199918 cumulative IPC: 0.185548 (Simulation time: 2 hr 22 min 13 sec) 
Heartbeat CPU 0 instructions: 869000000 cycles: 5029290686 heartbeat IPC: 0.199129 cumulative IPC: 0.185578 (Simulation time: 2 hr 22 min 23 sec) 
Heartbeat CPU 0 instructions: 870000001 cycles: 5034500531 heartbeat IPC: 0.191944 cumulative IPC: 0.185593 (Simulation time: 2 hr 22 min 33 sec) 
Heartbeat CPU 0 instructions: 871000003 cycles: 5039810776 heartbeat IPC: 0.188316 cumulative IPC: 0.185599 (Simulation time: 2 hr 22 min 43 sec) 
Heartbeat CPU 0 instructions: 872000000 cycles: 5045012026 heartbeat IPC: 0.192261 cumulative IPC: 0.185615 (Simulation time: 2 hr 22 min 54 sec) 
Heartbeat CPU 0 instructions: 873000001 cycles: 5050025607 heartbeat IPC: 0.199458 cumulative IPC: 0.185645 (Simulation time: 2 hr 23 min 4 sec) 
Heartbeat CPU 0 instructions: 874000001 cycles: 5055216503 heartbeat IPC: 0.192645 cumulative IPC: 0.185661 (Simulation time: 2 hr 23 min 15 sec) 
Heartbeat CPU 0 instructions: 875000003 cycles: 5060749793 heartbeat IPC: 0.180725 cumulative IPC: 0.185649 (Simulation time: 2 hr 23 min 26 sec) 
Heartbeat CPU 0 instructions: 876000000 cycles: 5066065921 heartbeat IPC: 0.188106 cumulative IPC: 0.185655 (Simulation time: 2 hr 23 min 36 sec) 
Heartbeat CPU 0 instructions: 877000000 cycles: 5071068139 heartbeat IPC: 0.199911 cumulative IPC: 0.185686 (Simulation time: 2 hr 23 min 46 sec) 
Heartbeat CPU 0 instructions: 878000002 cycles: 5076328901 heartbeat IPC: 0.190087 cumulative IPC: 0.185696 (Simulation time: 2 hr 23 min 56 sec) 
Heartbeat CPU 0 instructions: 879000002 cycles: 5081681286 heartbeat IPC: 0.186833 cumulative IPC: 0.185698 (Simulation time: 2 hr 24 min 6 sec) 
Heartbeat CPU 0 instructions: 880000000 cycles: 5086929602 heartbeat IPC: 0.190537 cumulative IPC: 0.185709 (Simulation time: 2 hr 24 min 17 sec) 
Heartbeat CPU 0 instructions: 881000002 cycles: 5091992171 heartbeat IPC: 0.197529 cumulative IPC: 0.185735 (Simulation time: 2 hr 24 min 27 sec) 
Heartbeat CPU 0 instructions: 882000002 cycles: 5096815799 heartbeat IPC: 0.207313 cumulative IPC: 0.18578 (Simulation time: 2 hr 24 min 37 sec) 
Heartbeat CPU 0 instructions: 883000002 cycles: 5102231333 heartbeat IPC: 0.184654 cumulative IPC: 0.185777 (Simulation time: 2 hr 24 min 47 sec) 
Heartbeat CPU 0 instructions: 884000002 cycles: 5107484996 heartbeat IPC: 0.190343 cumulative IPC: 0.185788 (Simulation time: 2 hr 24 min 58 sec) 
Heartbeat CPU 0 instructions: 885000000 cycles: 5112825675 heartbeat IPC: 0.187242 cumulative IPC: 0.185791 (Simulation time: 2 hr 25 min 9 sec) 
Heartbeat CPU 0 instructions: 886000001 cycles: 5118340573 heartbeat IPC: 0.181327 cumulative IPC: 0.18578 (Simulation time: 2 hr 25 min 21 sec) 
Heartbeat CPU 0 instructions: 887000000 cycles: 5123943643 heartbeat IPC: 0.178473 cumulative IPC: 0.185763 (Simulation time: 2 hr 25 min 32 sec) 
Heartbeat CPU 0 instructions: 888000001 cycles: 5129408854 heartbeat IPC: 0.182976 cumulative IPC: 0.185757 (Simulation time: 2 hr 25 min 43 sec) 
Heartbeat CPU 0 instructions: 889000001 cycles: 5135165983 heartbeat IPC: 0.173698 cumulative IPC: 0.185727 (Simulation time: 2 hr 25 min 54 sec) 
Heartbeat CPU 0 instructions: 890000000 cycles: 5140438753 heartbeat IPC: 0.189653 cumulative IPC: 0.185736 (Simulation time: 2 hr 26 min 5 sec) 
Heartbeat CPU 0 instructions: 891000000 cycles: 5145419959 heartbeat IPC: 0.200755 cumulative IPC: 0.185767 (Simulation time: 2 hr 26 min 15 sec) 
Heartbeat CPU 0 instructions: 892000003 cycles: 5153319544 heartbeat IPC: 0.126589 cumulative IPC: 0.185571 (Simulation time: 2 hr 26 min 27 sec) 
Heartbeat CPU 0 instructions: 893000002 cycles: 5160977376 heartbeat IPC: 0.130585 cumulative IPC: 0.185395 (Simulation time: 2 hr 26 min 40 sec) 
Heartbeat CPU 0 instructions: 894000001 cycles: 5166147264 heartbeat IPC: 0.193428 cumulative IPC: 0.185412 (Simulation time: 2 hr 26 min 50 sec) 
Heartbeat CPU 0 instructions: 895000001 cycles: 5171055438 heartbeat IPC: 0.203742 cumulative IPC: 0.18545 (Simulation time: 2 hr 27 min 0 sec) 
Heartbeat CPU 0 instructions: 896000000 cycles: 5176020411 heartbeat IPC: 0.201411 cumulative IPC: 0.185483 (Simulation time: 2 hr 27 min 11 sec) 
Heartbeat CPU 0 instructions: 897000000 cycles: 5180965774 heartbeat IPC: 0.20221 cumulative IPC: 0.185517 (Simulation time: 2 hr 27 min 21 sec) 
Heartbeat CPU 0 instructions: 898000001 cycles: 5186057230 heartbeat IPC: 0.196408 cumulative IPC: 0.18554 (Simulation time: 2 hr 27 min 32 sec) 
Heartbeat CPU 0 instructions: 899000002 cycles: 5191402009 heartbeat IPC: 0.187099 cumulative IPC: 0.185544 (Simulation time: 2 hr 27 min 43 sec) 
Heartbeat CPU 0 instructions: 900000002 cycles: 5197171772 heartbeat IPC: 0.173317 cumulative IPC: 0.185514 (Simulation time: 2 hr 27 min 54 sec) 
Heartbeat CPU 0 instructions: 901000000 cycles: 5203067340 heartbeat IPC: 0.169619 cumulative IPC: 0.185476 (Simulation time: 2 hr 28 min 6 sec) 
Heartbeat CPU 0 instructions: 902000000 cycles: 5209826414 heartbeat IPC: 0.147949 cumulative IPC: 0.185372 (Simulation time: 2 hr 28 min 19 sec) 
Heartbeat CPU 0 instructions: 903000001 cycles: 5215194366 heartbeat IPC: 0.186291 cumulative IPC: 0.185374 (Simulation time: 2 hr 28 min 30 sec) 
Heartbeat CPU 0 instructions: 904000001 cycles: 5220648300 heartbeat IPC: 0.183354 cumulative IPC: 0.185369 (Simulation time: 2 hr 28 min 40 sec) 
Heartbeat CPU 0 instructions: 905000001 cycles: 5226270945 heartbeat IPC: 0.177852 cumulative IPC: 0.185352 (Simulation time: 2 hr 28 min 52 sec) 
Heartbeat CPU 0 instructions: 906000000 cycles: 5231723044 heartbeat IPC: 0.183415 cumulative IPC: 0.185348 (Simulation time: 2 hr 29 min 2 sec) 
Heartbeat CPU 0 instructions: 907000001 cycles: 5236930841 heartbeat IPC: 0.19202 cumulative IPC: 0.185362 (Simulation time: 2 hr 29 min 13 sec) 
Heartbeat CPU 0 instructions: 908000000 cycles: 5242279268 heartbeat IPC: 0.186971 cumulative IPC: 0.185365 (Simulation time: 2 hr 29 min 23 sec) 
Heartbeat CPU 0 instructions: 909000000 cycles: 5247741235 heartbeat IPC: 0.183084 cumulative IPC: 0.18536 (Simulation time: 2 hr 29 min 34 sec) 
Heartbeat CPU 0 instructions: 910000000 cycles: 5253008469 heartbeat IPC: 0.189853 cumulative IPC: 0.18537 (Simulation time: 2 hr 29 min 45 sec) 
Heartbeat CPU 0 instructions: 911000002 cycles: 5258420445 heartbeat IPC: 0.184776 cumulative IPC: 0.185369 (Simulation time: 2 hr 29 min 55 sec) 
Heartbeat CPU 0 instructions: 912000000 cycles: 5263411509 heartbeat IPC: 0.200358 cumulative IPC: 0.185399 (Simulation time: 2 hr 30 min 5 sec) 
Heartbeat CPU 0 instructions: 913000000 cycles: 5269046753 heartbeat IPC: 0.177455 cumulative IPC: 0.185381 (Simulation time: 2 hr 30 min 16 sec) 
Heartbeat CPU 0 instructions: 914000000 cycles: 5273948778 heartbeat IPC: 0.203997 cumulative IPC: 0.185417 (Simulation time: 2 hr 30 min 27 sec) 
Heartbeat CPU 0 instructions: 915000000 cycles: 5278770295 heartbeat IPC: 0.207404 cumulative IPC: 0.185459 (Simulation time: 2 hr 30 min 37 sec) 
Heartbeat CPU 0 instructions: 916000003 cycles: 5283737962 heartbeat IPC: 0.201302 cumulative IPC: 0.185491 (Simulation time: 2 hr 30 min 48 sec) 
Heartbeat CPU 0 instructions: 917000003 cycles: 5288699907 heartbeat IPC: 0.201534 cumulative IPC: 0.185522 (Simulation time: 2 hr 31 min 0 sec) 
Heartbeat CPU 0 instructions: 918000001 cycles: 5294268875 heartbeat IPC: 0.179566 cumulative IPC: 0.185509 (Simulation time: 2 hr 31 min 11 sec) 
Heartbeat CPU 0 instructions: 919000002 cycles: 5299735819 heartbeat IPC: 0.182918 cumulative IPC: 0.185504 (Simulation time: 2 hr 31 min 22 sec) 
Heartbeat CPU 0 instructions: 920000001 cycles: 5304582456 heartbeat IPC: 0.206328 cumulative IPC: 0.185544 (Simulation time: 2 hr 31 min 34 sec) 
Heartbeat CPU 0 instructions: 921000000 cycles: 5309598244 heartbeat IPC: 0.19937 cumulative IPC: 0.185571 (Simulation time: 2 hr 31 min 45 sec) 
Heartbeat CPU 0 instructions: 922000002 cycles: 5314762489 heartbeat IPC: 0.19364 cumulative IPC: 0.185587 (Simulation time: 2 hr 31 min 56 sec) 
Heartbeat CPU 0 instructions: 923000000 cycles: 5320404001 heartbeat IPC: 0.177257 cumulative IPC: 0.185569 (Simulation time: 2 hr 32 min 7 sec) 
Heartbeat CPU 0 instructions: 924000000 cycles: 5326243050 heartbeat IPC: 0.171261 cumulative IPC: 0.185536 (Simulation time: 2 hr 32 min 18 sec) 
Heartbeat CPU 0 instructions: 925000002 cycles: 5332094670 heartbeat IPC: 0.170893 cumulative IPC: 0.185503 (Simulation time: 2 hr 32 min 29 sec) 
Heartbeat CPU 0 instructions: 926000000 cycles: 5337819234 heartbeat IPC: 0.174685 cumulative IPC: 0.185479 (Simulation time: 2 hr 32 min 41 sec) 
Heartbeat CPU 0 instructions: 927000000 cycles: 5343294611 heartbeat IPC: 0.182636 cumulative IPC: 0.185472 (Simulation time: 2 hr 32 min 51 sec) 
Heartbeat CPU 0 instructions: 928000000 cycles: 5348504978 heartbeat IPC: 0.191925 cumulative IPC: 0.185486 (Simulation time: 2 hr 33 min 3 sec) 
Heartbeat CPU 0 instructions: 929000002 cycles: 5353524963 heartbeat IPC: 0.199204 cumulative IPC: 0.185512 (Simulation time: 2 hr 33 min 13 sec) 
Heartbeat CPU 0 instructions: 930000000 cycles: 5358627575 heartbeat IPC: 0.195978 cumulative IPC: 0.185533 (Simulation time: 2 hr 33 min 24 sec) 
Heartbeat CPU 0 instructions: 931000000 cycles: 5365537112 heartbeat IPC: 0.144727 cumulative IPC: 0.185424 (Simulation time: 2 hr 33 min 35 sec) 
Heartbeat CPU 0 instructions: 932000002 cycles: 5371437748 heartbeat IPC: 0.169474 cumulative IPC: 0.185388 (Simulation time: 2 hr 33 min 46 sec) 
Heartbeat CPU 0 instructions: 933000002 cycles: 5376915151 heartbeat IPC: 0.182568 cumulative IPC: 0.185382 (Simulation time: 2 hr 33 min 57 sec) 
Heartbeat CPU 0 instructions: 934000001 cycles: 5382036812 heartbeat IPC: 0.195249 cumulative IPC: 0.185401 (Simulation time: 2 hr 34 min 8 sec) 
Heartbeat CPU 0 instructions: 935000000 cycles: 5386928919 heartbeat IPC: 0.204411 cumulative IPC: 0.185437 (Simulation time: 2 hr 34 min 18 sec) 
Heartbeat CPU 0 instructions: 936000000 cycles: 5391702337 heartbeat IPC: 0.209493 cumulative IPC: 0.185481 (Simulation time: 2 hr 34 min 28 sec) 
Heartbeat CPU 0 instructions: 937000001 cycles: 5396575705 heartbeat IPC: 0.205197 cumulative IPC: 0.185517 (Simulation time: 2 hr 34 min 38 sec) 
Heartbeat CPU 0 instructions: 938000002 cycles: 5401478821 heartbeat IPC: 0.203952 cumulative IPC: 0.185552 (Simulation time: 2 hr 34 min 49 sec) 
Heartbeat CPU 0 instructions: 939000000 cycles: 5406447065 heartbeat IPC: 0.201278 cumulative IPC: 0.185581 (Simulation time: 2 hr 34 min 59 sec) 
Heartbeat CPU 0 instructions: 940000002 cycles: 5411601308 heartbeat IPC: 0.194015 cumulative IPC: 0.185598 (Simulation time: 2 hr 35 min 9 sec) 
Heartbeat CPU 0 instructions: 941000002 cycles: 5416641076 heartbeat IPC: 0.198422 cumulative IPC: 0.185622 (Simulation time: 2 hr 35 min 19 sec) 
Heartbeat CPU 0 instructions: 942000000 cycles: 5421655547 heartbeat IPC: 0.199422 cumulative IPC: 0.185648 (Simulation time: 2 hr 35 min 29 sec) 
Heartbeat CPU 0 instructions: 943000002 cycles: 5427075870 heartbeat IPC: 0.184491 cumulative IPC: 0.185646 (Simulation time: 2 hr 35 min 40 sec) 
Heartbeat CPU 0 instructions: 944000001 cycles: 5432134676 heartbeat IPC: 0.197675 cumulative IPC: 0.185669 (Simulation time: 2 hr 35 min 50 sec) 
Heartbeat CPU 0 instructions: 945000002 cycles: 5437300663 heartbeat IPC: 0.193574 cumulative IPC: 0.185684 (Simulation time: 2 hr 36 min 0 sec) 
Heartbeat CPU 0 instructions: 946000000 cycles: 5442541747 heartbeat IPC: 0.1908 cumulative IPC: 0.185694 (Simulation time: 2 hr 36 min 10 sec) 
Heartbeat CPU 0 instructions: 947000001 cycles: 5447904558 heartbeat IPC: 0.18647 cumulative IPC: 0.185696 (Simulation time: 2 hr 36 min 21 sec) 
Heartbeat CPU 0 instructions: 948000001 cycles: 5452967056 heartbeat IPC: 0.197531 cumulative IPC: 0.185718 (Simulation time: 2 hr 36 min 32 sec) 
Heartbeat CPU 0 instructions: 949000001 cycles: 5458068956 heartbeat IPC: 0.196005 cumulative IPC: 0.185738 (Simulation time: 2 hr 36 min 42 sec) 
Heartbeat CPU 0 instructions: 950000002 cycles: 5463252051 heartbeat IPC: 0.192935 cumulative IPC: 0.185752 (Simulation time: 2 hr 36 min 52 sec) 
Finished CPU 0 instructions: 500000001 cycles: 2691767748 cumulative IPC: 0.185752 (Simulation time: 2 hr 36 min 52 sec) 

ChampSim completed all CPUs

Region of Interest Statistics

CPU 0 cumulative IPC: 0.185752 instructions: 500000001 cycles: 2691767748
L1D TOTAL     ACCESS:  109323944  HIT:   31344666  MISS:   77979278
L1D LOAD      ACCESS:  101455008  HIT:   23616648  MISS:   77838360
L1D RFO       ACCESS:    7868936  HIT:    7728018  MISS:     140918
L1D PREFETCH  ACCESS:          0  HIT:          0  MISS:          0
L1D WRITEBACK ACCESS:          0  HIT:          0  MISS:          0
L1D PREFETCH  REQUESTED:          0  ISSUED:          0  USEFUL:          0  USELESS:          0
L1D AVERAGE MISS LATENCY: 95.6421 cycles
L1I TOTAL     ACCESS:   84437172  HIT:   84437172  MISS:          0
L1I LOAD      ACCESS:   84437172  HIT:   84437172  MISS:          0
L1I RFO       ACCESS:          0  HIT:          0  MISS:          0
L1I PREFETCH  ACCESS:          0  HIT:          0  MISS:          0
L1I WRITEBACK ACCESS:          0  HIT:          0  MISS:          0
L1I PREFETCH  REQUESTED:          0  ISSUED:          0  USEFUL:          0  USELESS:          0
L1I AVERAGE MISS LATENCY: -nan cycles
L2C TOTAL     ACCESS:   79045991  HIT:    9482759  MISS:   69563232
L2C LOAD      ACCESS:   77838320  HIT:    8401874  MISS:   69436446
L2C RFO       ACCESS:     140918  HIT:      14135  MISS:     126783
L2C PREFETCH  ACCESS:          0  HIT:          0  MISS:          0
L2C WRITEBACK ACCESS:    1066753  HIT:    1066750  MISS:          3
L2C PREFETCH  REQUESTED:          0  ISSUED:          0  USEFUL:          0  USELESS:          0
L2C AVERAGE MISS LATENCY: 89.9101 cycles
LLC TOTAL     ACCESS:  119353473  HIT:   77017069  MISS:   42336404
LLC LOAD      ACCESS:   69436438  HIT:   39955047  MISS:   29481391
LLC RFO       ACCESS:     126783  HIT:     103442  MISS:      23341
LLC PREFETCH  ACCESS:   48801899  HIT:   35972332  MISS:   12829567
LLC WRITEBACK ACCESS:     988353  HIT:     986248  MISS:       2105
LLC PREFETCH  REQUESTED:   65403315  ISSUED:   65403315  USEFUL:    9473209  USELESS:    3354134
LLC AVERAGE MISS LATENCY: 145.035 cycles
Major fault: 0 Minor fault: 443600
performance stats:
mapping cache size: 28369311
divergence: 67881001

DRAM Statistics
 CHANNEL 0
 RQ ROW_BUFFER_HIT:   18118350  ROW_BUFFER_MISS:   24215598
 DBUS_CONGESTED:   16154379
 WQ ROW_BUFFER_HIT:     119053  ROW_BUFFER_MISS:     187028  FULL:          0

 AVG_CONGESTED_CYCLE: 5

CPU 0 Branch Prediction Accuracy: 97.1406% MPKI: 8.73899 Average ROB Occupancy at Mispredict: 66.6068

Branch types
NOT_BRANCH: 347189822 69.438%
BRANCH_DIRECT_JUMP: 19013150 3.80263%
BRANCH_INDIRECT: 0 0%
BRANCH_CONDITIONAL: 130403405 26.0807%
BRANCH_DIRECT_CALL: 1563277 0.312655%
BRANCH_INDIRECT_CALL: 133422 0.0266844%
BRANCH_RETURN: 1696699 0.33934%
BRANCH_OTHER: 0 0%

