
*** ChampSim Multicore Out-of-Order Simulator ***

Warmup Instructions: 1000000
Prefetch Warmup Instructions: 450000000
Simulation Instructions: 500000000
Stat Printing Period: 1000000
Number of CPUs: 1
LLC sets: 2048
LLC ways: 16
Off-chip DRAM Size: 4096 MB Channels: 1 Width: 64-bit Data Rate: 3200 MT/s

CPU 0 runs /scratch/cluster/cmolder/ML-DPC/ChampSimTraces/spec17/605.mcf-s1.trace.xz
Read seed: 273
Heartbeat CPU 0 instructions: 1000001 cycles: 327980 heartbeat IPC: 3.04897 cumulative IPC: 3.04897 (Simulation time: 0 hr 0 min 5 sec) 

Warmup complete CPU 0 instructions: 1000001 cycles: 327980 (Simulation time: 0 hr 0 min 5 sec) 

Heartbeat CPU 0 instructions: 2000000 cycles: 6554483 heartbeat IPC: 0.160604 cumulative IPC: 0.160604 (Simulation time: 0 hr 0 min 14 sec) 
Heartbeat CPU 0 instructions: 3000001 cycles: 12956630 heartbeat IPC: 0.156198 cumulative IPC: 0.15837 (Simulation time: 0 hr 0 min 24 sec) 
Heartbeat CPU 0 instructions: 4000001 cycles: 19381586 heartbeat IPC: 0.155643 cumulative IPC: 0.157451 (Simulation time: 0 hr 0 min 34 sec) 
Heartbeat CPU 0 instructions: 5000000 cycles: 25838633 heartbeat IPC: 0.154869 cumulative IPC: 0.156797 (Simulation time: 0 hr 0 min 44 sec) 
Heartbeat CPU 0 instructions: 6000000 cycles: 32398071 heartbeat IPC: 0.152452 cumulative IPC: 0.155908 (Simulation time: 0 hr 0 min 54 sec) 
Heartbeat CPU 0 instructions: 7000003 cycles: 38940140 heartbeat IPC: 0.152857 cumulative IPC: 0.155392 (Simulation time: 0 hr 1 min 4 sec) 
Heartbeat CPU 0 instructions: 8000003 cycles: 45428441 heartbeat IPC: 0.154124 cumulative IPC: 0.155209 (Simulation time: 0 hr 1 min 14 sec) 
Heartbeat CPU 0 instructions: 9000000 cycles: 52136900 heartbeat IPC: 0.149065 cumulative IPC: 0.154414 (Simulation time: 0 hr 1 min 24 sec) 
Heartbeat CPU 0 instructions: 10000002 cycles: 58704694 heartbeat IPC: 0.152258 cumulative IPC: 0.154171 (Simulation time: 0 hr 1 min 34 sec) 
Heartbeat CPU 0 instructions: 11000000 cycles: 65337963 heartbeat IPC: 0.150755 cumulative IPC: 0.153823 (Simulation time: 0 hr 1 min 44 sec) 
Heartbeat CPU 0 instructions: 12000000 cycles: 71905527 heartbeat IPC: 0.152263 cumulative IPC: 0.153679 (Simulation time: 0 hr 1 min 54 sec) 
Heartbeat CPU 0 instructions: 13000000 cycles: 78359602 heartbeat IPC: 0.154941 cumulative IPC: 0.153784 (Simulation time: 0 hr 2 min 4 sec) 
Heartbeat CPU 0 instructions: 14000001 cycles: 84785319 heartbeat IPC: 0.155625 cumulative IPC: 0.153924 (Simulation time: 0 hr 2 min 14 sec) 
Heartbeat CPU 0 instructions: 15000003 cycles: 91208661 heartbeat IPC: 0.155683 cumulative IPC: 0.154048 (Simulation time: 0 hr 2 min 23 sec) 
Heartbeat CPU 0 instructions: 16000000 cycles: 97621957 heartbeat IPC: 0.155926 cumulative IPC: 0.154172 (Simulation time: 0 hr 2 min 33 sec) 
Heartbeat CPU 0 instructions: 17000000 cycles: 104052686 heartbeat IPC: 0.155503 cumulative IPC: 0.154254 (Simulation time: 0 hr 2 min 43 sec) 
Heartbeat CPU 0 instructions: 18000003 cycles: 110472713 heartbeat IPC: 0.155763 cumulative IPC: 0.154342 (Simulation time: 0 hr 2 min 53 sec) 
Heartbeat CPU 0 instructions: 19000003 cycles: 116902199 heartbeat IPC: 0.155533 cumulative IPC: 0.154408 (Simulation time: 0 hr 3 min 3 sec) 
Heartbeat CPU 0 instructions: 20000002 cycles: 123336227 heartbeat IPC: 0.155423 cumulative IPC: 0.154461 (Simulation time: 0 hr 3 min 13 sec) 
Heartbeat CPU 0 instructions: 21000000 cycles: 129780632 heartbeat IPC: 0.155173 cumulative IPC: 0.154497 (Simulation time: 0 hr 3 min 23 sec) 
Heartbeat CPU 0 instructions: 22000000 cycles: 136236764 heartbeat IPC: 0.154892 cumulative IPC: 0.154515 (Simulation time: 0 hr 3 min 32 sec) 
Heartbeat CPU 0 instructions: 23000001 cycles: 142702655 heartbeat IPC: 0.154658 cumulative IPC: 0.154522 (Simulation time: 0 hr 3 min 42 sec) 
Heartbeat CPU 0 instructions: 24000000 cycles: 149168070 heartbeat IPC: 0.154669 cumulative IPC: 0.154528 (Simulation time: 0 hr 3 min 53 sec) 
Heartbeat CPU 0 instructions: 25000003 cycles: 155639211 heartbeat IPC: 0.154533 cumulative IPC: 0.154528 (Simulation time: 0 hr 4 min 3 sec) 
Heartbeat CPU 0 instructions: 26000002 cycles: 162111192 heartbeat IPC: 0.154512 cumulative IPC: 0.154528 (Simulation time: 0 hr 4 min 13 sec) 
Heartbeat CPU 0 instructions: 27000001 cycles: 168608936 heartbeat IPC: 0.153899 cumulative IPC: 0.154504 (Simulation time: 0 hr 4 min 23 sec) 
Heartbeat CPU 0 instructions: 28000000 cycles: 175101052 heartbeat IPC: 0.154033 cumulative IPC: 0.154486 (Simulation time: 0 hr 4 min 32 sec) 
Heartbeat CPU 0 instructions: 29000000 cycles: 181612089 heartbeat IPC: 0.153585 cumulative IPC: 0.154454 (Simulation time: 0 hr 4 min 42 sec) 
Heartbeat CPU 0 instructions: 30000002 cycles: 188136459 heartbeat IPC: 0.153272 cumulative IPC: 0.154413 (Simulation time: 0 hr 4 min 53 sec) 
Heartbeat CPU 0 instructions: 31000002 cycles: 194665323 heartbeat IPC: 0.153166 cumulative IPC: 0.154371 (Simulation time: 0 hr 5 min 3 sec) 
Heartbeat CPU 0 instructions: 32000001 cycles: 201243029 heartbeat IPC: 0.152029 cumulative IPC: 0.154294 (Simulation time: 0 hr 5 min 13 sec) 
Heartbeat CPU 0 instructions: 33000000 cycles: 207976147 heartbeat IPC: 0.148519 cumulative IPC: 0.154107 (Simulation time: 0 hr 5 min 23 sec) 
Heartbeat CPU 0 instructions: 34000002 cycles: 214593090 heartbeat IPC: 0.151127 cumulative IPC: 0.154015 (Simulation time: 0 hr 5 min 33 sec) 
Heartbeat CPU 0 instructions: 35000000 cycles: 221246623 heartbeat IPC: 0.150296 cumulative IPC: 0.153903 (Simulation time: 0 hr 5 min 43 sec) 
Heartbeat CPU 0 instructions: 36000003 cycles: 228043578 heartbeat IPC: 0.147125 cumulative IPC: 0.153701 (Simulation time: 0 hr 5 min 54 sec) 
Heartbeat CPU 0 instructions: 37000000 cycles: 235090430 heartbeat IPC: 0.141907 cumulative IPC: 0.153346 (Simulation time: 0 hr 6 min 4 sec) 
Heartbeat CPU 0 instructions: 38000002 cycles: 241629863 heartbeat IPC: 0.152919 cumulative IPC: 0.153335 (Simulation time: 0 hr 6 min 14 sec) 
Heartbeat CPU 0 instructions: 39000001 cycles: 248139067 heartbeat IPC: 0.153628 cumulative IPC: 0.153343 (Simulation time: 0 hr 6 min 24 sec) 
Heartbeat CPU 0 instructions: 40000001 cycles: 254672988 heartbeat IPC: 0.153047 cumulative IPC: 0.153335 (Simulation time: 0 hr 6 min 34 sec) 
Heartbeat CPU 0 instructions: 41000003 cycles: 261240751 heartbeat IPC: 0.152259 cumulative IPC: 0.153308 (Simulation time: 0 hr 6 min 44 sec) 
Heartbeat CPU 0 instructions: 42000003 cycles: 267874456 heartbeat IPC: 0.150745 cumulative IPC: 0.153244 (Simulation time: 0 hr 6 min 55 sec) 
Heartbeat CPU 0 instructions: 43000002 cycles: 274410310 heartbeat IPC: 0.153002 cumulative IPC: 0.153239 (Simulation time: 0 hr 7 min 5 sec) 
Heartbeat CPU 0 instructions: 44000000 cycles: 280946648 heartbeat IPC: 0.152991 cumulative IPC: 0.153233 (Simulation time: 0 hr 7 min 15 sec) 
Heartbeat CPU 0 instructions: 45000000 cycles: 287505291 heartbeat IPC: 0.152471 cumulative IPC: 0.153215 (Simulation time: 0 hr 7 min 25 sec) 
Heartbeat CPU 0 instructions: 46000000 cycles: 294042373 heartbeat IPC: 0.152973 cumulative IPC: 0.15321 (Simulation time: 0 hr 7 min 35 sec) 
Heartbeat CPU 0 instructions: 47000003 cycles: 300600831 heartbeat IPC: 0.152475 cumulative IPC: 0.153194 (Simulation time: 0 hr 7 min 45 sec) 
Heartbeat CPU 0 instructions: 48000002 cycles: 307137441 heartbeat IPC: 0.152984 cumulative IPC: 0.15319 (Simulation time: 0 hr 7 min 55 sec) 
Heartbeat CPU 0 instructions: 49000001 cycles: 313670830 heartbeat IPC: 0.15306 cumulative IPC: 0.153187 (Simulation time: 0 hr 8 min 6 sec) 
Heartbeat CPU 0 instructions: 50000002 cycles: 320206899 heartbeat IPC: 0.152997 cumulative IPC: 0.153183 (Simulation time: 0 hr 8 min 16 sec) 
Heartbeat CPU 0 instructions: 51000002 cycles: 326739006 heartbeat IPC: 0.15309 cumulative IPC: 0.153181 (Simulation time: 0 hr 8 min 26 sec) 
Heartbeat CPU 0 instructions: 52000001 cycles: 333272638 heartbeat IPC: 0.153054 cumulative IPC: 0.153179 (Simulation time: 0 hr 8 min 36 sec) 
Heartbeat CPU 0 instructions: 53000001 cycles: 339804057 heartbeat IPC: 0.153106 cumulative IPC: 0.153177 (Simulation time: 0 hr 8 min 47 sec) 
Heartbeat CPU 0 instructions: 54000003 cycles: 346382805 heartbeat IPC: 0.152005 cumulative IPC: 0.153155 (Simulation time: 0 hr 8 min 57 sec) 
Heartbeat CPU 0 instructions: 55000000 cycles: 352912812 heartbeat IPC: 0.153139 cumulative IPC: 0.153155 (Simulation time: 0 hr 9 min 8 sec) 
Heartbeat CPU 0 instructions: 56000000 cycles: 359499535 heartbeat IPC: 0.151821 cumulative IPC: 0.15313 (Simulation time: 0 hr 9 min 18 sec) 
Heartbeat CPU 0 instructions: 57000000 cycles: 366080525 heartbeat IPC: 0.151953 cumulative IPC: 0.153109 (Simulation time: 0 hr 9 min 28 sec) 
Heartbeat CPU 0 instructions: 58000001 cycles: 372633172 heartbeat IPC: 0.15261 cumulative IPC: 0.1531 (Simulation time: 0 hr 9 min 38 sec) 
Heartbeat CPU 0 instructions: 59000002 cycles: 379231735 heartbeat IPC: 0.151548 cumulative IPC: 0.153073 (Simulation time: 0 hr 9 min 49 sec) 
Heartbeat CPU 0 instructions: 60000002 cycles: 385793544 heartbeat IPC: 0.152397 cumulative IPC: 0.153062 (Simulation time: 0 hr 9 min 59 sec) 
Heartbeat CPU 0 instructions: 61000001 cycles: 392329193 heartbeat IPC: 0.153007 cumulative IPC: 0.153061 (Simulation time: 0 hr 10 min 9 sec) 
Heartbeat CPU 0 instructions: 62000000 cycles: 398864617 heartbeat IPC: 0.153012 cumulative IPC: 0.15306 (Simulation time: 0 hr 10 min 19 sec) 
Heartbeat CPU 0 instructions: 63000000 cycles: 405400500 heartbeat IPC: 0.153002 cumulative IPC: 0.153059 (Simulation time: 0 hr 10 min 29 sec) 
Heartbeat CPU 0 instructions: 64000001 cycles: 411935948 heartbeat IPC: 0.153012 cumulative IPC: 0.153058 (Simulation time: 0 hr 10 min 40 sec) 
Heartbeat CPU 0 instructions: 65000002 cycles: 418473230 heartbeat IPC: 0.152969 cumulative IPC: 0.153057 (Simulation time: 0 hr 10 min 50 sec) 
Heartbeat CPU 0 instructions: 66000000 cycles: 425007343 heartbeat IPC: 0.153043 cumulative IPC: 0.153057 (Simulation time: 0 hr 11 min 0 sec) 
Heartbeat CPU 0 instructions: 67000000 cycles: 431539305 heartbeat IPC: 0.153093 cumulative IPC: 0.153057 (Simulation time: 0 hr 11 min 11 sec) 
Heartbeat CPU 0 instructions: 68000003 cycles: 438161279 heartbeat IPC: 0.151013 cumulative IPC: 0.153026 (Simulation time: 0 hr 11 min 21 sec) 
Heartbeat CPU 0 instructions: 69000000 cycles: 444773201 heartbeat IPC: 0.151241 cumulative IPC: 0.153 (Simulation time: 0 hr 11 min 31 sec) 
Heartbeat CPU 0 instructions: 70000003 cycles: 451328762 heartbeat IPC: 0.152543 cumulative IPC: 0.152993 (Simulation time: 0 hr 11 min 41 sec) 
Heartbeat CPU 0 instructions: 71000002 cycles: 457863409 heartbeat IPC: 0.15303 cumulative IPC: 0.152994 (Simulation time: 0 hr 11 min 52 sec) 
Heartbeat CPU 0 instructions: 72000000 cycles: 464397141 heartbeat IPC: 0.153052 cumulative IPC: 0.152994 (Simulation time: 0 hr 12 min 2 sec) 
Heartbeat CPU 0 instructions: 73000002 cycles: 471027239 heartbeat IPC: 0.150828 cumulative IPC: 0.152964 (Simulation time: 0 hr 12 min 12 sec) 
Heartbeat CPU 0 instructions: 74000002 cycles: 477562853 heartbeat IPC: 0.153008 cumulative IPC: 0.152965 (Simulation time: 0 hr 12 min 23 sec) 
Heartbeat CPU 0 instructions: 75000002 cycles: 484101348 heartbeat IPC: 0.15294 cumulative IPC: 0.152964 (Simulation time: 0 hr 12 min 33 sec) 
Heartbeat CPU 0 instructions: 76000001 cycles: 490637675 heartbeat IPC: 0.152991 cumulative IPC: 0.152965 (Simulation time: 0 hr 12 min 43 sec) 
Heartbeat CPU 0 instructions: 77000000 cycles: 497258301 heartbeat IPC: 0.151043 cumulative IPC: 0.152939 (Simulation time: 0 hr 12 min 54 sec) 
Heartbeat CPU 0 instructions: 78000000 cycles: 503817567 heartbeat IPC: 0.152456 cumulative IPC: 0.152933 (Simulation time: 0 hr 13 min 4 sec) 
Heartbeat CPU 0 instructions: 79000000 cycles: 510352310 heartbeat IPC: 0.153028 cumulative IPC: 0.152934 (Simulation time: 0 hr 13 min 14 sec) 
Heartbeat CPU 0 instructions: 80000001 cycles: 516887479 heartbeat IPC: 0.153018 cumulative IPC: 0.152935 (Simulation time: 0 hr 13 min 24 sec) 
Heartbeat CPU 0 instructions: 81000000 cycles: 523419293 heartbeat IPC: 0.153097 cumulative IPC: 0.152937 (Simulation time: 0 hr 13 min 35 sec) 
Heartbeat CPU 0 instructions: 82000002 cycles: 530068342 heartbeat IPC: 0.150398 cumulative IPC: 0.152905 (Simulation time: 0 hr 13 min 45 sec) 
Heartbeat CPU 0 instructions: 83000001 cycles: 536587762 heartbeat IPC: 0.153388 cumulative IPC: 0.152911 (Simulation time: 0 hr 13 min 55 sec) 
Heartbeat CPU 0 instructions: 84000002 cycles: 543108122 heartbeat IPC: 0.153366 cumulative IPC: 0.152916 (Simulation time: 0 hr 14 min 4 sec) 
Heartbeat CPU 0 instructions: 85000003 cycles: 549631978 heartbeat IPC: 0.153284 cumulative IPC: 0.152921 (Simulation time: 0 hr 14 min 15 sec) 
Heartbeat CPU 0 instructions: 86000002 cycles: 556154722 heartbeat IPC: 0.15331 cumulative IPC: 0.152925 (Simulation time: 0 hr 14 min 25 sec) 
Heartbeat CPU 0 instructions: 87000001 cycles: 562677769 heartbeat IPC: 0.153302 cumulative IPC: 0.15293 (Simulation time: 0 hr 14 min 35 sec) 
Heartbeat CPU 0 instructions: 88000000 cycles: 569198168 heartbeat IPC: 0.153365 cumulative IPC: 0.152935 (Simulation time: 0 hr 14 min 45 sec) 
Heartbeat CPU 0 instructions: 89000002 cycles: 575895976 heartbeat IPC: 0.149303 cumulative IPC: 0.152892 (Simulation time: 0 hr 14 min 56 sec) 
Heartbeat CPU 0 instructions: 90000000 cycles: 582435416 heartbeat IPC: 0.152918 cumulative IPC: 0.152893 (Simulation time: 0 hr 15 min 6 sec) 
Heartbeat CPU 0 instructions: 91000003 cycles: 588973361 heartbeat IPC: 0.152954 cumulative IPC: 0.152893 (Simulation time: 0 hr 15 min 16 sec) 
Heartbeat CPU 0 instructions: 92000002 cycles: 595515226 heartbeat IPC: 0.152861 cumulative IPC: 0.152893 (Simulation time: 0 hr 15 min 26 sec) 
Heartbeat CPU 0 instructions: 93000001 cycles: 602052821 heartbeat IPC: 0.152961 cumulative IPC: 0.152894 (Simulation time: 0 hr 15 min 37 sec) 
Heartbeat CPU 0 instructions: 94000002 cycles: 608590976 heartbeat IPC: 0.152948 cumulative IPC: 0.152894 (Simulation time: 0 hr 15 min 47 sec) 
Heartbeat CPU 0 instructions: 95000001 cycles: 615314140 heartbeat IPC: 0.148739 cumulative IPC: 0.152849 (Simulation time: 0 hr 15 min 57 sec) 
Heartbeat CPU 0 instructions: 96000001 cycles: 621848387 heartbeat IPC: 0.15304 cumulative IPC: 0.152851 (Simulation time: 0 hr 16 min 8 sec) 
Heartbeat CPU 0 instructions: 97000001 cycles: 628378846 heartbeat IPC: 0.153129 cumulative IPC: 0.152854 (Simulation time: 0 hr 16 min 18 sec) 
Heartbeat CPU 0 instructions: 98000000 cycles: 634911663 heartbeat IPC: 0.153073 cumulative IPC: 0.152856 (Simulation time: 0 hr 16 min 29 sec) 
Heartbeat CPU 0 instructions: 99000000 cycles: 641444177 heartbeat IPC: 0.15308 cumulative IPC: 0.152858 (Simulation time: 0 hr 16 min 39 sec) 
Heartbeat CPU 0 instructions: 100000002 cycles: 648147169 heartbeat IPC: 0.149187 cumulative IPC: 0.15282 (Simulation time: 0 hr 16 min 50 sec) 
Heartbeat CPU 0 instructions: 101000001 cycles: 654675407 heartbeat IPC: 0.153181 cumulative IPC: 0.152824 (Simulation time: 0 hr 17 min 0 sec) 
Heartbeat CPU 0 instructions: 102000000 cycles: 661200332 heartbeat IPC: 0.153258 cumulative IPC: 0.152828 (Simulation time: 0 hr 17 min 10 sec) 
Heartbeat CPU 0 instructions: 103000000 cycles: 667734023 heartbeat IPC: 0.153053 cumulative IPC: 0.15283 (Simulation time: 0 hr 17 min 20 sec) 
Heartbeat CPU 0 instructions: 104000003 cycles: 674267820 heartbeat IPC: 0.153051 cumulative IPC: 0.152833 (Simulation time: 0 hr 17 min 31 sec) 
Heartbeat CPU 0 instructions: 105000001 cycles: 680801982 heartbeat IPC: 0.153042 cumulative IPC: 0.152835 (Simulation time: 0 hr 17 min 41 sec) 
Heartbeat CPU 0 instructions: 106000003 cycles: 687337007 heartbeat IPC: 0.153022 cumulative IPC: 0.152836 (Simulation time: 0 hr 17 min 51 sec) 
Heartbeat CPU 0 instructions: 107000001 cycles: 693872703 heartbeat IPC: 0.153006 cumulative IPC: 0.152838 (Simulation time: 0 hr 18 min 2 sec) 
Heartbeat CPU 0 instructions: 108000001 cycles: 700408609 heartbeat IPC: 0.153001 cumulative IPC: 0.15284 (Simulation time: 0 hr 18 min 12 sec) 
Heartbeat CPU 0 instructions: 109000000 cycles: 706942458 heartbeat IPC: 0.153049 cumulative IPC: 0.152841 (Simulation time: 0 hr 18 min 22 sec) 
Heartbeat CPU 0 instructions: 110000000 cycles: 713478994 heartbeat IPC: 0.152986 cumulative IPC: 0.152843 (Simulation time: 0 hr 18 min 32 sec) 
Heartbeat CPU 0 instructions: 111000001 cycles: 720014086 heartbeat IPC: 0.15302 cumulative IPC: 0.152844 (Simulation time: 0 hr 18 min 43 sec) 
Heartbeat CPU 0 instructions: 112000000 cycles: 726548107 heartbeat IPC: 0.153045 cumulative IPC: 0.152846 (Simulation time: 0 hr 18 min 53 sec) 
Heartbeat CPU 0 instructions: 113000003 cycles: 733289439 heartbeat IPC: 0.148339 cumulative IPC: 0.152805 (Simulation time: 0 hr 19 min 3 sec) 
Heartbeat CPU 0 instructions: 114000002 cycles: 739820481 heartbeat IPC: 0.153115 cumulative IPC: 0.152808 (Simulation time: 0 hr 19 min 13 sec) 
Heartbeat CPU 0 instructions: 115000001 cycles: 746572709 heartbeat IPC: 0.148099 cumulative IPC: 0.152765 (Simulation time: 0 hr 19 min 24 sec) 
Heartbeat CPU 0 instructions: 116000000 cycles: 753109521 heartbeat IPC: 0.15298 cumulative IPC: 0.152767 (Simulation time: 0 hr 19 min 34 sec) 
Heartbeat CPU 0 instructions: 117000002 cycles: 759647955 heartbeat IPC: 0.152942 cumulative IPC: 0.152768 (Simulation time: 0 hr 19 min 43 sec) 
Heartbeat CPU 0 instructions: 118000003 cycles: 766415921 heartbeat IPC: 0.147755 cumulative IPC: 0.152724 (Simulation time: 0 hr 19 min 54 sec) 
Heartbeat CPU 0 instructions: 119000002 cycles: 772951618 heartbeat IPC: 0.153006 cumulative IPC: 0.152726 (Simulation time: 0 hr 20 min 4 sec) 
Heartbeat CPU 0 instructions: 120000000 cycles: 779487699 heartbeat IPC: 0.152997 cumulative IPC: 0.152729 (Simulation time: 0 hr 20 min 14 sec) 
Heartbeat CPU 0 instructions: 121000000 cycles: 786024374 heartbeat IPC: 0.152983 cumulative IPC: 0.152731 (Simulation time: 0 hr 20 min 23 sec) 
Heartbeat CPU 0 instructions: 122000002 cycles: 792555854 heartbeat IPC: 0.153105 cumulative IPC: 0.152734 (Simulation time: 0 hr 20 min 34 sec) 
Heartbeat CPU 0 instructions: 123000000 cycles: 799088502 heartbeat IPC: 0.153077 cumulative IPC: 0.152737 (Simulation time: 0 hr 20 min 44 sec) 
Heartbeat CPU 0 instructions: 124000003 cycles: 805622070 heartbeat IPC: 0.153056 cumulative IPC: 0.152739 (Simulation time: 0 hr 20 min 54 sec) 
Heartbeat CPU 0 instructions: 125000002 cycles: 812160019 heartbeat IPC: 0.152953 cumulative IPC: 0.152741 (Simulation time: 0 hr 21 min 4 sec) 
Heartbeat CPU 0 instructions: 126000001 cycles: 818695318 heartbeat IPC: 0.153015 cumulative IPC: 0.152743 (Simulation time: 0 hr 21 min 13 sec) 
Heartbeat CPU 0 instructions: 127000003 cycles: 825230699 heartbeat IPC: 0.153014 cumulative IPC: 0.152745 (Simulation time: 0 hr 21 min 23 sec) 
Heartbeat CPU 0 instructions: 128000002 cycles: 831764948 heartbeat IPC: 0.15304 cumulative IPC: 0.152748 (Simulation time: 0 hr 21 min 33 sec) 
Heartbeat CPU 0 instructions: 129000001 cycles: 838301758 heartbeat IPC: 0.15298 cumulative IPC: 0.152749 (Simulation time: 0 hr 21 min 43 sec) 
Heartbeat CPU 0 instructions: 130000003 cycles: 845101072 heartbeat IPC: 0.147074 cumulative IPC: 0.152704 (Simulation time: 0 hr 21 min 54 sec) 
Heartbeat CPU 0 instructions: 131000002 cycles: 851624233 heartbeat IPC: 0.1533 cumulative IPC: 0.152708 (Simulation time: 0 hr 22 min 4 sec) 
Heartbeat CPU 0 instructions: 132000000 cycles: 858148345 heartbeat IPC: 0.153277 cumulative IPC: 0.152713 (Simulation time: 0 hr 22 min 15 sec) 
Heartbeat CPU 0 instructions: 133000000 cycles: 864673629 heartbeat IPC: 0.15325 cumulative IPC: 0.152717 (Simulation time: 0 hr 22 min 25 sec) 
Heartbeat CPU 0 instructions: 134000003 cycles: 871195023 heartbeat IPC: 0.153342 cumulative IPC: 0.152721 (Simulation time: 0 hr 22 min 36 sec) 
Heartbeat CPU 0 instructions: 135000002 cycles: 877722352 heartbeat IPC: 0.153202 cumulative IPC: 0.152725 (Simulation time: 0 hr 22 min 47 sec) 
Heartbeat CPU 0 instructions: 136000000 cycles: 884535471 heartbeat IPC: 0.146775 cumulative IPC: 0.152679 (Simulation time: 0 hr 22 min 59 sec) 
Heartbeat CPU 0 instructions: 137000000 cycles: 891071155 heartbeat IPC: 0.153006 cumulative IPC: 0.152681 (Simulation time: 0 hr 23 min 9 sec) 
Heartbeat CPU 0 instructions: 138000000 cycles: 897900359 heartbeat IPC: 0.14643 cumulative IPC: 0.152634 (Simulation time: 0 hr 23 min 20 sec) 
Heartbeat CPU 0 instructions: 139000002 cycles: 904437711 heartbeat IPC: 0.152967 cumulative IPC: 0.152636 (Simulation time: 0 hr 23 min 32 sec) 
Heartbeat CPU 0 instructions: 140000000 cycles: 911270742 heartbeat IPC: 0.146348 cumulative IPC: 0.152589 (Simulation time: 0 hr 23 min 42 sec) 
Heartbeat CPU 0 instructions: 141000003 cycles: 917815179 heartbeat IPC: 0.152802 cumulative IPC: 0.152591 (Simulation time: 0 hr 23 min 54 sec) 
Heartbeat CPU 0 instructions: 142000000 cycles: 924361257 heartbeat IPC: 0.152763 cumulative IPC: 0.152592 (Simulation time: 0 hr 24 min 4 sec) 
Heartbeat CPU 0 instructions: 143000000 cycles: 931208614 heartbeat IPC: 0.146042 cumulative IPC: 0.152544 (Simulation time: 0 hr 24 min 16 sec) 
Heartbeat CPU 0 instructions: 144000003 cycles: 937757385 heartbeat IPC: 0.152701 cumulative IPC: 0.152545 (Simulation time: 0 hr 24 min 26 sec) 
Heartbeat CPU 0 instructions: 145000002 cycles: 944310282 heartbeat IPC: 0.152604 cumulative IPC: 0.152545 (Simulation time: 0 hr 24 min 37 sec) 
Heartbeat CPU 0 instructions: 146000001 cycles: 950863673 heartbeat IPC: 0.152593 cumulative IPC: 0.152546 (Simulation time: 0 hr 24 min 47 sec) 
Heartbeat CPU 0 instructions: 147000000 cycles: 957724655 heartbeat IPC: 0.145752 cumulative IPC: 0.152497 (Simulation time: 0 hr 24 min 58 sec) 
Heartbeat CPU 0 instructions: 148000003 cycles: 964270106 heartbeat IPC: 0.152778 cumulative IPC: 0.152499 (Simulation time: 0 hr 25 min 8 sec) 
Heartbeat CPU 0 instructions: 149000002 cycles: 970821351 heartbeat IPC: 0.152643 cumulative IPC: 0.1525 (Simulation time: 0 hr 25 min 17 sec) 
Heartbeat CPU 0 instructions: 150000000 cycles: 977381467 heartbeat IPC: 0.152436 cumulative IPC: 0.152499 (Simulation time: 0 hr 25 min 27 sec) 
Heartbeat CPU 0 instructions: 151000003 cycles: 983954944 heartbeat IPC: 0.152127 cumulative IPC: 0.152497 (Simulation time: 0 hr 25 min 37 sec) 
Heartbeat CPU 0 instructions: 152000003 cycles: 990530363 heartbeat IPC: 0.152082 cumulative IPC: 0.152494 (Simulation time: 0 hr 25 min 47 sec) 
Heartbeat CPU 0 instructions: 153000002 cycles: 997114991 heartbeat IPC: 0.151869 cumulative IPC: 0.15249 (Simulation time: 0 hr 25 min 57 sec) 
Heartbeat CPU 0 instructions: 154000000 cycles: 1003706381 heartbeat IPC: 0.151713 cumulative IPC: 0.152485 (Simulation time: 0 hr 26 min 8 sec) 
Heartbeat CPU 0 instructions: 155000002 cycles: 1010304580 heartbeat IPC: 0.151557 cumulative IPC: 0.152479 (Simulation time: 0 hr 26 min 18 sec) 
Heartbeat CPU 0 instructions: 156000001 cycles: 1016909914 heartbeat IPC: 0.151393 cumulative IPC: 0.152472 (Simulation time: 0 hr 26 min 28 sec) 
Heartbeat CPU 0 instructions: 157000003 cycles: 1023521820 heartbeat IPC: 0.151243 cumulative IPC: 0.152464 (Simulation time: 0 hr 26 min 38 sec) 
Heartbeat CPU 0 instructions: 158000002 cycles: 1030138846 heartbeat IPC: 0.151125 cumulative IPC: 0.152455 (Simulation time: 0 hr 26 min 49 sec) 
Heartbeat CPU 0 instructions: 159000001 cycles: 1036759129 heartbeat IPC: 0.151051 cumulative IPC: 0.152446 (Simulation time: 0 hr 26 min 59 sec) 
Heartbeat CPU 0 instructions: 160000000 cycles: 1043393860 heartbeat IPC: 0.150722 cumulative IPC: 0.152435 (Simulation time: 0 hr 27 min 9 sec) 
Heartbeat CPU 0 instructions: 161000003 cycles: 1050030640 heartbeat IPC: 0.150676 cumulative IPC: 0.152424 (Simulation time: 0 hr 27 min 20 sec) 
Heartbeat CPU 0 instructions: 162000003 cycles: 1056671887 heartbeat IPC: 0.150574 cumulative IPC: 0.152412 (Simulation time: 0 hr 27 min 30 sec) 
Heartbeat CPU 0 instructions: 163000002 cycles: 1063317652 heartbeat IPC: 0.150472 cumulative IPC: 0.1524 (Simulation time: 0 hr 27 min 40 sec) 
Heartbeat CPU 0 instructions: 164000000 cycles: 1069962987 heartbeat IPC: 0.150481 cumulative IPC: 0.152388 (Simulation time: 0 hr 27 min 50 sec) 
Heartbeat CPU 0 instructions: 165000000 cycles: 1076619284 heartbeat IPC: 0.150234 cumulative IPC: 0.152375 (Simulation time: 0 hr 28 min 0 sec) 
Heartbeat CPU 0 instructions: 166000001 cycles: 1083281919 heartbeat IPC: 0.150091 cumulative IPC: 0.152361 (Simulation time: 0 hr 28 min 10 sec) 
Heartbeat CPU 0 instructions: 167000000 cycles: 1089947300 heartbeat IPC: 0.150029 cumulative IPC: 0.152347 (Simulation time: 0 hr 28 min 20 sec) 
Heartbeat CPU 0 instructions: 168000002 cycles: 1096617979 heartbeat IPC: 0.14991 cumulative IPC: 0.152332 (Simulation time: 0 hr 28 min 30 sec) 
Heartbeat CPU 0 instructions: 169000003 cycles: 1103625922 heartbeat IPC: 0.142695 cumulative IPC: 0.152271 (Simulation time: 0 hr 28 min 41 sec) 
Heartbeat CPU 0 instructions: 170000002 cycles: 1110310249 heartbeat IPC: 0.149604 cumulative IPC: 0.152255 (Simulation time: 0 hr 28 min 51 sec) 
Heartbeat CPU 0 instructions: 171000003 cycles: 1116996088 heartbeat IPC: 0.14957 cumulative IPC: 0.152239 (Simulation time: 0 hr 29 min 1 sec) 
Heartbeat CPU 0 instructions: 172000003 cycles: 1123687490 heartbeat IPC: 0.149446 cumulative IPC: 0.152222 (Simulation time: 0 hr 29 min 11 sec) 
Heartbeat CPU 0 instructions: 173000002 cycles: 1130377240 heartbeat IPC: 0.149482 cumulative IPC: 0.152206 (Simulation time: 0 hr 29 min 21 sec) 
Heartbeat CPU 0 instructions: 174000001 cycles: 1137070698 heartbeat IPC: 0.149399 cumulative IPC: 0.152189 (Simulation time: 0 hr 29 min 31 sec) 
Heartbeat CPU 0 instructions: 175000000 cycles: 1143768489 heartbeat IPC: 0.149303 cumulative IPC: 0.152172 (Simulation time: 0 hr 29 min 41 sec) 
Heartbeat CPU 0 instructions: 176000000 cycles: 1150468958 heartbeat IPC: 0.149243 cumulative IPC: 0.152155 (Simulation time: 0 hr 29 min 51 sec) 
Heartbeat CPU 0 instructions: 177000001 cycles: 1157164687 heartbeat IPC: 0.149349 cumulative IPC: 0.152139 (Simulation time: 0 hr 30 min 2 sec) 
Heartbeat CPU 0 instructions: 178000000 cycles: 1163864732 heartbeat IPC: 0.149253 cumulative IPC: 0.152122 (Simulation time: 0 hr 30 min 12 sec) 
Heartbeat CPU 0 instructions: 179000003 cycles: 1170563331 heartbeat IPC: 0.149285 cumulative IPC: 0.152106 (Simulation time: 0 hr 30 min 22 sec) 
Heartbeat CPU 0 instructions: 180000002 cycles: 1177266718 heartbeat IPC: 0.149178 cumulative IPC: 0.152089 (Simulation time: 0 hr 30 min 32 sec) 
Heartbeat CPU 0 instructions: 181000001 cycles: 1183975106 heartbeat IPC: 0.149067 cumulative IPC: 0.152072 (Simulation time: 0 hr 30 min 43 sec) 
Heartbeat CPU 0 instructions: 182000000 cycles: 1190683556 heartbeat IPC: 0.149066 cumulative IPC: 0.152055 (Simulation time: 0 hr 30 min 53 sec) 
Heartbeat CPU 0 instructions: 183000001 cycles: 1197393056 heartbeat IPC: 0.149043 cumulative IPC: 0.152039 (Simulation time: 0 hr 31 min 3 sec) 
Heartbeat CPU 0 instructions: 184000001 cycles: 1204104980 heartbeat IPC: 0.148989 cumulative IPC: 0.152022 (Simulation time: 0 hr 31 min 13 sec) 
Heartbeat CPU 0 instructions: 185000001 cycles: 1210817492 heartbeat IPC: 0.148976 cumulative IPC: 0.152005 (Simulation time: 0 hr 31 min 23 sec) 
Heartbeat CPU 0 instructions: 186000000 cycles: 1217524092 heartbeat IPC: 0.149107 cumulative IPC: 0.151989 (Simulation time: 0 hr 31 min 33 sec) 
Heartbeat CPU 0 instructions: 187000000 cycles: 1224230159 heartbeat IPC: 0.149119 cumulative IPC: 0.151973 (Simulation time: 0 hr 31 min 43 sec) 
Heartbeat CPU 0 instructions: 188000002 cycles: 1230943348 heartbeat IPC: 0.148961 cumulative IPC: 0.151956 (Simulation time: 0 hr 31 min 53 sec) 
Heartbeat CPU 0 instructions: 189000001 cycles: 1237659491 heartbeat IPC: 0.148895 cumulative IPC: 0.15194 (Simulation time: 0 hr 32 min 3 sec) 
Heartbeat CPU 0 instructions: 190000000 cycles: 1244371319 heartbeat IPC: 0.148991 cumulative IPC: 0.151924 (Simulation time: 0 hr 32 min 14 sec) 
Heartbeat CPU 0 instructions: 191000002 cycles: 1251088418 heartbeat IPC: 0.148874 cumulative IPC: 0.151908 (Simulation time: 0 hr 32 min 23 sec) 
Heartbeat CPU 0 instructions: 192000001 cycles: 1257808281 heartbeat IPC: 0.148812 cumulative IPC: 0.151891 (Simulation time: 0 hr 32 min 33 sec) 
Heartbeat CPU 0 instructions: 193000000 cycles: 1264524331 heartbeat IPC: 0.148897 cumulative IPC: 0.151875 (Simulation time: 0 hr 32 min 44 sec) 
Heartbeat CPU 0 instructions: 194000001 cycles: 1271613428 heartbeat IPC: 0.141062 cumulative IPC: 0.151815 (Simulation time: 0 hr 32 min 54 sec) 
Heartbeat CPU 0 instructions: 195000001 cycles: 1278325122 heartbeat IPC: 0.148994 cumulative IPC: 0.1518 (Simulation time: 0 hr 33 min 4 sec) 
Heartbeat CPU 0 instructions: 196000000 cycles: 1285043476 heartbeat IPC: 0.148846 cumulative IPC: 0.151785 (Simulation time: 0 hr 33 min 14 sec) 
Heartbeat CPU 0 instructions: 197000002 cycles: 1291769709 heartbeat IPC: 0.148672 cumulative IPC: 0.151768 (Simulation time: 0 hr 33 min 24 sec) 
Heartbeat CPU 0 instructions: 198000000 cycles: 1298495638 heartbeat IPC: 0.148678 cumulative IPC: 0.151752 (Simulation time: 0 hr 33 min 35 sec) 
Heartbeat CPU 0 instructions: 199000000 cycles: 1305224305 heartbeat IPC: 0.148618 cumulative IPC: 0.151736 (Simulation time: 0 hr 33 min 45 sec) 
Heartbeat CPU 0 instructions: 200000002 cycles: 1311944627 heartbeat IPC: 0.148803 cumulative IPC: 0.151721 (Simulation time: 0 hr 33 min 56 sec) 
Heartbeat CPU 0 instructions: 201000002 cycles: 1318665942 heartbeat IPC: 0.14878 cumulative IPC: 0.151706 (Simulation time: 0 hr 34 min 6 sec) 
Heartbeat CPU 0 instructions: 202000001 cycles: 1325389643 heartbeat IPC: 0.148727 cumulative IPC: 0.151691 (Simulation time: 0 hr 34 min 15 sec) 
Heartbeat CPU 0 instructions: 203000000 cycles: 1332119312 heartbeat IPC: 0.148596 cumulative IPC: 0.151675 (Simulation time: 0 hr 34 min 26 sec) 
Heartbeat CPU 0 instructions: 204000000 cycles: 1338849402 heartbeat IPC: 0.148586 cumulative IPC: 0.15166 (Simulation time: 0 hr 34 min 36 sec) 
Heartbeat CPU 0 instructions: 205000002 cycles: 1345578329 heartbeat IPC: 0.148612 cumulative IPC: 0.151645 (Simulation time: 0 hr 34 min 46 sec) 
Heartbeat CPU 0 instructions: 206000002 cycles: 1352310132 heartbeat IPC: 0.148549 cumulative IPC: 0.151629 (Simulation time: 0 hr 34 min 56 sec) 
Heartbeat CPU 0 instructions: 207000002 cycles: 1359040144 heartbeat IPC: 0.148588 cumulative IPC: 0.151614 (Simulation time: 0 hr 35 min 6 sec) 
Heartbeat CPU 0 instructions: 208000002 cycles: 1365764954 heartbeat IPC: 0.148703 cumulative IPC: 0.1516 (Simulation time: 0 hr 35 min 16 sec) 
Heartbeat CPU 0 instructions: 209000000 cycles: 1372496254 heartbeat IPC: 0.148559 cumulative IPC: 0.151585 (Simulation time: 0 hr 35 min 26 sec) 
Heartbeat CPU 0 instructions: 210000000 cycles: 1379223323 heartbeat IPC: 0.148653 cumulative IPC: 0.151571 (Simulation time: 0 hr 35 min 36 sec) 
Heartbeat CPU 0 instructions: 211000002 cycles: 1385957169 heartbeat IPC: 0.148504 cumulative IPC: 0.151556 (Simulation time: 0 hr 35 min 47 sec) 
Heartbeat CPU 0 instructions: 212000001 cycles: 1392691993 heartbeat IPC: 0.148482 cumulative IPC: 0.151541 (Simulation time: 0 hr 35 min 57 sec) 
Heartbeat CPU 0 instructions: 213000000 cycles: 1399428344 heartbeat IPC: 0.148448 cumulative IPC: 0.151526 (Simulation time: 0 hr 36 min 7 sec) 
Heartbeat CPU 0 instructions: 214000003 cycles: 1406169701 heartbeat IPC: 0.148339 cumulative IPC: 0.151511 (Simulation time: 0 hr 36 min 17 sec) 
Heartbeat CPU 0 instructions: 215000002 cycles: 1412909764 heartbeat IPC: 0.148366 cumulative IPC: 0.151496 (Simulation time: 0 hr 36 min 27 sec) 
Heartbeat CPU 0 instructions: 216000001 cycles: 1419645577 heartbeat IPC: 0.14846 cumulative IPC: 0.151481 (Simulation time: 0 hr 36 min 37 sec) 
Heartbeat CPU 0 instructions: 217000000 cycles: 1426388163 heartbeat IPC: 0.148311 cumulative IPC: 0.151466 (Simulation time: 0 hr 36 min 47 sec) 
Heartbeat CPU 0 instructions: 218000000 cycles: 1433127464 heartbeat IPC: 0.148383 cumulative IPC: 0.151452 (Simulation time: 0 hr 36 min 57 sec) 
Heartbeat CPU 0 instructions: 219000002 cycles: 1439870882 heartbeat IPC: 0.148293 cumulative IPC: 0.151437 (Simulation time: 0 hr 37 min 8 sec) 
Heartbeat CPU 0 instructions: 220000000 cycles: 1446615578 heartbeat IPC: 0.148264 cumulative IPC: 0.151422 (Simulation time: 0 hr 37 min 18 sec) 
Heartbeat CPU 0 instructions: 221000000 cycles: 1453356208 heartbeat IPC: 0.148354 cumulative IPC: 0.151408 (Simulation time: 0 hr 37 min 28 sec) 
Heartbeat CPU 0 instructions: 222000001 cycles: 1460095275 heartbeat IPC: 0.148389 cumulative IPC: 0.151394 (Simulation time: 0 hr 37 min 38 sec) 
Heartbeat CPU 0 instructions: 223000002 cycles: 1466820606 heartbeat IPC: 0.148692 cumulative IPC: 0.151382 (Simulation time: 0 hr 37 min 48 sec) 
Heartbeat CPU 0 instructions: 224000000 cycles: 1473544404 heartbeat IPC: 0.148725 cumulative IPC: 0.151369 (Simulation time: 0 hr 37 min 58 sec) 
Heartbeat CPU 0 instructions: 225000001 cycles: 1480271173 heartbeat IPC: 0.14866 cumulative IPC: 0.151357 (Simulation time: 0 hr 38 min 8 sec) 
Heartbeat CPU 0 instructions: 226000003 cycles: 1487007360 heartbeat IPC: 0.148452 cumulative IPC: 0.151344 (Simulation time: 0 hr 38 min 18 sec) 
Heartbeat CPU 0 instructions: 227000002 cycles: 1493741681 heartbeat IPC: 0.148493 cumulative IPC: 0.151331 (Simulation time: 0 hr 38 min 28 sec) 
Heartbeat CPU 0 instructions: 228000001 cycles: 1500473003 heartbeat IPC: 0.148559 cumulative IPC: 0.151319 (Simulation time: 0 hr 38 min 38 sec) 
Heartbeat CPU 0 instructions: 229000001 cycles: 1507211548 heartbeat IPC: 0.1484 cumulative IPC: 0.151306 (Simulation time: 0 hr 38 min 48 sec) 
Heartbeat CPU 0 instructions: 230000000 cycles: 1513944561 heartbeat IPC: 0.148522 cumulative IPC: 0.151293 (Simulation time: 0 hr 38 min 59 sec) 
Heartbeat CPU 0 instructions: 231000000 cycles: 1520678649 heartbeat IPC: 0.148498 cumulative IPC: 0.151281 (Simulation time: 0 hr 39 min 9 sec) 
Heartbeat CPU 0 instructions: 232000001 cycles: 1527414347 heartbeat IPC: 0.148463 cumulative IPC: 0.151268 (Simulation time: 0 hr 39 min 19 sec) 
Heartbeat CPU 0 instructions: 233000000 cycles: 1534147771 heartbeat IPC: 0.148513 cumulative IPC: 0.151256 (Simulation time: 0 hr 39 min 29 sec) 
Heartbeat CPU 0 instructions: 234000003 cycles: 1540890124 heartbeat IPC: 0.148317 cumulative IPC: 0.151243 (Simulation time: 0 hr 39 min 39 sec) 
Heartbeat CPU 0 instructions: 235000002 cycles: 1547619263 heartbeat IPC: 0.148607 cumulative IPC: 0.151232 (Simulation time: 0 hr 39 min 49 sec) 
Heartbeat CPU 0 instructions: 236000001 cycles: 1554362900 heartbeat IPC: 0.148288 cumulative IPC: 0.151219 (Simulation time: 0 hr 39 min 59 sec) 
Heartbeat CPU 0 instructions: 237000000 cycles: 1561100942 heartbeat IPC: 0.148411 cumulative IPC: 0.151207 (Simulation time: 0 hr 40 min 9 sec) 
Heartbeat CPU 0 instructions: 238000003 cycles: 1567839237 heartbeat IPC: 0.148406 cumulative IPC: 0.151195 (Simulation time: 0 hr 40 min 19 sec) 
Heartbeat CPU 0 instructions: 239000003 cycles: 1574575285 heartbeat IPC: 0.148455 cumulative IPC: 0.151183 (Simulation time: 0 hr 40 min 30 sec) 
Heartbeat CPU 0 instructions: 240000002 cycles: 1581323742 heartbeat IPC: 0.148182 cumulative IPC: 0.151171 (Simulation time: 0 hr 40 min 40 sec) 
Heartbeat CPU 0 instructions: 241000000 cycles: 1588068003 heartbeat IPC: 0.148274 cumulative IPC: 0.151158 (Simulation time: 0 hr 40 min 50 sec) 
Heartbeat CPU 0 instructions: 242000000 cycles: 1595195000 heartbeat IPC: 0.140312 cumulative IPC: 0.15111 (Simulation time: 0 hr 41 min 1 sec) 
Heartbeat CPU 0 instructions: 243000000 cycles: 1601953849 heartbeat IPC: 0.147954 cumulative IPC: 0.151096 (Simulation time: 0 hr 41 min 12 sec) 
Heartbeat CPU 0 instructions: 244000003 cycles: 1608711797 heartbeat IPC: 0.147974 cumulative IPC: 0.151083 (Simulation time: 0 hr 41 min 22 sec) 
Heartbeat CPU 0 instructions: 245000002 cycles: 1615474487 heartbeat IPC: 0.14787 cumulative IPC: 0.15107 (Simulation time: 0 hr 41 min 32 sec) 
Heartbeat CPU 0 instructions: 246000001 cycles: 1622239093 heartbeat IPC: 0.147828 cumulative IPC: 0.151056 (Simulation time: 0 hr 41 min 43 sec) 
Heartbeat CPU 0 instructions: 247000000 cycles: 1629006371 heartbeat IPC: 0.14777 cumulative IPC: 0.151043 (Simulation time: 0 hr 41 min 53 sec) 
Heartbeat CPU 0 instructions: 248000003 cycles: 1635777529 heartbeat IPC: 0.147686 cumulative IPC: 0.151029 (Simulation time: 0 hr 42 min 4 sec) 
Heartbeat CPU 0 instructions: 249000001 cycles: 1642550799 heartbeat IPC: 0.147639 cumulative IPC: 0.151015 (Simulation time: 0 hr 42 min 14 sec) 
Heartbeat CPU 0 instructions: 250000000 cycles: 1649326466 heartbeat IPC: 0.147587 cumulative IPC: 0.151001 (Simulation time: 0 hr 42 min 23 sec) 
Heartbeat CPU 0 instructions: 251000000 cycles: 1656100769 heartbeat IPC: 0.147617 cumulative IPC: 0.150987 (Simulation time: 0 hr 42 min 34 sec) 
Heartbeat CPU 0 instructions: 252000003 cycles: 1662884259 heartbeat IPC: 0.147417 cumulative IPC: 0.150972 (Simulation time: 0 hr 42 min 44 sec) 
Heartbeat CPU 0 instructions: 253000000 cycles: 1670038533 heartbeat IPC: 0.139776 cumulative IPC: 0.150924 (Simulation time: 0 hr 42 min 55 sec) 
Heartbeat CPU 0 instructions: 254000001 cycles: 1676807917 heartbeat IPC: 0.147724 cumulative IPC: 0.150911 (Simulation time: 0 hr 43 min 5 sec) 
Heartbeat CPU 0 instructions: 255000000 cycles: 1683588968 heartbeat IPC: 0.14747 cumulative IPC: 0.150898 (Simulation time: 0 hr 43 min 15 sec) 
Heartbeat CPU 0 instructions: 256000003 cycles: 1690367323 heartbeat IPC: 0.147529 cumulative IPC: 0.150884 (Simulation time: 0 hr 43 min 25 sec) 
Heartbeat CPU 0 instructions: 257000002 cycles: 1697151767 heartbeat IPC: 0.147396 cumulative IPC: 0.15087 (Simulation time: 0 hr 43 min 36 sec) 
Heartbeat CPU 0 instructions: 258000001 cycles: 1703931047 heartbeat IPC: 0.147508 cumulative IPC: 0.150857 (Simulation time: 0 hr 43 min 46 sec) 
Heartbeat CPU 0 instructions: 259000003 cycles: 1711010009 heartbeat IPC: 0.141264 cumulative IPC: 0.150817 (Simulation time: 0 hr 43 min 57 sec) 
Heartbeat CPU 0 instructions: 260000000 cycles: 1717848318 heartbeat IPC: 0.146235 cumulative IPC: 0.150799 (Simulation time: 0 hr 44 min 7 sec) 
Heartbeat CPU 0 instructions: 261000002 cycles: 1724628716 heartbeat IPC: 0.147484 cumulative IPC: 0.150786 (Simulation time: 0 hr 44 min 17 sec) 
Heartbeat CPU 0 instructions: 262000002 cycles: 1731418508 heartbeat IPC: 0.14728 cumulative IPC: 0.150772 (Simulation time: 0 hr 44 min 28 sec) 
Heartbeat CPU 0 instructions: 263000002 cycles: 1738228189 heartbeat IPC: 0.14685 cumulative IPC: 0.150757 (Simulation time: 0 hr 44 min 38 sec) 
Heartbeat CPU 0 instructions: 264000000 cycles: 1745025786 heartbeat IPC: 0.147111 cumulative IPC: 0.150742 (Simulation time: 0 hr 44 min 48 sec) 
Heartbeat CPU 0 instructions: 265000000 cycles: 1751826878 heartbeat IPC: 0.147035 cumulative IPC: 0.150728 (Simulation time: 0 hr 44 min 58 sec) 
Heartbeat CPU 0 instructions: 266000003 cycles: 1758633737 heartbeat IPC: 0.146911 cumulative IPC: 0.150713 (Simulation time: 0 hr 45 min 8 sec) 
Heartbeat CPU 0 instructions: 267000002 cycles: 1765442031 heartbeat IPC: 0.14688 cumulative IPC: 0.150698 (Simulation time: 0 hr 45 min 18 sec) 
Heartbeat CPU 0 instructions: 268000002 cycles: 1772610523 heartbeat IPC: 0.139499 cumulative IPC: 0.150653 (Simulation time: 0 hr 45 min 28 sec) 
Heartbeat CPU 0 instructions: 269000001 cycles: 1779400086 heartbeat IPC: 0.147285 cumulative IPC: 0.15064 (Simulation time: 0 hr 45 min 38 sec) 
Heartbeat CPU 0 instructions: 270000003 cycles: 1786195215 heartbeat IPC: 0.147165 cumulative IPC: 0.150627 (Simulation time: 0 hr 45 min 48 sec) 
Heartbeat CPU 0 instructions: 271000003 cycles: 1792994397 heartbeat IPC: 0.147077 cumulative IPC: 0.150614 (Simulation time: 0 hr 45 min 58 sec) 
Heartbeat CPU 0 instructions: 272000001 cycles: 1800128086 heartbeat IPC: 0.14018 cumulative IPC: 0.150572 (Simulation time: 0 hr 46 min 9 sec) 
Heartbeat CPU 0 instructions: 273000000 cycles: 1806960742 heartbeat IPC: 0.146356 cumulative IPC: 0.150556 (Simulation time: 0 hr 46 min 19 sec) 
Heartbeat CPU 0 instructions: 274000002 cycles: 1813769721 heartbeat IPC: 0.146865 cumulative IPC: 0.150542 (Simulation time: 0 hr 46 min 30 sec) 
Heartbeat CPU 0 instructions: 275000000 cycles: 1820578898 heartbeat IPC: 0.14686 cumulative IPC: 0.150529 (Simulation time: 0 hr 46 min 40 sec) 
Heartbeat CPU 0 instructions: 276000000 cycles: 1827392533 heartbeat IPC: 0.146765 cumulative IPC: 0.150515 (Simulation time: 0 hr 46 min 50 sec) 
Heartbeat CPU 0 instructions: 277000000 cycles: 1834212217 heartbeat IPC: 0.146634 cumulative IPC: 0.1505 (Simulation time: 0 hr 47 min 0 sec) 
Heartbeat CPU 0 instructions: 278000001 cycles: 1841034979 heartbeat IPC: 0.146568 cumulative IPC: 0.150486 (Simulation time: 0 hr 47 min 10 sec) 
Heartbeat CPU 0 instructions: 279000000 cycles: 1847852757 heartbeat IPC: 0.146675 cumulative IPC: 0.150472 (Simulation time: 0 hr 47 min 20 sec) 
Heartbeat CPU 0 instructions: 280000001 cycles: 1854674722 heartbeat IPC: 0.146585 cumulative IPC: 0.150457 (Simulation time: 0 hr 47 min 30 sec) 
Heartbeat CPU 0 instructions: 281000000 cycles: 1861493101 heartbeat IPC: 0.146662 cumulative IPC: 0.150443 (Simulation time: 0 hr 47 min 40 sec) 
Heartbeat CPU 0 instructions: 282000002 cycles: 1868319152 heartbeat IPC: 0.146498 cumulative IPC: 0.150429 (Simulation time: 0 hr 47 min 51 sec) 
Heartbeat CPU 0 instructions: 283000003 cycles: 1875159286 heartbeat IPC: 0.146196 cumulative IPC: 0.150414 (Simulation time: 0 hr 48 min 1 sec) 
Heartbeat CPU 0 instructions: 284000002 cycles: 1882002699 heartbeat IPC: 0.146126 cumulative IPC: 0.150398 (Simulation time: 0 hr 48 min 12 sec) 
Heartbeat CPU 0 instructions: 285000001 cycles: 1888851281 heartbeat IPC: 0.146015 cumulative IPC: 0.150382 (Simulation time: 0 hr 48 min 23 sec) 
Heartbeat CPU 0 instructions: 286000000 cycles: 1895710014 heartbeat IPC: 0.145799 cumulative IPC: 0.150365 (Simulation time: 0 hr 48 min 33 sec) 
Heartbeat CPU 0 instructions: 287000001 cycles: 1902575151 heartbeat IPC: 0.145664 cumulative IPC: 0.150348 (Simulation time: 0 hr 48 min 44 sec) 
Heartbeat CPU 0 instructions: 288000000 cycles: 1909461967 heartbeat IPC: 0.145205 cumulative IPC: 0.15033 (Simulation time: 0 hr 48 min 54 sec) 
Heartbeat CPU 0 instructions: 289000002 cycles: 1916336137 heartbeat IPC: 0.145472 cumulative IPC: 0.150313 (Simulation time: 0 hr 49 min 5 sec) 
Heartbeat CPU 0 instructions: 290000000 cycles: 1923201338 heartbeat IPC: 0.145662 cumulative IPC: 0.150296 (Simulation time: 0 hr 49 min 15 sec) 
Heartbeat CPU 0 instructions: 291000001 cycles: 1930063694 heartbeat IPC: 0.145723 cumulative IPC: 0.15028 (Simulation time: 0 hr 49 min 26 sec) 
Heartbeat CPU 0 instructions: 292000003 cycles: 1936935318 heartbeat IPC: 0.145526 cumulative IPC: 0.150263 (Simulation time: 0 hr 49 min 37 sec) 
Heartbeat CPU 0 instructions: 293000002 cycles: 1943802553 heartbeat IPC: 0.145619 cumulative IPC: 0.150246 (Simulation time: 0 hr 49 min 48 sec) 
Heartbeat CPU 0 instructions: 294000000 cycles: 1950767904 heartbeat IPC: 0.143568 cumulative IPC: 0.150223 (Simulation time: 0 hr 49 min 59 sec) 
Heartbeat CPU 0 instructions: 295000000 cycles: 1957664850 heartbeat IPC: 0.144992 cumulative IPC: 0.150204 (Simulation time: 0 hr 50 min 10 sec) 
Heartbeat CPU 0 instructions: 296000003 cycles: 1964552655 heartbeat IPC: 0.145185 cumulative IPC: 0.150186 (Simulation time: 0 hr 50 min 21 sec) 
Heartbeat CPU 0 instructions: 297000000 cycles: 1971448629 heartbeat IPC: 0.145012 cumulative IPC: 0.150168 (Simulation time: 0 hr 50 min 31 sec) 
Heartbeat CPU 0 instructions: 298000003 cycles: 1978334823 heartbeat IPC: 0.145219 cumulative IPC: 0.150151 (Simulation time: 0 hr 50 min 42 sec) 
Heartbeat CPU 0 instructions: 299000002 cycles: 1985219863 heartbeat IPC: 0.145242 cumulative IPC: 0.150134 (Simulation time: 0 hr 50 min 53 sec) 
Heartbeat CPU 0 instructions: 300000003 cycles: 1992117406 heartbeat IPC: 0.144979 cumulative IPC: 0.150116 (Simulation time: 0 hr 51 min 4 sec) 
Heartbeat CPU 0 instructions: 301000003 cycles: 1998999847 heartbeat IPC: 0.145297 cumulative IPC: 0.1501 (Simulation time: 0 hr 51 min 15 sec) 
Heartbeat CPU 0 instructions: 302000002 cycles: 2005877935 heartbeat IPC: 0.145389 cumulative IPC: 0.150084 (Simulation time: 0 hr 51 min 26 sec) 
Heartbeat CPU 0 instructions: 303000002 cycles: 2012759080 heartbeat IPC: 0.145325 cumulative IPC: 0.150067 (Simulation time: 0 hr 51 min 36 sec) 
Heartbeat CPU 0 instructions: 304000003 cycles: 2019655700 heartbeat IPC: 0.144999 cumulative IPC: 0.15005 (Simulation time: 0 hr 51 min 47 sec) 
Heartbeat CPU 0 instructions: 305000000 cycles: 2026539945 heartbeat IPC: 0.145259 cumulative IPC: 0.150034 (Simulation time: 0 hr 51 min 57 sec) 
Heartbeat CPU 0 instructions: 306000000 cycles: 2033413850 heartbeat IPC: 0.145478 cumulative IPC: 0.150018 (Simulation time: 0 hr 52 min 8 sec) 
Heartbeat CPU 0 instructions: 307000003 cycles: 2040306953 heartbeat IPC: 0.145073 cumulative IPC: 0.150002 (Simulation time: 0 hr 52 min 18 sec) 
Heartbeat CPU 0 instructions: 308000000 cycles: 2047196947 heartbeat IPC: 0.145138 cumulative IPC: 0.149985 (Simulation time: 0 hr 52 min 28 sec) 
Heartbeat CPU 0 instructions: 309000000 cycles: 2054091690 heartbeat IPC: 0.145038 cumulative IPC: 0.149969 (Simulation time: 0 hr 52 min 39 sec) 
Heartbeat CPU 0 instructions: 310000001 cycles: 2060982958 heartbeat IPC: 0.145111 cumulative IPC: 0.149952 (Simulation time: 0 hr 52 min 49 sec) 
Heartbeat CPU 0 instructions: 311000000 cycles: 2067877953 heartbeat IPC: 0.145033 cumulative IPC: 0.149936 (Simulation time: 0 hr 52 min 59 sec) 
Heartbeat CPU 0 instructions: 312000002 cycles: 2074779904 heartbeat IPC: 0.144887 cumulative IPC: 0.149919 (Simulation time: 0 hr 53 min 10 sec) 
Heartbeat CPU 0 instructions: 313000001 cycles: 2081663963 heartbeat IPC: 0.145263 cumulative IPC: 0.149904 (Simulation time: 0 hr 53 min 20 sec) 
Heartbeat CPU 0 instructions: 314000000 cycles: 2088560485 heartbeat IPC: 0.145 cumulative IPC: 0.149888 (Simulation time: 0 hr 53 min 31 sec) 
Heartbeat CPU 0 instructions: 315000000 cycles: 2095460652 heartbeat IPC: 0.144924 cumulative IPC: 0.149871 (Simulation time: 0 hr 53 min 41 sec) 
Heartbeat CPU 0 instructions: 316000001 cycles: 2102360606 heartbeat IPC: 0.144929 cumulative IPC: 0.149855 (Simulation time: 0 hr 53 min 52 sec) 
Heartbeat CPU 0 instructions: 317000000 cycles: 2109267498 heartbeat IPC: 0.144783 cumulative IPC: 0.149838 (Simulation time: 0 hr 54 min 3 sec) 
Heartbeat CPU 0 instructions: 318000002 cycles: 2116168593 heartbeat IPC: 0.144905 cumulative IPC: 0.149822 (Simulation time: 0 hr 54 min 13 sec) 
Heartbeat CPU 0 instructions: 319000000 cycles: 2123066493 heartbeat IPC: 0.144971 cumulative IPC: 0.149806 (Simulation time: 0 hr 54 min 24 sec) 
Heartbeat CPU 0 instructions: 320000001 cycles: 2129958068 heartbeat IPC: 0.145105 cumulative IPC: 0.149791 (Simulation time: 0 hr 54 min 34 sec) 
Heartbeat CPU 0 instructions: 321000001 cycles: 2136856803 heartbeat IPC: 0.144954 cumulative IPC: 0.149776 (Simulation time: 0 hr 54 min 45 sec) 
Heartbeat CPU 0 instructions: 322000002 cycles: 2143752199 heartbeat IPC: 0.145024 cumulative IPC: 0.14976 (Simulation time: 0 hr 54 min 55 sec) 
Heartbeat CPU 0 instructions: 323000003 cycles: 2150652848 heartbeat IPC: 0.144914 cumulative IPC: 0.149745 (Simulation time: 0 hr 55 min 6 sec) 
Heartbeat CPU 0 instructions: 324000002 cycles: 2157538067 heartbeat IPC: 0.145239 cumulative IPC: 0.14973 (Simulation time: 0 hr 55 min 16 sec) 
Heartbeat CPU 0 instructions: 325000002 cycles: 2164426140 heartbeat IPC: 0.145178 cumulative IPC: 0.149716 (Simulation time: 0 hr 55 min 27 sec) 
Heartbeat CPU 0 instructions: 326000003 cycles: 2171315623 heartbeat IPC: 0.145149 cumulative IPC: 0.149701 (Simulation time: 0 hr 55 min 37 sec) 
Heartbeat CPU 0 instructions: 327000002 cycles: 2178220636 heartbeat IPC: 0.144822 cumulative IPC: 0.149686 (Simulation time: 0 hr 55 min 48 sec) 
Heartbeat CPU 0 instructions: 328000000 cycles: 2185123359 heartbeat IPC: 0.14487 cumulative IPC: 0.149671 (Simulation time: 0 hr 55 min 58 sec) 
Heartbeat CPU 0 instructions: 329000001 cycles: 2192016733 heartbeat IPC: 0.145067 cumulative IPC: 0.149656 (Simulation time: 0 hr 56 min 9 sec) 
Heartbeat CPU 0 instructions: 330000000 cycles: 2198911259 heartbeat IPC: 0.145042 cumulative IPC: 0.149642 (Simulation time: 0 hr 56 min 20 sec) 
Heartbeat CPU 0 instructions: 331000001 cycles: 2205806547 heartbeat IPC: 0.145027 cumulative IPC: 0.149627 (Simulation time: 0 hr 56 min 31 sec) 
Heartbeat CPU 0 instructions: 332000000 cycles: 2212710906 heartbeat IPC: 0.144836 cumulative IPC: 0.149612 (Simulation time: 0 hr 56 min 41 sec) 
Heartbeat CPU 0 instructions: 333000001 cycles: 2219615319 heartbeat IPC: 0.144835 cumulative IPC: 0.149598 (Simulation time: 0 hr 56 min 51 sec) 
Heartbeat CPU 0 instructions: 334000001 cycles: 2226508901 heartbeat IPC: 0.145062 cumulative IPC: 0.149584 (Simulation time: 0 hr 57 min 2 sec) 
Heartbeat CPU 0 instructions: 335000002 cycles: 2233397571 heartbeat IPC: 0.145166 cumulative IPC: 0.14957 (Simulation time: 0 hr 57 min 12 sec) 
Heartbeat CPU 0 instructions: 336000001 cycles: 2240298395 heartbeat IPC: 0.14491 cumulative IPC: 0.149556 (Simulation time: 0 hr 57 min 23 sec) 
Heartbeat CPU 0 instructions: 337000002 cycles: 2247195878 heartbeat IPC: 0.144981 cumulative IPC: 0.149541 (Simulation time: 0 hr 57 min 34 sec) 
Heartbeat CPU 0 instructions: 338000000 cycles: 2254099524 heartbeat IPC: 0.144851 cumulative IPC: 0.149527 (Simulation time: 0 hr 57 min 44 sec) 
Heartbeat CPU 0 instructions: 339000000 cycles: 2260991904 heartbeat IPC: 0.145088 cumulative IPC: 0.149514 (Simulation time: 0 hr 57 min 55 sec) 
Heartbeat CPU 0 instructions: 340000001 cycles: 2267880242 heartbeat IPC: 0.145173 cumulative IPC: 0.1495 (Simulation time: 0 hr 58 min 6 sec) 
Heartbeat CPU 0 instructions: 341000000 cycles: 2274769782 heartbeat IPC: 0.145147 cumulative IPC: 0.149487 (Simulation time: 0 hr 58 min 16 sec) 
Heartbeat CPU 0 instructions: 342000002 cycles: 2281656198 heartbeat IPC: 0.145214 cumulative IPC: 0.149474 (Simulation time: 0 hr 58 min 26 sec) 
Heartbeat CPU 0 instructions: 343000003 cycles: 2288547772 heartbeat IPC: 0.145105 cumulative IPC: 0.149461 (Simulation time: 0 hr 58 min 36 sec) 
Heartbeat CPU 0 instructions: 344000002 cycles: 2295448292 heartbeat IPC: 0.144916 cumulative IPC: 0.149448 (Simulation time: 0 hr 58 min 46 sec) 
Heartbeat CPU 0 instructions: 345000000 cycles: 2302361421 heartbeat IPC: 0.144652 cumulative IPC: 0.149433 (Simulation time: 0 hr 58 min 57 sec) 
Heartbeat CPU 0 instructions: 346000003 cycles: 2309269392 heartbeat IPC: 0.144761 cumulative IPC: 0.149419 (Simulation time: 0 hr 59 min 8 sec) 
Heartbeat CPU 0 instructions: 347000002 cycles: 2316182170 heartbeat IPC: 0.14466 cumulative IPC: 0.149405 (Simulation time: 0 hr 59 min 18 sec) 
Heartbeat CPU 0 instructions: 348000003 cycles: 2323406828 heartbeat IPC: 0.138415 cumulative IPC: 0.149371 (Simulation time: 0 hr 59 min 29 sec) 
Heartbeat CPU 0 instructions: 349000000 cycles: 2330303406 heartbeat IPC: 0.144999 cumulative IPC: 0.149358 (Simulation time: 0 hr 59 min 40 sec) 
Heartbeat CPU 0 instructions: 350000001 cycles: 2337206550 heartbeat IPC: 0.144862 cumulative IPC: 0.149345 (Simulation time: 0 hr 59 min 50 sec) 
Heartbeat CPU 0 instructions: 351000001 cycles: 2344111833 heartbeat IPC: 0.144817 cumulative IPC: 0.149331 (Simulation time: 1 hr 0 min 1 sec) 
Heartbeat CPU 0 instructions: 352000000 cycles: 2351016473 heartbeat IPC: 0.14483 cumulative IPC: 0.149318 (Simulation time: 1 hr 0 min 12 sec) 
Heartbeat CPU 0 instructions: 353000003 cycles: 2357924149 heartbeat IPC: 0.144767 cumulative IPC: 0.149305 (Simulation time: 1 hr 0 min 22 sec) 
Heartbeat CPU 0 instructions: 354000002 cycles: 2364828942 heartbeat IPC: 0.144827 cumulative IPC: 0.149292 (Simulation time: 1 hr 0 min 32 sec) 
Heartbeat CPU 0 instructions: 355000001 cycles: 2371735777 heartbeat IPC: 0.144784 cumulative IPC: 0.149278 (Simulation time: 1 hr 0 min 43 sec) 
Heartbeat CPU 0 instructions: 356000000 cycles: 2378645523 heartbeat IPC: 0.144723 cumulative IPC: 0.149265 (Simulation time: 1 hr 0 min 53 sec) 
Heartbeat CPU 0 instructions: 357000002 cycles: 2385555518 heartbeat IPC: 0.144718 cumulative IPC: 0.149252 (Simulation time: 1 hr 1 min 3 sec) 
Heartbeat CPU 0 instructions: 358000000 cycles: 2392466978 heartbeat IPC: 0.144687 cumulative IPC: 0.149239 (Simulation time: 1 hr 1 min 14 sec) 
Heartbeat CPU 0 instructions: 359000000 cycles: 2399375892 heartbeat IPC: 0.144741 cumulative IPC: 0.149226 (Simulation time: 1 hr 1 min 25 sec) 
Heartbeat CPU 0 instructions: 360000000 cycles: 2406280502 heartbeat IPC: 0.144831 cumulative IPC: 0.149213 (Simulation time: 1 hr 1 min 36 sec) 
Heartbeat CPU 0 instructions: 361000003 cycles: 2413182969 heartbeat IPC: 0.144876 cumulative IPC: 0.149201 (Simulation time: 1 hr 1 min 46 sec) 
Heartbeat CPU 0 instructions: 362000000 cycles: 2420094183 heartbeat IPC: 0.144692 cumulative IPC: 0.149188 (Simulation time: 1 hr 1 min 57 sec) 
Heartbeat CPU 0 instructions: 363000000 cycles: 2427009368 heartbeat IPC: 0.144609 cumulative IPC: 0.149175 (Simulation time: 1 hr 2 min 8 sec) 
Heartbeat CPU 0 instructions: 364000000 cycles: 2433926736 heartbeat IPC: 0.144564 cumulative IPC: 0.149162 (Simulation time: 1 hr 2 min 18 sec) 
Heartbeat CPU 0 instructions: 365000002 cycles: 2440840462 heartbeat IPC: 0.14464 cumulative IPC: 0.149149 (Simulation time: 1 hr 2 min 29 sec) 
Heartbeat CPU 0 instructions: 366000001 cycles: 2447758646 heartbeat IPC: 0.144546 cumulative IPC: 0.149136 (Simulation time: 1 hr 2 min 39 sec) 
Heartbeat CPU 0 instructions: 367000000 cycles: 2454672753 heartbeat IPC: 0.144632 cumulative IPC: 0.149123 (Simulation time: 1 hr 2 min 50 sec) 
Heartbeat CPU 0 instructions: 368000000 cycles: 2461593319 heartbeat IPC: 0.144497 cumulative IPC: 0.14911 (Simulation time: 1 hr 3 min 1 sec) 
Heartbeat CPU 0 instructions: 369000000 cycles: 2468506941 heartbeat IPC: 0.144642 cumulative IPC: 0.149098 (Simulation time: 1 hr 3 min 11 sec) 
Heartbeat CPU 0 instructions: 370000000 cycles: 2475422392 heartbeat IPC: 0.144604 cumulative IPC: 0.149085 (Simulation time: 1 hr 3 min 21 sec) 
Heartbeat CPU 0 instructions: 371000002 cycles: 2482331463 heartbeat IPC: 0.144738 cumulative IPC: 0.149073 (Simulation time: 1 hr 3 min 32 sec) 
Heartbeat CPU 0 instructions: 372000001 cycles: 2489251301 heartbeat IPC: 0.144512 cumulative IPC: 0.14906 (Simulation time: 1 hr 3 min 43 sec) 
Heartbeat CPU 0 instructions: 373000000 cycles: 2496169932 heartbeat IPC: 0.144537 cumulative IPC: 0.149048 (Simulation time: 1 hr 3 min 54 sec) 
Heartbeat CPU 0 instructions: 374000000 cycles: 2503067592 heartbeat IPC: 0.144977 cumulative IPC: 0.149037 (Simulation time: 1 hr 4 min 4 sec) 
Heartbeat CPU 0 instructions: 375000002 cycles: 2509954304 heartbeat IPC: 0.145207 cumulative IPC: 0.149026 (Simulation time: 1 hr 4 min 15 sec) 
Heartbeat CPU 0 instructions: 376000001 cycles: 2516850348 heartbeat IPC: 0.145011 cumulative IPC: 0.149015 (Simulation time: 1 hr 4 min 25 sec) 
Heartbeat CPU 0 instructions: 377000000 cycles: 2523753705 heartbeat IPC: 0.144857 cumulative IPC: 0.149004 (Simulation time: 1 hr 4 min 36 sec) 
Heartbeat CPU 0 instructions: 378000001 cycles: 2530657579 heartbeat IPC: 0.144846 cumulative IPC: 0.148992 (Simulation time: 1 hr 4 min 47 sec) 
Heartbeat CPU 0 instructions: 379000000 cycles: 2537565498 heartbeat IPC: 0.144761 cumulative IPC: 0.148981 (Simulation time: 1 hr 4 min 57 sec) 
Heartbeat CPU 0 instructions: 380000000 cycles: 2544472258 heartbeat IPC: 0.144786 cumulative IPC: 0.14897 (Simulation time: 1 hr 5 min 8 sec) 
Heartbeat CPU 0 instructions: 381000000 cycles: 2551373175 heartbeat IPC: 0.144908 cumulative IPC: 0.148959 (Simulation time: 1 hr 5 min 18 sec) 
Heartbeat CPU 0 instructions: 382000001 cycles: 2558284327 heartbeat IPC: 0.144694 cumulative IPC: 0.148947 (Simulation time: 1 hr 5 min 28 sec) 
Heartbeat CPU 0 instructions: 383000001 cycles: 2565192547 heartbeat IPC: 0.144755 cumulative IPC: 0.148936 (Simulation time: 1 hr 5 min 38 sec) 
Heartbeat CPU 0 instructions: 384000000 cycles: 2572108879 heartbeat IPC: 0.144585 cumulative IPC: 0.148924 (Simulation time: 1 hr 5 min 49 sec) 
Heartbeat CPU 0 instructions: 385000000 cycles: 2579018969 heartbeat IPC: 0.144716 cumulative IPC: 0.148913 (Simulation time: 1 hr 5 min 59 sec) 
Heartbeat CPU 0 instructions: 386000002 cycles: 2585925455 heartbeat IPC: 0.144792 cumulative IPC: 0.148902 (Simulation time: 1 hr 6 min 10 sec) 
Heartbeat CPU 0 instructions: 387000001 cycles: 2592831575 heartbeat IPC: 0.144799 cumulative IPC: 0.148891 (Simulation time: 1 hr 6 min 20 sec) 
Heartbeat CPU 0 instructions: 388000000 cycles: 2599743246 heartbeat IPC: 0.144683 cumulative IPC: 0.14888 (Simulation time: 1 hr 6 min 30 sec) 
Heartbeat CPU 0 instructions: 389000003 cycles: 2606645311 heartbeat IPC: 0.144885 cumulative IPC: 0.148869 (Simulation time: 1 hr 6 min 40 sec) 
Heartbeat CPU 0 instructions: 390000000 cycles: 2613543668 heartbeat IPC: 0.144962 cumulative IPC: 0.148859 (Simulation time: 1 hr 6 min 51 sec) 
Heartbeat CPU 0 instructions: 391000002 cycles: 2620437283 heartbeat IPC: 0.145062 cumulative IPC: 0.148849 (Simulation time: 1 hr 7 min 1 sec) 
Heartbeat CPU 0 instructions: 392000002 cycles: 2627351120 heartbeat IPC: 0.144637 cumulative IPC: 0.148838 (Simulation time: 1 hr 7 min 11 sec) 
Heartbeat CPU 0 instructions: 393000001 cycles: 2634260881 heartbeat IPC: 0.144723 cumulative IPC: 0.148827 (Simulation time: 1 hr 7 min 21 sec) 
Heartbeat CPU 0 instructions: 394000001 cycles: 2641172363 heartbeat IPC: 0.144687 cumulative IPC: 0.148816 (Simulation time: 1 hr 7 min 32 sec) 
Heartbeat CPU 0 instructions: 395000002 cycles: 2648083840 heartbeat IPC: 0.144687 cumulative IPC: 0.148805 (Simulation time: 1 hr 7 min 43 sec) 
Heartbeat CPU 0 instructions: 396000000 cycles: 2655009726 heartbeat IPC: 0.144386 cumulative IPC: 0.148794 (Simulation time: 1 hr 7 min 53 sec) 
Heartbeat CPU 0 instructions: 397000000 cycles: 2661931574 heartbeat IPC: 0.14447 cumulative IPC: 0.148782 (Simulation time: 1 hr 8 min 3 sec) 
Heartbeat CPU 0 instructions: 398000000 cycles: 2668841899 heartbeat IPC: 0.144711 cumulative IPC: 0.148772 (Simulation time: 1 hr 8 min 13 sec) 
Heartbeat CPU 0 instructions: 399000002 cycles: 2675741356 heartbeat IPC: 0.144939 cumulative IPC: 0.148762 (Simulation time: 1 hr 8 min 24 sec) 
Heartbeat CPU 0 instructions: 400000001 cycles: 2682646854 heartbeat IPC: 0.144812 cumulative IPC: 0.148752 (Simulation time: 1 hr 8 min 34 sec) 
Heartbeat CPU 0 instructions: 401000000 cycles: 2689549188 heartbeat IPC: 0.144878 cumulative IPC: 0.148742 (Simulation time: 1 hr 8 min 44 sec) 
Heartbeat CPU 0 instructions: 402000003 cycles: 2696448701 heartbeat IPC: 0.144938 cumulative IPC: 0.148732 (Simulation time: 1 hr 8 min 55 sec) 
Heartbeat CPU 0 instructions: 403000003 cycles: 2703350443 heartbeat IPC: 0.144891 cumulative IPC: 0.148722 (Simulation time: 1 hr 9 min 5 sec) 
Heartbeat CPU 0 instructions: 404000000 cycles: 2710259092 heartbeat IPC: 0.144746 cumulative IPC: 0.148712 (Simulation time: 1 hr 9 min 16 sec) 
Heartbeat CPU 0 instructions: 405000003 cycles: 2717162192 heartbeat IPC: 0.144863 cumulative IPC: 0.148702 (Simulation time: 1 hr 9 min 26 sec) 
Heartbeat CPU 0 instructions: 406000002 cycles: 2724071833 heartbeat IPC: 0.144725 cumulative IPC: 0.148692 (Simulation time: 1 hr 9 min 37 sec) 
Heartbeat CPU 0 instructions: 407000000 cycles: 2730984284 heartbeat IPC: 0.144666 cumulative IPC: 0.148682 (Simulation time: 1 hr 9 min 47 sec) 
Heartbeat CPU 0 instructions: 408000000 cycles: 2737889690 heartbeat IPC: 0.144814 cumulative IPC: 0.148672 (Simulation time: 1 hr 9 min 58 sec) 
Heartbeat CPU 0 instructions: 409000000 cycles: 2744795397 heartbeat IPC: 0.144808 cumulative IPC: 0.148663 (Simulation time: 1 hr 10 min 8 sec) 
Heartbeat CPU 0 instructions: 410000001 cycles: 2751719627 heartbeat IPC: 0.144421 cumulative IPC: 0.148652 (Simulation time: 1 hr 10 min 19 sec) 
Heartbeat CPU 0 instructions: 411000000 cycles: 2758639673 heartbeat IPC: 0.144508 cumulative IPC: 0.148642 (Simulation time: 1 hr 10 min 29 sec) 
Heartbeat CPU 0 instructions: 412000003 cycles: 2765556325 heartbeat IPC: 0.144579 cumulative IPC: 0.148631 (Simulation time: 1 hr 10 min 39 sec) 
Heartbeat CPU 0 instructions: 413000001 cycles: 2772478045 heartbeat IPC: 0.144472 cumulative IPC: 0.148621 (Simulation time: 1 hr 10 min 49 sec) 
Heartbeat CPU 0 instructions: 414000001 cycles: 2779397029 heartbeat IPC: 0.14453 cumulative IPC: 0.148611 (Simulation time: 1 hr 11 min 0 sec) 
Heartbeat CPU 0 instructions: 415000003 cycles: 2786315828 heartbeat IPC: 0.144534 cumulative IPC: 0.148601 (Simulation time: 1 hr 11 min 10 sec) 
Heartbeat CPU 0 instructions: 416000003 cycles: 2793245551 heartbeat IPC: 0.144306 cumulative IPC: 0.14859 (Simulation time: 1 hr 11 min 21 sec) 
Heartbeat CPU 0 instructions: 417000002 cycles: 2800490265 heartbeat IPC: 0.138032 cumulative IPC: 0.148563 (Simulation time: 1 hr 11 min 32 sec) 
Heartbeat CPU 0 instructions: 418000000 cycles: 2807401283 heartbeat IPC: 0.144696 cumulative IPC: 0.148553 (Simulation time: 1 hr 11 min 43 sec) 
Heartbeat CPU 0 instructions: 419000000 cycles: 2814308252 heartbeat IPC: 0.144781 cumulative IPC: 0.148544 (Simulation time: 1 hr 11 min 53 sec) 
Heartbeat CPU 0 instructions: 420000003 cycles: 2821204006 heartbeat IPC: 0.145017 cumulative IPC: 0.148535 (Simulation time: 1 hr 12 min 3 sec) 
Heartbeat CPU 0 instructions: 421000002 cycles: 2828106461 heartbeat IPC: 0.144876 cumulative IPC: 0.148526 (Simulation time: 1 hr 12 min 14 sec) 
Heartbeat CPU 0 instructions: 422000001 cycles: 2835005471 heartbeat IPC: 0.144948 cumulative IPC: 0.148518 (Simulation time: 1 hr 12 min 24 sec) 
Heartbeat CPU 0 instructions: 423000000 cycles: 2841902867 heartbeat IPC: 0.144982 cumulative IPC: 0.148509 (Simulation time: 1 hr 12 min 35 sec) 
Heartbeat CPU 0 instructions: 424000003 cycles: 2848806528 heartbeat IPC: 0.144851 cumulative IPC: 0.1485 (Simulation time: 1 hr 12 min 45 sec) 
Heartbeat CPU 0 instructions: 425000000 cycles: 2855707142 heartbeat IPC: 0.144914 cumulative IPC: 0.148492 (Simulation time: 1 hr 12 min 55 sec) 
Heartbeat CPU 0 instructions: 426000000 cycles: 2862609992 heartbeat IPC: 0.144868 cumulative IPC: 0.148483 (Simulation time: 1 hr 13 min 6 sec) 
Heartbeat CPU 0 instructions: 427000003 cycles: 2869521566 heartbeat IPC: 0.144685 cumulative IPC: 0.148474 (Simulation time: 1 hr 13 min 17 sec) 
Heartbeat CPU 0 instructions: 428000000 cycles: 2876437794 heartbeat IPC: 0.144587 cumulative IPC: 0.148464 (Simulation time: 1 hr 13 min 27 sec) 
Heartbeat CPU 0 instructions: 429000000 cycles: 2883354787 heartbeat IPC: 0.144571 cumulative IPC: 0.148455 (Simulation time: 1 hr 13 min 38 sec) 
Heartbeat CPU 0 instructions: 430000001 cycles: 2890267202 heartbeat IPC: 0.144667 cumulative IPC: 0.148446 (Simulation time: 1 hr 13 min 48 sec) 
Heartbeat CPU 0 instructions: 431000000 cycles: 2897187822 heartbeat IPC: 0.144496 cumulative IPC: 0.148437 (Simulation time: 1 hr 13 min 58 sec) 
Heartbeat CPU 0 instructions: 432000003 cycles: 2904105903 heartbeat IPC: 0.144549 cumulative IPC: 0.148427 (Simulation time: 1 hr 14 min 9 sec) 
Heartbeat CPU 0 instructions: 433000000 cycles: 2911027885 heartbeat IPC: 0.144467 cumulative IPC: 0.148418 (Simulation time: 1 hr 14 min 19 sec) 
Heartbeat CPU 0 instructions: 434000003 cycles: 2917958802 heartbeat IPC: 0.144281 cumulative IPC: 0.148408 (Simulation time: 1 hr 14 min 29 sec) 
Heartbeat CPU 0 instructions: 435000002 cycles: 2924874561 heartbeat IPC: 0.144597 cumulative IPC: 0.148399 (Simulation time: 1 hr 14 min 39 sec) 
Heartbeat CPU 0 instructions: 436000002 cycles: 2931801268 heartbeat IPC: 0.144369 cumulative IPC: 0.14839 (Simulation time: 1 hr 14 min 49 sec) 
Heartbeat CPU 0 instructions: 437000002 cycles: 2939062321 heartbeat IPC: 0.137721 cumulative IPC: 0.148363 (Simulation time: 1 hr 15 min 0 sec) 
Heartbeat CPU 0 instructions: 438000001 cycles: 2946180208 heartbeat IPC: 0.140491 cumulative IPC: 0.148344 (Simulation time: 1 hr 15 min 11 sec) 
Heartbeat CPU 0 instructions: 439000001 cycles: 2953458198 heartbeat IPC: 0.137401 cumulative IPC: 0.148317 (Simulation time: 1 hr 15 min 21 sec) 
Heartbeat CPU 0 instructions: 440000000 cycles: 2960814850 heartbeat IPC: 0.135931 cumulative IPC: 0.148286 (Simulation time: 1 hr 15 min 33 sec) 
Heartbeat CPU 0 instructions: 441000000 cycles: 2968148733 heartbeat IPC: 0.136353 cumulative IPC: 0.148257 (Simulation time: 1 hr 15 min 44 sec) 
Heartbeat CPU 0 instructions: 442000003 cycles: 2975585588 heartbeat IPC: 0.134466 cumulative IPC: 0.148222 (Simulation time: 1 hr 15 min 55 sec) 
Heartbeat CPU 0 instructions: 443000003 cycles: 2983082620 heartbeat IPC: 0.133386 cumulative IPC: 0.148185 (Simulation time: 1 hr 16 min 5 sec) 
Heartbeat CPU 0 instructions: 444000000 cycles: 2990604530 heartbeat IPC: 0.132945 cumulative IPC: 0.148147 (Simulation time: 1 hr 16 min 16 sec) 
Heartbeat CPU 0 instructions: 445000002 cycles: 2998146946 heartbeat IPC: 0.132584 cumulative IPC: 0.148108 (Simulation time: 1 hr 16 min 28 sec) 
Heartbeat CPU 0 instructions: 446000002 cycles: 3005730147 heartbeat IPC: 0.13187 cumulative IPC: 0.148067 (Simulation time: 1 hr 16 min 40 sec) 
Heartbeat CPU 0 instructions: 447000001 cycles: 3013344330 heartbeat IPC: 0.131334 cumulative IPC: 0.148024 (Simulation time: 1 hr 16 min 52 sec) 
Heartbeat CPU 0 instructions: 448000003 cycles: 3020972302 heartbeat IPC: 0.131097 cumulative IPC: 0.147982 (Simulation time: 1 hr 17 min 3 sec) 
Heartbeat CPU 0 instructions: 449000000 cycles: 3028638736 heartbeat IPC: 0.130438 cumulative IPC: 0.147937 (Simulation time: 1 hr 17 min 14 sec) 
Heartbeat CPU 0 instructions: 450000001 cycles: 3036309034 heartbeat IPC: 0.130373 cumulative IPC: 0.147893 (Simulation time: 1 hr 17 min 25 sec) 

Warmup complete CPU 0 instructions: 450000001 cycles: 3036309034 (Simulation time: 1 hr 17 min 25 sec) 

Heartbeat CPU 0 instructions: 451000000 cycles: 3044026993 heartbeat IPC: 0.129568 cumulative IPC: 0.129568 (Simulation time: 1 hr 17 min 37 sec) 
Heartbeat CPU 0 instructions: 452000000 cycles: 3051752813 heartbeat IPC: 0.129436 cumulative IPC: 0.129502 (Simulation time: 1 hr 17 min 48 sec) 
Heartbeat CPU 0 instructions: 453000002 cycles: 3059519023 heartbeat IPC: 0.128763 cumulative IPC: 0.129255 (Simulation time: 1 hr 18 min 0 sec) 
Heartbeat CPU 0 instructions: 454000001 cycles: 3067295394 heartbeat IPC: 0.128595 cumulative IPC: 0.129089 (Simulation time: 1 hr 18 min 12 sec) 
Heartbeat CPU 0 instructions: 455000001 cycles: 3075073613 heartbeat IPC: 0.128564 cumulative IPC: 0.128984 (Simulation time: 1 hr 18 min 23 sec) 
Heartbeat CPU 0 instructions: 456000000 cycles: 3082940709 heartbeat IPC: 0.127112 cumulative IPC: 0.128668 (Simulation time: 1 hr 18 min 36 sec) 
Heartbeat CPU 0 instructions: 457000000 cycles: 3092594289 heartbeat IPC: 0.103589 cumulative IPC: 0.124366 (Simulation time: 1 hr 18 min 48 sec) 
Heartbeat CPU 0 instructions: 458000002 cycles: 3102317514 heartbeat IPC: 0.102847 cumulative IPC: 0.121197 (Simulation time: 1 hr 19 min 0 sec) 
Heartbeat CPU 0 instructions: 459000002 cycles: 3109231479 heartbeat IPC: 0.144635 cumulative IPC: 0.123419 (Simulation time: 1 hr 19 min 12 sec) 
Heartbeat CPU 0 instructions: 460000000 cycles: 3112280295 heartbeat IPC: 0.327996 cumulative IPC: 0.131629 (Simulation time: 1 hr 19 min 22 sec) 
Heartbeat CPU 0 instructions: 461000000 cycles: 3115319662 heartbeat IPC: 0.329016 cumulative IPC: 0.139222 (Simulation time: 1 hr 19 min 33 sec) 
Heartbeat CPU 0 instructions: 462000000 cycles: 3118349717 heartbeat IPC: 0.330027 cumulative IPC: 0.146269 (Simulation time: 1 hr 19 min 44 sec) 
Heartbeat CPU 0 instructions: 463000001 cycles: 3121389431 heartbeat IPC: 0.328979 cumulative IPC: 0.152797 (Simulation time: 1 hr 19 min 55 sec) 
Heartbeat CPU 0 instructions: 464000000 cycles: 3124421045 heartbeat IPC: 0.329857 cumulative IPC: 0.158889 (Simulation time: 1 hr 20 min 6 sec) 
Heartbeat CPU 0 instructions: 465000001 cycles: 3127449451 heartbeat IPC: 0.330207 cumulative IPC: 0.164581 (Simulation time: 1 hr 20 min 16 sec) 
Heartbeat CPU 0 instructions: 466000001 cycles: 3130476275 heartbeat IPC: 0.330379 cumulative IPC: 0.16991 (Simulation time: 1 hr 20 min 27 sec) 
Heartbeat CPU 0 instructions: 467000002 cycles: 3133515368 heartbeat IPC: 0.329046 cumulative IPC: 0.174886 (Simulation time: 1 hr 20 min 38 sec) 
Heartbeat CPU 0 instructions: 468000000 cycles: 3136538745 heartbeat IPC: 0.330755 cumulative IPC: 0.179587 (Simulation time: 1 hr 20 min 49 sec) 
Heartbeat CPU 0 instructions: 469000000 cycles: 3139573841 heartbeat IPC: 0.329479 cumulative IPC: 0.183993 (Simulation time: 1 hr 21 min 0 sec) 
Heartbeat CPU 0 instructions: 470000000 cycles: 3142591755 heartbeat IPC: 0.331355 cumulative IPC: 0.188177 (Simulation time: 1 hr 21 min 10 sec) 
Heartbeat CPU 0 instructions: 471000000 cycles: 3145627099 heartbeat IPC: 0.329452 cumulative IPC: 0.1921 (Simulation time: 1 hr 21 min 21 sec) 
Heartbeat CPU 0 instructions: 472000000 cycles: 3148678903 heartbeat IPC: 0.327675 cumulative IPC: 0.195782 (Simulation time: 1 hr 21 min 31 sec) 
Heartbeat CPU 0 instructions: 473000000 cycles: 3151698336 heartbeat IPC: 0.331188 cumulative IPC: 0.199325 (Simulation time: 1 hr 21 min 42 sec) 
Heartbeat CPU 0 instructions: 474000000 cycles: 3154720091 heartbeat IPC: 0.330934 cumulative IPC: 0.202684 (Simulation time: 1 hr 21 min 52 sec) 
Heartbeat CPU 0 instructions: 475000000 cycles: 3157756444 heartbeat IPC: 0.329342 cumulative IPC: 0.20585 (Simulation time: 1 hr 22 min 2 sec) 
Heartbeat CPU 0 instructions: 476000002 cycles: 3160781143 heartbeat IPC: 0.330612 cumulative IPC: 0.208882 (Simulation time: 1 hr 22 min 13 sec) 
Heartbeat CPU 0 instructions: 477000001 cycles: 3163810178 heartbeat IPC: 0.330138 cumulative IPC: 0.211763 (Simulation time: 1 hr 22 min 24 sec) 
Heartbeat CPU 0 instructions: 478000001 cycles: 3166828608 heartbeat IPC: 0.331298 cumulative IPC: 0.214527 (Simulation time: 1 hr 22 min 35 sec) 
Heartbeat CPU 0 instructions: 479000000 cycles: 3169857327 heartbeat IPC: 0.330172 cumulative IPC: 0.21715 (Simulation time: 1 hr 22 min 45 sec) 
Heartbeat CPU 0 instructions: 480000002 cycles: 3172892821 heartbeat IPC: 0.329436 cumulative IPC: 0.219645 (Simulation time: 1 hr 22 min 56 sec) 
Heartbeat CPU 0 instructions: 481000002 cycles: 3175907724 heartbeat IPC: 0.331686 cumulative IPC: 0.222065 (Simulation time: 1 hr 23 min 7 sec) 
Heartbeat CPU 0 instructions: 482000001 cycles: 3178931962 heartbeat IPC: 0.330661 cumulative IPC: 0.224368 (Simulation time: 1 hr 23 min 17 sec) 
Heartbeat CPU 0 instructions: 483000003 cycles: 3181977851 heartbeat IPC: 0.328312 cumulative IPC: 0.226541 (Simulation time: 1 hr 23 min 28 sec) 
Heartbeat CPU 0 instructions: 484000000 cycles: 3185008130 heartbeat IPC: 0.330002 cumulative IPC: 0.22865 (Simulation time: 1 hr 23 min 39 sec) 
Heartbeat CPU 0 instructions: 485000000 cycles: 3188037082 heartbeat IPC: 0.330147 cumulative IPC: 0.230676 (Simulation time: 1 hr 23 min 49 sec) 
Heartbeat CPU 0 instructions: 486000000 cycles: 3191072763 heartbeat IPC: 0.329415 cumulative IPC: 0.232613 (Simulation time: 1 hr 24 min 0 sec) 
Heartbeat CPU 0 instructions: 487000000 cycles: 3194105452 heartbeat IPC: 0.32974 cumulative IPC: 0.234479 (Simulation time: 1 hr 24 min 11 sec) 
Heartbeat CPU 0 instructions: 488000000 cycles: 3197112729 heartbeat IPC: 0.332527 cumulative IPC: 0.236313 (Simulation time: 1 hr 24 min 22 sec) 
Heartbeat CPU 0 instructions: 489000001 cycles: 3200134993 heartbeat IPC: 0.330878 cumulative IPC: 0.238058 (Simulation time: 1 hr 24 min 33 sec) 
Heartbeat CPU 0 instructions: 490000000 cycles: 3203157539 heartbeat IPC: 0.330847 cumulative IPC: 0.239738 (Simulation time: 1 hr 24 min 44 sec) 
Heartbeat CPU 0 instructions: 491000000 cycles: 3206180099 heartbeat IPC: 0.330845 cumulative IPC: 0.24136 (Simulation time: 1 hr 24 min 54 sec) 
Heartbeat CPU 0 instructions: 492000000 cycles: 3209206441 heartbeat IPC: 0.330432 cumulative IPC: 0.242919 (Simulation time: 1 hr 25 min 5 sec) 
Heartbeat CPU 0 instructions: 493000000 cycles: 3212225706 heartbeat IPC: 0.331206 cumulative IPC: 0.244434 (Simulation time: 1 hr 25 min 16 sec) 
Heartbeat CPU 0 instructions: 494000000 cycles: 3215246901 heartbeat IPC: 0.330995 cumulative IPC: 0.245895 (Simulation time: 1 hr 25 min 27 sec) 
Heartbeat CPU 0 instructions: 495000000 cycles: 3218276043 heartbeat IPC: 0.330126 cumulative IPC: 0.247298 (Simulation time: 1 hr 25 min 37 sec) 
Heartbeat CPU 0 instructions: 496000000 cycles: 3221298498 heartbeat IPC: 0.330857 cumulative IPC: 0.248663 (Simulation time: 1 hr 25 min 48 sec) 
Heartbeat CPU 0 instructions: 497000002 cycles: 3224311274 heartbeat IPC: 0.33192 cumulative IPC: 0.249997 (Simulation time: 1 hr 25 min 59 sec) 
Heartbeat CPU 0 instructions: 498000000 cycles: 3227347435 heartbeat IPC: 0.329363 cumulative IPC: 0.251258 (Simulation time: 1 hr 26 min 10 sec) 
Heartbeat CPU 0 instructions: 499000000 cycles: 3230380356 heartbeat IPC: 0.329715 cumulative IPC: 0.252485 (Simulation time: 1 hr 26 min 20 sec) 
Heartbeat CPU 0 instructions: 500000001 cycles: 3233415343 heartbeat IPC: 0.329491 cumulative IPC: 0.25367 (Simulation time: 1 hr 26 min 31 sec) 
Heartbeat CPU 0 instructions: 501000000 cycles: 3236431766 heartbeat IPC: 0.331518 cumulative IPC: 0.254844 (Simulation time: 1 hr 26 min 42 sec) 
Heartbeat CPU 0 instructions: 502000002 cycles: 3239471976 heartbeat IPC: 0.328925 cumulative IPC: 0.255952 (Simulation time: 1 hr 26 min 52 sec) 
Heartbeat CPU 0 instructions: 503000002 cycles: 3242496639 heartbeat IPC: 0.330615 cumulative IPC: 0.257047 (Simulation time: 1 hr 27 min 3 sec) 
Heartbeat CPU 0 instructions: 504000000 cycles: 3245517675 heartbeat IPC: 0.331012 cumulative IPC: 0.258116 (Simulation time: 1 hr 27 min 14 sec) 
Heartbeat CPU 0 instructions: 505000002 cycles: 3248542811 heartbeat IPC: 0.330564 cumulative IPC: 0.259148 (Simulation time: 1 hr 27 min 25 sec) 
Heartbeat CPU 0 instructions: 506000000 cycles: 3251564469 heartbeat IPC: 0.330943 cumulative IPC: 0.260156 (Simulation time: 1 hr 27 min 35 sec) 
Heartbeat CPU 0 instructions: 507000002 cycles: 3254601018 heartbeat IPC: 0.329322 cumulative IPC: 0.261118 (Simulation time: 1 hr 27 min 46 sec) 
Heartbeat CPU 0 instructions: 508000001 cycles: 3257620881 heartbeat IPC: 0.331141 cumulative IPC: 0.262074 (Simulation time: 1 hr 27 min 57 sec) 
Heartbeat CPU 0 instructions: 509000002 cycles: 3260641380 heartbeat IPC: 0.331071 cumulative IPC: 0.263003 (Simulation time: 1 hr 28 min 8 sec) 
Heartbeat CPU 0 instructions: 510000000 cycles: 3263648054 heartbeat IPC: 0.332593 cumulative IPC: 0.263923 (Simulation time: 1 hr 28 min 18 sec) 
Heartbeat CPU 0 instructions: 511000000 cycles: 3266663288 heartbeat IPC: 0.331649 cumulative IPC: 0.26481 (Simulation time: 1 hr 28 min 29 sec) 
Heartbeat CPU 0 instructions: 512000000 cycles: 3269684718 heartbeat IPC: 0.330969 cumulative IPC: 0.265666 (Simulation time: 1 hr 28 min 40 sec) 
Heartbeat CPU 0 instructions: 513000000 cycles: 3272703652 heartbeat IPC: 0.331243 cumulative IPC: 0.266504 (Simulation time: 1 hr 28 min 51 sec) 
Heartbeat CPU 0 instructions: 514000002 cycles: 3275727555 heartbeat IPC: 0.330699 cumulative IPC: 0.267314 (Simulation time: 1 hr 29 min 2 sec) 
Heartbeat CPU 0 instructions: 515000000 cycles: 3278760422 heartbeat IPC: 0.32972 cumulative IPC: 0.268095 (Simulation time: 1 hr 29 min 12 sec) 
Heartbeat CPU 0 instructions: 516000002 cycles: 3281779644 heartbeat IPC: 0.331212 cumulative IPC: 0.268871 (Simulation time: 1 hr 29 min 23 sec) 
Heartbeat CPU 0 instructions: 517000000 cycles: 3284802119 heartbeat IPC: 0.330854 cumulative IPC: 0.269625 (Simulation time: 1 hr 29 min 34 sec) 
Heartbeat CPU 0 instructions: 518000002 cycles: 3287824926 heartbeat IPC: 0.330819 cumulative IPC: 0.270361 (Simulation time: 1 hr 29 min 44 sec) 
Heartbeat CPU 0 instructions: 519000001 cycles: 3290845740 heartbeat IPC: 0.331036 cumulative IPC: 0.271081 (Simulation time: 1 hr 29 min 55 sec) 
Heartbeat CPU 0 instructions: 520000000 cycles: 3293864818 heartbeat IPC: 0.331227 cumulative IPC: 0.271786 (Simulation time: 1 hr 30 min 6 sec) 
Heartbeat CPU 0 instructions: 521000000 cycles: 3296886898 heartbeat IPC: 0.330898 cumulative IPC: 0.272471 (Simulation time: 1 hr 30 min 17 sec) 
Heartbeat CPU 0 instructions: 522000000 cycles: 3299900848 heartbeat IPC: 0.331791 cumulative IPC: 0.27315 (Simulation time: 1 hr 30 min 27 sec) 
Heartbeat CPU 0 instructions: 523000000 cycles: 3302944405 heartbeat IPC: 0.328563 cumulative IPC: 0.273782 (Simulation time: 1 hr 30 min 38 sec) 
Heartbeat CPU 0 instructions: 524000000 cycles: 3305959706 heartbeat IPC: 0.331642 cumulative IPC: 0.274429 (Simulation time: 1 hr 30 min 49 sec) 
Heartbeat CPU 0 instructions: 525000000 cycles: 3308983121 heartbeat IPC: 0.330752 cumulative IPC: 0.275054 (Simulation time: 1 hr 31 min 0 sec) 
Heartbeat CPU 0 instructions: 526000000 cycles: 3312021208 heartbeat IPC: 0.329154 cumulative IPC: 0.27565 (Simulation time: 1 hr 31 min 11 sec) 
Heartbeat CPU 0 instructions: 527000001 cycles: 3315063393 heartbeat IPC: 0.328711 cumulative IPC: 0.276229 (Simulation time: 1 hr 31 min 21 sec) 
Heartbeat CPU 0 instructions: 528000000 cycles: 3318073486 heartbeat IPC: 0.332215 cumulative IPC: 0.276827 (Simulation time: 1 hr 31 min 32 sec) 
Heartbeat CPU 0 instructions: 529000001 cycles: 3321083870 heartbeat IPC: 0.332184 cumulative IPC: 0.277412 (Simulation time: 1 hr 31 min 42 sec) 
Heartbeat CPU 0 instructions: 530000000 cycles: 3324111655 heartbeat IPC: 0.330274 cumulative IPC: 0.277968 (Simulation time: 1 hr 31 min 52 sec) 
Heartbeat CPU 0 instructions: 531000002 cycles: 3329525497 heartbeat IPC: 0.184712 cumulative IPC: 0.276246 (Simulation time: 1 hr 32 min 8 sec) 
Heartbeat CPU 0 instructions: 532000003 cycles: 3336663183 heartbeat IPC: 0.140102 cumulative IPC: 0.273011 (Simulation time: 1 hr 32 min 28 sec) 
Heartbeat CPU 0 instructions: 533000003 cycles: 3342167676 heartbeat IPC: 0.18167 cumulative IPC: 0.271367 (Simulation time: 1 hr 32 min 44 sec) 
Heartbeat CPU 0 instructions: 534000000 cycles: 3347279644 heartbeat IPC: 0.195619 cumulative IPC: 0.270122 (Simulation time: 1 hr 32 min 59 sec) 
Heartbeat CPU 0 instructions: 535000001 cycles: 3352640860 heartbeat IPC: 0.186525 cumulative IPC: 0.268705 (Simulation time: 1 hr 33 min 14 sec) 
Heartbeat CPU 0 instructions: 536000000 cycles: 3359862959 heartbeat IPC: 0.138464 cumulative IPC: 0.265798 (Simulation time: 1 hr 33 min 34 sec) 
Heartbeat CPU 0 instructions: 537000000 cycles: 3364135183 heartbeat IPC: 0.23407 cumulative IPC: 0.265385 (Simulation time: 1 hr 33 min 46 sec) 
Heartbeat CPU 0 instructions: 538000002 cycles: 3365570062 heartbeat IPC: 0.696924 cumulative IPC: 0.267265 (Simulation time: 1 hr 33 min 52 sec) 
Heartbeat CPU 0 instructions: 539000000 cycles: 3366982839 heartbeat IPC: 0.707824 cumulative IPC: 0.269147 (Simulation time: 1 hr 33 min 57 sec) 
Heartbeat CPU 0 instructions: 540000000 cycles: 3368396097 heartbeat IPC: 0.707585 cumulative IPC: 0.271013 (Simulation time: 1 hr 34 min 2 sec) 
Heartbeat CPU 0 instructions: 541000002 cycles: 3369809007 heartbeat IPC: 0.707761 cumulative IPC: 0.272864 (Simulation time: 1 hr 34 min 8 sec) 
Heartbeat CPU 0 instructions: 542000000 cycles: 3371222069 heartbeat IPC: 0.707682 cumulative IPC: 0.274698 (Simulation time: 1 hr 34 min 13 sec) 
Heartbeat CPU 0 instructions: 543000000 cycles: 3372634698 heartbeat IPC: 0.7079 cumulative IPC: 0.276518 (Simulation time: 1 hr 34 min 19 sec) 
Heartbeat CPU 0 instructions: 544000002 cycles: 3374047809 heartbeat IPC: 0.70766 cumulative IPC: 0.278322 (Simulation time: 1 hr 34 min 24 sec) 
[...]
Heartbeat CPU 0 instructions: 834000003 cycles: 3917101050 heartbeat IPC: 0.400866 cumulative IPC: 0.435971 (Simulation time: 2 hr 9 min 42 sec) 
Heartbeat CPU 0 instructions: 835000003 cycles: 3919507782 heartbeat IPC: 0.415501 cumulative IPC: 0.435915 (Simulation time: 2 hr 9 min 51 sec) 
Heartbeat CPU 0 instructions: 836000000 cycles: 3922034023 heartbeat IPC: 0.395844 cumulative IPC: 0.435801 (Simulation time: 2 hr 9 min 59 sec) 
Heartbeat CPU 0 instructions: 837000000 cycles: 3924387711 heartbeat IPC: 0.424865 cumulative IPC: 0.435772 (Simulation time: 2 hr 10 min 8 sec) 
Heartbeat CPU 0 instructions: 838000000 cycles: 3926862143 heartbeat IPC: 0.404133 cumulative IPC: 0.435684 (Simulation time: 2 hr 10 min 16 sec) 
Heartbeat CPU 0 instructions: 839000000 cycles: 3929223532 heartbeat IPC: 0.42348 cumulative IPC: 0.435652 (Simulation time: 2 hr 10 min 25 sec) 
Heartbeat CPU 0 instructions: 840000002 cycles: 3931730448 heartbeat IPC: 0.398897 cumulative IPC: 0.435549 (Simulation time: 2 hr 10 min 33 sec) 
Heartbeat CPU 0 instructions: 841000003 cycles: 3934035341 heartbeat IPC: 0.43386 cumulative IPC: 0.435545 (Simulation time: 2 hr 10 min 42 sec) 
Heartbeat CPU 0 instructions: 842000000 cycles: 3936385557 heartbeat IPC: 0.425492 cumulative IPC: 0.435519 (Simulation time: 2 hr 10 min 50 sec) 
Heartbeat CPU 0 instructions: 843000003 cycles: 3938917393 heartbeat IPC: 0.394971 cumulative IPC: 0.435405 (Simulation time: 2 hr 10 min 59 sec) 
Heartbeat CPU 0 instructions: 844000000 cycles: 3941319186 heartbeat IPC: 0.416354 cumulative IPC: 0.435354 (Simulation time: 2 hr 11 min 7 sec) 
Heartbeat CPU 0 instructions: 845000001 cycles: 3943881585 heartbeat IPC: 0.39026 cumulative IPC: 0.435227 (Simulation time: 2 hr 11 min 15 sec) 
Heartbeat CPU 0 instructions: 846000003 cycles: 3946307458 heartbeat IPC: 0.412224 cumulative IPC: 0.435166 (Simulation time: 2 hr 11 min 24 sec) 
Heartbeat CPU 0 instructions: 847000000 cycles: 3948854050 heartbeat IPC: 0.39268 cumulative IPC: 0.435047 (Simulation time: 2 hr 11 min 32 sec) 
Heartbeat CPU 0 instructions: 848000003 cycles: 3951163737 heartbeat IPC: 0.43296 cumulative IPC: 0.435042 (Simulation time: 2 hr 11 min 40 sec) 
Heartbeat CPU 0 instructions: 849000000 cycles: 3953644058 heartbeat IPC: 0.403172 cumulative IPC: 0.434956 (Simulation time: 2 hr 11 min 49 sec) 
Heartbeat CPU 0 instructions: 850000003 cycles: 3956022438 heartbeat IPC: 0.420456 cumulative IPC: 0.434918 (Simulation time: 2 hr 11 min 57 sec) 
Heartbeat CPU 0 instructions: 851000000 cycles: 3958501237 heartbeat IPC: 0.40342 cumulative IPC: 0.434833 (Simulation time: 2 hr 12 min 6 sec) 
Heartbeat CPU 0 instructions: 852000000 cycles: 3960879607 heartbeat IPC: 0.420456 cumulative IPC: 0.434796 (Simulation time: 2 hr 12 min 14 sec) 
Heartbeat CPU 0 instructions: 853000001 cycles: 3963125952 heartbeat IPC: 0.445168 cumulative IPC: 0.434822 (Simulation time: 2 hr 12 min 23 sec) 
Heartbeat CPU 0 instructions: 854000003 cycles: 3965527585 heartbeat IPC: 0.416384 cumulative IPC: 0.434774 (Simulation time: 2 hr 12 min 31 sec) 
Heartbeat CPU 0 instructions: 855000000 cycles: 3967835495 heartbeat IPC: 0.433291 cumulative IPC: 0.43477 (Simulation time: 2 hr 12 min 40 sec) 
Heartbeat CPU 0 instructions: 856000002 cycles: 3970175729 heartbeat IPC: 0.427309 cumulative IPC: 0.434752 (Simulation time: 2 hr 12 min 48 sec) 
Heartbeat CPU 0 instructions: 857000003 cycles: 3972621805 heartbeat IPC: 0.408818 cumulative IPC: 0.434684 (Simulation time: 2 hr 12 min 56 sec) 
Heartbeat CPU 0 instructions: 858000000 cycles: 3974976397 heartbeat IPC: 0.424701 cumulative IPC: 0.434659 (Simulation time: 2 hr 13 min 4 sec) 
Heartbeat CPU 0 instructions: 859000003 cycles: 3977451950 heartbeat IPC: 0.403951 cumulative IPC: 0.434578 (Simulation time: 2 hr 13 min 13 sec) 
Heartbeat CPU 0 instructions: 860000003 cycles: 3979868823 heartbeat IPC: 0.413758 cumulative IPC: 0.434525 (Simulation time: 2 hr 13 min 21 sec) 
Heartbeat CPU 0 instructions: 861000001 cycles: 3982220702 heartbeat IPC: 0.425191 cumulative IPC: 0.434501 (Simulation time: 2 hr 13 min 29 sec) 
Heartbeat CPU 0 instructions: 862000003 cycles: 3984654920 heartbeat IPC: 0.41081 cumulative IPC: 0.434441 (Simulation time: 2 hr 13 min 38 sec) 
Heartbeat CPU 0 instructions: 863000001 cycles: 3987033863 heartbeat IPC: 0.420354 cumulative IPC: 0.434405 (Simulation time: 2 hr 13 min 46 sec) 
Heartbeat CPU 0 instructions: 864000000 cycles: 3989546949 heartbeat IPC: 0.397917 cumulative IPC: 0.434309 (Simulation time: 2 hr 13 min 54 sec) 
Heartbeat CPU 0 instructions: 865000001 cycles: 3992116504 heartbeat IPC: 0.389173 cumulative IPC: 0.434188 (Simulation time: 2 hr 14 min 2 sec) 
Heartbeat CPU 0 instructions: 866000002 cycles: 3994587393 heartbeat IPC: 0.404713 cumulative IPC: 0.434112 (Simulation time: 2 hr 14 min 10 sec) 
Heartbeat CPU 0 instructions: 867000002 cycles: 3996944150 heartbeat IPC: 0.424312 cumulative IPC: 0.434088 (Simulation time: 2 hr 14 min 19 sec) 
Heartbeat CPU 0 instructions: 868000000 cycles: 3999278640 heartbeat IPC: 0.428358 cumulative IPC: 0.434074 (Simulation time: 2 hr 14 min 27 sec) 
Heartbeat CPU 0 instructions: 869000000 cycles: 4001749745 heartbeat IPC: 0.404677 cumulative IPC: 0.433999 (Simulation time: 2 hr 14 min 36 sec) 
Heartbeat CPU 0 instructions: 870000003 cycles: 4003984912 heartbeat IPC: 0.447395 cumulative IPC: 0.43403 (Simulation time: 2 hr 14 min 44 sec) 
Heartbeat CPU 0 instructions: 871000003 cycles: 4006504192 heartbeat IPC: 0.396939 cumulative IPC: 0.433933 (Simulation time: 2 hr 14 min 53 sec) 
Heartbeat CPU 0 instructions: 872000003 cycles: 4008929288 heartbeat IPC: 0.412355 cumulative IPC: 0.43388 (Simulation time: 2 hr 15 min 1 sec) 
Heartbeat CPU 0 instructions: 873000003 cycles: 4011194740 heartbeat IPC: 0.441413 cumulative IPC: 0.433897 (Simulation time: 2 hr 15 min 9 sec) 
Heartbeat CPU 0 instructions: 874000000 cycles: 4013677127 heartbeat IPC: 0.402837 cumulative IPC: 0.433818 (Simulation time: 2 hr 15 min 18 sec) 
Heartbeat CPU 0 instructions: 875000000 cycles: 4015997219 heartbeat IPC: 0.431017 cumulative IPC: 0.433811 (Simulation time: 2 hr 15 min 26 sec) 
Heartbeat CPU 0 instructions: 876000001 cycles: 4018451288 heartbeat IPC: 0.407487 cumulative IPC: 0.433746 (Simulation time: 2 hr 15 min 35 sec) 
Heartbeat CPU 0 instructions: 877000002 cycles: 4020786587 heartbeat IPC: 0.428211 cumulative IPC: 0.433733 (Simulation time: 2 hr 15 min 43 sec) 
Heartbeat CPU 0 instructions: 878000001 cycles: 4023145362 heartbeat IPC: 0.423948 cumulative IPC: 0.433709 (Simulation time: 2 hr 15 min 52 sec) 
Heartbeat CPU 0 instructions: 879000000 cycles: 4025634345 heartbeat IPC: 0.40177 cumulative IPC: 0.433629 (Simulation time: 2 hr 16 min 1 sec) 
Heartbeat CPU 0 instructions: 880000000 cycles: 4028001517 heartbeat IPC: 0.422445 cumulative IPC: 0.433602 (Simulation time: 2 hr 16 min 10 sec) 
Heartbeat CPU 0 instructions: 881000001 cycles: 4030426961 heartbeat IPC: 0.412296 cumulative IPC: 0.43355 (Simulation time: 2 hr 16 min 18 sec) 
Heartbeat CPU 0 instructions: 882000000 cycles: 4032856182 heartbeat IPC: 0.411654 cumulative IPC: 0.433497 (Simulation time: 2 hr 16 min 27 sec) 
Heartbeat CPU 0 instructions: 883000002 cycles: 4035234199 heartbeat IPC: 0.420519 cumulative IPC: 0.433466 (Simulation time: 2 hr 16 min 35 sec) 
Heartbeat CPU 0 instructions: 884000001 cycles: 4037754743 heartbeat IPC: 0.396739 cumulative IPC: 0.433373 (Simulation time: 2 hr 16 min 43 sec) 
Heartbeat CPU 0 instructions: 885000000 cycles: 4040182576 heartbeat IPC: 0.41189 cumulative IPC: 0.433322 (Simulation time: 2 hr 16 min 52 sec) 
Heartbeat CPU 0 instructions: 886000001 cycles: 4042677296 heartbeat IPC: 0.400847 cumulative IPC: 0.433241 (Simulation time: 2 hr 17 min 0 sec) 
Heartbeat CPU 0 instructions: 887000003 cycles: 4045034747 heartbeat IPC: 0.424188 cumulative IPC: 0.43322 (Simulation time: 2 hr 17 min 8 sec) 
Heartbeat CPU 0 instructions: 888000002 cycles: 4047527895 heartbeat IPC: 0.401099 cumulative IPC: 0.433141 (Simulation time: 2 hr 17 min 17 sec) 
Heartbeat CPU 0 instructions: 889000003 cycles: 4050267806 heartbeat IPC: 0.364976 cumulative IPC: 0.432956 (Simulation time: 2 hr 17 min 25 sec) 
Heartbeat CPU 0 instructions: 890000003 cycles: 4052586888 heartbeat IPC: 0.431205 cumulative IPC: 0.432952 (Simulation time: 2 hr 17 min 33 sec) 
Heartbeat CPU 0 instructions: 891000000 cycles: 4055038271 heartbeat IPC: 0.407932 cumulative IPC: 0.432892 (Simulation time: 2 hr 17 min 41 sec) 
Heartbeat CPU 0 instructions: 892000002 cycles: 4057448751 heartbeat IPC: 0.414856 cumulative IPC: 0.43285 (Simulation time: 2 hr 17 min 50 sec) 
Heartbeat CPU 0 instructions: 893000001 cycles: 4059868446 heartbeat IPC: 0.413275 cumulative IPC: 0.432803 (Simulation time: 2 hr 17 min 58 sec) 
Heartbeat CPU 0 instructions: 894000002 cycles: 4062271516 heartbeat IPC: 0.416135 cumulative IPC: 0.432764 (Simulation time: 2 hr 18 min 7 sec) 
Heartbeat CPU 0 instructions: 895000000 cycles: 4064815659 heartbeat IPC: 0.393059 cumulative IPC: 0.432666 (Simulation time: 2 hr 18 min 15 sec) 
Heartbeat CPU 0 instructions: 896000002 cycles: 4067463690 heartbeat IPC: 0.37764 cumulative IPC: 0.432525 (Simulation time: 2 hr 18 min 23 sec) 
Heartbeat CPU 0 instructions: 897000000 cycles: 4069984344 heartbeat IPC: 0.396722 cumulative IPC: 0.432438 (Simulation time: 2 hr 18 min 32 sec) 
Heartbeat CPU 0 instructions: 898000000 cycles: 4072548012 heartbeat IPC: 0.390066 cumulative IPC: 0.432333 (Simulation time: 2 hr 18 min 40 sec) 
Heartbeat CPU 0 instructions: 899000003 cycles: 4075077911 heartbeat IPC: 0.395274 cumulative IPC: 0.432242 (Simulation time: 2 hr 18 min 48 sec) 
Heartbeat CPU 0 instructions: 900000000 cycles: 4077941034 heartbeat IPC: 0.349268 cumulative IPC: 0.432014 (Simulation time: 2 hr 18 min 56 sec) 
Heartbeat CPU 0 instructions: 901000000 cycles: 4080416616 heartbeat IPC: 0.403945 cumulative IPC: 0.431948 (Simulation time: 2 hr 19 min 5 sec) 
Heartbeat CPU 0 instructions: 902000000 cycles: 4082882551 heartbeat IPC: 0.405526 cumulative IPC: 0.431886 (Simulation time: 2 hr 19 min 13 sec) 
Heartbeat CPU 0 instructions: 903000000 cycles: 4085389868 heartbeat IPC: 0.398833 cumulative IPC: 0.431807 (Simulation time: 2 hr 19 min 22 sec) 
Heartbeat CPU 0 instructions: 904000001 cycles: 4087918894 heartbeat IPC: 0.39541 cumulative IPC: 0.431719 (Simulation time: 2 hr 19 min 30 sec) 
Heartbeat CPU 0 instructions: 905000003 cycles: 4090373071 heartbeat IPC: 0.407469 cumulative IPC: 0.431663 (Simulation time: 2 hr 19 min 38 sec) 
Heartbeat CPU 0 instructions: 906000001 cycles: 4093058129 heartbeat IPC: 0.372431 cumulative IPC: 0.431512 (Simulation time: 2 hr 19 min 46 sec) 
Heartbeat CPU 0 instructions: 907000002 cycles: 4095682511 heartbeat IPC: 0.381042 cumulative IPC: 0.431387 (Simulation time: 2 hr 19 min 55 sec) 
Heartbeat CPU 0 instructions: 908000001 cycles: 4098386968 heartbeat IPC: 0.36976 cumulative IPC: 0.43123 (Simulation time: 2 hr 20 min 3 sec) 
Heartbeat CPU 0 instructions: 909000002 cycles: 4100831885 heartbeat IPC: 0.409012 cumulative IPC: 0.431179 (Simulation time: 2 hr 20 min 12 sec) 
Heartbeat CPU 0 instructions: 910000003 cycles: 4103266029 heartbeat IPC: 0.410822 cumulative IPC: 0.431133 (Simulation time: 2 hr 20 min 20 sec) 
Heartbeat CPU 0 instructions: 911000001 cycles: 4105774345 heartbeat IPC: 0.398673 cumulative IPC: 0.431057 (Simulation time: 2 hr 20 min 28 sec) 
Heartbeat CPU 0 instructions: 912000000 cycles: 4108285678 heartbeat IPC: 0.398194 cumulative IPC: 0.43098 (Simulation time: 2 hr 20 min 37 sec) 
Heartbeat CPU 0 instructions: 913000000 cycles: 4111015824 heartbeat IPC: 0.366281 cumulative IPC: 0.430815 (Simulation time: 2 hr 20 min 45 sec) 
Heartbeat CPU 0 instructions: 914000002 cycles: 4113433190 heartbeat IPC: 0.413674 cumulative IPC: 0.430777 (Simulation time: 2 hr 20 min 54 sec) 
Heartbeat CPU 0 instructions: 915000001 cycles: 4116162876 heartbeat IPC: 0.366342 cumulative IPC: 0.430614 (Simulation time: 2 hr 21 min 2 sec) 
Heartbeat CPU 0 instructions: 916000001 cycles: 4118741722 heartbeat IPC: 0.38777 cumulative IPC: 0.430512 (Simulation time: 2 hr 21 min 10 sec) 
Heartbeat CPU 0 instructions: 917000000 cycles: 4121282969 heartbeat IPC: 0.393507 cumulative IPC: 0.430425 (Simulation time: 2 hr 21 min 19 sec) 
Heartbeat CPU 0 instructions: 918000002 cycles: 4123592803 heartbeat IPC: 0.432932 cumulative IPC: 0.43043 (Simulation time: 2 hr 21 min 28 sec) 
Heartbeat CPU 0 instructions: 919000000 cycles: 4126124221 heartbeat IPC: 0.395035 cumulative IPC: 0.430348 (Simulation time: 2 hr 21 min 37 sec) 
Heartbeat CPU 0 instructions: 920000001 cycles: 4128532665 heartbeat IPC: 0.415206 cumulative IPC: 0.430315 (Simulation time: 2 hr 21 min 45 sec) 
Heartbeat CPU 0 instructions: 921000003 cycles: 4131055474 heartbeat IPC: 0.396384 cumulative IPC: 0.430237 (Simulation time: 2 hr 21 min 53 sec) 
Heartbeat CPU 0 instructions: 922000002 cycles: 4133450667 heartbeat IPC: 0.417502 cumulative IPC: 0.430209 (Simulation time: 2 hr 22 min 2 sec) 
Heartbeat CPU 0 instructions: 923000000 cycles: 4135927851 heartbeat IPC: 0.403683 cumulative IPC: 0.430149 (Simulation time: 2 hr 22 min 10 sec) 
Heartbeat CPU 0 instructions: 924000000 cycles: 4138446155 heartbeat IPC: 0.397093 cumulative IPC: 0.430074 (Simulation time: 2 hr 22 min 18 sec) 
Heartbeat CPU 0 instructions: 925000002 cycles: 4140907228 heartbeat IPC: 0.406328 cumulative IPC: 0.430021 (Simulation time: 2 hr 22 min 27 sec) 
Heartbeat CPU 0 instructions: 926000000 cycles: 4143069138 heartbeat IPC: 0.462553 cumulative IPC: 0.430084 (Simulation time: 2 hr 22 min 35 sec) 
Heartbeat CPU 0 instructions: 927000001 cycles: 4145415064 heartbeat IPC: 0.426271 cumulative IPC: 0.430076 (Simulation time: 2 hr 22 min 44 sec) 
Heartbeat CPU 0 instructions: 928000003 cycles: 4147814614 heartbeat IPC: 0.416746 cumulative IPC: 0.430047 (Simulation time: 2 hr 22 min 53 sec) 
Heartbeat CPU 0 instructions: 929000001 cycles: 4150142815 heartbeat IPC: 0.429515 cumulative IPC: 0.430046 (Simulation time: 2 hr 23 min 2 sec) 
Heartbeat CPU 0 instructions: 930000003 cycles: 4152392015 heartbeat IPC: 0.444603 cumulative IPC: 0.430076 (Simulation time: 2 hr 23 min 10 sec) 
Heartbeat CPU 0 instructions: 931000003 cycles: 4154676600 heartbeat IPC: 0.437716 cumulative IPC: 0.430091 (Simulation time: 2 hr 23 min 19 sec) 
Heartbeat CPU 0 instructions: 932000002 cycles: 4157201803 heartbeat IPC: 0.396007 cumulative IPC: 0.430014 (Simulation time: 2 hr 23 min 28 sec) 
Heartbeat CPU 0 instructions: 933000000 cycles: 4159807800 heartbeat IPC: 0.38373 cumulative IPC: 0.429907 (Simulation time: 2 hr 23 min 36 sec) 
Heartbeat CPU 0 instructions: 934000003 cycles: 4162232443 heartbeat IPC: 0.412433 cumulative IPC: 0.429869 (Simulation time: 2 hr 23 min 45 sec) 
Heartbeat CPU 0 instructions: 935000000 cycles: 4164621116 heartbeat IPC: 0.418641 cumulative IPC: 0.429846 (Simulation time: 2 hr 23 min 54 sec) 
Heartbeat CPU 0 instructions: 936000000 cycles: 4167126380 heartbeat IPC: 0.39916 cumulative IPC: 0.429778 (Simulation time: 2 hr 24 min 2 sec) 
Heartbeat CPU 0 instructions: 937000000 cycles: 4169454801 heartbeat IPC: 0.429476 cumulative IPC: 0.429777 (Simulation time: 2 hr 24 min 11 sec) 
Heartbeat CPU 0 instructions: 938000002 cycles: 4171796327 heartbeat IPC: 0.427073 cumulative IPC: 0.429771 (Simulation time: 2 hr 24 min 19 sec) 
Heartbeat CPU 0 instructions: 939000003 cycles: 4174413245 heartbeat IPC: 0.382129 cumulative IPC: 0.429662 (Simulation time: 2 hr 24 min 27 sec) 
Heartbeat CPU 0 instructions: 940000000 cycles: 4176845960 heartbeat IPC: 0.411062 cumulative IPC: 0.429622 (Simulation time: 2 hr 24 min 36 sec) 
Heartbeat CPU 0 instructions: 941000001 cycles: 4179406537 heartbeat IPC: 0.390537 cumulative IPC: 0.429535 (Simulation time: 2 hr 24 min 44 sec) 
Heartbeat CPU 0 instructions: 942000002 cycles: 4181748119 heartbeat IPC: 0.427062 cumulative IPC: 0.42953 (Simulation time: 2 hr 24 min 52 sec) 
Heartbeat CPU 0 instructions: 943000000 cycles: 4183968715 heartbeat IPC: 0.450329 cumulative IPC: 0.42957 (Simulation time: 2 hr 25 min 1 sec) 
Heartbeat CPU 0 instructions: 944000003 cycles: 4186412049 heartbeat IPC: 0.409278 cumulative IPC: 0.429527 (Simulation time: 2 hr 25 min 9 sec) 
Heartbeat CPU 0 instructions: 945000003 cycles: 4188792623 heartbeat IPC: 0.420067 cumulative IPC: 0.429507 (Simulation time: 2 hr 25 min 18 sec) 
Heartbeat CPU 0 instructions: 946000000 cycles: 4191136958 heartbeat IPC: 0.426559 cumulative IPC: 0.429501 (Simulation time: 2 hr 25 min 27 sec) 
Heartbeat CPU 0 instructions: 947000000 cycles: 4193740825 heartbeat IPC: 0.384044 cumulative IPC: 0.429399 (Simulation time: 2 hr 25 min 35 sec) 
Heartbeat CPU 0 instructions: 948000001 cycles: 4196003421 heartbeat IPC: 0.441971 cumulative IPC: 0.429423 (Simulation time: 2 hr 25 min 44 sec) 
Heartbeat CPU 0 instructions: 949000003 cycles: 4198544747 heartbeat IPC: 0.393496 cumulative IPC: 0.429345 (Simulation time: 2 hr 25 min 53 sec) 
Heartbeat CPU 0 instructions: 950000001 cycles: 4200958701 heartbeat IPC: 0.414257 cumulative IPC: 0.429314 (Simulation time: 2 hr 26 min 1 sec) 
Finished CPU 0 instructions: 500000000 cycles: 1164649667 cumulative IPC: 0.429314 (Simulation time: 2 hr 26 min 1 sec) 

ChampSim completed all CPUs

Region of Interest Statistics

CPU 0 cumulative IPC: 0.429314 instructions: 500000000 cycles: 1164649667
L1D TOTAL     ACCESS:  129430670  HIT:   57324288  MISS:   72106382
L1D LOAD      ACCESS:  111241222  HIT:   43576282  MISS:   67664940
L1D RFO       ACCESS:   18189448  HIT:   13748006  MISS:    4441442
L1D PREFETCH  ACCESS:          0  HIT:          0  MISS:          0
L1D WRITEBACK ACCESS:          0  HIT:          0  MISS:          0
L1D PREFETCH  REQUESTED:          0  ISSUED:          0  USEFUL:          0  USELESS:          0
L1D AVERAGE MISS LATENCY: 105.617 cycles
L1I TOTAL     ACCESS:  122183106  HIT:  122182958  MISS:        148
L1I LOAD      ACCESS:  122183106  HIT:  122182958  MISS:        148
L1I RFO       ACCESS:          0  HIT:          0  MISS:          0
L1I PREFETCH  ACCESS:          0  HIT:          0  MISS:          0
L1I WRITEBACK ACCESS:          0  HIT:          0  MISS:          0
L1I PREFETCH  REQUESTED:          0  ISSUED:          0  USEFUL:          0  USELESS:          0
L1I AVERAGE MISS LATENCY: 225.622 cycles
L2C TOTAL     ACCESS:   77400474  HIT:   16956468  MISS:   60444006
L2C LOAD      ACCESS:   67665034  HIT:   11386478  MISS:   56278556
L2C RFO       ACCESS:    4441442  HIT:     280192  MISS:    4161250
L2C PREFETCH  ACCESS:          0  HIT:          0  MISS:          0
L2C WRITEBACK ACCESS:    5293998  HIT:    5289798  MISS:       4200
L2C PREFETCH  REQUESTED:          0  ISSUED:          0  USEFUL:          0  USELESS:          0
L2C AVERAGE MISS LATENCY: 106.511 cycles
LLC TOTAL     ACCESS:   65436567  HIT:   49172859  MISS:   16263708
LLC LOAD      ACCESS:   56278553  HIT:   44139375  MISS:   12139178
LLC RFO       ACCESS:    4161244  HIT:      36871  MISS:    4124373
LLC PREFETCH  ACCESS:          0  HIT:          0  MISS:          0
LLC WRITEBACK ACCESS:    4996770  HIT:    4996613  MISS:        157
LLC PREFETCH  REQUESTED:          0  ISSUED:          0  USEFUL:          0  USELESS:          0
LLC AVERAGE MISS LATENCY: 278.313 cycles
Major fault: 0 Minor fault: 258012

DRAM Statistics
 CHANNEL 0
 RQ ROW_BUFFER_HIT:    8453682  ROW_BUFFER_MISS:    7809740
 DBUS_CONGESTED:   20854168
 WQ ROW_BUFFER_HIT:    1158784  ROW_BUFFER_MISS:    3731668  FULL:          0

 AVG_CONGESTED_CYCLE: 6

CPU 0 Branch Prediction Accuracy: 99.2843% MPKI: 1.29473 Average ROB Occupancy at Mispredict: 106.052

Branch types
NOT_BRANCH: 409546792 81.9094%
BRANCH_DIRECT_JUMP: 12217609 2.44352%
BRANCH_INDIRECT: 2 4e-07%
BRANCH_CONDITIONAL: 76453631 15.2907%
BRANCH_DIRECT_CALL: 582873 0.116575%
BRANCH_INDIRECT_CALL: 308106 0.0616212%
BRANCH_RETURN: 890980 0.178196%
BRANCH_OTHER: 0 0%

