
*** ChampSim Multicore Out-of-Order Simulator ***

Warmup Instructions: 1000000
Prefetch Warmup Instructions: 450000000
Simulation Instructions: 500000000
Stat Printing Period: 1000000
Number of CPUs: 1
LLC sets: 2048
LLC ways: 16
Off-chip DRAM Size: 4096 MB Channels: 1 Width: 64-bit Data Rate: 3200 MT/s

CPU 0 runs /scratch/cluster/cmolder/ML-DPC/ChampSimTraces/spec17/605.mcf-s6.trace.xz
Read seed: 227
Heartbeat CPU 0 instructions: 1000001 cycles: 411372 heartbeat IPC: 2.43089 cumulative IPC: 2.43089 (Simulation time: 0 hr 0 min 6 sec) 

Warmup complete CPU 0 instructions: 1000001 cycles: 411372 (Simulation time: 0 hr 0 min 6 sec) 

Heartbeat CPU 0 instructions: 2000001 cycles: 2944854 heartbeat IPC: 0.394714 cumulative IPC: 0.394714 (Simulation time: 0 hr 0 min 11 sec) 
Heartbeat CPU 0 instructions: 3000000 cycles: 5461832 heartbeat IPC: 0.397301 cumulative IPC: 0.396003 (Simulation time: 0 hr 0 min 16 sec) 
Heartbeat CPU 0 instructions: 4000002 cycles: 7945865 heartbeat IPC: 0.402572 cumulative IPC: 0.398169 (Simulation time: 0 hr 0 min 21 sec) 
Heartbeat CPU 0 instructions: 5000000 cycles: 10415844 heartbeat IPC: 0.404861 cumulative IPC: 0.399821 (Simulation time: 0 hr 0 min 26 sec) 
Heartbeat CPU 0 instructions: 6000001 cycles: 12867783 heartbeat IPC: 0.407841 cumulative IPC: 0.4014 (Simulation time: 0 hr 0 min 31 sec) 
Heartbeat CPU 0 instructions: 7000001 cycles: 15539713 heartbeat IPC: 0.374261 cumulative IPC: 0.396607 (Simulation time: 0 hr 0 min 37 sec) 
Heartbeat CPU 0 instructions: 8000002 cycles: 18051070 heartbeat IPC: 0.398191 cumulative IPC: 0.396832 (Simulation time: 0 hr 0 min 42 sec) 
Heartbeat CPU 0 instructions: 9000000 cycles: 20571801 heartbeat IPC: 0.39671 cumulative IPC: 0.396817 (Simulation time: 0 hr 0 min 47 sec) 
Heartbeat CPU 0 instructions: 10000000 cycles: 23088813 heartbeat IPC: 0.397296 cumulative IPC: 0.39687 (Simulation time: 0 hr 0 min 52 sec) 
Heartbeat CPU 0 instructions: 11000000 cycles: 25584388 heartbeat IPC: 0.400709 cumulative IPC: 0.397251 (Simulation time: 0 hr 0 min 57 sec) 
Heartbeat CPU 0 instructions: 12000001 cycles: 28143530 heartbeat IPC: 0.390756 cumulative IPC: 0.396651 (Simulation time: 0 hr 1 min 2 sec) 
Heartbeat CPU 0 instructions: 13000002 cycles: 30629813 heartbeat IPC: 0.402207 cumulative IPC: 0.397109 (Simulation time: 0 hr 1 min 7 sec) 
Heartbeat CPU 0 instructions: 14000003 cycles: 33123116 heartbeat IPC: 0.401075 cumulative IPC: 0.397411 (Simulation time: 0 hr 1 min 12 sec) 
Heartbeat CPU 0 instructions: 15000002 cycles: 35706154 heartbeat IPC: 0.387141 cumulative IPC: 0.396659 (Simulation time: 0 hr 1 min 17 sec) 
Heartbeat CPU 0 instructions: 16000001 cycles: 38243760 heartbeat IPC: 0.394072 cumulative IPC: 0.396486 (Simulation time: 0 hr 1 min 22 sec) 
Heartbeat CPU 0 instructions: 17000002 cycles: 40748800 heartbeat IPC: 0.399196 cumulative IPC: 0.396654 (Simulation time: 0 hr 1 min 27 sec) 
Heartbeat CPU 0 instructions: 18000001 cycles: 43279941 heartbeat IPC: 0.395078 cumulative IPC: 0.396561 (Simulation time: 0 hr 1 min 32 sec) 
Heartbeat CPU 0 instructions: 19000001 cycles: 45807956 heartbeat IPC: 0.395567 cumulative IPC: 0.396506 (Simulation time: 0 hr 1 min 37 sec) 
Heartbeat CPU 0 instructions: 20000001 cycles: 48220904 heartbeat IPC: 0.414431 cumulative IPC: 0.39741 (Simulation time: 0 hr 1 min 42 sec) 
Heartbeat CPU 0 instructions: 21000000 cycles: 50420990 heartbeat IPC: 0.454527 cumulative IPC: 0.399923 (Simulation time: 0 hr 1 min 47 sec) 
Heartbeat CPU 0 instructions: 22000000 cycles: 52808645 heartbeat IPC: 0.418821 cumulative IPC: 0.400784 (Simulation time: 0 hr 1 min 52 sec) 
Heartbeat CPU 0 instructions: 23000000 cycles: 55304814 heartbeat IPC: 0.400614 cumulative IPC: 0.400776 (Simulation time: 0 hr 1 min 57 sec) 
Heartbeat CPU 0 instructions: 24000000 cycles: 57796725 heartbeat IPC: 0.401298 cumulative IPC: 0.400799 (Simulation time: 0 hr 2 min 2 sec) 
Heartbeat CPU 0 instructions: 25000001 cycles: 60293508 heartbeat IPC: 0.400516 cumulative IPC: 0.400787 (Simulation time: 0 hr 2 min 7 sec) 
Heartbeat CPU 0 instructions: 26000000 cycles: 62869244 heartbeat IPC: 0.388238 cumulative IPC: 0.40027 (Simulation time: 0 hr 2 min 12 sec) 
Heartbeat CPU 0 instructions: 27000000 cycles: 65386665 heartbeat IPC: 0.397232 cumulative IPC: 0.400152 (Simulation time: 0 hr 2 min 17 sec) 
Heartbeat CPU 0 instructions: 28000000 cycles: 67906651 heartbeat IPC: 0.396828 cumulative IPC: 0.400028 (Simulation time: 0 hr 2 min 22 sec) 
Heartbeat CPU 0 instructions: 29000002 cycles: 70411623 heartbeat IPC: 0.399207 cumulative IPC: 0.399999 (Simulation time: 0 hr 2 min 27 sec) 
Heartbeat CPU 0 instructions: 30000000 cycles: 72895790 heartbeat IPC: 0.402549 cumulative IPC: 0.400086 (Simulation time: 0 hr 2 min 32 sec) 
Heartbeat CPU 0 instructions: 31000003 cycles: 75435285 heartbeat IPC: 0.39378 cumulative IPC: 0.399873 (Simulation time: 0 hr 2 min 37 sec) 
Heartbeat CPU 0 instructions: 32000000 cycles: 77921853 heartbeat IPC: 0.40216 cumulative IPC: 0.399946 (Simulation time: 0 hr 2 min 42 sec) 
Heartbeat CPU 0 instructions: 33000000 cycles: 80401665 heartbeat IPC: 0.403256 cumulative IPC: 0.400049 (Simulation time: 0 hr 2 min 47 sec) 
Heartbeat CPU 0 instructions: 34000001 cycles: 82892331 heartbeat IPC: 0.401499 cumulative IPC: 0.400092 (Simulation time: 0 hr 2 min 52 sec) 
Heartbeat CPU 0 instructions: 35000001 cycles: 85359488 heartbeat IPC: 0.405325 cumulative IPC: 0.400244 (Simulation time: 0 hr 2 min 57 sec) 
Heartbeat CPU 0 instructions: 36000000 cycles: 87913076 heartbeat IPC: 0.391605 cumulative IPC: 0.399992 (Simulation time: 0 hr 3 min 2 sec) 
Heartbeat CPU 0 instructions: 37000000 cycles: 90389291 heartbeat IPC: 0.403842 cumulative IPC: 0.400098 (Simulation time: 0 hr 3 min 7 sec) 
Heartbeat CPU 0 instructions: 38000000 cycles: 92899069 heartbeat IPC: 0.398442 cumulative IPC: 0.400053 (Simulation time: 0 hr 3 min 12 sec) 
Heartbeat CPU 0 instructions: 39000000 cycles: 95375546 heartbeat IPC: 0.403799 cumulative IPC: 0.400151 (Simulation time: 0 hr 3 min 17 sec) 
Heartbeat CPU 0 instructions: 40000000 cycles: 97857803 heartbeat IPC: 0.402859 cumulative IPC: 0.40022 (Simulation time: 0 hr 3 min 22 sec) 
Heartbeat CPU 0 instructions: 41000003 cycles: 100353775 heartbeat IPC: 0.400647 cumulative IPC: 0.400231 (Simulation time: 0 hr 3 min 27 sec) 
Heartbeat CPU 0 instructions: 42000002 cycles: 102923807 heartbeat IPC: 0.3891 cumulative IPC: 0.399951 (Simulation time: 0 hr 3 min 32 sec) 
Heartbeat CPU 0 instructions: 43000003 cycles: 105432573 heartbeat IPC: 0.398603 cumulative IPC: 0.399919 (Simulation time: 0 hr 3 min 37 sec) 
Heartbeat CPU 0 instructions: 44000000 cycles: 107831940 heartbeat IPC: 0.416775 cumulative IPC: 0.400296 (Simulation time: 0 hr 3 min 42 sec) 
Heartbeat CPU 0 instructions: 45000000 cycles: 110058316 heartbeat IPC: 0.44916 cumulative IPC: 0.401288 (Simulation time: 0 hr 3 min 47 sec) 
Heartbeat CPU 0 instructions: 46000001 cycles: 112446802 heartbeat IPC: 0.418676 cumulative IPC: 0.401659 (Simulation time: 0 hr 3 min 52 sec) 
Heartbeat CPU 0 instructions: 47000003 cycles: 114944780 heartbeat IPC: 0.400325 cumulative IPC: 0.40163 (Simulation time: 0 hr 3 min 57 sec) 
Heartbeat CPU 0 instructions: 48000001 cycles: 117441433 heartbeat IPC: 0.400535 cumulative IPC: 0.401606 (Simulation time: 0 hr 4 min 2 sec) 
Heartbeat CPU 0 instructions: 49000002 cycles: 119952466 heartbeat IPC: 0.398243 cumulative IPC: 0.401536 (Simulation time: 0 hr 4 min 7 sec) 
Heartbeat CPU 0 instructions: 50000000 cycles: 122430288 heartbeat IPC: 0.403579 cumulative IPC: 0.401577 (Simulation time: 0 hr 4 min 12 sec) 
Heartbeat CPU 0 instructions: 51000002 cycles: 124920321 heartbeat IPC: 0.401602 cumulative IPC: 0.401578 (Simulation time: 0 hr 4 min 17 sec) 
Heartbeat CPU 0 instructions: 52000000 cycles: 127401670 heartbeat IPC: 0.403006 cumulative IPC: 0.401605 (Simulation time: 0 hr 4 min 22 sec) 
Heartbeat CPU 0 instructions: 53000000 cycles: 129910832 heartbeat IPC: 0.398539 cumulative IPC: 0.401546 (Simulation time: 0 hr 4 min 27 sec) 
Heartbeat CPU 0 instructions: 54000000 cycles: 132444670 heartbeat IPC: 0.394658 cumulative IPC: 0.401414 (Simulation time: 0 hr 4 min 32 sec) 
Heartbeat CPU 0 instructions: 55000000 cycles: 135023665 heartbeat IPC: 0.387748 cumulative IPC: 0.401152 (Simulation time: 0 hr 4 min 38 sec) 
Heartbeat CPU 0 instructions: 56000001 cycles: 137553677 heartbeat IPC: 0.395255 cumulative IPC: 0.401043 (Simulation time: 0 hr 4 min 43 sec) 
Heartbeat CPU 0 instructions: 57000001 cycles: 140053878 heartbeat IPC: 0.399968 cumulative IPC: 0.401024 (Simulation time: 0 hr 4 min 48 sec) 
Heartbeat CPU 0 instructions: 58000002 cycles: 142615338 heartbeat IPC: 0.390403 cumulative IPC: 0.400833 (Simulation time: 0 hr 4 min 53 sec) 
Heartbeat CPU 0 instructions: 59000002 cycles: 145077417 heartbeat IPC: 0.406161 cumulative IPC: 0.400923 (Simulation time: 0 hr 4 min 58 sec) 
Heartbeat CPU 0 instructions: 60000003 cycles: 147554388 heartbeat IPC: 0.403719 cumulative IPC: 0.40097 (Simulation time: 0 hr 5 min 2 sec) 
Heartbeat CPU 0 instructions: 61000000 cycles: 150163297 heartbeat IPC: 0.383301 cumulative IPC: 0.400663 (Simulation time: 0 hr 5 min 7 sec) 
Heartbeat CPU 0 instructions: 62000001 cycles: 152659235 heartbeat IPC: 0.400651 cumulative IPC: 0.400662 (Simulation time: 0 hr 5 min 12 sec) 
Heartbeat CPU 0 instructions: 63000001 cycles: 155164752 heartbeat IPC: 0.399119 cumulative IPC: 0.400637 (Simulation time: 0 hr 5 min 18 sec) 
Heartbeat CPU 0 instructions: 64000000 cycles: 157676389 heartbeat IPC: 0.398146 cumulative IPC: 0.400598 (Simulation time: 0 hr 5 min 23 sec) 
Heartbeat CPU 0 instructions: 65000000 cycles: 160217108 heartbeat IPC: 0.393589 cumulative IPC: 0.400486 (Simulation time: 0 hr 5 min 28 sec) 
Heartbeat CPU 0 instructions: 66000000 cycles: 162707302 heartbeat IPC: 0.401575 cumulative IPC: 0.400503 (Simulation time: 0 hr 5 min 33 sec) 
Heartbeat CPU 0 instructions: 67000003 cycles: 164967654 heartbeat IPC: 0.44241 cumulative IPC: 0.401079 (Simulation time: 0 hr 5 min 38 sec) 
Heartbeat CPU 0 instructions: 68000001 cycles: 167323363 heartbeat IPC: 0.4245 cumulative IPC: 0.401409 (Simulation time: 0 hr 5 min 42 sec) 
Heartbeat CPU 0 instructions: 69000000 cycles: 169770149 heartbeat IPC: 0.408699 cumulative IPC: 0.401514 (Simulation time: 0 hr 5 min 47 sec) 
Heartbeat CPU 0 instructions: 70000003 cycles: 172283233 heartbeat IPC: 0.397919 cumulative IPC: 0.401462 (Simulation time: 0 hr 5 min 53 sec) 
Heartbeat CPU 0 instructions: 71000000 cycles: 174744927 heartbeat IPC: 0.406223 cumulative IPC: 0.401529 (Simulation time: 0 hr 5 min 58 sec) 
Heartbeat CPU 0 instructions: 72000000 cycles: 177257620 heartbeat IPC: 0.397979 cumulative IPC: 0.401479 (Simulation time: 0 hr 6 min 3 sec) 
Heartbeat CPU 0 instructions: 73000002 cycles: 179736804 heartbeat IPC: 0.403359 cumulative IPC: 0.401505 (Simulation time: 0 hr 6 min 8 sec) 
Heartbeat CPU 0 instructions: 74000000 cycles: 182279429 heartbeat IPC: 0.393294 cumulative IPC: 0.40139 (Simulation time: 0 hr 6 min 13 sec) 
Heartbeat CPU 0 instructions: 75000000 cycles: 184802446 heartbeat IPC: 0.396351 cumulative IPC: 0.401321 (Simulation time: 0 hr 6 min 18 sec) 
Heartbeat CPU 0 instructions: 76000002 cycles: 187298164 heartbeat IPC: 0.400687 cumulative IPC: 0.401312 (Simulation time: 0 hr 6 min 23 sec) 
Heartbeat CPU 0 instructions: 77000000 cycles: 189792400 heartbeat IPC: 0.400924 cumulative IPC: 0.401307 (Simulation time: 0 hr 6 min 28 sec) 
Heartbeat CPU 0 instructions: 78000001 cycles: 192283746 heartbeat IPC: 0.40139 cumulative IPC: 0.401308 (Simulation time: 0 hr 6 min 33 sec) 
Heartbeat CPU 0 instructions: 79000002 cycles: 194764723 heartbeat IPC: 0.403067 cumulative IPC: 0.401331 (Simulation time: 0 hr 6 min 38 sec) 
Heartbeat CPU 0 instructions: 80000001 cycles: 197240969 heartbeat IPC: 0.403837 cumulative IPC: 0.401362 (Simulation time: 0 hr 6 min 43 sec) 
Heartbeat CPU 0 instructions: 81000000 cycles: 199726535 heartbeat IPC: 0.402322 cumulative IPC: 0.401374 (Simulation time: 0 hr 6 min 48 sec) 
Heartbeat CPU 0 instructions: 82000002 cycles: 202212308 heartbeat IPC: 0.40229 cumulative IPC: 0.401386 (Simulation time: 0 hr 6 min 53 sec) 
Heartbeat CPU 0 instructions: 83000003 cycles: 204715615 heartbeat IPC: 0.399472 cumulative IPC: 0.401362 (Simulation time: 0 hr 6 min 58 sec) 
Heartbeat CPU 0 instructions: 84000002 cycles: 207231934 heartbeat IPC: 0.397406 cumulative IPC: 0.401314 (Simulation time: 0 hr 7 min 3 sec) 
Heartbeat CPU 0 instructions: 85000000 cycles: 209725514 heartbeat IPC: 0.401029 cumulative IPC: 0.401311 (Simulation time: 0 hr 7 min 8 sec) 
Heartbeat CPU 0 instructions: 86000001 cycles: 212180697 heartbeat IPC: 0.407302 cumulative IPC: 0.40138 (Simulation time: 0 hr 7 min 13 sec) 
Heartbeat CPU 0 instructions: 87000003 cycles: 214582996 heartbeat IPC: 0.416269 cumulative IPC: 0.401547 (Simulation time: 0 hr 7 min 18 sec) 
Heartbeat CPU 0 instructions: 88000000 cycles: 216976671 heartbeat IPC: 0.417766 cumulative IPC: 0.401726 (Simulation time: 0 hr 7 min 23 sec) 
Heartbeat CPU 0 instructions: 89000000 cycles: 220243840 heartbeat IPC: 0.306075 cumulative IPC: 0.400305 (Simulation time: 0 hr 7 min 29 sec) 
Heartbeat CPU 0 instructions: 90000001 cycles: 223050374 heartbeat IPC: 0.356312 cumulative IPC: 0.39975 (Simulation time: 0 hr 7 min 34 sec) 
Heartbeat CPU 0 instructions: 91000000 cycles: 225114793 heartbeat IPC: 0.484397 cumulative IPC: 0.400528 (Simulation time: 0 hr 7 min 38 sec) 
Heartbeat CPU 0 instructions: 92000000 cycles: 227866276 heartbeat IPC: 0.36344 cumulative IPC: 0.400079 (Simulation time: 0 hr 7 min 44 sec) 
Heartbeat CPU 0 instructions: 93000001 cycles: 229995106 heartbeat IPC: 0.469742 cumulative IPC: 0.400725 (Simulation time: 0 hr 7 min 48 sec) 
Heartbeat CPU 0 instructions: 94000000 cycles: 232719423 heartbeat IPC: 0.367064 cumulative IPC: 0.400331 (Simulation time: 0 hr 7 min 53 sec) 
Heartbeat CPU 0 instructions: 95000002 cycles: 234803172 heartbeat IPC: 0.479905 cumulative IPC: 0.401038 (Simulation time: 0 hr 7 min 58 sec) 
Heartbeat CPU 0 instructions: 96000000 cycles: 237525154 heartbeat IPC: 0.367379 cumulative IPC: 0.400652 (Simulation time: 0 hr 8 min 3 sec) 
Heartbeat CPU 0 instructions: 97000001 cycles: 239591924 heartbeat IPC: 0.483847 cumulative IPC: 0.40137 (Simulation time: 0 hr 8 min 7 sec) 
Heartbeat CPU 0 instructions: 98000002 cycles: 242327504 heartbeat IPC: 0.365554 cumulative IPC: 0.400965 (Simulation time: 0 hr 8 min 13 sec) 
Heartbeat CPU 0 instructions: 99000000 cycles: 244398882 heartbeat IPC: 0.482769 cumulative IPC: 0.40166 (Simulation time: 0 hr 8 min 17 sec) 
Heartbeat CPU 0 instructions: 100000000 cycles: 247118411 heartbeat IPC: 0.367711 cumulative IPC: 0.401286 (Simulation time: 0 hr 8 min 22 sec) 
Heartbeat CPU 0 instructions: 101000002 cycles: 249194631 heartbeat IPC: 0.481645 cumulative IPC: 0.401956 (Simulation time: 0 hr 8 min 27 sec) 
Heartbeat CPU 0 instructions: 102000000 cycles: 251985634 heartbeat IPC: 0.358293 cumulative IPC: 0.401472 (Simulation time: 0 hr 8 min 32 sec) 
Heartbeat CPU 0 instructions: 103000003 cycles: 254027026 heartbeat IPC: 0.489863 cumulative IPC: 0.402183 (Simulation time: 0 hr 8 min 36 sec) 
Heartbeat CPU 0 instructions: 104000001 cycles: 256830689 heartbeat IPC: 0.356676 cumulative IPC: 0.401686 (Simulation time: 0 hr 8 min 42 sec) 
Heartbeat CPU 0 instructions: 105000000 cycles: 258871019 heartbeat IPC: 0.490116 cumulative IPC: 0.402384 (Simulation time: 0 hr 8 min 46 sec) 
Heartbeat CPU 0 instructions: 106000000 cycles: 261610815 heartbeat IPC: 0.364991 cumulative IPC: 0.401992 (Simulation time: 0 hr 8 min 51 sec) 
Heartbeat CPU 0 instructions: 107000001 cycles: 263682785 heartbeat IPC: 0.482633 cumulative IPC: 0.402626 (Simulation time: 0 hr 8 min 56 sec) 
Heartbeat CPU 0 instructions: 108000003 cycles: 266463578 heartbeat IPC: 0.35961 cumulative IPC: 0.402177 (Simulation time: 0 hr 9 min 1 sec) 
Heartbeat CPU 0 instructions: 109000002 cycles: 268549246 heartbeat IPC: 0.479462 cumulative IPC: 0.402778 (Simulation time: 0 hr 9 min 6 sec) 
Heartbeat CPU 0 instructions: 110000000 cycles: 271307476 heartbeat IPC: 0.362551 cumulative IPC: 0.402368 (Simulation time: 0 hr 9 min 11 sec) 
Heartbeat CPU 0 instructions: 111000000 cycles: 273397975 heartbeat IPC: 0.478355 cumulative IPC: 0.40295 (Simulation time: 0 hr 9 min 16 sec) 
Heartbeat CPU 0 instructions: 112000003 cycles: 276104090 heartbeat IPC: 0.369535 cumulative IPC: 0.402622 (Simulation time: 0 hr 9 min 21 sec) 
Heartbeat CPU 0 instructions: 113000003 cycles: 278167904 heartbeat IPC: 0.48454 cumulative IPC: 0.403231 (Simulation time: 0 hr 9 min 25 sec) 
Heartbeat CPU 0 instructions: 114000001 cycles: 280895841 heartbeat IPC: 0.366577 cumulative IPC: 0.402874 (Simulation time: 0 hr 9 min 30 sec) 
Heartbeat CPU 0 instructions: 115000000 cycles: 282948461 heartbeat IPC: 0.487182 cumulative IPC: 0.403487 (Simulation time: 0 hr 9 min 35 sec) 
Heartbeat CPU 0 instructions: 116000000 cycles: 285650827 heartbeat IPC: 0.370046 cumulative IPC: 0.40317 (Simulation time: 0 hr 9 min 40 sec) 
Heartbeat CPU 0 instructions: 117000001 cycles: 287718315 heartbeat IPC: 0.483679 cumulative IPC: 0.403749 (Simulation time: 0 hr 9 min 45 sec) 
Heartbeat CPU 0 instructions: 118000003 cycles: 290423181 heartbeat IPC: 0.369705 cumulative IPC: 0.403432 (Simulation time: 0 hr 9 min 50 sec) 
Heartbeat CPU 0 instructions: 119000000 cycles: 292471361 heartbeat IPC: 0.488237 cumulative IPC: 0.404027 (Simulation time: 0 hr 9 min 54 sec) 
Heartbeat CPU 0 instructions: 120000000 cycles: 295197840 heartbeat IPC: 0.366773 cumulative IPC: 0.403682 (Simulation time: 0 hr 9 min 59 sec) 
Heartbeat CPU 0 instructions: 121000000 cycles: 297254777 heartbeat IPC: 0.48616 cumulative IPC: 0.404254 (Simulation time: 0 hr 10 min 4 sec) 
Heartbeat CPU 0 instructions: 122000002 cycles: 299953472 heartbeat IPC: 0.37055 cumulative IPC: 0.40395 (Simulation time: 0 hr 10 min 9 sec) 
Heartbeat CPU 0 instructions: 123000000 cycles: 302019314 heartbeat IPC: 0.484063 cumulative IPC: 0.404499 (Simulation time: 0 hr 10 min 13 sec) 
Heartbeat CPU 0 instructions: 124000000 cycles: 304722152 heartbeat IPC: 0.369981 cumulative IPC: 0.404192 (Simulation time: 0 hr 10 min 19 sec) 
Heartbeat CPU 0 instructions: 125000000 cycles: 306803664 heartbeat IPC: 0.48042 cumulative IPC: 0.40471 (Simulation time: 0 hr 10 min 23 sec) 
Heartbeat CPU 0 instructions: 126000000 cycles: 309508749 heartbeat IPC: 0.369674 cumulative IPC: 0.404403 (Simulation time: 0 hr 10 min 28 sec) 
Heartbeat CPU 0 instructions: 127000000 cycles: 311644030 heartbeat IPC: 0.468322 cumulative IPC: 0.404842 (Simulation time: 0 hr 10 min 33 sec) 
Heartbeat CPU 0 instructions: 128000000 cycles: 314303037 heartbeat IPC: 0.37608 cumulative IPC: 0.404598 (Simulation time: 0 hr 10 min 38 sec) 
Heartbeat CPU 0 instructions: 129000000 cycles: 316487726 heartbeat IPC: 0.457731 cumulative IPC: 0.404965 (Simulation time: 0 hr 10 min 43 sec) 
Heartbeat CPU 0 instructions: 130000000 cycles: 318985775 heartbeat IPC: 0.400312 cumulative IPC: 0.404929 (Simulation time: 0 hr 10 min 48 sec) 
Heartbeat CPU 0 instructions: 131000001 cycles: 321284841 heartbeat IPC: 0.43496 cumulative IPC: 0.405144 (Simulation time: 0 hr 10 min 52 sec) 
Heartbeat CPU 0 instructions: 132000000 cycles: 323669480 heartbeat IPC: 0.41935 cumulative IPC: 0.405249 (Simulation time: 0 hr 10 min 57 sec) 
Heartbeat CPU 0 instructions: 133000001 cycles: 326094003 heartbeat IPC: 0.412453 cumulative IPC: 0.405303 (Simulation time: 0 hr 11 min 2 sec) 
Heartbeat CPU 0 instructions: 134000001 cycles: 328519488 heartbeat IPC: 0.412289 cumulative IPC: 0.405354 (Simulation time: 0 hr 11 min 7 sec) 
Heartbeat CPU 0 instructions: 135000003 cycles: 330930416 heartbeat IPC: 0.414779 cumulative IPC: 0.405423 (Simulation time: 0 hr 11 min 11 sec) 
Heartbeat CPU 0 instructions: 136000002 cycles: 333259532 heartbeat IPC: 0.429347 cumulative IPC: 0.40559 (Simulation time: 0 hr 11 min 16 sec) 
Heartbeat CPU 0 instructions: 137000001 cycles: 335681672 heartbeat IPC: 0.412858 cumulative IPC: 0.405643 (Simulation time: 0 hr 11 min 20 sec) 
Heartbeat CPU 0 instructions: 138000001 cycles: 338217527 heartbeat IPC: 0.394344 cumulative IPC: 0.405558 (Simulation time: 0 hr 11 min 25 sec) 
Heartbeat CPU 0 instructions: 139000000 cycles: 340971534 heartbeat IPC: 0.363107 cumulative IPC: 0.405215 (Simulation time: 0 hr 11 min 30 sec) 
Heartbeat CPU 0 instructions: 140000002 cycles: 343453669 heartbeat IPC: 0.40288 cumulative IPC: 0.405198 (Simulation time: 0 hr 11 min 34 sec) 
Heartbeat CPU 0 instructions: 141000000 cycles: 346029237 heartbeat IPC: 0.388263 cumulative IPC: 0.405072 (Simulation time: 0 hr 11 min 39 sec) 
Heartbeat CPU 0 instructions: 142000000 cycles: 348217837 heartbeat IPC: 0.456913 cumulative IPC: 0.405398 (Simulation time: 0 hr 11 min 44 sec) 
Heartbeat CPU 0 instructions: 143000000 cycles: 350919227 heartbeat IPC: 0.37018 cumulative IPC: 0.405126 (Simulation time: 0 hr 11 min 49 sec) 
Heartbeat CPU 0 instructions: 144000003 cycles: 353013280 heartbeat IPC: 0.477544 cumulative IPC: 0.405557 (Simulation time: 0 hr 11 min 54 sec) 
Heartbeat CPU 0 instructions: 145000001 cycles: 355855408 heartbeat IPC: 0.351848 cumulative IPC: 0.405127 (Simulation time: 0 hr 11 min 58 sec) 
Heartbeat CPU 0 instructions: 146000002 cycles: 357987317 heartbeat IPC: 0.469064 cumulative IPC: 0.405508 (Simulation time: 0 hr 12 min 2 sec) 
Heartbeat CPU 0 instructions: 147000000 cycles: 360740508 heartbeat IPC: 0.363214 cumulative IPC: 0.405185 (Simulation time: 0 hr 12 min 7 sec) 
Heartbeat CPU 0 instructions: 148000000 cycles: 362877712 heartbeat IPC: 0.467901 cumulative IPC: 0.405555 (Simulation time: 0 hr 12 min 12 sec) 
Heartbeat CPU 0 instructions: 149000000 cycles: 365652058 heartbeat IPC: 0.360445 cumulative IPC: 0.405212 (Simulation time: 0 hr 12 min 17 sec) 
Heartbeat CPU 0 instructions: 150000000 cycles: 367752555 heartbeat IPC: 0.476078 cumulative IPC: 0.405617 (Simulation time: 0 hr 12 min 21 sec) 
Heartbeat CPU 0 instructions: 151000000 cycles: 370167030 heartbeat IPC: 0.414169 cumulative IPC: 0.405673 (Simulation time: 0 hr 12 min 26 sec) 
Heartbeat CPU 0 instructions: 152000003 cycles: 372747229 heartbeat IPC: 0.387568 cumulative IPC: 0.405548 (Simulation time: 0 hr 12 min 31 sec) 
Heartbeat CPU 0 instructions: 153000000 cycles: 374840495 heartbeat IPC: 0.477721 cumulative IPC: 0.405951 (Simulation time: 0 hr 12 min 36 sec) 
Heartbeat CPU 0 instructions: 154000000 cycles: 377630339 heartbeat IPC: 0.358443 cumulative IPC: 0.4056 (Simulation time: 0 hr 12 min 41 sec) 
Heartbeat CPU 0 instructions: 155000000 cycles: 379794531 heartbeat IPC: 0.462066 cumulative IPC: 0.405922 (Simulation time: 0 hr 12 min 45 sec) 
Heartbeat CPU 0 instructions: 156000000 cycles: 382641567 heartbeat IPC: 0.351242 cumulative IPC: 0.405515 (Simulation time: 0 hr 12 min 50 sec) 
Heartbeat CPU 0 instructions: 157000001 cycles: 384752180 heartbeat IPC: 0.473796 cumulative IPC: 0.40589 (Simulation time: 0 hr 12 min 55 sec) 
Heartbeat CPU 0 instructions: 158000000 cycles: 387317309 heartbeat IPC: 0.389844 cumulative IPC: 0.405783 (Simulation time: 0 hr 13 min 0 sec) 
Heartbeat CPU 0 instructions: 159000000 cycles: 389645254 heartbeat IPC: 0.429563 cumulative IPC: 0.405926 (Simulation time: 0 hr 13 min 5 sec) 
Heartbeat CPU 0 instructions: 160000000 cycles: 391732000 heartbeat IPC: 0.479215 cumulative IPC: 0.406316 (Simulation time: 0 hr 13 min 10 sec) 
Heartbeat CPU 0 instructions: 161000001 cycles: 394591160 heartbeat IPC: 0.349753 cumulative IPC: 0.405906 (Simulation time: 0 hr 13 min 15 sec) 
Heartbeat CPU 0 instructions: 162000001 cycles: 396680378 heartbeat IPC: 0.478648 cumulative IPC: 0.40629 (Simulation time: 0 hr 13 min 20 sec) 
Heartbeat CPU 0 instructions: 163000000 cycles: 399455330 heartbeat IPC: 0.360366 cumulative IPC: 0.40597 (Simulation time: 0 hr 13 min 25 sec) 
Heartbeat CPU 0 instructions: 164000000 cycles: 401574343 heartbeat IPC: 0.471918 cumulative IPC: 0.406319 (Simulation time: 0 hr 13 min 30 sec) 
Heartbeat CPU 0 instructions: 165000000 cycles: 404356437 heartbeat IPC: 0.359441 cumulative IPC: 0.405996 (Simulation time: 0 hr 13 min 35 sec) 
Heartbeat CPU 0 instructions: 166000001 cycles: 406566579 heartbeat IPC: 0.45246 cumulative IPC: 0.406249 (Simulation time: 0 hr 13 min 40 sec) 
Heartbeat CPU 0 instructions: 167000002 cycles: 408745439 heartbeat IPC: 0.458956 cumulative IPC: 0.40653 (Simulation time: 0 hr 13 min 45 sec) 
Heartbeat CPU 0 instructions: 168000000 cycles: 411500556 heartbeat IPC: 0.36296 cumulative IPC: 0.406238 (Simulation time: 0 hr 13 min 50 sec) 
Heartbeat CPU 0 instructions: 169000003 cycles: 413598816 heartbeat IPC: 0.476587 cumulative IPC: 0.406595 (Simulation time: 0 hr 13 min 54 sec) 
Heartbeat CPU 0 instructions: 170000000 cycles: 416413755 heartbeat IPC: 0.355246 cumulative IPC: 0.406248 (Simulation time: 0 hr 13 min 59 sec) 
Heartbeat CPU 0 instructions: 171000001 cycles: 418525355 heartbeat IPC: 0.473575 cumulative IPC: 0.406588 (Simulation time: 0 hr 14 min 4 sec) 
Heartbeat CPU 0 instructions: 172000000 cycles: 421312596 heartbeat IPC: 0.358777 cumulative IPC: 0.406271 (Simulation time: 0 hr 14 min 9 sec) 
Heartbeat CPU 0 instructions: 173000001 cycles: 423401163 heartbeat IPC: 0.478798 cumulative IPC: 0.406629 (Simulation time: 0 hr 14 min 13 sec) 
Heartbeat CPU 0 instructions: 174000002 cycles: 426157762 heartbeat IPC: 0.362766 cumulative IPC: 0.406345 (Simulation time: 0 hr 14 min 18 sec) 
Heartbeat CPU 0 instructions: 175000003 cycles: 428260696 heartbeat IPC: 0.475527 cumulative IPC: 0.406685 (Simulation time: 0 hr 14 min 23 sec) 
Heartbeat CPU 0 instructions: 176000000 cycles: 431046876 heartbeat IPC: 0.358913 cumulative IPC: 0.406376 (Simulation time: 0 hr 14 min 28 sec) 
Heartbeat CPU 0 instructions: 177000002 cycles: 433144080 heartbeat IPC: 0.476826 cumulative IPC: 0.406718 (Simulation time: 0 hr 14 min 33 sec) 
Heartbeat CPU 0 instructions: 178000000 cycles: 435381091 heartbeat IPC: 0.447024 cumulative IPC: 0.406925 (Simulation time: 0 hr 14 min 37 sec) 
Heartbeat CPU 0 instructions: 179000001 cycles: 438028343 heartbeat IPC: 0.377751 cumulative IPC: 0.406748 (Simulation time: 0 hr 14 min 42 sec) 
Heartbeat CPU 0 instructions: 180000001 cycles: 440249735 heartbeat IPC: 0.450168 cumulative IPC: 0.406968 (Simulation time: 0 hr 14 min 47 sec) 
Heartbeat CPU 0 instructions: 181000000 cycles: 442962741 heartbeat IPC: 0.368594 cumulative IPC: 0.406732 (Simulation time: 0 hr 14 min 52 sec) 
Heartbeat CPU 0 instructions: 182000000 cycles: 445047198 heartbeat IPC: 0.479741 cumulative IPC: 0.407075 (Simulation time: 0 hr 14 min 57 sec) 
Heartbeat CPU 0 instructions: 183000000 cycles: 447829928 heartbeat IPC: 0.359359 cumulative IPC: 0.406778 (Simulation time: 0 hr 15 min 2 sec) 
Heartbeat CPU 0 instructions: 184000003 cycles: 449924916 heartbeat IPC: 0.477331 cumulative IPC: 0.407107 (Simulation time: 0 hr 15 min 6 sec) 
Heartbeat CPU 0 instructions: 185000001 cycles: 452674829 heartbeat IPC: 0.363647 cumulative IPC: 0.406842 (Simulation time: 0 hr 15 min 11 sec) 
Heartbeat CPU 0 instructions: 186000001 cycles: 454842746 heartbeat IPC: 0.461272 cumulative IPC: 0.407102 (Simulation time: 0 hr 15 min 16 sec) 
Heartbeat CPU 0 instructions: 187000000 cycles: 457497265 heartbeat IPC: 0.376716 cumulative IPC: 0.406926 (Simulation time: 0 hr 15 min 21 sec) 
Heartbeat CPU 0 instructions: 188000000 cycles: 459572593 heartbeat IPC: 0.481852 cumulative IPC: 0.407264 (Simulation time: 0 hr 15 min 26 sec) 
Heartbeat CPU 0 instructions: 189000002 cycles: 462325564 heartbeat IPC: 0.363245 cumulative IPC: 0.407002 (Simulation time: 0 hr 15 min 31 sec) 
Heartbeat CPU 0 instructions: 190000002 cycles: 464410446 heartbeat IPC: 0.479643 cumulative IPC: 0.407328 (Simulation time: 0 hr 15 min 35 sec) 
Heartbeat CPU 0 instructions: 191000002 cycles: 467181232 heartbeat IPC: 0.360908 cumulative IPC: 0.407053 (Simulation time: 0 hr 15 min 41 sec) 
Heartbeat CPU 0 instructions: 192000002 cycles: 469323699 heartbeat IPC: 0.466752 cumulative IPC: 0.407326 (Simulation time: 0 hr 15 min 45 sec) 
Heartbeat CPU 0 instructions: 193000000 cycles: 472076891 heartbeat IPC: 0.363214 cumulative IPC: 0.407068 (Simulation time: 0 hr 15 min 50 sec) 
Heartbeat CPU 0 instructions: 194000001 cycles: 474174454 heartbeat IPC: 0.476744 cumulative IPC: 0.407377 (Simulation time: 0 hr 15 min 55 sec) 
Heartbeat CPU 0 instructions: 195000001 cycles: 476900686 heartbeat IPC: 0.366807 cumulative IPC: 0.407144 (Simulation time: 0 hr 16 min 0 sec) 
Heartbeat CPU 0 instructions: 196000000 cycles: 479000085 heartbeat IPC: 0.476326 cumulative IPC: 0.407448 (Simulation time: 0 hr 16 min 5 sec) 
Heartbeat CPU 0 instructions: 197000002 cycles: 481783840 heartbeat IPC: 0.359228 cumulative IPC: 0.407169 (Simulation time: 0 hr 16 min 10 sec) 
Heartbeat CPU 0 instructions: 198000000 cycles: 483899570 heartbeat IPC: 0.472649 cumulative IPC: 0.407456 (Simulation time: 0 hr 16 min 14 sec) 
Heartbeat CPU 0 instructions: 199000003 cycles: 486665824 heartbeat IPC: 0.361501 cumulative IPC: 0.407194 (Simulation time: 0 hr 16 min 20 sec) 
Heartbeat CPU 0 instructions: 200000000 cycles: 488766650 heartbeat IPC: 0.476002 cumulative IPC: 0.40749 (Simulation time: 0 hr 16 min 24 sec) 
Heartbeat CPU 0 instructions: 201000003 cycles: 491236694 heartbeat IPC: 0.404852 cumulative IPC: 0.407477 (Simulation time: 0 hr 16 min 29 sec) 
Heartbeat CPU 0 instructions: 202000001 cycles: 493680519 heartbeat IPC: 0.409194 cumulative IPC: 0.407485 (Simulation time: 0 hr 16 min 34 sec) 
Heartbeat CPU 0 instructions: 203000001 cycles: 495864998 heartbeat IPC: 0.457775 cumulative IPC: 0.407707 (Simulation time: 0 hr 16 min 39 sec) 
Heartbeat CPU 0 instructions: 204000000 cycles: 498570575 heartbeat IPC: 0.369607 cumulative IPC: 0.4075 (Simulation time: 0 hr 16 min 44 sec) 
Heartbeat CPU 0 instructions: 205000000 cycles: 500697186 heartbeat IPC: 0.470232 cumulative IPC: 0.407767 (Simulation time: 0 hr 16 min 48 sec) 
Heartbeat CPU 0 instructions: 206000000 cycles: 503437908 heartbeat IPC: 0.364867 cumulative IPC: 0.407533 (Simulation time: 0 hr 16 min 53 sec) 
Heartbeat CPU 0 instructions: 207000003 cycles: 505493636 heartbeat IPC: 0.486447 cumulative IPC: 0.407854 (Simulation time: 0 hr 16 min 58 sec) 
Heartbeat CPU 0 instructions: 208000000 cycles: 508227662 heartbeat IPC: 0.36576 cumulative IPC: 0.407628 (Simulation time: 0 hr 17 min 2 sec) 
Heartbeat CPU 0 instructions: 209000000 cycles: 510289770 heartbeat IPC: 0.484941 cumulative IPC: 0.40794 (Simulation time: 0 hr 17 min 7 sec) 
Heartbeat CPU 0 instructions: 210000003 cycles: 513042074 heartbeat IPC: 0.363333 cumulative IPC: 0.407701 (Simulation time: 0 hr 17 min 12 sec) 
Heartbeat CPU 0 instructions: 211000000 cycles: 515110768 heartbeat IPC: 0.483395 cumulative IPC: 0.408005 (Simulation time: 0 hr 17 min 16 sec) 
Heartbeat CPU 0 instructions: 212000001 cycles: 517860447 heartbeat IPC: 0.363679 cumulative IPC: 0.40777 (Simulation time: 0 hr 17 min 21 sec) 
Heartbeat CPU 0 instructions: 213000002 cycles: 519975855 heartbeat IPC: 0.472723 cumulative IPC: 0.408034 (Simulation time: 0 hr 17 min 26 sec) 
Heartbeat CPU 0 instructions: 214000002 cycles: 522418845 heartbeat IPC: 0.409334 cumulative IPC: 0.40804 (Simulation time: 0 hr 17 min 30 sec) 
Heartbeat CPU 0 instructions: 215000002 cycles: 524782347 heartbeat IPC: 0.423101 cumulative IPC: 0.408108 (Simulation time: 0 hr 17 min 35 sec) 
Heartbeat CPU 0 instructions: 216000000 cycles: 526889203 heartbeat IPC: 0.47464 cumulative IPC: 0.408374 (Simulation time: 0 hr 17 min 40 sec) 
Heartbeat CPU 0 instructions: 217000000 cycles: 529699596 heartbeat IPC: 0.355822 cumulative IPC: 0.408095 (Simulation time: 0 hr 17 min 45 sec) 
Heartbeat CPU 0 instructions: 218000001 cycles: 531805428 heartbeat IPC: 0.474872 cumulative IPC: 0.40836 (Simulation time: 0 hr 17 min 49 sec) 
Heartbeat CPU 0 instructions: 219000000 cycles: 534595186 heartbeat IPC: 0.358454 cumulative IPC: 0.408099 (Simulation time: 0 hr 17 min 55 sec) 
Heartbeat CPU 0 instructions: 220000000 cycles: 536713844 heartbeat IPC: 0.471997 cumulative IPC: 0.408352 (Simulation time: 0 hr 17 min 59 sec) 
Heartbeat CPU 0 instructions: 221000001 cycles: 539438300 heartbeat IPC: 0.367046 cumulative IPC: 0.408143 (Simulation time: 0 hr 18 min 4 sec) 
Heartbeat CPU 0 instructions: 222000000 cycles: 541538724 heartbeat IPC: 0.476094 cumulative IPC: 0.408407 (Simulation time: 0 hr 18 min 9 sec) 
Heartbeat CPU 0 instructions: 223000002 cycles: 544276157 heartbeat IPC: 0.365306 cumulative IPC: 0.40819 (Simulation time: 0 hr 18 min 14 sec) 
Heartbeat CPU 0 instructions: 224000001 cycles: 546336879 heartbeat IPC: 0.485266 cumulative IPC: 0.408481 (Simulation time: 0 hr 18 min 19 sec) 
Heartbeat CPU 0 instructions: 225000000 cycles: 549141031 heartbeat IPC: 0.356614 cumulative IPC: 0.408216 (Simulation time: 0 hr 18 min 24 sec) 
Heartbeat CPU 0 instructions: 226000000 cycles: 551984320 heartbeat IPC: 0.351705 cumulative IPC: 0.407924 (Simulation time: 0 hr 18 min 29 sec) 
Heartbeat CPU 0 instructions: 227000003 cycles: 554116625 heartbeat IPC: 0.468977 cumulative IPC: 0.408159 (Simulation time: 0 hr 18 min 33 sec) 
Heartbeat CPU 0 instructions: 228000002 cycles: 556982371 heartbeat IPC: 0.348949 cumulative IPC: 0.407855 (Simulation time: 0 hr 18 min 39 sec) 
Heartbeat CPU 0 instructions: 229000001 cycles: 559115193 heartbeat IPC: 0.468862 cumulative IPC: 0.408087 (Simulation time: 0 hr 18 min 43 sec) 
Heartbeat CPU 0 instructions: 230000000 cycles: 561766232 heartbeat IPC: 0.37721 cumulative IPC: 0.407942 (Simulation time: 0 hr 18 min 48 sec) 
Heartbeat CPU 0 instructions: 231000000 cycles: 564039392 heartbeat IPC: 0.439916 cumulative IPC: 0.408071 (Simulation time: 0 hr 18 min 53 sec) 
Heartbeat CPU 0 instructions: 232000001 cycles: 566161509 heartbeat IPC: 0.471228 cumulative IPC: 0.408307 (Simulation time: 0 hr 18 min 58 sec) 
Heartbeat CPU 0 instructions: 233000001 cycles: 568997327 heartbeat IPC: 0.352632 cumulative IPC: 0.40803 (Simulation time: 0 hr 19 min 3 sec) 
Heartbeat CPU 0 instructions: 234000001 cycles: 571107078 heartbeat IPC: 0.47399 cumulative IPC: 0.408274 (Simulation time: 0 hr 19 min 8 sec) 
Heartbeat CPU 0 instructions: 235000003 cycles: 573236803 heartbeat IPC: 0.469545 cumulative IPC: 0.408501 (Simulation time: 0 hr 19 min 12 sec) 
Heartbeat CPU 0 instructions: 236000001 cycles: 576126370 heartbeat IPC: 0.346072 cumulative IPC: 0.408188 (Simulation time: 0 hr 19 min 17 sec) 
Heartbeat CPU 0 instructions: 237000001 cycles: 578257840 heartbeat IPC: 0.46916 cumulative IPC: 0.408413 (Simulation time: 0 hr 19 min 22 sec) 
Heartbeat CPU 0 instructions: 238000003 cycles: 581082462 heartbeat IPC: 0.35403 cumulative IPC: 0.408148 (Simulation time: 0 hr 19 min 27 sec) 
Heartbeat CPU 0 instructions: 239000000 cycles: 583215739 heartbeat IPC: 0.468761 cumulative IPC: 0.40837 (Simulation time: 0 hr 19 min 32 sec) 
Heartbeat CPU 0 instructions: 240000000 cycles: 585301938 heartbeat IPC: 0.479341 cumulative IPC: 0.408623 (Simulation time: 0 hr 19 min 37 sec) 
Heartbeat CPU 0 instructions: 241000000 cycles: 588122251 heartbeat IPC: 0.354571 cumulative IPC: 0.408364 (Simulation time: 0 hr 19 min 42 sec) 
Heartbeat CPU 0 instructions: 242000000 cycles: 590268031 heartbeat IPC: 0.466031 cumulative IPC: 0.408574 (Simulation time: 0 hr 19 min 47 sec) 
Heartbeat CPU 0 instructions: 243000002 cycles: 592588650 heartbeat IPC: 0.43092 cumulative IPC: 0.408661 (Simulation time: 0 hr 19 min 51 sec) 
Heartbeat CPU 0 instructions: 244000001 cycles: 595221086 heartbeat IPC: 0.379876 cumulative IPC: 0.408534 (Simulation time: 0 hr 19 min 56 sec) 
Heartbeat CPU 0 instructions: 245000001 cycles: 597337465 heartbeat IPC: 0.472505 cumulative IPC: 0.408761 (Simulation time: 0 hr 20 min 1 sec) 
Heartbeat CPU 0 instructions: 246000003 cycles: 600149189 heartbeat IPC: 0.355654 cumulative IPC: 0.408512 (Simulation time: 0 hr 20 min 6 sec) 
Heartbeat CPU 0 instructions: 247000000 cycles: 602288801 heartbeat IPC: 0.467373 cumulative IPC: 0.408721 (Simulation time: 0 hr 20 min 11 sec) 
Heartbeat CPU 0 instructions: 248000000 cycles: 604450236 heartbeat IPC: 0.462656 cumulative IPC: 0.408914 (Simulation time: 0 hr 20 min 16 sec) 
Heartbeat CPU 0 instructions: 249000001 cycles: 607235094 heartbeat IPC: 0.359085 cumulative IPC: 0.408685 (Simulation time: 0 hr 20 min 21 sec) 
Heartbeat CPU 0 instructions: 250000001 cycles: 609352005 heartbeat IPC: 0.472386 cumulative IPC: 0.408907 (Simulation time: 0 hr 20 min 26 sec) 
Heartbeat CPU 0 instructions: 251000003 cycles: 611716278 heartbeat IPC: 0.422964 cumulative IPC: 0.408961 (Simulation time: 0 hr 20 min 31 sec) 
Heartbeat CPU 0 instructions: 252000001 cycles: 614312747 heartbeat IPC: 0.385138 cumulative IPC: 0.40886 (Simulation time: 0 hr 20 min 36 sec) 
Heartbeat CPU 0 instructions: 253000000 cycles: 616423033 heartbeat IPC: 0.473869 cumulative IPC: 0.409083 (Simulation time: 0 hr 20 min 41 sec) 
Heartbeat CPU 0 instructions: 254000000 cycles: 619232789 heartbeat IPC: 0.355903 cumulative IPC: 0.408842 (Simulation time: 0 hr 20 min 46 sec) 
Heartbeat CPU 0 instructions: 255000000 cycles: 621363451 heartbeat IPC: 0.469338 cumulative IPC: 0.409049 (Simulation time: 0 hr 20 min 50 sec) 
Heartbeat CPU 0 instructions: 256000001 cycles: 623488693 heartbeat IPC: 0.470535 cumulative IPC: 0.409259 (Simulation time: 0 hr 20 min 55 sec) 
Heartbeat CPU 0 instructions: 257000001 cycles: 626342485 heartbeat IPC: 0.350411 cumulative IPC: 0.408991 (Simulation time: 0 hr 21 min 0 sec) 
Heartbeat CPU 0 instructions: 258000001 cycles: 628496084 heartbeat IPC: 0.464339 cumulative IPC: 0.40918 (Simulation time: 0 hr 21 min 5 sec) 
Heartbeat CPU 0 instructions: 259000000 cycles: 631026247 heartbeat IPC: 0.395231 cumulative IPC: 0.409124 (Simulation time: 0 hr 21 min 10 sec) 
Heartbeat CPU 0 instructions: 260000002 cycles: 633520573 heartbeat IPC: 0.400911 cumulative IPC: 0.409092 (Simulation time: 0 hr 21 min 15 sec) 
Heartbeat CPU 0 instructions: 261000002 cycles: 635637437 heartbeat IPC: 0.472397 cumulative IPC: 0.409303 (Simulation time: 0 hr 21 min 20 sec) 
Heartbeat CPU 0 instructions: 262000000 cycles: 638525889 heartbeat IPC: 0.346206 cumulative IPC: 0.409018 (Simulation time: 0 hr 21 min 25 sec) 
Heartbeat CPU 0 instructions: 263000000 cycles: 640646174 heartbeat IPC: 0.471635 cumulative IPC: 0.409225 (Simulation time: 0 hr 21 min 30 sec) 
Heartbeat CPU 0 instructions: 264000000 cycles: 642957811 heartbeat IPC: 0.432594 cumulative IPC: 0.409309 (Simulation time: 0 hr 21 min 34 sec) 
Heartbeat CPU 0 instructions: 265000000 cycles: 645596988 heartbeat IPC: 0.378906 cumulative IPC: 0.409185 (Simulation time: 0 hr 21 min 39 sec) 
Heartbeat CPU 0 instructions: 266000003 cycles: 647752542 heartbeat IPC: 0.463919 cumulative IPC: 0.409367 (Simulation time: 0 hr 21 min 44 sec) 
Heartbeat CPU 0 instructions: 267000000 cycles: 650575904 heartbeat IPC: 0.354187 cumulative IPC: 0.409127 (Simulation time: 0 hr 21 min 49 sec) 
Heartbeat CPU 0 instructions: 268000001 cycles: 652678970 heartbeat IPC: 0.475497 cumulative IPC: 0.409341 (Simulation time: 0 hr 21 min 54 sec) 
Heartbeat CPU 0 instructions: 269000000 cycles: 654782233 heartbeat IPC: 0.475451 cumulative IPC: 0.409554 (Simulation time: 0 hr 21 min 59 sec) 
Heartbeat CPU 0 instructions: 270000003 cycles: 657615062 heartbeat IPC: 0.353005 cumulative IPC: 0.40931 (Simulation time: 0 hr 22 min 4 sec) 
Heartbeat CPU 0 instructions: 271000000 cycles: 659756905 heartbeat IPC: 0.466886 cumulative IPC: 0.409497 (Simulation time: 0 hr 22 min 9 sec) 
Heartbeat CPU 0 instructions: 272000002 cycles: 662408111 heartbeat IPC: 0.377188 cumulative IPC: 0.409368 (Simulation time: 0 hr 22 min 14 sec) 
Heartbeat CPU 0 instructions: 273000001 cycles: 664707114 heartbeat IPC: 0.434971 cumulative IPC: 0.409456 (Simulation time: 0 hr 22 min 18 sec) 
Heartbeat CPU 0 instructions: 274000000 cycles: 666836155 heartbeat IPC: 0.469695 cumulative IPC: 0.409649 (Simulation time: 0 hr 22 min 23 sec) 
Heartbeat CPU 0 instructions: 275000000 cycles: 669690286 heartbeat IPC: 0.350369 cumulative IPC: 0.409396 (Simulation time: 0 hr 22 min 28 sec) 
Heartbeat CPU 0 instructions: 276000000 cycles: 671785723 heartbeat IPC: 0.477227 cumulative IPC: 0.409608 (Simulation time: 0 hr 22 min 33 sec) 
Heartbeat CPU 0 instructions: 277000001 cycles: 674033541 heartbeat IPC: 0.444876 cumulative IPC: 0.409725 (Simulation time: 0 hr 22 min 38 sec) 
Heartbeat CPU 0 instructions: 278000000 cycles: 676759517 heartbeat IPC: 0.366841 cumulative IPC: 0.409552 (Simulation time: 0 hr 22 min 43 sec) 
Heartbeat CPU 0 instructions: 279000003 cycles: 678872788 heartbeat IPC: 0.473201 cumulative IPC: 0.409751 (Simulation time: 0 hr 22 min 48 sec) 
Heartbeat CPU 0 instructions: 280000001 cycles: 681697380 heartbeat IPC: 0.354033 cumulative IPC: 0.40952 (Simulation time: 0 hr 22 min 53 sec) 
Heartbeat CPU 0 instructions: 281000001 cycles: 683839327 heartbeat IPC: 0.466865 cumulative IPC: 0.409699 (Simulation time: 0 hr 22 min 58 sec) 
Heartbeat CPU 0 instructions: 282000003 cycles: 685960207 heartbeat IPC: 0.471503 cumulative IPC: 0.409891 (Simulation time: 0 hr 23 min 3 sec) 
Heartbeat CPU 0 instructions: 283000000 cycles: 688816100 heartbeat IPC: 0.350152 cumulative IPC: 0.409643 (Simulation time: 0 hr 23 min 9 sec) 
Heartbeat CPU 0 instructions: 284000000 cycles: 690961377 heartbeat IPC: 0.46614 cumulative IPC: 0.409818 (Simulation time: 0 hr 23 min 13 sec) 
Heartbeat CPU 0 instructions: 285000002 cycles: 693303500 heartbeat IPC: 0.426964 cumulative IPC: 0.409876 (Simulation time: 0 hr 23 min 18 sec) 
Heartbeat CPU 0 instructions: 286000000 cycles: 695932767 heartbeat IPC: 0.380333 cumulative IPC: 0.409765 (Simulation time: 0 hr 23 min 23 sec) 
Heartbeat CPU 0 instructions: 287000002 cycles: 698078308 heartbeat IPC: 0.466084 cumulative IPC: 0.409938 (Simulation time: 0 hr 23 min 28 sec) 
Heartbeat CPU 0 instructions: 288000000 cycles: 700821752 heartbeat IPC: 0.364505 cumulative IPC: 0.40976 (Simulation time: 0 hr 23 min 33 sec) 
Heartbeat CPU 0 instructions: 289000002 cycles: 703076066 heartbeat IPC: 0.443595 cumulative IPC: 0.409868 (Simulation time: 0 hr 23 min 38 sec) 
Heartbeat CPU 0 instructions: 290000001 cycles: 705196703 heartbeat IPC: 0.471556 cumulative IPC: 0.410054 (Simulation time: 0 hr 23 min 42 sec) 
Heartbeat CPU 0 instructions: 291000001 cycles: 708058144 heartbeat IPC: 0.349474 cumulative IPC: 0.409809 (Simulation time: 0 hr 23 min 47 sec) 
Heartbeat CPU 0 instructions: 292000001 cycles: 710143562 heartbeat IPC: 0.47952 cumulative IPC: 0.410014 (Simulation time: 0 hr 23 min 52 sec) 
Heartbeat CPU 0 instructions: 293000001 cycles: 713006771 heartbeat IPC: 0.349258 cumulative IPC: 0.40977 (Simulation time: 0 hr 23 min 57 sec) 
Heartbeat CPU 0 instructions: 294000001 cycles: 715474704 heartbeat IPC: 0.405197 cumulative IPC: 0.409754 (Simulation time: 0 hr 24 min 2 sec) 
Heartbeat CPU 0 instructions: 295000001 cycles: 717906616 heartbeat IPC: 0.411199 cumulative IPC: 0.409759 (Simulation time: 0 hr 24 min 7 sec) 
Heartbeat CPU 0 instructions: 296000001 cycles: 719977799 heartbeat IPC: 0.482816 cumulative IPC: 0.409969 (Simulation time: 0 hr 24 min 12 sec) 
Heartbeat CPU 0 instructions: 297000000 cycles: 722035798 heartbeat IPC: 0.485908 cumulative IPC: 0.410186 (Simulation time: 0 hr 24 min 17 sec) 
Heartbeat CPU 0 instructions: 298000003 cycles: 724228715 heartbeat IPC: 0.456015 cumulative IPC: 0.410325 (Simulation time: 0 hr 24 min 22 sec) 
Heartbeat CPU 0 instructions: 299000001 cycles: 726846127 heartbeat IPC: 0.382056 cumulative IPC: 0.410223 (Simulation time: 0 hr 24 min 27 sec) 
Heartbeat CPU 0 instructions: 300000000 cycles: 728920006 heartbeat IPC: 0.482188 cumulative IPC: 0.410428 (Simulation time: 0 hr 24 min 32 sec) 
Heartbeat CPU 0 instructions: 301000001 cycles: 731009233 heartbeat IPC: 0.478646 cumulative IPC: 0.410623 (Simulation time: 0 hr 24 min 37 sec) 
Heartbeat CPU 0 instructions: 302000000 cycles: 733100422 heartbeat IPC: 0.478196 cumulative IPC: 0.410815 (Simulation time: 0 hr 24 min 42 sec) 
Heartbeat CPU 0 instructions: 303000000 cycles: 735860591 heartbeat IPC: 0.362297 cumulative IPC: 0.410633 (Simulation time: 0 hr 24 min 47 sec) 
Heartbeat CPU 0 instructions: 304000000 cycles: 737903631 heartbeat IPC: 0.489467 cumulative IPC: 0.410852 (Simulation time: 0 hr 24 min 52 sec) 
Heartbeat CPU 0 instructions: 305000000 cycles: 739987275 heartbeat IPC: 0.479928 cumulative IPC: 0.411046 (Simulation time: 0 hr 24 min 57 sec) 
Heartbeat CPU 0 instructions: 306000002 cycles: 742096983 heartbeat IPC: 0.474 cumulative IPC: 0.411225 (Simulation time: 0 hr 25 min 2 sec) 
Heartbeat CPU 0 instructions: 307000000 cycles: 744697584 heartbeat IPC: 0.384526 cumulative IPC: 0.411132 (Simulation time: 0 hr 25 min 7 sec) 
Heartbeat CPU 0 instructions: 308000000 cycles: 746908013 heartbeat IPC: 0.452401 cumulative IPC: 0.411254 (Simulation time: 0 hr 25 min 13 sec) 
Heartbeat CPU 0 instructions: 309000000 cycles: 748975092 heartbeat IPC: 0.483774 cumulative IPC: 0.411455 (Simulation time: 0 hr 25 min 17 sec) 
Heartbeat CPU 0 instructions: 310000002 cycles: 751046410 heartbeat IPC: 0.482785 cumulative IPC: 0.411651 (Simulation time: 0 hr 25 min 22 sec) 
Heartbeat CPU 0 instructions: 311000002 cycles: 753272458 heartbeat IPC: 0.449227 cumulative IPC: 0.411763 (Simulation time: 0 hr 25 min 27 sec) 
Heartbeat CPU 0 instructions: 312000001 cycles: 756035685 heartbeat IPC: 0.361895 cumulative IPC: 0.41158 (Simulation time: 0 hr 25 min 33 sec) 
Heartbeat CPU 0 instructions: 313000002 cycles: 758127981 heartbeat IPC: 0.477944 cumulative IPC: 0.411763 (Simulation time: 0 hr 25 min 37 sec) 
Heartbeat CPU 0 instructions: 314000002 cycles: 760243444 heartbeat IPC: 0.47271 cumulative IPC: 0.411933 (Simulation time: 0 hr 25 min 42 sec) 
Heartbeat CPU 0 instructions: 315000002 cycles: 762989832 heartbeat IPC: 0.364115 cumulative IPC: 0.411761 (Simulation time: 0 hr 25 min 47 sec) 
Heartbeat CPU 0 instructions: 316000001 cycles: 765126387 heartbeat IPC: 0.468043 cumulative IPC: 0.411918 (Simulation time: 0 hr 25 min 52 sec) 
Heartbeat CPU 0 instructions: 317000000 cycles: 767192756 heartbeat IPC: 0.48394 cumulative IPC: 0.412112 (Simulation time: 0 hr 25 min 57 sec) 
Heartbeat CPU 0 instructions: 318000002 cycles: 769299322 heartbeat IPC: 0.474707 cumulative IPC: 0.412284 (Simulation time: 0 hr 26 min 2 sec) 
Heartbeat CPU 0 instructions: 319000000 cycles: 772037936 heartbeat IPC: 0.365147 cumulative IPC: 0.412116 (Simulation time: 0 hr 26 min 7 sec) 
Heartbeat CPU 0 instructions: 320000001 cycles: 774120782 heartbeat IPC: 0.480113 cumulative IPC: 0.412299 (Simulation time: 0 hr 26 min 12 sec) 
Heartbeat CPU 0 instructions: 321000003 cycles: 776214058 heartbeat IPC: 0.477721 cumulative IPC: 0.412476 (Simulation time: 0 hr 26 min 16 sec) 
Heartbeat CPU 0 instructions: 322000000 cycles: 778980558 heartbeat IPC: 0.361466 cumulative IPC: 0.412295 (Simulation time: 0 hr 26 min 22 sec) 
Heartbeat CPU 0 instructions: 323000001 cycles: 781029227 heartbeat IPC: 0.488122 cumulative IPC: 0.412494 (Simulation time: 0 hr 26 min 26 sec) 
Heartbeat CPU 0 instructions: 324000000 cycles: 783101300 heartbeat IPC: 0.482608 cumulative IPC: 0.412679 (Simulation time: 0 hr 26 min 31 sec) 
Heartbeat CPU 0 instructions: 325000000 cycles: 785232842 heartbeat IPC: 0.469144 cumulative IPC: 0.412833 (Simulation time: 0 hr 26 min 36 sec) 
Heartbeat CPU 0 instructions: 326000000 cycles: 787876117 heartbeat IPC: 0.378319 cumulative IPC: 0.412717 (Simulation time: 0 hr 26 min 41 sec) 
Heartbeat CPU 0 instructions: 327000001 cycles: 789940440 heartbeat IPC: 0.484421 cumulative IPC: 0.412904 (Simulation time: 0 hr 26 min 46 sec) 
Heartbeat CPU 0 instructions: 328000002 cycles: 792027998 heartbeat IPC: 0.479029 cumulative IPC: 0.413079 (Simulation time: 0 hr 26 min 50 sec) 
Heartbeat CPU 0 instructions: 329000002 cycles: 794752063 heartbeat IPC: 0.367098 cumulative IPC: 0.412921 (Simulation time: 0 hr 26 min 56 sec) 
Heartbeat CPU 0 instructions: 330000000 cycles: 796871033 heartbeat IPC: 0.471926 cumulative IPC: 0.413078 (Simulation time: 0 hr 27 min 0 sec) 
Heartbeat CPU 0 instructions: 331000001 cycles: 798918258 heartbeat IPC: 0.488467 cumulative IPC: 0.413271 (Simulation time: 0 hr 27 min 5 sec) 
Heartbeat CPU 0 instructions: 332000002 cycles: 800968959 heartbeat IPC: 0.487639 cumulative IPC: 0.413462 (Simulation time: 0 hr 27 min 9 sec) 
Heartbeat CPU 0 instructions: 333000000 cycles: 803677663 heartbeat IPC: 0.36918 cumulative IPC: 0.413312 (Simulation time: 0 hr 27 min 15 sec) 
Heartbeat CPU 0 instructions: 334000002 cycles: 805755823 heartbeat IPC: 0.481196 cumulative IPC: 0.413488 (Simulation time: 0 hr 27 min 19 sec) 
Heartbeat CPU 0 instructions: 335000000 cycles: 807852023 heartbeat IPC: 0.477053 cumulative IPC: 0.413653 (Simulation time: 0 hr 27 min 24 sec) 
Heartbeat CPU 0 instructions: 336000001 cycles: 810304656 heartbeat IPC: 0.407725 cumulative IPC: 0.413635 (Simulation time: 0 hr 27 min 29 sec) 
Heartbeat CPU 0 instructions: 337000000 cycles: 812636172 heartbeat IPC: 0.428905 cumulative IPC: 0.413679 (Simulation time: 0 hr 27 min 34 sec) 
Heartbeat CPU 0 instructions: 338000000 cycles: 814701109 heartbeat IPC: 0.484276 cumulative IPC: 0.413858 (Simulation time: 0 hr 27 min 39 sec) 
Heartbeat CPU 0 instructions: 339000003 cycles: 816782200 heartbeat IPC: 0.480519 cumulative IPC: 0.414028 (Simulation time: 0 hr 27 min 44 sec) 
Heartbeat CPU 0 instructions: 340000003 cycles: 819513603 heartbeat IPC: 0.366112 cumulative IPC: 0.413868 (Simulation time: 0 hr 27 min 50 sec) 
Heartbeat CPU 0 instructions: 341000000 cycles: 821545756 heartbeat IPC: 0.492087 cumulative IPC: 0.414061 (Simulation time: 0 hr 27 min 54 sec) 
Heartbeat CPU 0 instructions: 342000003 cycles: 823631171 heartbeat IPC: 0.479522 cumulative IPC: 0.414227 (Simulation time: 0 hr 27 min 59 sec) 
Heartbeat CPU 0 instructions: 343000003 cycles: 826021356 heartbeat IPC: 0.418378 cumulative IPC: 0.414239 (Simulation time: 0 hr 28 min 4 sec) 
Heartbeat CPU 0 instructions: 344000001 cycles: 828420792 heartbeat IPC: 0.416764 cumulative IPC: 0.414246 (Simulation time: 0 hr 28 min 9 sec) 
Heartbeat CPU 0 instructions: 345000002 cycles: 830468629 heartbeat IPC: 0.488321 cumulative IPC: 0.414429 (Simulation time: 0 hr 28 min 14 sec) 
Heartbeat CPU 0 instructions: 346000000 cycles: 832551617 heartbeat IPC: 0.480079 cumulative IPC: 0.414594 (Simulation time: 0 hr 28 min 19 sec) 
Heartbeat CPU 0 instructions: 347000001 cycles: 835318021 heartbeat IPC: 0.36148 cumulative IPC: 0.414418 (Simulation time: 0 hr 28 min 24 sec) 
Heartbeat CPU 0 instructions: 348000001 cycles: 837369251 heartbeat IPC: 0.487512 cumulative IPC: 0.414597 (Simulation time: 0 hr 28 min 29 sec) 
Heartbeat CPU 0 instructions: 349000002 cycles: 839427403 heartbeat IPC: 0.485873 cumulative IPC: 0.414772 (Simulation time: 0 hr 28 min 33 sec) 
Heartbeat CPU 0 instructions: 350000002 cycles: 842162198 heartbeat IPC: 0.365658 cumulative IPC: 0.414612 (Simulation time: 0 hr 28 min 39 sec) 
Heartbeat CPU 0 instructions: 351000000 cycles: 844218679 heartbeat IPC: 0.486267 cumulative IPC: 0.414787 (Simulation time: 0 hr 28 min 43 sec) 
Heartbeat CPU 0 instructions: 352000000 cycles: 846262576 heartbeat IPC: 0.489261 cumulative IPC: 0.414967 (Simulation time: 0 hr 28 min 48 sec) 
Heartbeat CPU 0 instructions: 353000000 cycles: 848385327 heartbeat IPC: 0.471087 cumulative IPC: 0.415107 (Simulation time: 0 hr 28 min 53 sec) 
Heartbeat CPU 0 instructions: 354000000 cycles: 851046019 heartbeat IPC: 0.375842 cumulative IPC: 0.414984 (Simulation time: 0 hr 28 min 58 sec) 
Heartbeat CPU 0 instructions: 355000000 cycles: 853093412 heartbeat IPC: 0.488426 cumulative IPC: 0.415161 (Simulation time: 0 hr 29 min 2 sec) 
Heartbeat CPU 0 instructions: 356000002 cycles: 855190157 heartbeat IPC: 0.476931 cumulative IPC: 0.415312 (Simulation time: 0 hr 29 min 7 sec) 
Heartbeat CPU 0 instructions: 357000000 cycles: 857937598 heartbeat IPC: 0.363974 cumulative IPC: 0.415148 (Simulation time: 0 hr 29 min 12 sec) 
Heartbeat CPU 0 instructions: 358000000 cycles: 859988354 heartbeat IPC: 0.487625 cumulative IPC: 0.415321 (Simulation time: 0 hr 29 min 17 sec) 
Heartbeat CPU 0 instructions: 359000000 cycles: 862079821 heartbeat IPC: 0.478133 cumulative IPC: 0.415473 (Simulation time: 0 hr 29 min 21 sec) 
Heartbeat CPU 0 instructions: 360000001 cycles: 864495366 heartbeat IPC: 0.413986 cumulative IPC: 0.415469 (Simulation time: 0 hr 29 min 27 sec) 
Heartbeat CPU 0 instructions: 361000001 cycles: 866881466 heartbeat IPC: 0.419094 cumulative IPC: 0.415479 (Simulation time: 0 hr 29 min 32 sec) 
Heartbeat CPU 0 instructions: 362000000 cycles: 868955660 heartbeat IPC: 0.482114 cumulative IPC: 0.415638 (Simulation time: 0 hr 29 min 36 sec) 
Heartbeat CPU 0 instructions: 363000000 cycles: 871036142 heartbeat IPC: 0.480658 cumulative IPC: 0.415793 (Simulation time: 0 hr 29 min 41 sec) 
Heartbeat CPU 0 instructions: 364000000 cycles: 873803188 heartbeat IPC: 0.361396 cumulative IPC: 0.415621 (Simulation time: 0 hr 29 min 46 sec) 
Heartbeat CPU 0 instructions: 365000002 cycles: 875862908 heartbeat IPC: 0.485504 cumulative IPC: 0.415785 (Simulation time: 0 hr 29 min 51 sec) 
Heartbeat CPU 0 instructions: 366000002 cycles: 877939225 heartbeat IPC: 0.481622 cumulative IPC: 0.415941 (Simulation time: 0 hr 29 min 56 sec) 
Heartbeat CPU 0 instructions: 367000000 cycles: 880342120 heartbeat IPC: 0.416164 cumulative IPC: 0.415942 (Simulation time: 0 hr 30 min 1 sec) 
Heartbeat CPU 0 instructions: 368000003 cycles: 882757117 heartbeat IPC: 0.41408 cumulative IPC: 0.415937 (Simulation time: 0 hr 30 min 5 sec) 
Heartbeat CPU 0 instructions: 369000002 cycles: 884822334 heartbeat IPC: 0.48421 cumulative IPC: 0.416096 (Simulation time: 0 hr 30 min 10 sec) 
Heartbeat CPU 0 instructions: 370000002 cycles: 886908983 heartbeat IPC: 0.479237 cumulative IPC: 0.416245 (Simulation time: 0 hr 30 min 14 sec) 
Heartbeat CPU 0 instructions: 371000003 cycles: 889641513 heartbeat IPC: 0.365962 cumulative IPC: 0.41609 (Simulation time: 0 hr 30 min 19 sec) 
Heartbeat CPU 0 instructions: 372000000 cycles: 891714259 heartbeat IPC: 0.48245 cumulative IPC: 0.416245 (Simulation time: 0 hr 30 min 24 sec) 
Heartbeat CPU 0 instructions: 373000001 cycles: 893798327 heartbeat IPC: 0.479831 cumulative IPC: 0.416393 (Simulation time: 0 hr 30 min 29 sec) 
Heartbeat CPU 0 instructions: 374000000 cycles: 896065122 heartbeat IPC: 0.441151 cumulative IPC: 0.416456 (Simulation time: 0 hr 30 min 34 sec) 
Heartbeat CPU 0 instructions: 375000000 cycles: 898578203 heartbeat IPC: 0.397918 cumulative IPC: 0.416404 (Simulation time: 0 hr 30 min 39 sec) 
Heartbeat CPU 0 instructions: 376000000 cycles: 900638319 heartbeat IPC: 0.48541 cumulative IPC: 0.416562 (Simulation time: 0 hr 30 min 44 sec) 
Heartbeat CPU 0 instructions: 377000003 cycles: 902712435 heartbeat IPC: 0.482135 cumulative IPC: 0.416712 (Simulation time: 0 hr 30 min 49 sec) 
Heartbeat CPU 0 instructions: 378000002 cycles: 905457360 heartbeat IPC: 0.364308 cumulative IPC: 0.416553 (Simulation time: 0 hr 30 min 54 sec) 
Heartbeat CPU 0 instructions: 379000001 cycles: 907539655 heartbeat IPC: 0.480239 cumulative IPC: 0.4167 (Simulation time: 0 hr 30 min 59 sec) 
Heartbeat CPU 0 instructions: 380000000 cycles: 909622905 heartbeat IPC: 0.480019 cumulative IPC: 0.416845 (Simulation time: 0 hr 31 min 4 sec) 
Heartbeat CPU 0 instructions: 381000001 cycles: 911902022 heartbeat IPC: 0.438767 cumulative IPC: 0.4169 (Simulation time: 0 hr 31 min 9 sec) 
Heartbeat CPU 0 instructions: 382000000 cycles: 914444067 heartbeat IPC: 0.393384 cumulative IPC: 0.416834 (Simulation time: 0 hr 31 min 14 sec) 
Heartbeat CPU 0 instructions: 383000003 cycles: 916520337 heartbeat IPC: 0.481634 cumulative IPC: 0.416981 (Simulation time: 0 hr 31 min 19 sec) 
Heartbeat CPU 0 instructions: 384000002 cycles: 918584284 heartbeat IPC: 0.484508 cumulative IPC: 0.417133 (Simulation time: 0 hr 31 min 24 sec) 
Heartbeat CPU 0 instructions: 385000000 cycles: 921322491 heartbeat IPC: 0.365202 cumulative IPC: 0.416978 (Simulation time: 0 hr 31 min 29 sec) 
Heartbeat CPU 0 instructions: 386000000 cycles: 923361329 heartbeat IPC: 0.490475 cumulative IPC: 0.417141 (Simulation time: 0 hr 31 min 34 sec) 
Heartbeat CPU 0 instructions: 387000000 cycles: 925442907 heartbeat IPC: 0.480405 cumulative IPC: 0.417283 (Simulation time: 0 hr 31 min 39 sec) 
Heartbeat CPU 0 instructions: 388000002 cycles: 927501892 heartbeat IPC: 0.485677 cumulative IPC: 0.417435 (Simulation time: 0 hr 31 min 44 sec) 
Heartbeat CPU 0 instructions: 389000002 cycles: 930228642 heartbeat IPC: 0.366737 cumulative IPC: 0.417286 (Simulation time: 0 hr 31 min 49 sec) 
Heartbeat CPU 0 instructions: 390000000 cycles: 932292427 heartbeat IPC: 0.484546 cumulative IPC: 0.417435 (Simulation time: 0 hr 31 min 54 sec) 
Heartbeat CPU 0 instructions: 391000000 cycles: 934383446 heartbeat IPC: 0.478236 cumulative IPC: 0.417571 (Simulation time: 0 hr 31 min 58 sec) 
Heartbeat CPU 0 instructions: 392000000 cycles: 937152135 heartbeat IPC: 0.361182 cumulative IPC: 0.417405 (Simulation time: 0 hr 32 min 4 sec) 
Heartbeat CPU 0 instructions: 393000003 cycles: 939204810 heartbeat IPC: 0.487171 cumulative IPC: 0.417557 (Simulation time: 0 hr 32 min 9 sec) 
Heartbeat CPU 0 instructions: 394000001 cycles: 941238591 heartbeat IPC: 0.491694 cumulative IPC: 0.417718 (Simulation time: 0 hr 32 min 13 sec) 
Heartbeat CPU 0 instructions: 395000003 cycles: 943646041 heartbeat IPC: 0.415378 cumulative IPC: 0.417712 (Simulation time: 0 hr 32 min 18 sec) 
Heartbeat CPU 0 instructions: 396000000 cycles: 946029844 heartbeat IPC: 0.419497 cumulative IPC: 0.417716 (Simulation time: 0 hr 32 min 23 sec) 
Heartbeat CPU 0 instructions: 397000001 cycles: 948082868 heartbeat IPC: 0.487087 cumulative IPC: 0.417866 (Simulation time: 0 hr 32 min 28 sec) 
Heartbeat CPU 0 instructions: 398000002 cycles: 950132767 heartbeat IPC: 0.487829 cumulative IPC: 0.418017 (Simulation time: 0 hr 32 min 33 sec) 
Heartbeat CPU 0 instructions: 399000000 cycles: 952829311 heartbeat IPC: 0.370844 cumulative IPC: 0.417884 (Simulation time: 0 hr 32 min 38 sec) 
Heartbeat CPU 0 instructions: 400000001 cycles: 954903594 heartbeat IPC: 0.482095 cumulative IPC: 0.418023 (Simulation time: 0 hr 32 min 43 sec) 
Heartbeat CPU 0 instructions: 401000001 cycles: 956972000 heartbeat IPC: 0.483464 cumulative IPC: 0.418165 (Simulation time: 0 hr 32 min 48 sec) 
Heartbeat CPU 0 instructions: 402000001 cycles: 959711001 heartbeat IPC: 0.365097 cumulative IPC: 0.418013 (Simulation time: 0 hr 32 min 53 sec) 
Heartbeat CPU 0 instructions: 403000003 cycles: 961783824 heartbeat IPC: 0.482435 cumulative IPC: 0.418152 (Simulation time: 0 hr 32 min 57 sec) 
Heartbeat CPU 0 instructions: 404000000 cycles: 963851618 heartbeat IPC: 0.483606 cumulative IPC: 0.418293 (Simulation time: 0 hr 33 min 2 sec) 
Heartbeat CPU 0 instructions: 405000000 cycles: 966259835 heartbeat IPC: 0.415245 cumulative IPC: 0.418285 (Simulation time: 0 hr 33 min 6 sec) 
Heartbeat CPU 0 instructions: 406000002 cycles: 968680497 heartbeat IPC: 0.413111 cumulative IPC: 0.418272 (Simulation time: 0 hr 33 min 11 sec) 
Heartbeat CPU 0 instructions: 407000000 cycles: 970751486 heartbeat IPC: 0.48286 cumulative IPC: 0.41841 (Simulation time: 0 hr 33 min 16 sec) 
Heartbeat CPU 0 instructions: 408000000 cycles: 972821111 heartbeat IPC: 0.483179 cumulative IPC: 0.418548 (Simulation time: 0 hr 33 min 21 sec) 
Heartbeat CPU 0 instructions: 409000003 cycles: 975603950 heartbeat IPC: 0.359346 cumulative IPC: 0.418379 (Simulation time: 0 hr 33 min 26 sec) 
Heartbeat CPU 0 instructions: 410000000 cycles: 977660279 heartbeat IPC: 0.486302 cumulative IPC: 0.418522 (Simulation time: 0 hr 33 min 31 sec) 
Heartbeat CPU 0 instructions: 411000000 cycles: 979757763 heartbeat IPC: 0.476762 cumulative IPC: 0.418647 (Simulation time: 0 hr 33 min 36 sec) 
Heartbeat CPU 0 instructions: 412000000 cycles: 982241453 heartbeat IPC: 0.402627 cumulative IPC: 0.418606 (Simulation time: 0 hr 33 min 41 sec) 
Heartbeat CPU 0 instructions: 413000000 cycles: 984609202 heartbeat IPC: 0.422342 cumulative IPC: 0.418615 (Simulation time: 0 hr 33 min 46 sec) 
Heartbeat CPU 0 instructions: 414000002 cycles: 986666340 heartbeat IPC: 0.486113 cumulative IPC: 0.418756 (Simulation time: 0 hr 33 min 51 sec) 
Heartbeat CPU 0 instructions: 415000000 cycles: 988728144 heartbeat IPC: 0.485011 cumulative IPC: 0.418894 (Simulation time: 0 hr 33 min 55 sec) 
Heartbeat CPU 0 instructions: 416000000 cycles: 991489298 heartbeat IPC: 0.362167 cumulative IPC: 0.418736 (Simulation time: 0 hr 34 min 1 sec) 
Heartbeat CPU 0 instructions: 417000000 cycles: 993551353 heartbeat IPC: 0.484953 cumulative IPC: 0.418873 (Simulation time: 0 hr 34 min 5 sec) 
Heartbeat CPU 0 instructions: 418000000 cycles: 995637374 heartbeat IPC: 0.479382 cumulative IPC: 0.419 (Simulation time: 0 hr 34 min 10 sec) 
Heartbeat CPU 0 instructions: 419000002 cycles: 997737685 heartbeat IPC: 0.476121 cumulative IPC: 0.419121 (Simulation time: 0 hr 34 min 15 sec) 
Heartbeat CPU 0 instructions: 420000003 cycles: 1000467167 heartbeat IPC: 0.36637 cumulative IPC: 0.418977 (Simulation time: 0 hr 34 min 20 sec) 
Heartbeat CPU 0 instructions: 421000001 cycles: 1002517342 heartbeat IPC: 0.487762 cumulative IPC: 0.419117 (Simulation time: 0 hr 34 min 25 sec) 
Heartbeat CPU 0 instructions: 422000003 cycles: 1004601806 heartbeat IPC: 0.479741 cumulative IPC: 0.419243 (Simulation time: 0 hr 34 min 30 sec) 
Heartbeat CPU 0 instructions: 423000000 cycles: 1007137960 heartbeat IPC: 0.394297 cumulative IPC: 0.41918 (Simulation time: 0 hr 34 min 35 sec) 
Heartbeat CPU 0 instructions: 424000000 cycles: 1009437955 heartbeat IPC: 0.434784 cumulative IPC: 0.419216 (Simulation time: 0 hr 34 min 40 sec) 
Heartbeat CPU 0 instructions: 425000000 cycles: 1011510234 heartbeat IPC: 0.482561 cumulative IPC: 0.419346 (Simulation time: 0 hr 34 min 45 sec) 
Heartbeat CPU 0 instructions: 426000003 cycles: 1013816617 heartbeat IPC: 0.433581 cumulative IPC: 0.419378 (Simulation time: 0 hr 34 min 50 sec) 
Heartbeat CPU 0 instructions: 427000002 cycles: 1016359955 heartbeat IPC: 0.393184 cumulative IPC: 0.419313 (Simulation time: 0 hr 34 min 55 sec) 
Heartbeat CPU 0 instructions: 428000000 cycles: 1018422785 heartbeat IPC: 0.48477 cumulative IPC: 0.419445 (Simulation time: 0 hr 35 min 0 sec) 
Heartbeat CPU 0 instructions: 429000000 cycles: 1020505999 heartbeat IPC: 0.480027 cumulative IPC: 0.419569 (Simulation time: 0 hr 35 min 4 sec) 
Heartbeat CPU 0 instructions: 430000000 cycles: 1023251072 heartbeat IPC: 0.364289 cumulative IPC: 0.419421 (Simulation time: 0 hr 35 min 9 sec) 
Heartbeat CPU 0 instructions: 431000001 cycles: 1025326122 heartbeat IPC: 0.481917 cumulative IPC: 0.419547 (Simulation time: 0 hr 35 min 14 sec) 
Heartbeat CPU 0 instructions: 432000000 cycles: 1027404612 heartbeat IPC: 0.481118 cumulative IPC: 0.419672 (Simulation time: 0 hr 35 min 19 sec) 
Heartbeat CPU 0 instructions: 433000003 cycles: 1030133847 heartbeat IPC: 0.366404 cumulative IPC: 0.419531 (Simulation time: 0 hr 35 min 24 sec) 
Heartbeat CPU 0 instructions: 434000000 cycles: 1032202520 heartbeat IPC: 0.4834 cumulative IPC: 0.419659 (Simulation time: 0 hr 35 min 29 sec) 
Heartbeat CPU 0 instructions: 435000002 cycles: 1034283459 heartbeat IPC: 0.480553 cumulative IPC: 0.419781 (Simulation time: 0 hr 35 min 33 sec) 
Heartbeat CPU 0 instructions: 436000001 cycles: 1037017920 heartbeat IPC: 0.365702 cumulative IPC: 0.419638 (Simulation time: 0 hr 35 min 39 sec) 
Heartbeat CPU 0 instructions: 437000003 cycles: 1039068185 heartbeat IPC: 0.487743 cumulative IPC: 0.419773 (Simulation time: 0 hr 35 min 43 sec) 
Heartbeat CPU 0 instructions: 438000000 cycles: 1041131149 heartbeat IPC: 0.484738 cumulative IPC: 0.419902 (Simulation time: 0 hr 35 min 48 sec) 
Heartbeat CPU 0 instructions: 439000003 cycles: 1043506268 heartbeat IPC: 0.421033 cumulative IPC: 0.419904 (Simulation time: 0 hr 35 min 53 sec) 
Heartbeat CPU 0 instructions: 440000000 cycles: 1045936814 heartbeat IPC: 0.411429 cumulative IPC: 0.419885 (Simulation time: 0 hr 35 min 58 sec) 
Heartbeat CPU 0 instructions: 441000001 cycles: 1048108603 heartbeat IPC: 0.46045 cumulative IPC: 0.419969 (Simulation time: 0 hr 36 min 2 sec) 
Heartbeat CPU 0 instructions: 442000000 cycles: 1050205145 heartbeat IPC: 0.476975 cumulative IPC: 0.420083 (Simulation time: 0 hr 36 min 7 sec) 
Heartbeat CPU 0 instructions: 443000000 cycles: 1052945018 heartbeat IPC: 0.36498 cumulative IPC: 0.419939 (Simulation time: 0 hr 36 min 12 sec) 
Heartbeat CPU 0 instructions: 444000001 cycles: 1055205996 heartbeat IPC: 0.442287 cumulative IPC: 0.419987 (Simulation time: 0 hr 36 min 17 sec) 
Heartbeat CPU 0 instructions: 445000001 cycles: 1057288994 heartbeat IPC: 0.480077 cumulative IPC: 0.420105 (Simulation time: 0 hr 36 min 21 sec) 
Heartbeat CPU 0 instructions: 446000003 cycles: 1060047906 heartbeat IPC: 0.362462 cumulative IPC: 0.419955 (Simulation time: 0 hr 36 min 26 sec) 
Heartbeat CPU 0 instructions: 447000003 cycles: 1062126304 heartbeat IPC: 0.48114 cumulative IPC: 0.420075 (Simulation time: 0 hr 36 min 31 sec) 
Heartbeat CPU 0 instructions: 448000000 cycles: 1064222522 heartbeat IPC: 0.477048 cumulative IPC: 0.420187 (Simulation time: 0 hr 36 min 36 sec) 
Heartbeat CPU 0 instructions: 449000001 cycles: 1066990954 heartbeat IPC: 0.361216 cumulative IPC: 0.420034 (Simulation time: 0 hr 36 min 41 sec) 
Heartbeat CPU 0 instructions: 450000000 cycles: 1069045014 heartbeat IPC: 0.48684 cumulative IPC: 0.420163 (Simulation time: 0 hr 36 min 46 sec) 

Warmup complete CPU 0 instructions: 450000004 cycles: 1069045015 (Simulation time: 0 hr 36 min 46 sec) 

Heartbeat CPU 0 instructions: 451000000 cycles: 1071007514 heartbeat IPC: 0.509554 cumulative IPC: 0.509552 (Simulation time: 0 hr 36 min 50 sec) 
Heartbeat CPU 0 instructions: 452000000 cycles: 1073590691 heartbeat IPC: 0.38712 cumulative IPC: 0.439978 (Simulation time: 0 hr 36 min 56 sec) 
Heartbeat CPU 0 instructions: 453000000 cycles: 1075584997 heartbeat IPC: 0.501428 cumulative IPC: 0.458716 (Simulation time: 0 hr 37 min 1 sec) 
Heartbeat CPU 0 instructions: 454000002 cycles: 1077601339 heartbeat IPC: 0.495949 cumulative IPC: 0.46749 (Simulation time: 0 hr 37 min 6 sec) 
Heartbeat CPU 0 instructions: 455000002 cycles: 1080174795 heartbeat IPC: 0.388583 cumulative IPC: 0.449245 (Simulation time: 0 hr 37 min 11 sec) 
Heartbeat CPU 0 instructions: 456000001 cycles: 1082189559 heartbeat IPC: 0.496336 cumulative IPC: 0.456463 (Simulation time: 0 hr 37 min 16 sec) 
Heartbeat CPU 0 instructions: 457000000 cycles: 1084186606 heartbeat IPC: 0.500739 cumulative IPC: 0.462303 (Simulation time: 0 hr 37 min 21 sec) 
Heartbeat CPU 0 instructions: 458000002 cycles: 1087071619 heartbeat IPC: 0.34662 cumulative IPC: 0.443788 (Simulation time: 0 hr 37 min 27 sec) 
Heartbeat CPU 0 instructions: 459000000 cycles: 1089046776 heartbeat IPC: 0.506288 cumulative IPC: 0.44996 (Simulation time: 0 hr 37 min 32 sec) 
Heartbeat CPU 0 instructions: 460000001 cycles: 1091275358 heartbeat IPC: 0.448716 cumulative IPC: 0.449835 (Simulation time: 0 hr 37 min 37 sec) 
Heartbeat CPU 0 instructions: 461000000 cycles: 1093696975 heartbeat IPC: 0.412947 cumulative IPC: 0.446212 (Simulation time: 0 hr 37 min 42 sec) 
Heartbeat CPU 0 instructions: 462000000 cycles: 1095718453 heartbeat IPC: 0.494688 cumulative IPC: 0.449886 (Simulation time: 0 hr 37 min 47 sec) 
Heartbeat CPU 0 instructions: 463000000 cycles: 1098348352 heartbeat IPC: 0.380243 cumulative IPC: 0.443635 (Simulation time: 0 hr 37 min 52 sec) 
Heartbeat CPU 0 instructions: 464000000 cycles: 1100381512 heartbeat IPC: 0.491845 cumulative IPC: 0.446763 (Simulation time: 0 hr 37 min 57 sec) 
Heartbeat CPU 0 instructions: 465000003 cycles: 1102991900 heartbeat IPC: 0.383086 cumulative IPC: 0.441867 (Simulation time: 0 hr 38 min 3 sec) 
Heartbeat CPU 0 instructions: 466000003 cycles: 1104976453 heartbeat IPC: 0.503892 cumulative IPC: 0.445292 (Simulation time: 0 hr 38 min 7 sec) 
Heartbeat CPU 0 instructions: 467000000 cycles: 1107012317 heartbeat IPC: 0.49119 cumulative IPC: 0.447754 (Simulation time: 0 hr 38 min 12 sec) 
Heartbeat CPU 0 instructions: 468000000 cycles: 1109584514 heartbeat IPC: 0.388773 cumulative IPC: 0.444011 (Simulation time: 0 hr 38 min 18 sec) 
Heartbeat CPU 0 instructions: 469000000 cycles: 1111590490 heartbeat IPC: 0.49851 cumulative IPC: 0.446581 (Simulation time: 0 hr 38 min 22 sec) 
Heartbeat CPU 0 instructions: 470000002 cycles: 1114161338 heartbeat IPC: 0.388977 cumulative IPC: 0.443298 (Simulation time: 0 hr 38 min 28 sec) 
Heartbeat CPU 0 instructions: 471000000 cycles: 1116161021 heartbeat IPC: 0.500078 cumulative IPC: 0.445708 (Simulation time: 0 hr 38 min 33 sec) 
Heartbeat CPU 0 instructions: 472000001 cycles: 1118593550 heartbeat IPC: 0.411095 cumulative IPC: 0.444009 (Simulation time: 0 hr 38 min 38 sec) 
Heartbeat CPU 0 instructions: 473000000 cycles: 1120811744 heartbeat IPC: 0.450817 cumulative IPC: 0.444301 (Simulation time: 0 hr 38 min 42 sec) 
Heartbeat CPU 0 instructions: 474000000 cycles: 1122833572 heartbeat IPC: 0.494602 cumulative IPC: 0.446191 (Simulation time: 0 hr 38 min 47 sec) 
Heartbeat CPU 0 instructions: 475000001 cycles: 1125462807 heartbeat IPC: 0.380339 cumulative IPC: 0.443123 (Simulation time: 0 hr 38 min 53 sec) 
Heartbeat CPU 0 instructions: 476000001 cycles: 1127490527 heartbeat IPC: 0.493165 cumulative IPC: 0.444859 (Simulation time: 0 hr 38 min 58 sec) 
Heartbeat CPU 0 instructions: 477000001 cycles: 1130113423 heartbeat IPC: 0.381258 cumulative IPC: 0.442127 (Simulation time: 0 hr 39 min 3 sec) 
Heartbeat CPU 0 instructions: 478000003 cycles: 1132106339 heartbeat IPC: 0.501778 cumulative IPC: 0.444012 (Simulation time: 0 hr 39 min 8 sec) 
Heartbeat CPU 0 instructions: 479000000 cycles: 1134454837 heartbeat IPC: 0.425803 cumulative IPC: 0.443358 (Simulation time: 0 hr 39 min 13 sec) 
Heartbeat CPU 0 instructions: 480000000 cycles: 1136729908 heartbeat IPC: 0.439547 cumulative IPC: 0.44323 (Simulation time: 0 hr 39 min 18 sec) 
Heartbeat CPU 0 instructions: 481000003 cycles: 1138755365 heartbeat IPC: 0.493717 cumulative IPC: 0.444697 (Simulation time: 0 hr 39 min 22 sec) 
Heartbeat CPU 0 instructions: 482000002 cycles: 1141351462 heartbeat IPC: 0.385193 cumulative IPC: 0.442561 (Simulation time: 0 hr 39 min 28 sec) 
Heartbeat CPU 0 instructions: 483000001 cycles: 1143372410 heartbeat IPC: 0.494817 cumulative IPC: 0.443982 (Simulation time: 0 hr 39 min 33 sec) 
Heartbeat CPU 0 instructions: 484000000 cycles: 1145952136 heartbeat IPC: 0.387638 cumulative IPC: 0.442092 (Simulation time: 0 hr 39 min 38 sec) 
Heartbeat CPU 0 instructions: 485000001 cycles: 1147991400 heartbeat IPC: 0.490373 cumulative IPC: 0.443339 (Simulation time: 0 hr 39 min 43 sec) 
Heartbeat CPU 0 instructions: 486000000 cycles: 1150487340 heartbeat IPC: 0.40065 cumulative IPC: 0.442031 (Simulation time: 0 hr 39 min 48 sec) 
Heartbeat CPU 0 instructions: 487000000 cycles: 1152599910 heartbeat IPC: 0.473357 cumulative IPC: 0.442823 (Simulation time: 0 hr 39 min 53 sec) 
Heartbeat CPU 0 instructions: 488000002 cycles: 1154601211 heartbeat IPC: 0.499676 cumulative IPC: 0.444153 (Simulation time: 0 hr 39 min 57 sec) 
Heartbeat CPU 0 instructions: 489000003 cycles: 1157175039 heartbeat IPC: 0.388527 cumulative IPC: 0.442528 (Simulation time: 0 hr 40 min 2 sec) 
Heartbeat CPU 0 instructions: 490000002 cycles: 1159195828 heartbeat IPC: 0.494856 cumulative IPC: 0.443701 (Simulation time: 0 hr 40 min 7 sec) 
Heartbeat CPU 0 instructions: 491000001 cycles: 1161814753 heartbeat IPC: 0.381836 cumulative IPC: 0.441954 (Simulation time: 0 hr 40 min 12 sec) 
Heartbeat CPU 0 instructions: 492000001 cycles: 1163814867 heartbeat IPC: 0.499972 cumulative IPC: 0.443179 (Simulation time: 0 hr 40 min 17 sec) 
Heartbeat CPU 0 instructions: 493000000 cycles: 1166400179 heartbeat IPC: 0.3868 cumulative IPC: 0.441682 (Simulation time: 0 hr 40 min 22 sec) 
Heartbeat CPU 0 instructions: 494000000 cycles: 1168383073 heartbeat IPC: 0.504313 cumulative IPC: 0.442932 (Simulation time: 0 hr 40 min 27 sec) 
Heartbeat CPU 0 instructions: 495000000 cycles: 1170448263 heartbeat IPC: 0.484217 cumulative IPC: 0.443773 (Simulation time: 0 hr 40 min 32 sec) 
Heartbeat CPU 0 instructions: 496000000 cycles: 1173010708 heartbeat IPC: 0.390252 cumulative IPC: 0.442454 (Simulation time: 0 hr 40 min 37 sec) 
Heartbeat CPU 0 instructions: 497000003 cycles: 1175047272 heartbeat IPC: 0.491025 cumulative IPC: 0.443387 (Simulation time: 0 hr 40 min 42 sec) 
Heartbeat CPU 0 instructions: 498000000 cycles: 1177646920 heartbeat IPC: 0.384666 cumulative IPC: 0.441981 (Simulation time: 0 hr 40 min 47 sec) 
Heartbeat CPU 0 instructions: 499000000 cycles: 1179675857 heartbeat IPC: 0.492869 cumulative IPC: 0.442914 (Simulation time: 0 hr 40 min 52 sec) 
Heartbeat CPU 0 instructions: 500000000 cycles: 1182327614 heartbeat IPC: 0.377108 cumulative IPC: 0.441374 (Simulation time: 0 hr 40 min 57 sec) 
Heartbeat CPU 0 instructions: 501000001 cycles: 1184300281 heartbeat IPC: 0.506928 cumulative IPC: 0.442496 (Simulation time: 0 hr 41 min 2 sec) 
Heartbeat CPU 0 instructions: 502000003 cycles: 1186440974 heartbeat IPC: 0.467139 cumulative IPC: 0.442945 (Simulation time: 0 hr 41 min 7 sec) 
Heartbeat CPU 0 instructions: 503000000 cycles: 1188875442 heartbeat IPC: 0.410766 cumulative IPC: 0.442292 (Simulation time: 0 hr 41 min 12 sec) 
Heartbeat CPU 0 instructions: 504000000 cycles: 1190877672 heartbeat IPC: 0.499443 cumulative IPC: 0.443231 (Simulation time: 0 hr 41 min 17 sec) 
Heartbeat CPU 0 instructions: 505000003 cycles: 1193484875 heartbeat IPC: 0.383554 cumulative IPC: 0.441981 (Simulation time: 0 hr 41 min 23 sec) 
Heartbeat CPU 0 instructions: 506000000 cycles: 1195508101 heartbeat IPC: 0.494259 cumulative IPC: 0.442817 (Simulation time: 0 hr 41 min 28 sec) 
Heartbeat CPU 0 instructions: 507000000 cycles: 1198114969 heartbeat IPC: 0.383602 cumulative IPC: 0.441621 (Simulation time: 0 hr 41 min 33 sec) 
Heartbeat CPU 0 instructions: 508000003 cycles: 1200157356 heartbeat IPC: 0.489625 cumulative IPC: 0.442369 (Simulation time: 0 hr 41 min 38 sec) 
Heartbeat CPU 0 instructions: 509000001 cycles: 1202259602 heartbeat IPC: 0.475681 cumulative IPC: 0.442894 (Simulation time: 0 hr 41 min 43 sec) 
Heartbeat CPU 0 instructions: 510000001 cycles: 1204740103 heartbeat IPC: 0.403144 cumulative IPC: 0.442168 (Simulation time: 0 hr 41 min 48 sec) 
Heartbeat CPU 0 instructions: 511000000 cycles: 1206757039 heartbeat IPC: 0.495801 cumulative IPC: 0.442953 (Simulation time: 0 hr 41 min 53 sec) 
Heartbeat CPU 0 instructions: 512000001 cycles: 1209360558 heartbeat IPC: 0.384096 cumulative IPC: 0.441861 (Simulation time: 0 hr 41 min 58 sec) 
Heartbeat CPU 0 instructions: 513000002 cycles: 1211362240 heartbeat IPC: 0.49958 cumulative IPC: 0.442673 (Simulation time: 0 hr 42 min 3 sec) 
Heartbeat CPU 0 instructions: 514000001 cycles: 1213955970 heartbeat IPC: 0.385545 cumulative IPC: 0.441651 (Simulation time: 0 hr 42 min 8 sec) 
Heartbeat CPU 0 instructions: 515000000 cycles: 1215982633 heartbeat IPC: 0.493421 cumulative IPC: 0.442365 (Simulation time: 0 hr 42 min 13 sec) 
Heartbeat CPU 0 instructions: 516000001 cycles: 1218026230 heartbeat IPC: 0.489334 cumulative IPC: 0.443009 (Simulation time: 0 hr 42 min 18 sec) 
Heartbeat CPU 0 instructions: 517000000 cycles: 1220563412 heartbeat IPC: 0.394138 cumulative IPC: 0.44219 (Simulation time: 0 hr 42 min 24 sec) 
Heartbeat CPU 0 instructions: 518000003 cycles: 1222549955 heartbeat IPC: 0.503389 cumulative IPC: 0.442982 (Simulation time: 0 hr 42 min 28 sec) 
Heartbeat CPU 0 instructions: 519000002 cycles: 1225131513 heartbeat IPC: 0.387363 cumulative IPC: 0.442063 (Simulation time: 0 hr 42 min 34 sec) 
Heartbeat CPU 0 instructions: 520000000 cycles: 1227119152 heartbeat IPC: 0.503108 cumulative IPC: 0.44283 (Simulation time: 0 hr 42 min 38 sec) 
Heartbeat CPU 0 instructions: 521000000 cycles: 1229711651 heartbeat IPC: 0.385728 cumulative IPC: 0.441909 (Simulation time: 0 hr 42 min 44 sec) 
Heartbeat CPU 0 instructions: 522000001 cycles: 1231691259 heartbeat IPC: 0.505151 cumulative IPC: 0.442679 (Simulation time: 0 hr 42 min 48 sec) 
Heartbeat CPU 0 instructions: 523000002 cycles: 1234115106 heartbeat IPC: 0.412568 cumulative IPC: 0.442236 (Simulation time: 0 hr 42 min 53 sec) 
Heartbeat CPU 0 instructions: 524000000 cycles: 1236351652 heartbeat IPC: 0.447117 cumulative IPC: 0.442302 (Simulation time: 0 hr 42 min 58 sec) 
Heartbeat CPU 0 instructions: 525000002 cycles: 1238360594 heartbeat IPC: 0.497775 cumulative IPC: 0.44296 (Simulation time: 0 hr 43 min 2 sec) 
Heartbeat CPU 0 instructions: 526000002 cycles: 1240956633 heartbeat IPC: 0.385202 cumulative IPC: 0.442088 (Simulation time: 0 hr 43 min 7 sec) 
Heartbeat CPU 0 instructions: 527000000 cycles: 1242970282 heartbeat IPC: 0.49661 cumulative IPC: 0.442719 (Simulation time: 0 hr 43 min 12 sec) 
Heartbeat CPU 0 instructions: 528000000 cycles: 1245563218 heartbeat IPC: 0.385663 cumulative IPC: 0.441881 (Simulation time: 0 hr 43 min 17 sec) 
Heartbeat CPU 0 instructions: 529000001 cycles: 1247547243 heartbeat IPC: 0.504026 cumulative IPC: 0.442571 (Simulation time: 0 hr 43 min 22 sec) 
Heartbeat CPU 0 instructions: 530000003 cycles: 1250153528 heartbeat IPC: 0.383689 cumulative IPC: 0.441724 (Simulation time: 0 hr 43 min 28 sec) 
Heartbeat CPU 0 instructions: 531000002 cycles: 1252123930 heartbeat IPC: 0.50751 cumulative IPC: 0.442432 (Simulation time: 0 hr 43 min 33 sec) 
Heartbeat CPU 0 instructions: 532000000 cycles: 1254529460 heartbeat IPC: 0.415708 cumulative IPC: 0.442086 (Simulation time: 0 hr 43 min 38 sec) 
Heartbeat CPU 0 instructions: 533000001 cycles: 1256743896 heartbeat IPC: 0.451583 cumulative IPC: 0.442198 (Simulation time: 0 hr 43 min 43 sec) 
Heartbeat CPU 0 instructions: 534000000 cycles: 1259028676 heartbeat IPC: 0.437678 cumulative IPC: 0.442143 (Simulation time: 0 hr 43 min 48 sec) 
Heartbeat CPU 0 instructions: 535000001 cycles: 1261368718 heartbeat IPC: 0.427343 cumulative IPC: 0.441963 (Simulation time: 0 hr 43 min 53 sec) 
Heartbeat CPU 0 instructions: 536000000 cycles: 1263363362 heartbeat IPC: 0.501342 cumulative IPC: 0.442573 (Simulation time: 0 hr 43 min 58 sec) 
Heartbeat CPU 0 instructions: 537000001 cycles: 1266013222 heartbeat IPC: 0.377379 cumulative IPC: 0.441696 (Simulation time: 0 hr 44 min 4 sec) 
Heartbeat CPU 0 instructions: 538000001 cycles: 1268002454 heartbeat IPC: 0.502707 cumulative IPC: 0.442306 (Simulation time: 0 hr 44 min 8 sec) 
Heartbeat CPU 0 instructions: 539000000 cycles: 1270587003 heartbeat IPC: 0.386914 cumulative IPC: 0.441595 (Simulation time: 0 hr 44 min 14 sec) 
Heartbeat CPU 0 instructions: 540000003 cycles: 1272588476 heartbeat IPC: 0.499634 cumulative IPC: 0.442166 (Simulation time: 0 hr 44 min 19 sec) 
Heartbeat CPU 0 instructions: 541000002 cycles: 1275143179 heartbeat IPC: 0.391435 cumulative IPC: 0.441537 (Simulation time: 0 hr 44 min 24 sec) 
Heartbeat CPU 0 instructions: 542000001 cycles: 1277152625 heartbeat IPC: 0.497649 cumulative IPC: 0.442079 (Simulation time: 0 hr 44 min 29 sec) 
Heartbeat CPU 0 instructions: 543000001 cycles: 1279795440 heartbeat IPC: 0.378384 cumulative IPC: 0.44128 (Simulation time: 0 hr 44 min 34 sec) 
Heartbeat CPU 0 instructions: 544000003 cycles: 1281804229 heartbeat IPC: 0.497813 cumulative IPC: 0.441814 (Simulation time: 0 hr 44 min 39 sec) 
Heartbeat CPU 0 instructions: 545000003 cycles: 1284391167 heartbeat IPC: 0.386557 cumulative IPC: 0.44115 (Simulation time: 0 hr 44 min 44 sec) 
Heartbeat CPU 0 instructions: 546000001 cycles: 1286410064 heartbeat IPC: 0.495319 cumulative IPC: 0.441653 (Simulation time: 0 hr 44 min 49 sec) 
[...]
Heartbeat CPU 0 instructions: 834000000 cycles: 1992347484 heartbeat IPC: 0.440155 cumulative IPC: 0.415898 (Simulation time: 1 hr 9 min 58 sec) 
Heartbeat CPU 0 instructions: 835000000 cycles: 1995096110 heartbeat IPC: 0.363818 cumulative IPC: 0.415744 (Simulation time: 1 hr 10 min 4 sec) 
Heartbeat CPU 0 instructions: 836000000 cycles: 1997742575 heartbeat IPC: 0.377863 cumulative IPC: 0.415636 (Simulation time: 1 hr 10 min 10 sec) 
Heartbeat CPU 0 instructions: 837000000 cycles: 2000134886 heartbeat IPC: 0.418006 cumulative IPC: 0.415642 (Simulation time: 1 hr 10 min 16 sec) 
Heartbeat CPU 0 instructions: 838000000 cycles: 2002885732 heartbeat IPC: 0.363525 cumulative IPC: 0.415488 (Simulation time: 1 hr 10 min 22 sec) 
Heartbeat CPU 0 instructions: 839000001 cycles: 2005419252 heartbeat IPC: 0.394708 cumulative IPC: 0.415432 (Simulation time: 1 hr 10 min 27 sec) 
Heartbeat CPU 0 instructions: 840000000 cycles: 2007938177 heartbeat IPC: 0.396994 cumulative IPC: 0.415383 (Simulation time: 1 hr 10 min 33 sec) 
Heartbeat CPU 0 instructions: 841000000 cycles: 2010691400 heartbeat IPC: 0.363211 cumulative IPC: 0.41523 (Simulation time: 1 hr 10 min 39 sec) 
Heartbeat CPU 0 instructions: 842000003 cycles: 2013652917 heartbeat IPC: 0.337666 cumulative IPC: 0.414987 (Simulation time: 1 hr 10 min 45 sec) 
Heartbeat CPU 0 instructions: 843000000 cycles: 2016138504 heartbeat IPC: 0.402318 cumulative IPC: 0.414954 (Simulation time: 1 hr 10 min 50 sec) 
Heartbeat CPU 0 instructions: 844000003 cycles: 2018785017 heartbeat IPC: 0.377857 cumulative IPC: 0.41485 (Simulation time: 1 hr 10 min 56 sec) 
Heartbeat CPU 0 instructions: 845000003 cycles: 2021529104 heartbeat IPC: 0.36442 cumulative IPC: 0.414705 (Simulation time: 1 hr 11 min 2 sec) 
Heartbeat CPU 0 instructions: 846000003 cycles: 2024254795 heartbeat IPC: 0.366879 cumulative IPC: 0.414569 (Simulation time: 1 hr 11 min 8 sec) 
Heartbeat CPU 0 instructions: 847000000 cycles: 2026957994 heartbeat IPC: 0.369931 cumulative IPC: 0.414443 (Simulation time: 1 hr 11 min 14 sec) 
Heartbeat CPU 0 instructions: 848000000 cycles: 2030010501 heartbeat IPC: 0.3276 cumulative IPC: 0.414167 (Simulation time: 1 hr 11 min 20 sec) 
Heartbeat CPU 0 instructions: 849000002 cycles: 2032669114 heartbeat IPC: 0.376137 cumulative IPC: 0.414062 (Simulation time: 1 hr 11 min 25 sec) 
Heartbeat CPU 0 instructions: 850000001 cycles: 2035134262 heartbeat IPC: 0.405655 cumulative IPC: 0.41404 (Simulation time: 1 hr 11 min 31 sec) 
Heartbeat CPU 0 instructions: 851000001 cycles: 2037672317 heartbeat IPC: 0.394002 cumulative IPC: 0.413988 (Simulation time: 1 hr 11 min 36 sec) 
Heartbeat CPU 0 instructions: 852000000 cycles: 2040316774 heartbeat IPC: 0.378149 cumulative IPC: 0.41389 (Simulation time: 1 hr 11 min 42 sec) 
Heartbeat CPU 0 instructions: 853000001 cycles: 2043013414 heartbeat IPC: 0.370832 cumulative IPC: 0.413771 (Simulation time: 1 hr 11 min 48 sec) 
Heartbeat CPU 0 instructions: 854000002 cycles: 2045689812 heartbeat IPC: 0.373637 cumulative IPC: 0.413661 (Simulation time: 1 hr 11 min 54 sec) 
Heartbeat CPU 0 instructions: 855000001 cycles: 2048413796 heartbeat IPC: 0.367109 cumulative IPC: 0.413532 (Simulation time: 1 hr 12 min 0 sec) 
Heartbeat CPU 0 instructions: 856000002 cycles: 2050946484 heartbeat IPC: 0.394838 cumulative IPC: 0.413483 (Simulation time: 1 hr 12 min 5 sec) 
Heartbeat CPU 0 instructions: 857000002 cycles: 2053445396 heartbeat IPC: 0.400174 cumulative IPC: 0.41345 (Simulation time: 1 hr 12 min 11 sec) 
Heartbeat CPU 0 instructions: 858000000 cycles: 2056058465 heartbeat IPC: 0.382691 cumulative IPC: 0.413368 (Simulation time: 1 hr 12 min 17 sec) 
Heartbeat CPU 0 instructions: 859000000 cycles: 2058754305 heartbeat IPC: 0.370942 cumulative IPC: 0.413253 (Simulation time: 1 hr 12 min 22 sec) 
Heartbeat CPU 0 instructions: 860000000 cycles: 2061462927 heartbeat IPC: 0.369191 cumulative IPC: 0.413132 (Simulation time: 1 hr 12 min 28 sec) 
Heartbeat CPU 0 instructions: 861000002 cycles: 2064197049 heartbeat IPC: 0.365749 cumulative IPC: 0.413002 (Simulation time: 1 hr 12 min 34 sec) 
Heartbeat CPU 0 instructions: 862000001 cycles: 2066915637 heartbeat IPC: 0.367838 cumulative IPC: 0.412879 (Simulation time: 1 hr 12 min 40 sec) 
Heartbeat CPU 0 instructions: 863000002 cycles: 2069608436 heartbeat IPC: 0.371361 cumulative IPC: 0.412767 (Simulation time: 1 hr 12 min 46 sec) 
Heartbeat CPU 0 instructions: 864000000 cycles: 2072035004 heartbeat IPC: 0.412104 cumulative IPC: 0.412766 (Simulation time: 1 hr 12 min 52 sec) 
Heartbeat CPU 0 instructions: 865000000 cycles: 2074599235 heartbeat IPC: 0.38998 cumulative IPC: 0.412708 (Simulation time: 1 hr 12 min 57 sec) 
Heartbeat CPU 0 instructions: 866000001 cycles: 2077349755 heartbeat IPC: 0.363568 cumulative IPC: 0.412574 (Simulation time: 1 hr 13 min 3 sec) 
Heartbeat CPU 0 instructions: 867000002 cycles: 2080058511 heartbeat IPC: 0.369174 cumulative IPC: 0.412457 (Simulation time: 1 hr 13 min 9 sec) 
Heartbeat CPU 0 instructions: 868000000 cycles: 2082781974 heartbeat IPC: 0.367179 cumulative IPC: 0.412336 (Simulation time: 1 hr 13 min 15 sec) 
Heartbeat CPU 0 instructions: 869000000 cycles: 2085455765 heartbeat IPC: 0.374001 cumulative IPC: 0.412235 (Simulation time: 1 hr 13 min 21 sec) 
Heartbeat CPU 0 instructions: 870000001 cycles: 2088156772 heartbeat IPC: 0.370233 cumulative IPC: 0.412124 (Simulation time: 1 hr 13 min 27 sec) 
Heartbeat CPU 0 instructions: 871000000 cycles: 2090873193 heartbeat IPC: 0.368131 cumulative IPC: 0.412007 (Simulation time: 1 hr 13 min 33 sec) 
Heartbeat CPU 0 instructions: 872000002 cycles: 2093588322 heartbeat IPC: 0.368307 cumulative IPC: 0.411891 (Simulation time: 1 hr 13 min 39 sec) 
Heartbeat CPU 0 instructions: 873000003 cycles: 2096241671 heartbeat IPC: 0.376883 cumulative IPC: 0.4118 (Simulation time: 1 hr 13 min 45 sec) 
Heartbeat CPU 0 instructions: 874000003 cycles: 2098902921 heartbeat IPC: 0.375763 cumulative IPC: 0.411707 (Simulation time: 1 hr 13 min 51 sec) 
Heartbeat CPU 0 instructions: 875000001 cycles: 2101612227 heartbeat IPC: 0.369097 cumulative IPC: 0.411595 (Simulation time: 1 hr 13 min 57 sec) 
Heartbeat CPU 0 instructions: 876000000 cycles: 2104308931 heartbeat IPC: 0.370823 cumulative IPC: 0.411489 (Simulation time: 1 hr 14 min 3 sec) 
Heartbeat CPU 0 instructions: 877000000 cycles: 2106989217 heartbeat IPC: 0.373094 cumulative IPC: 0.41139 (Simulation time: 1 hr 14 min 9 sec) 
Heartbeat CPU 0 instructions: 878000003 cycles: 2109584581 heartbeat IPC: 0.385304 cumulative IPC: 0.411325 (Simulation time: 1 hr 14 min 15 sec) 
Heartbeat CPU 0 instructions: 879000000 cycles: 2112174329 heartbeat IPC: 0.386137 cumulative IPC: 0.411263 (Simulation time: 1 hr 14 min 20 sec) 
Heartbeat CPU 0 instructions: 880000000 cycles: 2114725883 heartbeat IPC: 0.391918 cumulative IPC: 0.411215 (Simulation time: 1 hr 14 min 26 sec) 
Heartbeat CPU 0 instructions: 881000001 cycles: 2117390031 heartbeat IPC: 0.375355 cumulative IPC: 0.411124 (Simulation time: 1 hr 14 min 32 sec) 
Heartbeat CPU 0 instructions: 882000003 cycles: 2120070857 heartbeat IPC: 0.37302 cumulative IPC: 0.411027 (Simulation time: 1 hr 14 min 38 sec) 
Heartbeat CPU 0 instructions: 883000002 cycles: 2122763074 heartbeat IPC: 0.371441 cumulative IPC: 0.410926 (Simulation time: 1 hr 14 min 43 sec) 
Heartbeat CPU 0 instructions: 884000003 cycles: 2125469818 heartbeat IPC: 0.369448 cumulative IPC: 0.41082 (Simulation time: 1 hr 14 min 49 sec) 
Heartbeat CPU 0 instructions: 885000003 cycles: 2128142215 heartbeat IPC: 0.374196 cumulative IPC: 0.410727 (Simulation time: 1 hr 14 min 54 sec) 
Heartbeat CPU 0 instructions: 886000000 cycles: 2130818624 heartbeat IPC: 0.373634 cumulative IPC: 0.410634 (Simulation time: 1 hr 15 min 0 sec) 
Heartbeat CPU 0 instructions: 887000000 cycles: 2133494444 heartbeat IPC: 0.373717 cumulative IPC: 0.410541 (Simulation time: 1 hr 15 min 5 sec) 
Heartbeat CPU 0 instructions: 888000000 cycles: 2136182374 heartbeat IPC: 0.372034 cumulative IPC: 0.410444 (Simulation time: 1 hr 15 min 11 sec) 
Heartbeat CPU 0 instructions: 889000003 cycles: 2138875248 heartbeat IPC: 0.371352 cumulative IPC: 0.410345 (Simulation time: 1 hr 15 min 17 sec) 
Heartbeat CPU 0 instructions: 890000000 cycles: 2141558571 heartbeat IPC: 0.372671 cumulative IPC: 0.410251 (Simulation time: 1 hr 15 min 22 sec) 
Heartbeat CPU 0 instructions: 891000000 cycles: 2144232753 heartbeat IPC: 0.373946 cumulative IPC: 0.410161 (Simulation time: 1 hr 15 min 28 sec) 
Heartbeat CPU 0 instructions: 892000000 cycles: 2146915239 heartbeat IPC: 0.372789 cumulative IPC: 0.410068 (Simulation time: 1 hr 15 min 34 sec) 
Heartbeat CPU 0 instructions: 893000000 cycles: 2149749391 heartbeat IPC: 0.352839 cumulative IPC: 0.409918 (Simulation time: 1 hr 15 min 40 sec) 
Heartbeat CPU 0 instructions: 894000003 cycles: 2152330078 heartbeat IPC: 0.387495 cumulative IPC: 0.409864 (Simulation time: 1 hr 15 min 46 sec) 
Heartbeat CPU 0 instructions: 895000002 cycles: 2154964199 heartbeat IPC: 0.379633 cumulative IPC: 0.409791 (Simulation time: 1 hr 15 min 52 sec) 
Heartbeat CPU 0 instructions: 896000000 cycles: 2157621476 heartbeat IPC: 0.376324 cumulative IPC: 0.409709 (Simulation time: 1 hr 15 min 57 sec) 
Heartbeat CPU 0 instructions: 897000001 cycles: 2160270247 heartbeat IPC: 0.377534 cumulative IPC: 0.409631 (Simulation time: 1 hr 16 min 3 sec) 
Heartbeat CPU 0 instructions: 898000000 cycles: 2162929828 heartbeat IPC: 0.375999 cumulative IPC: 0.40955 (Simulation time: 1 hr 16 min 9 sec) 
Heartbeat CPU 0 instructions: 899000003 cycles: 2165562813 heartbeat IPC: 0.379798 cumulative IPC: 0.409478 (Simulation time: 1 hr 16 min 15 sec) 
Heartbeat CPU 0 instructions: 900000000 cycles: 2168183168 heartbeat IPC: 0.381627 cumulative IPC: 0.409412 (Simulation time: 1 hr 16 min 21 sec) 
Heartbeat CPU 0 instructions: 901000001 cycles: 2170853336 heartbeat IPC: 0.374509 cumulative IPC: 0.409327 (Simulation time: 1 hr 16 min 27 sec) 
Heartbeat CPU 0 instructions: 902000000 cycles: 2173500246 heartbeat IPC: 0.377799 cumulative IPC: 0.409252 (Simulation time: 1 hr 16 min 32 sec) 
Heartbeat CPU 0 instructions: 903000003 cycles: 2176131123 heartbeat IPC: 0.380103 cumulative IPC: 0.409182 (Simulation time: 1 hr 16 min 38 sec) 
Heartbeat CPU 0 instructions: 904000001 cycles: 2178789212 heartbeat IPC: 0.376209 cumulative IPC: 0.409103 (Simulation time: 1 hr 16 min 44 sec) 
Heartbeat CPU 0 instructions: 905000002 cycles: 2181450247 heartbeat IPC: 0.375794 cumulative IPC: 0.409024 (Simulation time: 1 hr 16 min 50 sec) 
Heartbeat CPU 0 instructions: 906000000 cycles: 2184135575 heartbeat IPC: 0.372393 cumulative IPC: 0.408935 (Simulation time: 1 hr 16 min 56 sec) 
Heartbeat CPU 0 instructions: 907000000 cycles: 2186805930 heartbeat IPC: 0.374482 cumulative IPC: 0.408853 (Simulation time: 1 hr 17 min 2 sec) 
Heartbeat CPU 0 instructions: 908000001 cycles: 2189446742 heartbeat IPC: 0.378672 cumulative IPC: 0.408782 (Simulation time: 1 hr 17 min 8 sec) 
Heartbeat CPU 0 instructions: 909000000 cycles: 2192085453 heartbeat IPC: 0.378973 cumulative IPC: 0.408712 (Simulation time: 1 hr 17 min 14 sec) 
Heartbeat CPU 0 instructions: 910000003 cycles: 2194726879 heartbeat IPC: 0.378585 cumulative IPC: 0.408641 (Simulation time: 1 hr 17 min 20 sec) 
Heartbeat CPU 0 instructions: 911000003 cycles: 2197376319 heartbeat IPC: 0.377438 cumulative IPC: 0.408568 (Simulation time: 1 hr 17 min 26 sec) 
Heartbeat CPU 0 instructions: 912000000 cycles: 2200034402 heartbeat IPC: 0.37621 cumulative IPC: 0.408492 (Simulation time: 1 hr 17 min 32 sec) 
Heartbeat CPU 0 instructions: 913000000 cycles: 2202885036 heartbeat IPC: 0.350799 cumulative IPC: 0.408347 (Simulation time: 1 hr 17 min 39 sec) 
Heartbeat CPU 0 instructions: 914000000 cycles: 2205697060 heartbeat IPC: 0.355616 cumulative IPC: 0.408216 (Simulation time: 1 hr 17 min 45 sec) 
Heartbeat CPU 0 instructions: 915000002 cycles: 2208478392 heartbeat IPC: 0.359541 cumulative IPC: 0.408098 (Simulation time: 1 hr 17 min 51 sec) 
Heartbeat CPU 0 instructions: 916000003 cycles: 2211193084 heartbeat IPC: 0.368366 cumulative IPC: 0.408003 (Simulation time: 1 hr 17 min 57 sec) 
Heartbeat CPU 0 instructions: 917000001 cycles: 2213821157 heartbeat IPC: 0.380506 cumulative IPC: 0.40794 (Simulation time: 1 hr 18 min 3 sec) 
Heartbeat CPU 0 instructions: 918000001 cycles: 2216444906 heartbeat IPC: 0.381134 cumulative IPC: 0.407879 (Simulation time: 1 hr 18 min 9 sec) 
Heartbeat CPU 0 instructions: 919000000 cycles: 2219133242 heartbeat IPC: 0.371977 cumulative IPC: 0.407795 (Simulation time: 1 hr 18 min 14 sec) 
Heartbeat CPU 0 instructions: 920000000 cycles: 2221817077 heartbeat IPC: 0.372601 cumulative IPC: 0.407713 (Simulation time: 1 hr 18 min 20 sec) 
Heartbeat CPU 0 instructions: 921000002 cycles: 2224485219 heartbeat IPC: 0.374793 cumulative IPC: 0.407637 (Simulation time: 1 hr 18 min 26 sec) 
Heartbeat CPU 0 instructions: 922000000 cycles: 2227159926 heartbeat IPC: 0.373872 cumulative IPC: 0.407559 (Simulation time: 1 hr 18 min 32 sec) 
Heartbeat CPU 0 instructions: 923000000 cycles: 2229862022 heartbeat IPC: 0.370083 cumulative IPC: 0.407472 (Simulation time: 1 hr 18 min 38 sec) 
Heartbeat CPU 0 instructions: 924000000 cycles: 2232556185 heartbeat IPC: 0.371173 cumulative IPC: 0.407388 (Simulation time: 1 hr 18 min 44 sec) 
Heartbeat CPU 0 instructions: 925000000 cycles: 2235247858 heartbeat IPC: 0.371516 cumulative IPC: 0.407305 (Simulation time: 1 hr 18 min 50 sec) 
Heartbeat CPU 0 instructions: 926000001 cycles: 2237905889 heartbeat IPC: 0.376219 cumulative IPC: 0.407234 (Simulation time: 1 hr 18 min 56 sec) 
Heartbeat CPU 0 instructions: 927000000 cycles: 2240594369 heartbeat IPC: 0.371957 cumulative IPC: 0.407153 (Simulation time: 1 hr 19 min 1 sec) 
Heartbeat CPU 0 instructions: 928000002 cycles: 2243241187 heartbeat IPC: 0.377813 cumulative IPC: 0.407087 (Simulation time: 1 hr 19 min 7 sec) 
Heartbeat CPU 0 instructions: 929000002 cycles: 2245924995 heartbeat IPC: 0.372605 cumulative IPC: 0.407008 (Simulation time: 1 hr 19 min 13 sec) 
Heartbeat CPU 0 instructions: 930000003 cycles: 2248674866 heartbeat IPC: 0.363654 cumulative IPC: 0.406907 (Simulation time: 1 hr 19 min 19 sec) 
Heartbeat CPU 0 instructions: 931000003 cycles: 2251521138 heartbeat IPC: 0.351337 cumulative IPC: 0.406774 (Simulation time: 1 hr 19 min 25 sec) 
Heartbeat CPU 0 instructions: 932000002 cycles: 2254237401 heartbeat IPC: 0.368152 cumulative IPC: 0.406685 (Simulation time: 1 hr 19 min 31 sec) 
Heartbeat CPU 0 instructions: 933000000 cycles: 2256942022 heartbeat IPC: 0.369737 cumulative IPC: 0.406601 (Simulation time: 1 hr 19 min 37 sec) 
Heartbeat CPU 0 instructions: 934000000 cycles: 2259578676 heartbeat IPC: 0.379269 cumulative IPC: 0.40654 (Simulation time: 1 hr 19 min 43 sec) 
Heartbeat CPU 0 instructions: 935000000 cycles: 2262221976 heartbeat IPC: 0.378315 cumulative IPC: 0.406478 (Simulation time: 1 hr 19 min 49 sec) 
Heartbeat CPU 0 instructions: 936000001 cycles: 2264887293 heartbeat IPC: 0.37519 cumulative IPC: 0.406408 (Simulation time: 1 hr 19 min 54 sec) 
Heartbeat CPU 0 instructions: 937000001 cycles: 2267544628 heartbeat IPC: 0.376317 cumulative IPC: 0.406341 (Simulation time: 1 hr 20 min 0 sec) 
Heartbeat CPU 0 instructions: 938000000 cycles: 2270209071 heartbeat IPC: 0.375313 cumulative IPC: 0.406273 (Simulation time: 1 hr 20 min 6 sec) 
Heartbeat CPU 0 instructions: 939000000 cycles: 2272840646 heartbeat IPC: 0.380001 cumulative IPC: 0.406215 (Simulation time: 1 hr 20 min 12 sec) 
Heartbeat CPU 0 instructions: 940000000 cycles: 2275541746 heartbeat IPC: 0.37022 cumulative IPC: 0.406135 (Simulation time: 1 hr 20 min 17 sec) 
Heartbeat CPU 0 instructions: 941000002 cycles: 2278175795 heartbeat IPC: 0.379644 cumulative IPC: 0.406077 (Simulation time: 1 hr 20 min 23 sec) 
Heartbeat CPU 0 instructions: 942000003 cycles: 2280913298 heartbeat IPC: 0.365297 cumulative IPC: 0.405985 (Simulation time: 1 hr 20 min 29 sec) 
Heartbeat CPU 0 instructions: 943000000 cycles: 2283626227 heartbeat IPC: 0.368604 cumulative IPC: 0.405901 (Simulation time: 1 hr 20 min 35 sec) 
Heartbeat CPU 0 instructions: 944000002 cycles: 2286460789 heartbeat IPC: 0.352789 cumulative IPC: 0.405778 (Simulation time: 1 hr 20 min 41 sec) 
Heartbeat CPU 0 instructions: 945000000 cycles: 2289215645 heartbeat IPC: 0.362995 cumulative IPC: 0.405681 (Simulation time: 1 hr 20 min 47 sec) 
Heartbeat CPU 0 instructions: 946000000 cycles: 2291864854 heartbeat IPC: 0.377471 cumulative IPC: 0.40562 (Simulation time: 1 hr 20 min 53 sec) 
Heartbeat CPU 0 instructions: 947000000 cycles: 2294545266 heartbeat IPC: 0.373077 cumulative IPC: 0.405549 (Simulation time: 1 hr 20 min 59 sec) 
Heartbeat CPU 0 instructions: 948000002 cycles: 2297224814 heartbeat IPC: 0.373198 cumulative IPC: 0.405478 (Simulation time: 1 hr 21 min 5 sec) 
Heartbeat CPU 0 instructions: 949000000 cycles: 2299872065 heartbeat IPC: 0.37775 cumulative IPC: 0.405418 (Simulation time: 1 hr 21 min 10 sec) 
Heartbeat CPU 0 instructions: 950000001 cycles: 2302514187 heartbeat IPC: 0.378484 cumulative IPC: 0.405361 (Simulation time: 1 hr 21 min 16 sec) 
Finished CPU 0 instructions: 500000001 cycles: 1233469173 cumulative IPC: 0.405361 (Simulation time: 1 hr 21 min 16 sec) 

ChampSim completed all CPUs

Region of Interest Statistics

CPU 0 cumulative IPC: 0.405361 instructions: 500000001 cycles: 1233469173
L1D TOTAL     ACCESS:  179833849  HIT:  158959699  MISS:   20874150
L1D LOAD      ACCESS:  125729149  HIT:  106712945  MISS:   19016204
L1D RFO       ACCESS:   54104700  HIT:   52246754  MISS:    1857946
L1D PREFETCH  ACCESS:          0  HIT:          0  MISS:          0
L1D WRITEBACK ACCESS:          0  HIT:          0  MISS:          0
L1D PREFETCH  REQUESTED:          0  ISSUED:          0  USEFUL:          0  USELESS:          0
L1D AVERAGE MISS LATENCY: 67.8337 cycles
L1I TOTAL     ACCESS:   95966298  HIT:   95966298  MISS:          0
L1I LOAD      ACCESS:   95966298  HIT:   95966298  MISS:          0
L1I RFO       ACCESS:          0  HIT:          0  MISS:          0
L1I PREFETCH  ACCESS:          0  HIT:          0  MISS:          0
L1I WRITEBACK ACCESS:          0  HIT:          0  MISS:          0
L1I PREFETCH  REQUESTED:          0  ISSUED:          0  USEFUL:          0  USELESS:          0
L1I AVERAGE MISS LATENCY: -nan cycles
L2C TOTAL     ACCESS:   23748441  HIT:    9458723  MISS:   14289718
L2C LOAD      ACCESS:   19016138  HIT:    5570045  MISS:   13446093
L2C RFO       ACCESS:    1857921  HIT:    1016235  MISS:     841686
L2C PREFETCH  ACCESS:          0  HIT:          0  MISS:          0
L2C WRITEBACK ACCESS:    2874382  HIT:    2872443  MISS:       1939
L2C PREFETCH  REQUESTED:          0  ISSUED:          0  USEFUL:          0  USELESS:          0
L2C AVERAGE MISS LATENCY: 76.5418 cycles
LLC TOTAL     ACCESS:   28468381  HIT:   16545903  MISS:   11922478
LLC LOAD      ACCESS:   13446078  HIT:   10312559  MISS:    3133519
LLC RFO       ACCESS:     841667  HIT:     810975  MISS:      30692
LLC PREFETCH  ACCESS:   12524218  HIT:    3828839  MISS:    8695379
LLC WRITEBACK ACCESS:    1656418  HIT:    1593530  MISS:      62888
LLC PREFETCH  REQUESTED:   13332090  ISSUED:   12828838  USEFUL:    4133516  USELESS:    4550913
LLC AVERAGE MISS LATENCY: 201.483 cycles
Major fault: 0 Minor fault: 121652

DRAM Statistics
 CHANNEL 0
 RQ ROW_BUFFER_HIT:    1820865  ROW_BUFFER_MISS:   10036437
 DBUS_CONGESTED:    2514287
 WQ ROW_BUFFER_HIT:      88591  ROW_BUFFER_MISS:     104152  FULL:          0

 AVG_CONGESTED_CYCLE: 5

CPU 0 Branch Prediction Accuracy: 93.4378% MPKI: 16.5871 Average ROB Occupancy at Mispredict: 27.2581

Branch types
NOT_BRANCH: 373615675 74.7231%
BRANCH_DIRECT_JUMP: 13596032 2.71921%
BRANCH_INDIRECT: 0 0%
BRANCH_CONDITIONAL: 86167671 17.2335%
BRANCH_DIRECT_CALL: 12564851 2.51297%
BRANCH_INDIRECT_CALL: 745445 0.149089%
BRANCH_RETURN: 13310293 2.66206%
BRANCH_OTHER: 0 0%

