
*** ChampSim Multicore Out-of-Order Simulator ***

Warmup Instructions: 1000000
Prefetch Warmup Instructions: 450000000
Simulation Instructions: 500000000
Stat Printing Period: 1000000
Number of CPUs: 1
LLC sets: 2048
LLC ways: 16
Off-chip DRAM Size: 4096 MB Channels: 1 Width: 64-bit Data Rate: 3200 MT/s

CPU 0 runs /scratch/cluster/cmolder/ML-DPC/ChampSimTraces/spec17/605.mcf-s5.trace.xz
Read seed: 226
Heartbeat CPU 0 instructions: 1000001 cycles: 418000 heartbeat IPC: 2.39235 cumulative IPC: 2.39235 (Simulation time: 0 hr 0 min 6 sec) 

Warmup complete CPU 0 instructions: 1000001 cycles: 418000 (Simulation time: 0 hr 0 min 6 sec) 

Heartbeat CPU 0 instructions: 2000003 cycles: 2323190 heartbeat IPC: 0.524883 cumulative IPC: 0.524883 (Simulation time: 0 hr 0 min 13 sec) 
Heartbeat CPU 0 instructions: 3000001 cycles: 4716861 heartbeat IPC: 0.417768 cumulative IPC: 0.46524 (Simulation time: 0 hr 0 min 21 sec) 
Heartbeat CPU 0 instructions: 4000001 cycles: 7045944 heartbeat IPC: 0.429354 cumulative IPC: 0.452629 (Simulation time: 0 hr 0 min 29 sec) 
Heartbeat CPU 0 instructions: 5000001 cycles: 9674561 heartbeat IPC: 0.380428 cumulative IPC: 0.432126 (Simulation time: 0 hr 0 min 37 sec) 
Heartbeat CPU 0 instructions: 6000000 cycles: 12522593 heartbeat IPC: 0.351119 cumulative IPC: 0.413066 (Simulation time: 0 hr 0 min 46 sec) 
Heartbeat CPU 0 instructions: 7000002 cycles: 16810389 heartbeat IPC: 0.233221 cumulative IPC: 0.366024 (Simulation time: 0 hr 0 min 57 sec) 
Heartbeat CPU 0 instructions: 8000001 cycles: 19679831 heartbeat IPC: 0.348499 cumulative IPC: 0.363413 (Simulation time: 0 hr 1 min 5 sec) 
Heartbeat CPU 0 instructions: 9000000 cycles: 21711198 heartbeat IPC: 0.492279 cumulative IPC: 0.375707 (Simulation time: 0 hr 1 min 13 sec) 
Heartbeat CPU 0 instructions: 10000000 cycles: 23937669 heartbeat IPC: 0.449141 cumulative IPC: 0.382658 (Simulation time: 0 hr 1 min 21 sec) 
Heartbeat CPU 0 instructions: 11000000 cycles: 26668791 heartbeat IPC: 0.36615 cumulative IPC: 0.380941 (Simulation time: 0 hr 1 min 29 sec) 
Heartbeat CPU 0 instructions: 12000000 cycles: 28889096 heartbeat IPC: 0.450389 cumulative IPC: 0.386357 (Simulation time: 0 hr 1 min 37 sec) 
Heartbeat CPU 0 instructions: 13000000 cycles: 30821067 heartbeat IPC: 0.517606 cumulative IPC: 0.394697 (Simulation time: 0 hr 1 min 44 sec) 
Heartbeat CPU 0 instructions: 14000001 cycles: 32914019 heartbeat IPC: 0.477795 cumulative IPC: 0.400049 (Simulation time: 0 hr 1 min 52 sec) 
Heartbeat CPU 0 instructions: 15000001 cycles: 39067139 heartbeat IPC: 0.162519 cumulative IPC: 0.362233 (Simulation time: 0 hr 2 min 5 sec) 
Heartbeat CPU 0 instructions: 16000000 cycles: 43506955 heartbeat IPC: 0.225234 cumulative IPC: 0.348117 (Simulation time: 0 hr 2 min 16 sec) 
Heartbeat CPU 0 instructions: 17000003 cycles: 46590460 heartbeat IPC: 0.324307 cumulative IPC: 0.346527 (Simulation time: 0 hr 2 min 25 sec) 
Heartbeat CPU 0 instructions: 18000001 cycles: 49545931 heartbeat IPC: 0.338355 cumulative IPC: 0.346035 (Simulation time: 0 hr 2 min 34 sec) 
Heartbeat CPU 0 instructions: 19000001 cycles: 51900999 heartbeat IPC: 0.424616 cumulative IPC: 0.34963 (Simulation time: 0 hr 2 min 42 sec) 
Heartbeat CPU 0 instructions: 20000000 cycles: 54670815 heartbeat IPC: 0.361034 cumulative IPC: 0.350212 (Simulation time: 0 hr 2 min 51 sec) 
Heartbeat CPU 0 instructions: 21000000 cycles: 56970614 heartbeat IPC: 0.434821 cumulative IPC: 0.353653 (Simulation time: 0 hr 3 min 0 sec) 
Heartbeat CPU 0 instructions: 22000000 cycles: 58873081 heartbeat IPC: 0.525633 cumulative IPC: 0.35925 (Simulation time: 0 hr 3 min 7 sec) 
Heartbeat CPU 0 instructions: 23000000 cycles: 64348820 heartbeat IPC: 0.182624 cumulative IPC: 0.344122 (Simulation time: 0 hr 3 min 20 sec) 
Heartbeat CPU 0 instructions: 24000002 cycles: 69021724 heartbeat IPC: 0.214 cumulative IPC: 0.335259 (Simulation time: 0 hr 3 min 31 sec) 
Heartbeat CPU 0 instructions: 25000000 cycles: 70748942 heartbeat IPC: 0.578965 cumulative IPC: 0.341244 (Simulation time: 0 hr 3 min 39 sec) 
Heartbeat CPU 0 instructions: 26000000 cycles: 72434046 heartbeat IPC: 0.593435 cumulative IPC: 0.347145 (Simulation time: 0 hr 3 min 46 sec) 
Heartbeat CPU 0 instructions: 27000000 cycles: 74325091 heartbeat IPC: 0.528808 cumulative IPC: 0.351793 (Simulation time: 0 hr 3 min 53 sec) 
Heartbeat CPU 0 instructions: 28000001 cycles: 76336336 heartbeat IPC: 0.497205 cumulative IPC: 0.355645 (Simulation time: 0 hr 4 min 1 sec) 
Heartbeat CPU 0 instructions: 29000002 cycles: 78382687 heartbeat IPC: 0.488675 cumulative IPC: 0.359137 (Simulation time: 0 hr 4 min 8 sec) 
Heartbeat CPU 0 instructions: 30000000 cycles: 82659109 heartbeat IPC: 0.23384 cumulative IPC: 0.352622 (Simulation time: 0 hr 4 min 19 sec) 
Heartbeat CPU 0 instructions: 31000000 cycles: 84535543 heartbeat IPC: 0.532926 cumulative IPC: 0.356644 (Simulation time: 0 hr 4 min 26 sec) 
Heartbeat CPU 0 instructions: 32000001 cycles: 86967620 heartbeat IPC: 0.411172 cumulative IPC: 0.358176 (Simulation time: 0 hr 4 min 34 sec) 
Heartbeat CPU 0 instructions: 33000000 cycles: 89409303 heartbeat IPC: 0.409553 cumulative IPC: 0.359586 (Simulation time: 0 hr 4 min 43 sec) 
Heartbeat CPU 0 instructions: 34000000 cycles: 91561836 heartbeat IPC: 0.464569 cumulative IPC: 0.362065 (Simulation time: 0 hr 4 min 51 sec) 
Heartbeat CPU 0 instructions: 35000000 cycles: 94054651 heartbeat IPC: 0.401153 cumulative IPC: 0.363106 (Simulation time: 0 hr 4 min 59 sec) 
Heartbeat CPU 0 instructions: 36000000 cycles: 96703497 heartbeat IPC: 0.377523 cumulative IPC: 0.363502 (Simulation time: 0 hr 5 min 7 sec) 
Heartbeat CPU 0 instructions: 37000000 cycles: 101678880 heartbeat IPC: 0.20099 cumulative IPC: 0.355517 (Simulation time: 0 hr 5 min 20 sec) 
Heartbeat CPU 0 instructions: 38000001 cycles: 104061858 heartbeat IPC: 0.419643 cumulative IPC: 0.356992 (Simulation time: 0 hr 5 min 28 sec) 
Heartbeat CPU 0 instructions: 39000000 cycles: 105886513 heartbeat IPC: 0.548048 cumulative IPC: 0.360297 (Simulation time: 0 hr 5 min 35 sec) 
Heartbeat CPU 0 instructions: 40000001 cycles: 108469996 heartbeat IPC: 0.387075 cumulative IPC: 0.360937 (Simulation time: 0 hr 5 min 44 sec) 
Heartbeat CPU 0 instructions: 41000003 cycles: 110488803 heartbeat IPC: 0.495343 cumulative IPC: 0.363402 (Simulation time: 0 hr 5 min 51 sec) 
Heartbeat CPU 0 instructions: 42000000 cycles: 112492024 heartbeat IPC: 0.499195 cumulative IPC: 0.36583 (Simulation time: 0 hr 5 min 59 sec) 
Heartbeat CPU 0 instructions: 43000000 cycles: 114433933 heartbeat IPC: 0.514957 cumulative IPC: 0.36837 (Simulation time: 0 hr 6 min 7 sec) 
Heartbeat CPU 0 instructions: 44000000 cycles: 117602749 heartbeat IPC: 0.315575 cumulative IPC: 0.366942 (Simulation time: 0 hr 6 min 16 sec) 
Heartbeat CPU 0 instructions: 45000002 cycles: 124253847 heartbeat IPC: 0.150351 cumulative IPC: 0.355309 (Simulation time: 0 hr 6 min 31 sec) 
Heartbeat CPU 0 instructions: 46000001 cycles: 127300419 heartbeat IPC: 0.328237 cumulative IPC: 0.354659 (Simulation time: 0 hr 6 min 40 sec) 
Heartbeat CPU 0 instructions: 47000003 cycles: 129804903 heartbeat IPC: 0.399285 cumulative IPC: 0.355523 (Simulation time: 0 hr 6 min 49 sec) 
Heartbeat CPU 0 instructions: 48000000 cycles: 132748538 heartbeat IPC: 0.339715 cumulative IPC: 0.355171 (Simulation time: 0 hr 6 min 57 sec) 
Heartbeat CPU 0 instructions: 49000000 cycles: 135369051 heartbeat IPC: 0.381605 cumulative IPC: 0.355685 (Simulation time: 0 hr 7 min 6 sec) 
Heartbeat CPU 0 instructions: 50000000 cycles: 137392379 heartbeat IPC: 0.494235 cumulative IPC: 0.357731 (Simulation time: 0 hr 7 min 14 sec) 
Heartbeat CPU 0 instructions: 51000003 cycles: 139995280 heartbeat IPC: 0.384188 cumulative IPC: 0.358225 (Simulation time: 0 hr 7 min 23 sec) 
Heartbeat CPU 0 instructions: 52000001 cycles: 142850961 heartbeat IPC: 0.350178 cumulative IPC: 0.358063 (Simulation time: 0 hr 7 min 31 sec) 
Heartbeat CPU 0 instructions: 53000000 cycles: 146736376 heartbeat IPC: 0.257372 cumulative IPC: 0.355389 (Simulation time: 0 hr 7 min 42 sec) 
Heartbeat CPU 0 instructions: 54000002 cycles: 148527180 heartbeat IPC: 0.55841 cumulative IPC: 0.357844 (Simulation time: 0 hr 7 min 50 sec) 
Heartbeat CPU 0 instructions: 55000000 cycles: 150497042 heartbeat IPC: 0.507649 cumulative IPC: 0.35981 (Simulation time: 0 hr 7 min 58 sec) 
Heartbeat CPU 0 instructions: 56000003 cycles: 152491586 heartbeat IPC: 0.501369 cumulative IPC: 0.361667 (Simulation time: 0 hr 8 min 6 sec) 
Heartbeat CPU 0 instructions: 57000000 cycles: 154436841 heartbeat IPC: 0.51407 cumulative IPC: 0.363592 (Simulation time: 0 hr 8 min 14 sec) 
Heartbeat CPU 0 instructions: 58000001 cycles: 156316024 heartbeat IPC: 0.532147 cumulative IPC: 0.365624 (Simulation time: 0 hr 8 min 21 sec) 
Heartbeat CPU 0 instructions: 59000001 cycles: 158926426 heartbeat IPC: 0.383083 cumulative IPC: 0.365911 (Simulation time: 0 hr 8 min 30 sec) 
Heartbeat CPU 0 instructions: 60000003 cycles: 164693577 heartbeat IPC: 0.173396 cumulative IPC: 0.359153 (Simulation time: 0 hr 8 min 43 sec) 
Heartbeat CPU 0 instructions: 61000000 cycles: 171611090 heartbeat IPC: 0.14456 cumulative IPC: 0.350481 (Simulation time: 0 hr 8 min 58 sec) 
Heartbeat CPU 0 instructions: 62000000 cycles: 176706226 heartbeat IPC: 0.196266 cumulative IPC: 0.346024 (Simulation time: 0 hr 9 min 10 sec) 
Heartbeat CPU 0 instructions: 63000001 cycles: 178980372 heartbeat IPC: 0.439726 cumulative IPC: 0.347218 (Simulation time: 0 hr 9 min 18 sec) 
Heartbeat CPU 0 instructions: 64000001 cycles: 180769866 heartbeat IPC: 0.558817 cumulative IPC: 0.349317 (Simulation time: 0 hr 9 min 25 sec) 
Heartbeat CPU 0 instructions: 65000001 cycles: 183228120 heartbeat IPC: 0.406793 cumulative IPC: 0.35009 (Simulation time: 0 hr 9 min 34 sec) 
Heartbeat CPU 0 instructions: 66000000 cycles: 186042425 heartbeat IPC: 0.355327 cumulative IPC: 0.350169 (Simulation time: 0 hr 9 min 43 sec) 
Heartbeat CPU 0 instructions: 67000001 cycles: 188938059 heartbeat IPC: 0.345348 cumulative IPC: 0.350095 (Simulation time: 0 hr 9 min 52 sec) 
Heartbeat CPU 0 instructions: 68000000 cycles: 191001792 heartbeat IPC: 0.484558 cumulative IPC: 0.351551 (Simulation time: 0 hr 10 min 0 sec) 
Heartbeat CPU 0 instructions: 69000002 cycles: 196117527 heartbeat IPC: 0.195476 cumulative IPC: 0.347471 (Simulation time: 0 hr 10 min 12 sec) 
Heartbeat CPU 0 instructions: 70000002 cycles: 201376724 heartbeat IPC: 0.190143 cumulative IPC: 0.343354 (Simulation time: 0 hr 10 min 25 sec) 
Heartbeat CPU 0 instructions: 71000003 cycles: 204567672 heartbeat IPC: 0.313387 cumulative IPC: 0.342886 (Simulation time: 0 hr 10 min 34 sec) 
Heartbeat CPU 0 instructions: 72000003 cycles: 207308015 heartbeat IPC: 0.364918 cumulative IPC: 0.343178 (Simulation time: 0 hr 10 min 43 sec) 
Heartbeat CPU 0 instructions: 73000000 cycles: 210694688 heartbeat IPC: 0.295274 cumulative IPC: 0.342406 (Simulation time: 0 hr 10 min 52 sec) 
Heartbeat CPU 0 instructions: 74000001 cycles: 213473190 heartbeat IPC: 0.359907 cumulative IPC: 0.342634 (Simulation time: 0 hr 11 min 1 sec) 
Heartbeat CPU 0 instructions: 75000000 cycles: 216878024 heartbeat IPC: 0.2937 cumulative IPC: 0.341864 (Simulation time: 0 hr 11 min 10 sec) 
Heartbeat CPU 0 instructions: 76000003 cycles: 220345455 heartbeat IPC: 0.288399 cumulative IPC: 0.341022 (Simulation time: 0 hr 11 min 20 sec) 
Heartbeat CPU 0 instructions: 77000000 cycles: 225660347 heartbeat IPC: 0.18815 cumulative IPC: 0.337414 (Simulation time: 0 hr 11 min 32 sec) 
Heartbeat CPU 0 instructions: 78000000 cycles: 231684773 heartbeat IPC: 0.165991 cumulative IPC: 0.332949 (Simulation time: 0 hr 11 min 46 sec) 
Heartbeat CPU 0 instructions: 79000002 cycles: 233625760 heartbeat IPC: 0.515203 cumulative IPC: 0.334466 (Simulation time: 0 hr 11 min 53 sec) 
Heartbeat CPU 0 instructions: 80000000 cycles: 235494479 heartbeat IPC: 0.535125 cumulative IPC: 0.336061 (Simulation time: 0 hr 12 min 0 sec) 
Heartbeat CPU 0 instructions: 81000002 cycles: 237497507 heartbeat IPC: 0.499245 cumulative IPC: 0.33744 (Simulation time: 0 hr 12 min 8 sec) 
Heartbeat CPU 0 instructions: 82000001 cycles: 239375942 heartbeat IPC: 0.532358 cumulative IPC: 0.338972 (Simulation time: 0 hr 12 min 15 sec) 
Heartbeat CPU 0 instructions: 83000002 cycles: 241265617 heartbeat IPC: 0.529192 cumulative IPC: 0.340464 (Simulation time: 0 hr 12 min 22 sec) 
Heartbeat CPU 0 instructions: 84000001 cycles: 246223651 heartbeat IPC: 0.201693 cumulative IPC: 0.337665 (Simulation time: 0 hr 12 min 34 sec) 
Heartbeat CPU 0 instructions: 85000001 cycles: 252714081 heartbeat IPC: 0.154073 cumulative IPC: 0.332942 (Simulation time: 0 hr 12 min 49 sec) 
Heartbeat CPU 0 instructions: 86000001 cycles: 257069711 heartbeat IPC: 0.229588 cumulative IPC: 0.331188 (Simulation time: 0 hr 13 min 0 sec) 
Heartbeat CPU 0 instructions: 87000001 cycles: 259817148 heartbeat IPC: 0.363976 cumulative IPC: 0.331535 (Simulation time: 0 hr 13 min 9 sec) 
Heartbeat CPU 0 instructions: 88000000 cycles: 262020622 heartbeat IPC: 0.453828 cumulative IPC: 0.332565 (Simulation time: 0 hr 13 min 17 sec) 
Heartbeat CPU 0 instructions: 89000000 cycles: 264950335 heartbeat IPC: 0.34133 cumulative IPC: 0.332663 (Simulation time: 0 hr 13 min 26 sec) 
Heartbeat CPU 0 instructions: 90000001 cycles: 267171773 heartbeat IPC: 0.450159 cumulative IPC: 0.333641 (Simulation time: 0 hr 13 min 34 sec) 
Heartbeat CPU 0 instructions: 91000002 cycles: 269378760 heartbeat IPC: 0.453107 cumulative IPC: 0.334621 (Simulation time: 0 hr 13 min 42 sec) 
Heartbeat CPU 0 instructions: 92000000 cycles: 271976231 heartbeat IPC: 0.384989 cumulative IPC: 0.335103 (Simulation time: 0 hr 13 min 50 sec) 
Heartbeat CPU 0 instructions: 93000001 cycles: 277265420 heartbeat IPC: 0.189065 cumulative IPC: 0.332313 (Simulation time: 0 hr 14 min 3 sec) 
Heartbeat CPU 0 instructions: 94000003 cycles: 282444635 heartbeat IPC: 0.19308 cumulative IPC: 0.329756 (Simulation time: 0 hr 14 min 16 sec) 
Heartbeat CPU 0 instructions: 95000000 cycles: 284916139 heartbeat IPC: 0.404611 cumulative IPC: 0.330406 (Simulation time: 0 hr 14 min 24 sec) 
Heartbeat CPU 0 instructions: 96000002 cycles: 287093655 heartbeat IPC: 0.45924 cumulative IPC: 0.331385 (Simulation time: 0 hr 14 min 31 sec) 
Heartbeat CPU 0 instructions: 97000003 cycles: 289038746 heartbeat IPC: 0.514115 cumulative IPC: 0.332616 (Simulation time: 0 hr 14 min 39 sec) 
Heartbeat CPU 0 instructions: 98000000 cycles: 290829799 heartbeat IPC: 0.558329 cumulative IPC: 0.334008 (Simulation time: 0 hr 14 min 47 sec) 
Heartbeat CPU 0 instructions: 99000000 cycles: 292522988 heartbeat IPC: 0.590602 cumulative IPC: 0.335496 (Simulation time: 0 hr 14 min 54 sec) 
Heartbeat CPU 0 instructions: 100000000 cycles: 294205128 heartbeat IPC: 0.594481 cumulative IPC: 0.336979 (Simulation time: 0 hr 15 min 1 sec) 
Heartbeat CPU 0 instructions: 101000002 cycles: 298601462 heartbeat IPC: 0.227463 cumulative IPC: 0.335364 (Simulation time: 0 hr 15 min 12 sec) 
Heartbeat CPU 0 instructions: 102000001 cycles: 303975263 heartbeat IPC: 0.186088 cumulative IPC: 0.332721 (Simulation time: 0 hr 15 min 26 sec) 
Heartbeat CPU 0 instructions: 103000001 cycles: 305889069 heartbeat IPC: 0.522519 cumulative IPC: 0.33391 (Simulation time: 0 hr 15 min 33 sec) 
Heartbeat CPU 0 instructions: 104000002 cycles: 308014158 heartbeat IPC: 0.470569 cumulative IPC: 0.334855 (Simulation time: 0 hr 15 min 41 sec) 
Heartbeat CPU 0 instructions: 105000001 cycles: 310269340 heartbeat IPC: 0.443423 cumulative IPC: 0.335645 (Simulation time: 0 hr 15 min 49 sec) 
Heartbeat CPU 0 instructions: 106000001 cycles: 312342891 heartbeat IPC: 0.482264 cumulative IPC: 0.336619 (Simulation time: 0 hr 15 min 57 sec) 
Heartbeat CPU 0 instructions: 107000002 cycles: 314387309 heartbeat IPC: 0.489137 cumulative IPC: 0.337613 (Simulation time: 0 hr 16 min 5 sec) 
Heartbeat CPU 0 instructions: 108000001 cycles: 316192165 heartbeat IPC: 0.55406 cumulative IPC: 0.33885 (Simulation time: 0 hr 16 min 12 sec) 
Heartbeat CPU 0 instructions: 109000001 cycles: 320390749 heartbeat IPC: 0.238176 cumulative IPC: 0.337529 (Simulation time: 0 hr 16 min 23 sec) 
Heartbeat CPU 0 instructions: 110000000 cycles: 322628875 heartbeat IPC: 0.446802 cumulative IPC: 0.338288 (Simulation time: 0 hr 16 min 31 sec) 
Heartbeat CPU 0 instructions: 111000001 cycles: 324355298 heartbeat IPC: 0.579233 cumulative IPC: 0.339572 (Simulation time: 0 hr 16 min 38 sec) 
Heartbeat CPU 0 instructions: 112000000 cycles: 326319603 heartbeat IPC: 0.509085 cumulative IPC: 0.340594 (Simulation time: 0 hr 16 min 46 sec) 
Heartbeat CPU 0 instructions: 113000000 cycles: 328775503 heartbeat IPC: 0.407183 cumulative IPC: 0.341092 (Simulation time: 0 hr 16 min 54 sec) 
Heartbeat CPU 0 instructions: 114000003 cycles: 330784305 heartbeat IPC: 0.497811 cumulative IPC: 0.342045 (Simulation time: 0 hr 17 min 2 sec) 
Heartbeat CPU 0 instructions: 115000002 cycles: 332666842 heartbeat IPC: 0.531198 cumulative IPC: 0.343116 (Simulation time: 0 hr 17 min 10 sec) 
Heartbeat CPU 0 instructions: 116000000 cycles: 335542144 heartbeat IPC: 0.347789 cumulative IPC: 0.343156 (Simulation time: 0 hr 17 min 18 sec) 
Heartbeat CPU 0 instructions: 117000001 cycles: 338827633 heartbeat IPC: 0.304369 cumulative IPC: 0.34278 (Simulation time: 0 hr 17 min 28 sec) 
Heartbeat CPU 0 instructions: 118000001 cycles: 340665600 heartbeat IPC: 0.544079 cumulative IPC: 0.343867 (Simulation time: 0 hr 17 min 35 sec) 
Heartbeat CPU 0 instructions: 119000002 cycles: 342735021 heartbeat IPC: 0.483227 cumulative IPC: 0.34471 (Simulation time: 0 hr 17 min 43 sec) 
Heartbeat CPU 0 instructions: 120000001 cycles: 345008534 heartbeat IPC: 0.439847 cumulative IPC: 0.345337 (Simulation time: 0 hr 17 min 51 sec) 
Heartbeat CPU 0 instructions: 121000000 cycles: 347197153 heartbeat IPC: 0.456909 cumulative IPC: 0.346042 (Simulation time: 0 hr 17 min 59 sec) 
Heartbeat CPU 0 instructions: 122000000 cycles: 349567518 heartbeat IPC: 0.421876 cumulative IPC: 0.346556 (Simulation time: 0 hr 18 min 7 sec) 
Heartbeat CPU 0 instructions: 123000002 cycles: 351982153 heartbeat IPC: 0.414142 cumulative IPC: 0.347021 (Simulation time: 0 hr 18 min 16 sec) 
Heartbeat CPU 0 instructions: 124000003 cycles: 356224089 heartbeat IPC: 0.235742 cumulative IPC: 0.345694 (Simulation time: 0 hr 18 min 26 sec) 
Heartbeat CPU 0 instructions: 125000002 cycles: 358462457 heartbeat IPC: 0.446754 cumulative IPC: 0.346326 (Simulation time: 0 hr 18 min 34 sec) 
Heartbeat CPU 0 instructions: 126000001 cycles: 360491537 heartbeat IPC: 0.492834 cumulative IPC: 0.347151 (Simulation time: 0 hr 18 min 42 sec) 
Heartbeat CPU 0 instructions: 127000003 cycles: 362400266 heartbeat IPC: 0.52391 cumulative IPC: 0.348083 (Simulation time: 0 hr 18 min 50 sec) 
Heartbeat CPU 0 instructions: 128000001 cycles: 364253928 heartbeat IPC: 0.539472 cumulative IPC: 0.349058 (Simulation time: 0 hr 18 min 57 sec) 
Heartbeat CPU 0 instructions: 129000001 cycles: 366060145 heartbeat IPC: 0.553643 cumulative IPC: 0.350069 (Simulation time: 0 hr 19 min 5 sec) 
Heartbeat CPU 0 instructions: 130000001 cycles: 368571116 heartbeat IPC: 0.398252 cumulative IPC: 0.350398 (Simulation time: 0 hr 19 min 13 sec) 
Heartbeat CPU 0 instructions: 131000003 cycles: 372749004 heartbeat IPC: 0.239356 cumulative IPC: 0.349152 (Simulation time: 0 hr 19 min 24 sec) 
Heartbeat CPU 0 instructions: 132000000 cycles: 378991213 heartbeat IPC: 0.160199 cumulative IPC: 0.346036 (Simulation time: 0 hr 19 min 38 sec) 
Heartbeat CPU 0 instructions: 133000002 cycles: 381111836 heartbeat IPC: 0.47156 cumulative IPC: 0.346735 (Simulation time: 0 hr 19 min 47 sec) 
Heartbeat CPU 0 instructions: 134000000 cycles: 383121718 heartbeat IPC: 0.497541 cumulative IPC: 0.347527 (Simulation time: 0 hr 19 min 54 sec) 
Heartbeat CPU 0 instructions: 135000002 cycles: 384774828 heartbeat IPC: 0.604922 cumulative IPC: 0.348634 (Simulation time: 0 hr 20 min 2 sec) 
Heartbeat CPU 0 instructions: 136000002 cycles: 386474153 heartbeat IPC: 0.588469 cumulative IPC: 0.34969 (Simulation time: 0 hr 20 min 9 sec) 
Heartbeat CPU 0 instructions: 137000002 cycles: 388483330 heartbeat IPC: 0.497716 cumulative IPC: 0.350456 (Simulation time: 0 hr 20 min 17 sec) 
Heartbeat CPU 0 instructions: 138000001 cycles: 390477628 heartbeat IPC: 0.501429 cumulative IPC: 0.351228 (Simulation time: 0 hr 20 min 26 sec) 
Heartbeat CPU 0 instructions: 139000001 cycles: 393535914 heartbeat IPC: 0.326981 cumulative IPC: 0.35104 (Simulation time: 0 hr 20 min 35 sec) 
Heartbeat CPU 0 instructions: 140000000 cycles: 396722769 heartbeat IPC: 0.313789 cumulative IPC: 0.35074 (Simulation time: 0 hr 20 min 45 sec) 
Heartbeat CPU 0 instructions: 141000000 cycles: 398570080 heartbeat IPC: 0.541327 cumulative IPC: 0.351624 (Simulation time: 0 hr 20 min 52 sec) 
Heartbeat CPU 0 instructions: 142000000 cycles: 400341130 heartbeat IPC: 0.564637 cumulative IPC: 0.352568 (Simulation time: 0 hr 20 min 59 sec) 
Heartbeat CPU 0 instructions: 143000000 cycles: 402764189 heartbeat IPC: 0.412701 cumulative IPC: 0.35293 (Simulation time: 0 hr 21 min 8 sec) 
Heartbeat CPU 0 instructions: 144000001 cycles: 404782705 heartbeat IPC: 0.495414 cumulative IPC: 0.353641 (Simulation time: 0 hr 21 min 16 sec) 
Heartbeat CPU 0 instructions: 145000002 cycles: 407457619 heartbeat IPC: 0.373844 cumulative IPC: 0.353774 (Simulation time: 0 hr 21 min 24 sec) 
Heartbeat CPU 0 instructions: 146000002 cycles: 409656638 heartbeat IPC: 0.454748 cumulative IPC: 0.354317 (Simulation time: 0 hr 21 min 32 sec) 
Heartbeat CPU 0 instructions: 147000000 cycles: 413809431 heartbeat IPC: 0.240801 cumulative IPC: 0.353176 (Simulation time: 0 hr 21 min 43 sec) 
Heartbeat CPU 0 instructions: 148000003 cycles: 415642760 heartbeat IPC: 0.545457 cumulative IPC: 0.354025 (Simulation time: 0 hr 21 min 50 sec) 
Heartbeat CPU 0 instructions: 149000003 cycles: 417411372 heartbeat IPC: 0.565415 cumulative IPC: 0.354922 (Simulation time: 0 hr 21 min 58 sec) 
Heartbeat CPU 0 instructions: 150000002 cycles: 419644060 heartbeat IPC: 0.44789 cumulative IPC: 0.355417 (Simulation time: 0 hr 22 min 6 sec) 
Heartbeat CPU 0 instructions: 151000002 cycles: 421747003 heartbeat IPC: 0.475524 cumulative IPC: 0.356016 (Simulation time: 0 hr 22 min 14 sec) 
Heartbeat CPU 0 instructions: 152000000 cycles: 423867566 heartbeat IPC: 0.471572 cumulative IPC: 0.356595 (Simulation time: 0 hr 22 min 22 sec) 
Heartbeat CPU 0 instructions: 153000002 cycles: 426244548 heartbeat IPC: 0.420702 cumulative IPC: 0.356953 (Simulation time: 0 hr 22 min 30 sec) 
Heartbeat CPU 0 instructions: 154000000 cycles: 431081138 heartbeat IPC: 0.206757 cumulative IPC: 0.355266 (Simulation time: 0 hr 22 min 42 sec) 
Heartbeat CPU 0 instructions: 155000001 cycles: 433515908 heartbeat IPC: 0.410717 cumulative IPC: 0.355578 (Simulation time: 0 hr 22 min 50 sec) 
Heartbeat CPU 0 instructions: 156000001 cycles: 435411900 heartbeat IPC: 0.527428 cumulative IPC: 0.356327 (Simulation time: 0 hr 22 min 58 sec) 
Heartbeat CPU 0 instructions: 157000001 cycles: 438268854 heartbeat IPC: 0.350023 cumulative IPC: 0.356286 (Simulation time: 0 hr 23 min 6 sec) 
Heartbeat CPU 0 instructions: 158000001 cycles: 440418638 heartbeat IPC: 0.465163 cumulative IPC: 0.356818 (Simulation time: 0 hr 23 min 14 sec) 
Heartbeat CPU 0 instructions: 159000003 cycles: 442772896 heartbeat IPC: 0.424763 cumulative IPC: 0.357179 (Simulation time: 0 hr 23 min 22 sec) 
Heartbeat CPU 0 instructions: 160000001 cycles: 445259893 heartbeat IPC: 0.402091 cumulative IPC: 0.35743 (Simulation time: 0 hr 23 min 30 sec) 
Heartbeat CPU 0 instructions: 161000003 cycles: 449167990 heartbeat IPC: 0.25588 cumulative IPC: 0.356546 (Simulation time: 0 hr 23 min 41 sec) 
Heartbeat CPU 0 instructions: 162000000 cycles: 456010639 heartbeat IPC: 0.146142 cumulative IPC: 0.353386 (Simulation time: 0 hr 23 min 55 sec) 
Heartbeat CPU 0 instructions: 163000001 cycles: 458670785 heartbeat IPC: 0.37592 cumulative IPC: 0.353517 (Simulation time: 0 hr 24 min 3 sec) 
Heartbeat CPU 0 instructions: 164000002 cycles: 460566993 heartbeat IPC: 0.527369 cumulative IPC: 0.354233 (Simulation time: 0 hr 24 min 11 sec) 
Heartbeat CPU 0 instructions: 165000000 cycles: 462411055 heartbeat IPC: 0.54228 cumulative IPC: 0.354984 (Simulation time: 0 hr 24 min 19 sec) 
Heartbeat CPU 0 instructions: 166000001 cycles: 464759224 heartbeat IPC: 0.425864 cumulative IPC: 0.355342 (Simulation time: 0 hr 24 min 27 sec) 
Heartbeat CPU 0 instructions: 167000002 cycles: 466720135 heartbeat IPC: 0.509968 cumulative IPC: 0.355992 (Simulation time: 0 hr 24 min 35 sec) 
Heartbeat CPU 0 instructions: 168000001 cycles: 468763517 heartbeat IPC: 0.489384 cumulative IPC: 0.356574 (Simulation time: 0 hr 24 min 42 sec) 
Heartbeat CPU 0 instructions: 169000000 cycles: 471260557 heartbeat IPC: 0.400474 cumulative IPC: 0.356807 (Simulation time: 0 hr 24 min 50 sec) 
Heartbeat CPU 0 instructions: 170000001 cycles: 475104803 heartbeat IPC: 0.260129 cumulative IPC: 0.356024 (Simulation time: 0 hr 25 min 0 sec) 
Heartbeat CPU 0 instructions: 171000002 cycles: 477158404 heartbeat IPC: 0.48695 cumulative IPC: 0.356588 (Simulation time: 0 hr 25 min 8 sec) 
Heartbeat CPU 0 instructions: 172000003 cycles: 479035653 heartbeat IPC: 0.532695 cumulative IPC: 0.357279 (Simulation time: 0 hr 25 min 15 sec) 
Heartbeat CPU 0 instructions: 173000000 cycles: 480919985 heartbeat IPC: 0.53069 cumulative IPC: 0.357959 (Simulation time: 0 hr 25 min 23 sec) 
Heartbeat CPU 0 instructions: 174000003 cycles: 483460309 heartbeat IPC: 0.393652 cumulative IPC: 0.358147 (Simulation time: 0 hr 25 min 31 sec) 
Heartbeat CPU 0 instructions: 175000000 cycles: 485816814 heartbeat IPC: 0.424356 cumulative IPC: 0.358468 (Simulation time: 0 hr 25 min 39 sec) 
Heartbeat CPU 0 instructions: 176000000 cycles: 490672283 heartbeat IPC: 0.205953 cumulative IPC: 0.356958 (Simulation time: 0 hr 25 min 51 sec) 
Heartbeat CPU 0 instructions: 177000000 cycles: 496198454 heartbeat IPC: 0.180957 cumulative IPC: 0.354996 (Simulation time: 0 hr 26 min 5 sec) 
Heartbeat CPU 0 instructions: 178000001 cycles: 498344206 heartbeat IPC: 0.466038 cumulative IPC: 0.355474 (Simulation time: 0 hr 26 min 12 sec) 
Heartbeat CPU 0 instructions: 179000002 cycles: 500182721 heartbeat IPC: 0.543918 cumulative IPC: 0.356168 (Simulation time: 0 hr 26 min 20 sec) 
Heartbeat CPU 0 instructions: 180000001 cycles: 502064409 heartbeat IPC: 0.531437 cumulative IPC: 0.356825 (Simulation time: 0 hr 26 min 27 sec) 
Heartbeat CPU 0 instructions: 181000000 cycles: 503970193 heartbeat IPC: 0.524718 cumulative IPC: 0.35746 (Simulation time: 0 hr 26 min 35 sec) 
Heartbeat CPU 0 instructions: 182000001 cycles: 505930773 heartbeat IPC: 0.510054 cumulative IPC: 0.358052 (Simulation time: 0 hr 26 min 42 sec) 
Heartbeat CPU 0 instructions: 183000003 cycles: 509628351 heartbeat IPC: 0.270448 cumulative IPC: 0.357416 (Simulation time: 0 hr 26 min 52 sec) 
Heartbeat CPU 0 instructions: 184000000 cycles: 516369788 heartbeat IPC: 0.148336 cumulative IPC: 0.354684 (Simulation time: 0 hr 27 min 7 sec) 
Heartbeat CPU 0 instructions: 185000000 cycles: 518682363 heartbeat IPC: 0.432418 cumulative IPC: 0.355031 (Simulation time: 0 hr 27 min 15 sec) 
Heartbeat CPU 0 instructions: 186000003 cycles: 520576735 heartbeat IPC: 0.527881 cumulative IPC: 0.355661 (Simulation time: 0 hr 27 min 22 sec) 
Heartbeat CPU 0 instructions: 187000000 cycles: 522661468 heartbeat IPC: 0.479676 cumulative IPC: 0.356156 (Simulation time: 0 hr 27 min 30 sec) 
Heartbeat CPU 0 instructions: 188000000 cycles: 525036156 heartbeat IPC: 0.421108 cumulative IPC: 0.35645 (Simulation time: 0 hr 27 min 38 sec) 
Heartbeat CPU 0 instructions: 189000000 cycles: 527259308 heartbeat IPC: 0.449812 cumulative IPC: 0.356844 (Simulation time: 0 hr 27 min 46 sec) 
Heartbeat CPU 0 instructions: 190000001 cycles: 529255249 heartbeat IPC: 0.501017 cumulative IPC: 0.357388 (Simulation time: 0 hr 27 min 54 sec) 
Heartbeat CPU 0 instructions: 191000000 cycles: 534581134 heartbeat IPC: 0.187762 cumulative IPC: 0.355697 (Simulation time: 0 hr 28 min 7 sec) 
Heartbeat CPU 0 instructions: 192000001 cycles: 541281050 heartbeat IPC: 0.149256 cumulative IPC: 0.353139 (Simulation time: 0 hr 28 min 22 sec) 
Heartbeat CPU 0 instructions: 193000001 cycles: 548268559 heartbeat IPC: 0.143113 cumulative IPC: 0.350461 (Simulation time: 0 hr 28 min 37 sec) 
Heartbeat CPU 0 instructions: 194000000 cycles: 551526409 heartbeat IPC: 0.306951 cumulative IPC: 0.350203 (Simulation time: 0 hr 28 min 46 sec) 
Heartbeat CPU 0 instructions: 195000000 cycles: 553260079 heartbeat IPC: 0.576811 cumulative IPC: 0.350914 (Simulation time: 0 hr 28 min 54 sec) 
Heartbeat CPU 0 instructions: 196000001 cycles: 554955813 heartbeat IPC: 0.589716 cumulative IPC: 0.351644 (Simulation time: 0 hr 29 min 1 sec) 
Heartbeat CPU 0 instructions: 197000002 cycles: 556740790 heartbeat IPC: 0.560232 cumulative IPC: 0.352313 (Simulation time: 0 hr 29 min 8 sec) 
Heartbeat CPU 0 instructions: 198000000 cycles: 558573642 heartbeat IPC: 0.545597 cumulative IPC: 0.352948 (Simulation time: 0 hr 29 min 16 sec) 
Heartbeat CPU 0 instructions: 199000000 cycles: 560605094 heartbeat IPC: 0.492259 cumulative IPC: 0.353453 (Simulation time: 0 hr 29 min 23 sec) 
Heartbeat CPU 0 instructions: 200000001 cycles: 566532890 heartbeat IPC: 0.168697 cumulative IPC: 0.351519 (Simulation time: 0 hr 29 min 37 sec) 
Heartbeat CPU 0 instructions: 201000000 cycles: 570849975 heartbeat IPC: 0.231638 cumulative IPC: 0.350611 (Simulation time: 0 hr 29 min 48 sec) 
Heartbeat CPU 0 instructions: 202000000 cycles: 573566818 heartbeat IPC: 0.368074 cumulative IPC: 0.350694 (Simulation time: 0 hr 29 min 56 sec) 
Heartbeat CPU 0 instructions: 203000000 cycles: 575506247 heartbeat IPC: 0.515616 cumulative IPC: 0.35125 (Simulation time: 0 hr 30 min 4 sec) 
Heartbeat CPU 0 instructions: 204000000 cycles: 577975496 heartbeat IPC: 0.404981 cumulative IPC: 0.35148 (Simulation time: 0 hr 30 min 12 sec) 
Heartbeat CPU 0 instructions: 205000000 cycles: 580785985 heartbeat IPC: 0.35581 cumulative IPC: 0.351501 (Simulation time: 0 hr 30 min 21 sec) 
Heartbeat CPU 0 instructions: 206000002 cycles: 583702641 heartbeat IPC: 0.342859 cumulative IPC: 0.351458 (Simulation time: 0 hr 30 min 30 sec) 
Heartbeat CPU 0 instructions: 207000001 cycles: 586787817 heartbeat IPC: 0.32413 cumulative IPC: 0.351314 (Simulation time: 0 hr 30 min 39 sec) 
Heartbeat CPU 0 instructions: 208000001 cycles: 592776699 heartbeat IPC: 0.166976 cumulative IPC: 0.34945 (Simulation time: 0 hr 30 min 53 sec) 
Heartbeat CPU 0 instructions: 209000000 cycles: 599826406 heartbeat IPC: 0.14185 cumulative IPC: 0.347009 (Simulation time: 0 hr 31 min 9 sec) 
Heartbeat CPU 0 instructions: 210000000 cycles: 603343007 heartbeat IPC: 0.284366 cumulative IPC: 0.346643 (Simulation time: 0 hr 31 min 18 sec) 
Heartbeat CPU 0 instructions: 211000003 cycles: 605509221 heartbeat IPC: 0.461636 cumulative IPC: 0.347055 (Simulation time: 0 hr 31 min 26 sec) 
Heartbeat CPU 0 instructions: 212000001 cycles: 607411817 heartbeat IPC: 0.525597 cumulative IPC: 0.347615 (Simulation time: 0 hr 31 min 33 sec) 
Heartbeat CPU 0 instructions: 213000000 cycles: 609297299 heartbeat IPC: 0.530368 cumulative IPC: 0.348181 (Simulation time: 0 hr 31 min 41 sec) 
Heartbeat CPU 0 instructions: 214000000 cycles: 611137718 heartbeat IPC: 0.543355 cumulative IPC: 0.348769 (Simulation time: 0 hr 31 min 48 sec) 
Heartbeat CPU 0 instructions: 215000000 cycles: 613113823 heartbeat IPC: 0.506046 cumulative IPC: 0.349276 (Simulation time: 0 hr 31 min 56 sec) 
Heartbeat CPU 0 instructions: 216000001 cycles: 615366002 heartbeat IPC: 0.444015 cumulative IPC: 0.349623 (Simulation time: 0 hr 32 min 4 sec) 
Heartbeat CPU 0 instructions: 217000003 cycles: 621288461 heartbeat IPC: 0.168849 cumulative IPC: 0.347899 (Simulation time: 0 hr 32 min 18 sec) 
Heartbeat CPU 0 instructions: 218000001 cycles: 625187653 heartbeat IPC: 0.256463 cumulative IPC: 0.347328 (Simulation time: 0 hr 32 min 28 sec) 
Heartbeat CPU 0 instructions: 219000000 cycles: 626947848 heartbeat IPC: 0.568118 cumulative IPC: 0.347948 (Simulation time: 0 hr 32 min 35 sec) 
Heartbeat CPU 0 instructions: 220000000 cycles: 628930192 heartbeat IPC: 0.504453 cumulative IPC: 0.348442 (Simulation time: 0 hr 32 min 43 sec) 
Heartbeat CPU 0 instructions: 221000000 cycles: 631571508 heartbeat IPC: 0.378599 cumulative IPC: 0.348568 (Simulation time: 0 hr 32 min 51 sec) 
Heartbeat CPU 0 instructions: 222000001 cycles: 633576882 heartbeat IPC: 0.498661 cumulative IPC: 0.349044 (Simulation time: 0 hr 32 min 59 sec) 
Heartbeat CPU 0 instructions: 223000000 cycles: 635692740 heartbeat IPC: 0.472621 cumulative IPC: 0.349455 (Simulation time: 0 hr 33 min 7 sec) 
Heartbeat CPU 0 instructions: 224000000 cycles: 637813159 heartbeat IPC: 0.471605 cumulative IPC: 0.349861 (Simulation time: 0 hr 33 min 15 sec) 
Heartbeat CPU 0 instructions: 225000001 cycles: 642104480 heartbeat IPC: 0.233029 cumulative IPC: 0.34908 (Simulation time: 0 hr 33 min 26 sec) 
Heartbeat CPU 0 instructions: 226000002 cycles: 644704811 heartbeat IPC: 0.384567 cumulative IPC: 0.349223 (Simulation time: 0 hr 33 min 34 sec) 
Heartbeat CPU 0 instructions: 227000002 cycles: 646826036 heartbeat IPC: 0.471426 cumulative IPC: 0.349624 (Simulation time: 0 hr 33 min 42 sec) 
Heartbeat CPU 0 instructions: 228000000 cycles: 649198772 heartbeat IPC: 0.421454 cumulative IPC: 0.349887 (Simulation time: 0 hr 33 min 50 sec) 
Heartbeat CPU 0 instructions: 229000000 cycles: 651776905 heartbeat IPC: 0.387878 cumulative IPC: 0.350037 (Simulation time: 0 hr 33 min 59 sec) 
Heartbeat CPU 0 instructions: 230000000 cycles: 654303713 heartbeat IPC: 0.395756 cumulative IPC: 0.350214 (Simulation time: 0 hr 34 min 7 sec) 
Heartbeat CPU 0 instructions: 231000000 cycles: 656889274 heartbeat IPC: 0.386763 cumulative IPC: 0.350358 (Simulation time: 0 hr 34 min 16 sec) 
Heartbeat CPU 0 instructions: 232000000 cycles: 660938168 heartbeat IPC: 0.246981 cumulative IPC: 0.349724 (Simulation time: 0 hr 34 min 27 sec) 
Heartbeat CPU 0 instructions: 233000003 cycles: 663138219 heartbeat IPC: 0.454536 cumulative IPC: 0.350072 (Simulation time: 0 hr 34 min 35 sec) 
Heartbeat CPU 0 instructions: 234000000 cycles: 665415425 heartbeat IPC: 0.439133 cumulative IPC: 0.350377 (Simulation time: 0 hr 34 min 43 sec) 
Heartbeat CPU 0 instructions: 235000000 cycles: 667930273 heartbeat IPC: 0.397638 cumulative IPC: 0.350555 (Simulation time: 0 hr 34 min 51 sec) 
Heartbeat CPU 0 instructions: 236000001 cycles: 670846291 heartbeat IPC: 0.342934 cumulative IPC: 0.350522 (Simulation time: 0 hr 35 min 1 sec) 
Heartbeat CPU 0 instructions: 237000001 cycles: 672667611 heartbeat IPC: 0.549052 cumulative IPC: 0.35106 (Simulation time: 0 hr 35 min 9 sec) 
Heartbeat CPU 0 instructions: 238000000 cycles: 675072218 heartbeat IPC: 0.415868 cumulative IPC: 0.351291 (Simulation time: 0 hr 35 min 17 sec) 
Heartbeat CPU 0 instructions: 239000001 cycles: 679725673 heartbeat IPC: 0.214894 cumulative IPC: 0.350357 (Simulation time: 0 hr 35 min 29 sec) 
Heartbeat CPU 0 instructions: 240000000 cycles: 681558068 heartbeat IPC: 0.545733 cumulative IPC: 0.350882 (Simulation time: 0 hr 35 min 37 sec) 
Heartbeat CPU 0 instructions: 241000001 cycles: 683232486 heartbeat IPC: 0.597223 cumulative IPC: 0.351486 (Simulation time: 0 hr 35 min 44 sec) 
Heartbeat CPU 0 instructions: 242000000 cycles: 685149957 heartbeat IPC: 0.52152 cumulative IPC: 0.351963 (Simulation time: 0 hr 35 min 52 sec) 
Heartbeat CPU 0 instructions: 243000000 cycles: 687814983 heartbeat IPC: 0.375231 cumulative IPC: 0.352053 (Simulation time: 0 hr 36 min 1 sec) 
Heartbeat CPU 0 instructions: 244000001 cycles: 690626713 heartbeat IPC: 0.355653 cumulative IPC: 0.352067 (Simulation time: 0 hr 36 min 10 sec) 
Heartbeat CPU 0 instructions: 245000001 cycles: 692954746 heartbeat IPC: 0.429547 cumulative IPC: 0.352328 (Simulation time: 0 hr 36 min 18 sec) 
Heartbeat CPU 0 instructions: 246000002 cycles: 698394830 heartbeat IPC: 0.183821 cumulative IPC: 0.351015 (Simulation time: 0 hr 36 min 31 sec) 
Heartbeat CPU 0 instructions: 247000001 cycles: 705053654 heartbeat IPC: 0.150177 cumulative IPC: 0.349117 (Simulation time: 0 hr 36 min 45 sec) 
Heartbeat CPU 0 instructions: 248000001 cycles: 709226901 heartbeat IPC: 0.239622 cumulative IPC: 0.348472 (Simulation time: 0 hr 36 min 56 sec) 
Heartbeat CPU 0 instructions: 249000000 cycles: 711135488 heartbeat IPC: 0.523947 cumulative IPC: 0.348943 (Simulation time: 0 hr 37 min 4 sec) 
Heartbeat CPU 0 instructions: 250000001 cycles: 713645054 heartbeat IPC: 0.398476 cumulative IPC: 0.349117 (Simulation time: 0 hr 37 min 12 sec) 
Heartbeat CPU 0 instructions: 251000000 cycles: 715848380 heartbeat IPC: 0.453859 cumulative IPC: 0.34944 (Simulation time: 0 hr 37 min 20 sec) 
Heartbeat CPU 0 instructions: 252000002 cycles: 717890829 heartbeat IPC: 0.489609 cumulative IPC: 0.349839 (Simulation time: 0 hr 37 min 27 sec) 
Heartbeat CPU 0 instructions: 253000000 cycles: 719751140 heartbeat IPC: 0.537543 cumulative IPC: 0.350324 (Simulation time: 0 hr 37 min 35 sec) 
Heartbeat CPU 0 instructions: 254000001 cycles: 722344558 heartbeat IPC: 0.385592 cumulative IPC: 0.350451 (Simulation time: 0 hr 37 min 44 sec) 
Heartbeat CPU 0 instructions: 255000001 cycles: 725734540 heartbeat IPC: 0.294987 cumulative IPC: 0.350192 (Simulation time: 0 hr 37 min 53 sec) 
Heartbeat CPU 0 instructions: 256000000 cycles: 727477320 heartbeat IPC: 0.573795 cumulative IPC: 0.350728 (Simulation time: 0 hr 38 min 1 sec) 
Heartbeat CPU 0 instructions: 257000001 cycles: 729353540 heartbeat IPC: 0.532987 cumulative IPC: 0.351197 (Simulation time: 0 hr 38 min 8 sec) 
Heartbeat CPU 0 instructions: 258000001 cycles: 731660522 heartbeat IPC: 0.433467 cumulative IPC: 0.351457 (Simulation time: 0 hr 38 min 16 sec) 
Heartbeat CPU 0 instructions: 259000002 cycles: 733563484 heartbeat IPC: 0.525497 cumulative IPC: 0.351908 (Simulation time: 0 hr 38 min 23 sec) 
Heartbeat CPU 0 instructions: 260000001 cycles: 735847506 heartbeat IPC: 0.437824 cumulative IPC: 0.352175 (Simulation time: 0 hr 38 min 31 sec) 
Heartbeat CPU 0 instructions: 261000000 cycles: 738727694 heartbeat IPC: 0.347199 cumulative IPC: 0.352156 (Simulation time: 0 hr 38 min 40 sec) 
Heartbeat CPU 0 instructions: 262000002 cycles: 742772011 heartbeat IPC: 0.247261 cumulative IPC: 0.351584 (Simulation time: 0 hr 38 min 51 sec) 
Heartbeat CPU 0 instructions: 263000002 cycles: 745422504 heartbeat IPC: 0.377288 cumulative IPC: 0.351676 (Simulation time: 0 hr 38 min 59 sec) 
Heartbeat CPU 0 instructions: 264000000 cycles: 748198147 heartbeat IPC: 0.360276 cumulative IPC: 0.351708 (Simulation time: 0 hr 39 min 8 sec) 
Heartbeat CPU 0 instructions: 265000003 cycles: 751574231 heartbeat IPC: 0.296202 cumulative IPC: 0.351458 (Simulation time: 0 hr 39 min 18 sec) 
Heartbeat CPU 0 instructions: 266000002 cycles: 753632310 heartbeat IPC: 0.48589 cumulative IPC: 0.351826 (Simulation time: 0 hr 39 min 26 sec) 
Heartbeat CPU 0 instructions: 267000000 cycles: 755698062 heartbeat IPC: 0.484084 cumulative IPC: 0.352187 (Simulation time: 0 hr 39 min 34 sec) 
Heartbeat CPU 0 instructions: 268000003 cycles: 758459303 heartbeat IPC: 0.362157 cumulative IPC: 0.352224 (Simulation time: 0 hr 39 min 42 sec) 
Heartbeat CPU 0 instructions: 269000000 cycles: 763520786 heartbeat IPC: 0.19757 cumulative IPC: 0.351198 (Simulation time: 0 hr 39 min 55 sec) 
Heartbeat CPU 0 instructions: 270000002 cycles: 766284696 heartbeat IPC: 0.361807 cumulative IPC: 0.351236 (Simulation time: 0 hr 40 min 3 sec) 
Heartbeat CPU 0 instructions: 271000000 cycles: 768716421 heartbeat IPC: 0.41123 cumulative IPC: 0.351426 (Simulation time: 0 hr 40 min 11 sec) 
Heartbeat CPU 0 instructions: 272000001 cycles: 770994372 heartbeat IPC: 0.438991 cumulative IPC: 0.351685 (Simulation time: 0 hr 40 min 19 sec) 
Heartbeat CPU 0 instructions: 273000000 cycles: 772940638 heartbeat IPC: 0.513804 cumulative IPC: 0.352093 (Simulation time: 0 hr 40 min 27 sec) 
Heartbeat CPU 0 instructions: 274000002 cycles: 775085571 heartbeat IPC: 0.466216 cumulative IPC: 0.352409 (Simulation time: 0 hr 40 min 34 sec) 
Heartbeat CPU 0 instructions: 275000000 cycles: 777275721 heartbeat IPC: 0.456589 cumulative IPC: 0.352703 (Simulation time: 0 hr 40 min 41 sec) 
Heartbeat CPU 0 instructions: 276000003 cycles: 783080441 heartbeat IPC: 0.172274 cumulative IPC: 0.351365 (Simulation time: 0 hr 40 min 55 sec) 
Heartbeat CPU 0 instructions: 277000001 cycles: 787819171 heartbeat IPC: 0.211027 cumulative IPC: 0.35052 (Simulation time: 0 hr 41 min 7 sec) 
Heartbeat CPU 0 instructions: 278000000 cycles: 789869669 heartbeat IPC: 0.487686 cumulative IPC: 0.350876 (Simulation time: 0 hr 41 min 14 sec) 
Heartbeat CPU 0 instructions: 279000001 cycles: 791672466 heartbeat IPC: 0.554694 cumulative IPC: 0.351341 (Simulation time: 0 hr 41 min 22 sec) 
Heartbeat CPU 0 instructions: 280000002 cycles: 794129455 heartbeat IPC: 0.407003 cumulative IPC: 0.351513 (Simulation time: 0 hr 41 min 31 sec) 
Heartbeat CPU 0 instructions: 281000002 cycles: 797318486 heartbeat IPC: 0.313575 cumulative IPC: 0.351361 (Simulation time: 0 hr 41 min 40 sec) 
Heartbeat CPU 0 instructions: 282000000 cycles: 800412564 heartbeat IPC: 0.323197 cumulative IPC: 0.351252 (Simulation time: 0 hr 41 min 49 sec) 
Heartbeat CPU 0 instructions: 283000003 cycles: 803002892 heartbeat IPC: 0.386053 cumulative IPC: 0.351365 (Simulation time: 0 hr 41 min 58 sec) 
Heartbeat CPU 0 instructions: 284000000 cycles: 808707203 heartbeat IPC: 0.175305 cumulative IPC: 0.350122 (Simulation time: 0 hr 42 min 12 sec) 
Heartbeat CPU 0 instructions: 285000002 cycles: 815553985 heartbeat IPC: 0.146054 cumulative IPC: 0.348408 (Simulation time: 0 hr 42 min 27 sec) 
Heartbeat CPU 0 instructions: 286000000 cycles: 818918550 heartbeat IPC: 0.297215 cumulative IPC: 0.348198 (Simulation time: 0 hr 42 min 38 sec) 
Heartbeat CPU 0 instructions: 287000002 cycles: 820642154 heartbeat IPC: 0.580181 cumulative IPC: 0.348685 (Simulation time: 0 hr 42 min 46 sec) 
Heartbeat CPU 0 instructions: 288000002 cycles: 822795018 heartbeat IPC: 0.464498 cumulative IPC: 0.348988 (Simulation time: 0 hr 42 min 54 sec) 
Heartbeat CPU 0 instructions: 289000000 cycles: 825021094 heartbeat IPC: 0.44922 cumulative IPC: 0.349259 (Simulation time: 0 hr 43 min 2 sec) 
Heartbeat CPU 0 instructions: 290000001 cycles: 826946848 heartbeat IPC: 0.519278 cumulative IPC: 0.349655 (Simulation time: 0 hr 43 min 10 sec) 
Heartbeat CPU 0 instructions: 291000001 cycles: 828833087 heartbeat IPC: 0.530156 cumulative IPC: 0.350066 (Simulation time: 0 hr 43 min 18 sec) 
Heartbeat CPU 0 instructions: 292000000 cycles: 831866069 heartbeat IPC: 0.329708 cumulative IPC: 0.349992 (Simulation time: 0 hr 43 min 28 sec) 
Heartbeat CPU 0 instructions: 293000000 cycles: 838745695 heartbeat IPC: 0.145357 cumulative IPC: 0.348312 (Simulation time: 0 hr 43 min 43 sec) 
Heartbeat CPU 0 instructions: 294000000 cycles: 841574736 heartbeat IPC: 0.353477 cumulative IPC: 0.34833 (Simulation time: 0 hr 43 min 52 sec) 
Heartbeat CPU 0 instructions: 295000000 cycles: 844013252 heartbeat IPC: 0.410085 cumulative IPC: 0.348508 (Simulation time: 0 hr 44 min 1 sec) 
Heartbeat CPU 0 instructions: 296000000 cycles: 846494171 heartbeat IPC: 0.403076 cumulative IPC: 0.348668 (Simulation time: 0 hr 44 min 9 sec) 
Heartbeat CPU 0 instructions: 297000000 cycles: 848406071 heartbeat IPC: 0.52304 cumulative IPC: 0.349062 (Simulation time: 0 hr 44 min 17 sec) 
Heartbeat CPU 0 instructions: 298000001 cycles: 850256174 heartbeat IPC: 0.540511 cumulative IPC: 0.349478 (Simulation time: 0 hr 44 min 25 sec) 
Heartbeat CPU 0 instructions: 299000001 cycles: 852260996 heartbeat IPC: 0.498797 cumulative IPC: 0.34983 (Simulation time: 0 hr 44 min 34 sec) 
Heartbeat CPU 0 instructions: 300000000 cycles: 855544689 heartbeat IPC: 0.304535 cumulative IPC: 0.349656 (Simulation time: 0 hr 44 min 44 sec) 
Heartbeat CPU 0 instructions: 301000002 cycles: 862083585 heartbeat IPC: 0.152931 cumulative IPC: 0.348163 (Simulation time: 0 hr 45 min 0 sec) 
Heartbeat CPU 0 instructions: 302000000 cycles: 864286217 heartbeat IPC: 0.454001 cumulative IPC: 0.348433 (Simulation time: 0 hr 45 min 8 sec) 
Heartbeat CPU 0 instructions: 303000000 cycles: 866422490 heartbeat IPC: 0.468105 cumulative IPC: 0.348728 (Simulation time: 0 hr 45 min 16 sec) 
Heartbeat CPU 0 instructions: 304000000 cycles: 868323559 heartbeat IPC: 0.52602 cumulative IPC: 0.349116 (Simulation time: 0 hr 45 min 25 sec) 
Heartbeat CPU 0 instructions: 305000000 cycles: 870191396 heartbeat IPC: 0.535379 cumulative IPC: 0.349516 (Simulation time: 0 hr 45 min 33 sec) 
Heartbeat CPU 0 instructions: 306000001 cycles: 872263970 heartbeat IPC: 0.482492 cumulative IPC: 0.349832 (Simulation time: 0 hr 45 min 41 sec) 
Heartbeat CPU 0 instructions: 307000001 cycles: 874710603 heartbeat IPC: 0.408725 cumulative IPC: 0.349997 (Simulation time: 0 hr 45 min 49 sec) 
Heartbeat CPU 0 instructions: 308000000 cycles: 878429490 heartbeat IPC: 0.268897 cumulative IPC: 0.349654 (Simulation time: 0 hr 46 min 0 sec) 
Heartbeat CPU 0 instructions: 309000000 cycles: 881534929 heartbeat IPC: 0.322016 cumulative IPC: 0.349556 (Simulation time: 0 hr 46 min 10 sec) 
Heartbeat CPU 0 instructions: 310000000 cycles: 883912662 heartbeat IPC: 0.420569 cumulative IPC: 0.349747 (Simulation time: 0 hr 46 min 18 sec) 
Heartbeat CPU 0 instructions: 311000001 cycles: 885985855 heartbeat IPC: 0.482348 cumulative IPC: 0.350058 (Simulation time: 0 hr 46 min 28 sec) 
Heartbeat CPU 0 instructions: 312000001 cycles: 888137677 heartbeat IPC: 0.464722 cumulative IPC: 0.350336 (Simulation time: 0 hr 46 min 36 sec) 
Heartbeat CPU 0 instructions: 313000000 cycles: 890128702 heartbeat IPC: 0.502253 cumulative IPC: 0.350676 (Simulation time: 0 hr 46 min 45 sec) 
Heartbeat CPU 0 instructions: 314000001 cycles: 892742761 heartbeat IPC: 0.382547 cumulative IPC: 0.350769 (Simulation time: 0 hr 46 min 53 sec) 
Heartbeat CPU 0 instructions: 315000003 cycles: 897341746 heartbeat IPC: 0.21744 cumulative IPC: 0.350085 (Simulation time: 0 hr 47 min 5 sec) 
Heartbeat CPU 0 instructions: 316000002 cycles: 903977393 heartbeat IPC: 0.150701 cumulative IPC: 0.348621 (Simulation time: 0 hr 47 min 20 sec) 
Heartbeat CPU 0 instructions: 317000001 cycles: 910233333 heartbeat IPC: 0.159848 cumulative IPC: 0.347323 (Simulation time: 0 hr 47 min 35 sec) 
Heartbeat CPU 0 instructions: 318000002 cycles: 913405692 heartbeat IPC: 0.315223 cumulative IPC: 0.347212 (Simulation time: 0 hr 47 min 45 sec) 
Heartbeat CPU 0 instructions: 319000000 cycles: 915463737 heartbeat IPC: 0.485897 cumulative IPC: 0.347524 (Simulation time: 0 hr 47 min 53 sec) 
Heartbeat CPU 0 instructions: 320000003 cycles: 918026609 heartbeat IPC: 0.390188 cumulative IPC: 0.347643 (Simulation time: 0 hr 48 min 2 sec) 
Heartbeat CPU 0 instructions: 321000002 cycles: 920688600 heartbeat IPC: 0.375658 cumulative IPC: 0.347724 (Simulation time: 0 hr 48 min 10 sec) 
Heartbeat CPU 0 instructions: 322000000 cycles: 922926881 heartbeat IPC: 0.446771 cumulative IPC: 0.347964 (Simulation time: 0 hr 48 min 19 sec) 
Heartbeat CPU 0 instructions: 323000000 cycles: 925057521 heartbeat IPC: 0.469343 cumulative IPC: 0.348244 (Simulation time: 0 hr 48 min 28 sec) 
Heartbeat CPU 0 instructions: 324000001 cycles: 929852507 heartbeat IPC: 0.208551 cumulative IPC: 0.347523 (Simulation time: 0 hr 48 min 41 sec) 
Heartbeat CPU 0 instructions: 325000001 cycles: 932181100 heartbeat IPC: 0.429444 cumulative IPC: 0.347728 (Simulation time: 0 hr 48 min 49 sec) 
Heartbeat CPU 0 instructions: 326000000 cycles: 934229013 heartbeat IPC: 0.488302 cumulative IPC: 0.348036 (Simulation time: 0 hr 48 min 57 sec) 
Heartbeat CPU 0 instructions: 327000002 cycles: 936212380 heartbeat IPC: 0.504194 cumulative IPC: 0.348367 (Simulation time: 0 hr 49 min 6 sec) 
Heartbeat CPU 0 instructions: 328000003 cycles: 938243965 heartbeat IPC: 0.492227 cumulative IPC: 0.348679 (Simulation time: 0 hr 49 min 14 sec) 
Heartbeat CPU 0 instructions: 329000003 cycles: 940567756 heartbeat IPC: 0.430331 cumulative IPC: 0.348881 (Simulation time: 0 hr 49 min 23 sec) 
Heartbeat CPU 0 instructions: 330000000 cycles: 942397085 heartbeat IPC: 0.546647 cumulative IPC: 0.349265 (Simulation time: 0 hr 49 min 31 sec) 
Heartbeat CPU 0 instructions: 331000001 cycles: 946189170 heartbeat IPC: 0.263707 cumulative IPC: 0.348922 (Simulation time: 0 hr 49 min 42 sec) 
Heartbeat CPU 0 instructions: 332000001 cycles: 952700565 heartbeat IPC: 0.153577 cumulative IPC: 0.347586 (Simulation time: 0 hr 49 min 58 sec) 
Heartbeat CPU 0 instructions: 333000002 cycles: 958157009 heartbeat IPC: 0.18327 cumulative IPC: 0.34665 (Simulation time: 0 hr 50 min 11 sec) 
Heartbeat CPU 0 instructions: 334000003 cycles: 960000362 heartbeat IPC: 0.54249 cumulative IPC: 0.347026 (Simulation time: 0 hr 50 min 19 sec) 
Heartbeat CPU 0 instructions: 335000001 cycles: 962721875 heartbeat IPC: 0.367442 cumulative IPC: 0.347084 (Simulation time: 0 hr 50 min 28 sec) 
Heartbeat CPU 0 instructions: 336000001 cycles: 964842554 heartbeat IPC: 0.471547 cumulative IPC: 0.347357 (Simulation time: 0 hr 50 min 36 sec) 
Heartbeat CPU 0 instructions: 337000001 cycles: 967130373 heartbeat IPC: 0.437098 cumulative IPC: 0.34757 (Simulation time: 0 hr 50 min 44 sec) 
Heartbeat CPU 0 instructions: 338000002 cycles: 969780512 heartbeat IPC: 0.377339 cumulative IPC: 0.347651 (Simulation time: 0 hr 50 min 53 sec) 
Heartbeat CPU 0 instructions: 339000001 cycles: 971921893 heartbeat IPC: 0.466988 cumulative IPC: 0.347914 (Simulation time: 0 hr 51 min 1 sec) 
Heartbeat CPU 0 instructions: 340000000 cycles: 977461445 heartbeat IPC: 0.18052 cumulative IPC: 0.346965 (Simulation time: 0 hr 51 min 15 sec) 
Heartbeat CPU 0 instructions: 341000000 cycles: 984538337 heartbeat IPC: 0.141305 cumulative IPC: 0.345486 (Simulation time: 0 hr 51 min 31 sec) 
Heartbeat CPU 0 instructions: 342000000 cycles: 987802136 heartbeat IPC: 0.306391 cumulative IPC: 0.345357 (Simulation time: 0 hr 51 min 41 sec) 
Heartbeat CPU 0 instructions: 343000000 cycles: 990799762 heartbeat IPC: 0.333597 cumulative IPC: 0.345321 (Simulation time: 0 hr 51 min 50 sec) 
Heartbeat CPU 0 instructions: 344000003 cycles: 993294275 heartbeat IPC: 0.400881 cumulative IPC: 0.345461 (Simulation time: 0 hr 52 min 0 sec) 
Heartbeat CPU 0 instructions: 345000000 cycles: 995469910 heartbeat IPC: 0.459635 cumulative IPC: 0.345711 (Simulation time: 0 hr 52 min 8 sec) 
Heartbeat CPU 0 instructions: 346000001 cycles: 998174076 heartbeat IPC: 0.3698 cumulative IPC: 0.345776 (Simulation time: 0 hr 52 min 17 sec) 
Heartbeat CPU 0 instructions: 347000000 cycles: 1000092897 heartbeat IPC: 0.521153 cumulative IPC: 0.346113 (Simulation time: 0 hr 52 min 25 sec) 
Heartbeat CPU 0 instructions: 348000002 cycles: 1003124173 heartbeat IPC: 0.329895 cumulative IPC: 0.346063 (Simulation time: 0 hr 52 min 34 sec) 
Heartbeat CPU 0 instructions: 349000002 cycles: 1006346141 heartbeat IPC: 0.310369 cumulative IPC: 0.345949 (Simulation time: 0 hr 52 min 44 sec) 
Heartbeat CPU 0 instructions: 350000003 cycles: 1008451149 heartbeat IPC: 0.475058 cumulative IPC: 0.346219 (Simulation time: 0 hr 52 min 52 sec) 
Heartbeat CPU 0 instructions: 351000001 cycles: 1010361758 heartbeat IPC: 0.523392 cumulative IPC: 0.346554 (Simulation time: 0 hr 52 min 59 sec) 
Heartbeat CPU 0 instructions: 352000000 cycles: 1013252888 heartbeat IPC: 0.345885 cumulative IPC: 0.346552 (Simulation time: 0 hr 53 min 8 sec) 
Heartbeat CPU 0 instructions: 353000001 cycles: 1015555580 heartbeat IPC: 0.434275 cumulative IPC: 0.346751 (Simulation time: 0 hr 53 min 16 sec) 
Heartbeat CPU 0 instructions: 354000002 cycles: 1018250626 heartbeat IPC: 0.371052 cumulative IPC: 0.346815 (Simulation time: 0 hr 53 min 24 sec) 
Heartbeat CPU 0 instructions: 355000001 cycles: 1024655730 heartbeat IPC: 0.156125 cumulative IPC: 0.345623 (Simulation time: 0 hr 53 min 40 sec) 
Heartbeat CPU 0 instructions: 356000003 cycles: 1031472382 heartbeat IPC: 0.1467 cumulative IPC: 0.344308 (Simulation time: 0 hr 53 min 56 sec) 
Heartbeat CPU 0 instructions: 357000001 cycles: 1033966240 heartbeat IPC: 0.400984 cumulative IPC: 0.344444 (Simulation time: 0 hr 54 min 4 sec) 
Heartbeat CPU 0 instructions: 358000000 cycles: 1035899930 heartbeat IPC: 0.517145 cumulative IPC: 0.344767 (Simulation time: 0 hr 54 min 12 sec) 
Heartbeat CPU 0 instructions: 359000001 cycles: 1037850287 heartbeat IPC: 0.512727 cumulative IPC: 0.345083 (Simulation time: 0 hr 54 min 19 sec) 
Heartbeat CPU 0 instructions: 360000000 cycles: 1039983218 heartbeat IPC: 0.468838 cumulative IPC: 0.345337 (Simulation time: 0 hr 54 min 28 sec) 
Heartbeat CPU 0 instructions: 361000001 cycles: 1041837415 heartbeat IPC: 0.539318 cumulative IPC: 0.345682 (Simulation time: 0 hr 54 min 35 sec) 
Heartbeat CPU 0 instructions: 362000003 cycles: 1043979683 heartbeat IPC: 0.466796 cumulative IPC: 0.345931 (Simulation time: 0 hr 54 min 43 sec) 
Heartbeat CPU 0 instructions: 363000000 cycles: 1047850836 heartbeat IPC: 0.25832 cumulative IPC: 0.345607 (Simulation time: 0 hr 54 min 54 sec) 
Heartbeat CPU 0 instructions: 364000001 cycles: 1050402761 heartbeat IPC: 0.391861 cumulative IPC: 0.345719 (Simulation time: 0 hr 55 min 2 sec) 
Heartbeat CPU 0 instructions: 365000000 cycles: 1052427729 heartbeat IPC: 0.493834 cumulative IPC: 0.346004 (Simulation time: 0 hr 55 min 9 sec) 
Heartbeat CPU 0 instructions: 366000001 cycles: 1054144065 heartbeat IPC: 0.582637 cumulative IPC: 0.34639 (Simulation time: 0 hr 55 min 17 sec) 
Heartbeat CPU 0 instructions: 367000001 cycles: 1057295848 heartbeat IPC: 0.317281 cumulative IPC: 0.346303 (Simulation time: 0 hr 55 min 26 sec) 
Heartbeat CPU 0 instructions: 368000002 cycles: 1059816879 heartbeat IPC: 0.396664 cumulative IPC: 0.346423 (Simulation time: 0 hr 55 min 35 sec) 
Heartbeat CPU 0 instructions: 369000002 cycles: 1062689322 heartbeat IPC: 0.348136 cumulative IPC: 0.346428 (Simulation time: 0 hr 55 min 44 sec) 
Heartbeat CPU 0 instructions: 370000000 cycles: 1066118783 heartbeat IPC: 0.29159 cumulative IPC: 0.346251 (Simulation time: 0 hr 55 min 54 sec) 
Heartbeat CPU 0 instructions: 371000003 cycles: 1071562889 heartbeat IPC: 0.183685 cumulative IPC: 0.345425 (Simulation time: 0 hr 56 min 7 sec) 
Heartbeat CPU 0 instructions: 372000000 cycles: 1073427107 heartbeat IPC: 0.536416 cumulative IPC: 0.345757 (Simulation time: 0 hr 56 min 15 sec) 
Heartbeat CPU 0 instructions: 373000002 cycles: 1075742410 heartbeat IPC: 0.43191 cumulative IPC: 0.345942 (Simulation time: 0 hr 56 min 23 sec) 
Heartbeat CPU 0 instructions: 374000000 cycles: 1078132445 heartbeat IPC: 0.418403 cumulative IPC: 0.346103 (Simulation time: 0 hr 56 min 31 sec) 
Heartbeat CPU 0 instructions: 375000001 cycles: 1079926796 heartbeat IPC: 0.557305 cumulative IPC: 0.346454 (Simulation time: 0 hr 56 min 39 sec) 
Heartbeat CPU 0 instructions: 376000001 cycles: 1082051645 heartbeat IPC: 0.470622 cumulative IPC: 0.346698 (Simulation time: 0 hr 56 min 47 sec) 
Heartbeat CPU 0 instructions: 377000000 cycles: 1083778012 heartbeat IPC: 0.579251 cumulative IPC: 0.347068 (Simulation time: 0 hr 56 min 54 sec) 
Heartbeat CPU 0 instructions: 378000001 cycles: 1088211282 heartbeat IPC: 0.225567 cumulative IPC: 0.346573 (Simulation time: 0 hr 57 min 5 sec) 
Heartbeat CPU 0 instructions: 379000002 cycles: 1093741315 heartbeat IPC: 0.180831 cumulative IPC: 0.345735 (Simulation time: 0 hr 57 min 18 sec) 
Heartbeat CPU 0 instructions: 380000000 cycles: 1095574790 heartbeat IPC: 0.545411 cumulative IPC: 0.346069 (Simulation time: 0 hr 57 min 26 sec) 
Heartbeat CPU 0 instructions: 381000000 cycles: 1097278686 heartbeat IPC: 0.58689 cumulative IPC: 0.346443 (Simulation time: 0 hr 57 min 33 sec) 
Heartbeat CPU 0 instructions: 382000001 cycles: 1099471953 heartbeat IPC: 0.455941 cumulative IPC: 0.346662 (Simulation time: 0 hr 57 min 41 sec) 
Heartbeat CPU 0 instructions: 383000001 cycles: 1102079431 heartbeat IPC: 0.383512 cumulative IPC: 0.346749 (Simulation time: 0 hr 57 min 50 sec) 
Heartbeat CPU 0 instructions: 384000000 cycles: 1104770067 heartbeat IPC: 0.371659 cumulative IPC: 0.34681 (Simulation time: 0 hr 57 min 59 sec) 
Heartbeat CPU 0 instructions: 385000000 cycles: 1108657572 heartbeat IPC: 0.257234 cumulative IPC: 0.346495 (Simulation time: 0 hr 58 min 9 sec) 
Heartbeat CPU 0 instructions: 386000000 cycles: 1112330751 heartbeat IPC: 0.272244 cumulative IPC: 0.34625 (Simulation time: 0 hr 58 min 19 sec) 
Heartbeat CPU 0 instructions: 387000003 cycles: 1114333580 heartbeat IPC: 0.499295 cumulative IPC: 0.346525 (Simulation time: 0 hr 58 min 27 sec) 
Heartbeat CPU 0 instructions: 388000003 cycles: 1116369763 heartbeat IPC: 0.491115 cumulative IPC: 0.346789 (Simulation time: 0 hr 58 min 35 sec) 
Heartbeat CPU 0 instructions: 389000002 cycles: 1119121460 heartbeat IPC: 0.363412 cumulative IPC: 0.34683 (Simulation time: 0 hr 58 min 44 sec) 
Heartbeat CPU 0 instructions: 390000003 cycles: 1122227033 heartbeat IPC: 0.322002 cumulative IPC: 0.346761 (Simulation time: 0 hr 58 min 53 sec) 
Heartbeat CPU 0 instructions: 391000000 cycles: 1124608412 heartbeat IPC: 0.419923 cumulative IPC: 0.346916 (Simulation time: 0 hr 59 min 1 sec) 
Heartbeat CPU 0 instructions: 392000000 cycles: 1127321844 heartbeat IPC: 0.368537 cumulative IPC: 0.346968 (Simulation time: 0 hr 59 min 10 sec) 
Heartbeat CPU 0 instructions: 393000002 cycles: 1131277212 heartbeat IPC: 0.252821 cumulative IPC: 0.346639 (Simulation time: 0 hr 59 min 21 sec) 
Heartbeat CPU 0 instructions: 394000003 cycles: 1133813860 heartbeat IPC: 0.394221 cumulative IPC: 0.346746 (Simulation time: 0 hr 59 min 29 sec) 
Heartbeat CPU 0 instructions: 395000000 cycles: 1136372356 heartbeat IPC: 0.390853 cumulative IPC: 0.346845 (Simulation time: 0 hr 59 min 38 sec) 
Heartbeat CPU 0 instructions: 396000000 cycles: 1138509355 heartbeat IPC: 0.467946 cumulative IPC: 0.347072 (Simulation time: 0 hr 59 min 46 sec) 
Heartbeat CPU 0 instructions: 397000000 cycles: 1140911144 heartbeat IPC: 0.416356 cumulative IPC: 0.347218 (Simulation time: 0 hr 59 min 54 sec) 
Heartbeat CPU 0 instructions: 398000001 cycles: 1143039918 heartbeat IPC: 0.469754 cumulative IPC: 0.347447 (Simulation time: 1 hr 0 min 1 sec) 
Heartbeat CPU 0 instructions: 399000002 cycles: 1145796666 heartbeat IPC: 0.362747 cumulative IPC: 0.347483 (Simulation time: 1 hr 0 min 10 sec) 
Heartbeat CPU 0 instructions: 400000001 cycles: 1151735941 heartbeat IPC: 0.168371 cumulative IPC: 0.346559 (Simulation time: 1 hr 0 min 24 sec) 
Heartbeat CPU 0 instructions: 401000003 cycles: 1156263543 heartbeat IPC: 0.220868 cumulative IPC: 0.346067 (Simulation time: 1 hr 0 min 35 sec) 
Heartbeat CPU 0 instructions: 402000000 cycles: 1158829001 heartbeat IPC: 0.389793 cumulative IPC: 0.346164 (Simulation time: 1 hr 0 min 44 sec) 
Heartbeat CPU 0 instructions: 403000001 cycles: 1161038053 heartbeat IPC: 0.452683 cumulative IPC: 0.346367 (Simulation time: 1 hr 0 min 52 sec) 
Heartbeat CPU 0 instructions: 404000000 cycles: 1162891297 heartbeat IPC: 0.539594 cumulative IPC: 0.346675 (Simulation time: 1 hr 0 min 59 sec) 
Heartbeat CPU 0 instructions: 405000000 cycles: 1164677602 heartbeat IPC: 0.559815 cumulative IPC: 0.347002 (Simulation time: 1 hr 1 min 7 sec) 
Heartbeat CPU 0 instructions: 406000001 cycles: 1166431318 heartbeat IPC: 0.570218 cumulative IPC: 0.347337 (Simulation time: 1 hr 1 min 15 sec) 
Heartbeat CPU 0 instructions: 407000000 cycles: 1168453436 heartbeat IPC: 0.49453 cumulative IPC: 0.347592 (Simulation time: 1 hr 1 min 22 sec) 
Heartbeat CPU 0 instructions: 408000000 cycles: 1172534641 heartbeat IPC: 0.245026 cumulative IPC: 0.347235 (Simulation time: 1 hr 1 min 34 sec) 
Heartbeat CPU 0 instructions: 409000000 cycles: 1174788195 heartbeat IPC: 0.443744 cumulative IPC: 0.34742 (Simulation time: 1 hr 1 min 41 sec) 
Heartbeat CPU 0 instructions: 410000001 cycles: 1176734391 heartbeat IPC: 0.513823 cumulative IPC: 0.347696 (Simulation time: 1 hr 1 min 49 sec) 
Heartbeat CPU 0 instructions: 411000002 cycles: 1179013527 heartbeat IPC: 0.438763 cumulative IPC: 0.347872 (Simulation time: 1 hr 1 min 58 sec) 
Heartbeat CPU 0 instructions: 412000003 cycles: 1180956281 heartbeat IPC: 0.514734 cumulative IPC: 0.348146 (Simulation time: 1 hr 2 min 5 sec) 
Heartbeat CPU 0 instructions: 413000000 cycles: 1183052715 heartbeat IPC: 0.476999 cumulative IPC: 0.348375 (Simulation time: 1 hr 2 min 13 sec) 
Heartbeat CPU 0 instructions: 414000002 cycles: 1185528279 heartbeat IPC: 0.403949 cumulative IPC: 0.348491 (Simulation time: 1 hr 2 min 21 sec) 
Heartbeat CPU 0 instructions: 415000000 cycles: 1190161759 heartbeat IPC: 0.21582 cumulative IPC: 0.347974 (Simulation time: 1 hr 2 min 33 sec) 
Heartbeat CPU 0 instructions: 416000000 cycles: 1192044551 heartbeat IPC: 0.531126 cumulative IPC: 0.348263 (Simulation time: 1 hr 2 min 41 sec) 
Heartbeat CPU 0 instructions: 417000002 cycles: 1193770880 heartbeat IPC: 0.579265 cumulative IPC: 0.348598 (Simulation time: 1 hr 2 min 48 sec) 
Heartbeat CPU 0 instructions: 418000000 cycles: 1195666076 heartbeat IPC: 0.527649 cumulative IPC: 0.348882 (Simulation time: 1 hr 2 min 56 sec) 
Heartbeat CPU 0 instructions: 419000000 cycles: 1199105657 heartbeat IPC: 0.290733 cumulative IPC: 0.348715 (Simulation time: 1 hr 3 min 5 sec) 
Heartbeat CPU 0 instructions: 420000000 cycles: 1202623717 heartbeat IPC: 0.284248 cumulative IPC: 0.348526 (Simulation time: 1 hr 3 min 15 sec) 
Heartbeat CPU 0 instructions: 421000000 cycles: 1205889033 heartbeat IPC: 0.306249 cumulative IPC: 0.348412 (Simulation time: 1 hr 3 min 25 sec) 
Heartbeat CPU 0 instructions: 422000000 cycles: 1210432568 heartbeat IPC: 0.220093 cumulative IPC: 0.34793 (Simulation time: 1 hr 3 min 36 sec) 
Heartbeat CPU 0 instructions: 423000000 cycles: 1212498348 heartbeat IPC: 0.484079 cumulative IPC: 0.348162 (Simulation time: 1 hr 3 min 44 sec) 
Heartbeat CPU 0 instructions: 424000001 cycles: 1214382052 heartbeat IPC: 0.530869 cumulative IPC: 0.348445 (Simulation time: 1 hr 3 min 51 sec) 
Heartbeat CPU 0 instructions: 425000002 cycles: 1216329110 heartbeat IPC: 0.513596 cumulative IPC: 0.34871 (Simulation time: 1 hr 3 min 58 sec) 
Heartbeat CPU 0 instructions: 426000003 cycles: 1218276480 heartbeat IPC: 0.513514 cumulative IPC: 0.348973 (Simulation time: 1 hr 4 min 5 sec) 
Heartbeat CPU 0 instructions: 427000001 cycles: 1220264676 heartbeat IPC: 0.502968 cumulative IPC: 0.349224 (Simulation time: 1 hr 4 min 12 sec) 
Heartbeat CPU 0 instructions: 428000002 cycles: 1224413958 heartbeat IPC: 0.241006 cumulative IPC: 0.348857 (Simulation time: 1 hr 4 min 23 sec) 
Heartbeat CPU 0 instructions: 429000000 cycles: 1226250210 heartbeat IPC: 0.544586 cumulative IPC: 0.349151 (Simulation time: 1 hr 4 min 30 sec) 
Heartbeat CPU 0 instructions: 430000000 cycles: 1228074304 heartbeat IPC: 0.548217 cumulative IPC: 0.349446 (Simulation time: 1 hr 4 min 38 sec) 
Heartbeat CPU 0 instructions: 431000000 cycles: 1230173318 heartbeat IPC: 0.476414 cumulative IPC: 0.349663 (Simulation time: 1 hr 4 min 46 sec) 
Heartbeat CPU 0 instructions: 432000001 cycles: 1232307669 heartbeat IPC: 0.468527 cumulative IPC: 0.349869 (Simulation time: 1 hr 4 min 53 sec) 
Heartbeat CPU 0 instructions: 433000001 cycles: 1235308959 heartbeat IPC: 0.33319 cumulative IPC: 0.349828 (Simulation time: 1 hr 5 min 2 sec) 
Heartbeat CPU 0 instructions: 434000000 cycles: 1240437196 heartbeat IPC: 0.194999 cumulative IPC: 0.349188 (Simulation time: 1 hr 5 min 14 sec) 
Heartbeat CPU 0 instructions: 435000001 cycles: 1242801151 heartbeat IPC: 0.42302 cumulative IPC: 0.349329 (Simulation time: 1 hr 5 min 22 sec) 
Heartbeat CPU 0 instructions: 436000001 cycles: 1245357031 heartbeat IPC: 0.391255 cumulative IPC: 0.349415 (Simulation time: 1 hr 5 min 30 sec) 
Heartbeat CPU 0 instructions: 437000002 cycles: 1247348769 heartbeat IPC: 0.502075 cumulative IPC: 0.349659 (Simulation time: 1 hr 5 min 38 sec) 
Heartbeat CPU 0 instructions: 438000001 cycles: 1249412634 heartbeat IPC: 0.484527 cumulative IPC: 0.349881 (Simulation time: 1 hr 5 min 45 sec) 
Heartbeat CPU 0 instructions: 439000001 cycles: 1251956970 heartbeat IPC: 0.39303 cumulative IPC: 0.349969 (Simulation time: 1 hr 5 min 53 sec) 
Heartbeat CPU 0 instructions: 440000000 cycles: 1256738261 heartbeat IPC: 0.209148 cumulative IPC: 0.349433 (Simulation time: 1 hr 6 min 5 sec) 
Heartbeat CPU 0 instructions: 441000001 cycles: 1263444936 heartbeat IPC: 0.149105 cumulative IPC: 0.348369 (Simulation time: 1 hr 6 min 21 sec) 
Heartbeat CPU 0 instructions: 442000001 cycles: 1268766189 heartbeat IPC: 0.187926 cumulative IPC: 0.347696 (Simulation time: 1 hr 6 min 34 sec) 
Heartbeat CPU 0 instructions: 443000001 cycles: 1271268924 heartbeat IPC: 0.399563 cumulative IPC: 0.347798 (Simulation time: 1 hr 6 min 42 sec) 
Heartbeat CPU 0 instructions: 444000001 cycles: 1273865786 heartbeat IPC: 0.38508 cumulative IPC: 0.347874 (Simulation time: 1 hr 6 min 50 sec) 
Heartbeat CPU 0 instructions: 445000002 cycles: 1275883103 heartbeat IPC: 0.495708 cumulative IPC: 0.348108 (Simulation time: 1 hr 6 min 58 sec) 
Heartbeat CPU 0 instructions: 446000001 cycles: 1277689162 heartbeat IPC: 0.553691 cumulative IPC: 0.348399 (Simulation time: 1 hr 7 min 5 sec) 
Heartbeat CPU 0 instructions: 447000000 cycles: 1280001253 heartbeat IPC: 0.432508 cumulative IPC: 0.348551 (Simulation time: 1 hr 7 min 14 sec) 
Heartbeat CPU 0 instructions: 448000001 cycles: 1282269001 heartbeat IPC: 0.440967 cumulative IPC: 0.348714 (Simulation time: 1 hr 7 min 22 sec) 
Heartbeat CPU 0 instructions: 449000001 cycles: 1286325565 heartbeat IPC: 0.246514 cumulative IPC: 0.348392 (Simulation time: 1 hr 7 min 33 sec) 
Heartbeat CPU 0 instructions: 450000002 cycles: 1288520832 heartbeat IPC: 0.455526 cumulative IPC: 0.348575 (Simulation time: 1 hr 7 min 40 sec) 

Warmup complete CPU 0 instructions: 450000002 cycles: 1288520832 (Simulation time: 1 hr 7 min 40 sec) 

Heartbeat CPU 0 instructions: 451000000 cycles: 1290472053 heartbeat IPC: 0.512499 cumulative IPC: 0.512499 (Simulation time: 1 hr 7 min 48 sec) 
Heartbeat CPU 0 instructions: 452000001 cycles: 1293168732 heartbeat IPC: 0.370827 cumulative IPC: 0.430302 (Simulation time: 1 hr 7 min 57 sec) 
Heartbeat CPU 0 instructions: 453000000 cycles: 1295531640 heartbeat IPC: 0.423207 cumulative IPC: 0.42791 (Simulation time: 1 hr 8 min 5 sec) 
Heartbeat CPU 0 instructions: 454000000 cycles: 1297866653 heartbeat IPC: 0.428263 cumulative IPC: 0.427999 (Simulation time: 1 hr 8 min 13 sec) 
Heartbeat CPU 0 instructions: 455000000 cycles: 1302259842 heartbeat IPC: 0.227625 cumulative IPC: 0.363927 (Simulation time: 1 hr 8 min 25 sec) 
Heartbeat CPU 0 instructions: 456000001 cycles: 1308190901 heartbeat IPC: 0.168604 cumulative IPC: 0.305032 (Simulation time: 1 hr 8 min 38 sec) 
Heartbeat CPU 0 instructions: 457000003 cycles: 1310004957 heartbeat IPC: 0.551252 cumulative IPC: 0.325822 (Simulation time: 1 hr 8 min 46 sec) 
Heartbeat CPU 0 instructions: 458000000 cycles: 1312119167 heartbeat IPC: 0.472988 cumulative IPC: 0.339007 (Simulation time: 1 hr 8 min 54 sec) 
Heartbeat CPU 0 instructions: 459000002 cycles: 1314453231 heartbeat IPC: 0.428438 cumulative IPC: 0.347056 (Simulation time: 1 hr 9 min 2 sec) 
Heartbeat CPU 0 instructions: 460000000 cycles: 1316418158 heartbeat IPC: 0.508924 cumulative IPC: 0.358457 (Simulation time: 1 hr 9 min 10 sec) 
Heartbeat CPU 0 instructions: 461000000 cycles: 1318527909 heartbeat IPC: 0.47399 cumulative IPC: 0.36658 (Simulation time: 1 hr 9 min 18 sec) 
Heartbeat CPU 0 instructions: 462000000 cycles: 1321008345 heartbeat IPC: 0.403155 cumulative IPC: 0.369373 (Simulation time: 1 hr 9 min 26 sec) 
Heartbeat CPU 0 instructions: 463000001 cycles: 1325720595 heartbeat IPC: 0.212213 cumulative IPC: 0.349465 (Simulation time: 1 hr 9 min 38 sec) 
Heartbeat CPU 0 instructions: 464000001 cycles: 1327668582 heartbeat IPC: 0.51335 cumulative IPC: 0.357619 (Simulation time: 1 hr 9 min 46 sec) 
Heartbeat CPU 0 instructions: 465000001 cycles: 1329541008 heartbeat IPC: 0.534066 cumulative IPC: 0.365674 (Simulation time: 1 hr 9 min 53 sec) 
Heartbeat CPU 0 instructions: 466000000 cycles: 1331465336 heartbeat IPC: 0.519661 cumulative IPC: 0.372574 (Simulation time: 1 hr 10 min 1 sec) 
Heartbeat CPU 0 instructions: 467000001 cycles: 1333454359 heartbeat IPC: 0.50276 cumulative IPC: 0.378337 (Simulation time: 1 hr 10 min 9 sec) 
Heartbeat CPU 0 instructions: 468000000 cycles: 1335594663 heartbeat IPC: 0.467223 cumulative IPC: 0.382378 (Simulation time: 1 hr 10 min 17 sec) 
Heartbeat CPU 0 instructions: 469000002 cycles: 1337854656 heartbeat IPC: 0.44248 cumulative IPC: 0.385131 (Simulation time: 1 hr 10 min 25 sec) 
Heartbeat CPU 0 instructions: 470000000 cycles: 1342370644 heartbeat IPC: 0.221435 cumulative IPC: 0.371403 (Simulation time: 1 hr 10 min 38 sec) 
Heartbeat CPU 0 instructions: 471000001 cycles: 1344574677 heartbeat IPC: 0.453714 cumulative IPC: 0.37464 (Simulation time: 1 hr 10 min 46 sec) 
Heartbeat CPU 0 instructions: 472000000 cycles: 1346397172 heartbeat IPC: 0.548698 cumulative IPC: 0.380121 (Simulation time: 1 hr 10 min 53 sec) 
Heartbeat CPU 0 instructions: 473000000 cycles: 1348206382 heartbeat IPC: 0.552727 cumulative IPC: 0.385353 (Simulation time: 1 hr 11 min 1 sec) 
Heartbeat CPU 0 instructions: 474000002 cycles: 1350263973 heartbeat IPC: 0.486006 cumulative IPC: 0.388707 (Simulation time: 1 hr 11 min 9 sec) 
Heartbeat CPU 0 instructions: 475000001 cycles: 1352291046 heartbeat IPC: 0.493322 cumulative IPC: 0.392033 (Simulation time: 1 hr 11 min 17 sec) 
Heartbeat CPU 0 instructions: 476000003 cycles: 1354485495 heartbeat IPC: 0.455696 cumulative IPC: 0.39415 (Simulation time: 1 hr 11 min 25 sec) 
Heartbeat CPU 0 instructions: 477000001 cycles: 1358150617 heartbeat IPC: 0.272842 cumulative IPC: 0.387765 (Simulation time: 1 hr 11 min 35 sec) 
Heartbeat CPU 0 instructions: 478000001 cycles: 1364404801 heartbeat IPC: 0.159893 cumulative IPC: 0.368984 (Simulation time: 1 hr 11 min 49 sec) 
Heartbeat CPU 0 instructions: 479000001 cycles: 1366316410 heartbeat IPC: 0.52312 cumulative IPC: 0.372772 (Simulation time: 1 hr 11 min 56 sec) 
Heartbeat CPU 0 instructions: 480000001 cycles: 1368058527 heartbeat IPC: 0.574014 cumulative IPC: 0.37718 (Simulation time: 1 hr 12 min 4 sec) 
Heartbeat CPU 0 instructions: 481000000 cycles: 1369996435 heartbeat IPC: 0.51602 cumulative IPC: 0.380482 (Simulation time: 1 hr 12 min 12 sec) 
Heartbeat CPU 0 instructions: 482000002 cycles: 1372553668 heartbeat IPC: 0.391048 cumulative IPC: 0.380804 (Simulation time: 1 hr 12 min 20 sec) 
Heartbeat CPU 0 instructions: 483000000 cycles: 1375160125 heartbeat IPC: 0.383662 cumulative IPC: 0.38089 (Simulation time: 1 hr 12 min 29 sec) 
Heartbeat CPU 0 instructions: 484000000 cycles: 1377157033 heartbeat IPC: 0.500774 cumulative IPC: 0.38359 (Simulation time: 1 hr 12 min 37 sec) 
Heartbeat CPU 0 instructions: 485000000 cycles: 1381380073 heartbeat IPC: 0.236796 cumulative IPC: 0.376915 (Simulation time: 1 hr 12 min 48 sec) 
Heartbeat CPU 0 instructions: 486000002 cycles: 1384020614 heartbeat IPC: 0.378711 cumulative IPC: 0.376964 (Simulation time: 1 hr 12 min 57 sec) 
Heartbeat CPU 0 instructions: 487000001 cycles: 1385708361 heartbeat IPC: 0.592505 cumulative IPC: 0.380707 (Simulation time: 1 hr 13 min 4 sec) 
Heartbeat CPU 0 instructions: 488000001 cycles: 1387517700 heartbeat IPC: 0.552688 cumulative IPC: 0.383851 (Simulation time: 1 hr 13 min 12 sec) 
Heartbeat CPU 0 instructions: 489000003 cycles: 1389636903 heartbeat IPC: 0.471876 cumulative IPC: 0.385695 (Simulation time: 1 hr 13 min 20 sec) 
Heartbeat CPU 0 instructions: 490000000 cycles: 1391665675 heartbeat IPC: 0.492908 cumulative IPC: 0.387804 (Simulation time: 1 hr 13 min 27 sec) 
Heartbeat CPU 0 instructions: 491000000 cycles: 1393908703 heartbeat IPC: 0.445826 cumulative IPC: 0.389039 (Simulation time: 1 hr 13 min 36 sec) 
Heartbeat CPU 0 instructions: 492000000 cycles: 1397492810 heartbeat IPC: 0.27901 cumulative IPC: 0.38542 (Simulation time: 1 hr 13 min 46 sec) 
Heartbeat CPU 0 instructions: 493000000 cycles: 1400852144 heartbeat IPC: 0.297678 cumulative IPC: 0.382796 (Simulation time: 1 hr 13 min 55 sec) 
Heartbeat CPU 0 instructions: 494000000 cycles: 1402939044 heartbeat IPC: 0.47918 cumulative IPC: 0.384554 (Simulation time: 1 hr 14 min 3 sec) 
Heartbeat CPU 0 instructions: 495000000 cycles: 1405036783 heartbeat IPC: 0.476704 cumulative IPC: 0.386213 (Simulation time: 1 hr 14 min 11 sec) 
Heartbeat CPU 0 instructions: 496000000 cycles: 1407352832 heartbeat IPC: 0.43177 cumulative IPC: 0.387101 (Simulation time: 1 hr 14 min 19 sec) 
Heartbeat CPU 0 instructions: 497000003 cycles: 1409246963 heartbeat IPC: 0.527948 cumulative IPC: 0.389311 (Simulation time: 1 hr 14 min 27 sec) 
Heartbeat CPU 0 instructions: 498000001 cycles: 1412375091 heartbeat IPC: 0.319679 cumulative IPC: 0.387552 (Simulation time: 1 hr 14 min 36 sec) 
Heartbeat CPU 0 instructions: 499000001 cycles: 1415971009 heartbeat IPC: 0.278093 cumulative IPC: 0.384464 (Simulation time: 1 hr 14 min 46 sec) 
Heartbeat CPU 0 instructions: 500000001 cycles: 1417934774 heartbeat IPC: 0.509226 cumulative IPC: 0.386357 (Simulation time: 1 hr 14 min 54 sec) 
Heartbeat CPU 0 instructions: 501000002 cycles: 1419660423 heartbeat IPC: 0.579493 cumulative IPC: 0.388899 (Simulation time: 1 hr 15 min 1 sec) 
Heartbeat CPU 0 instructions: 502000001 cycles: 1421543455 heartbeat IPC: 0.531058 cumulative IPC: 0.390911 (Simulation time: 1 hr 15 min 9 sec) 
Heartbeat CPU 0 instructions: 503000001 cycles: 1423808464 heartbeat IPC: 0.441499 cumulative IPC: 0.391758 (Simulation time: 1 hr 15 min 17 sec) 
Heartbeat CPU 0 instructions: 504000001 cycles: 1426077743 heartbeat IPC: 0.440669 cumulative IPC: 0.392565 (Simulation time: 1 hr 15 min 25 sec) 
Heartbeat CPU 0 instructions: 505000000 cycles: 1428438809 heartbeat IPC: 0.423537 cumulative IPC: 0.393087 (Simulation time: 1 hr 15 min 34 sec) 
Heartbeat CPU 0 instructions: 506000000 cycles: 1432166855 heartbeat IPC: 0.268237 cumulative IPC: 0.389847 (Simulation time: 1 hr 15 min 44 sec) 
Heartbeat CPU 0 instructions: 507000000 cycles: 1433906157 heartbeat IPC: 0.574943 cumulative IPC: 0.392062 (Simulation time: 1 hr 15 min 51 sec) 
Heartbeat CPU 0 instructions: 508000001 cycles: 1435960048 heartbeat IPC: 0.486881 cumulative IPC: 0.393382 (Simulation time: 1 hr 16 min 0 sec) 
Heartbeat CPU 0 instructions: 509000003 cycles: 1438372752 heartbeat IPC: 0.414474 cumulative IPC: 0.393722 (Simulation time: 1 hr 16 min 8 sec) 
Heartbeat CPU 0 instructions: 510000002 cycles: 1440331901 heartbeat IPC: 0.510425 cumulative IPC: 0.395228 (Simulation time: 1 hr 16 min 16 sec) 
Heartbeat CPU 0 instructions: 511000003 cycles: 1442313692 heartbeat IPC: 0.504595 cumulative IPC: 0.396637 (Simulation time: 1 hr 16 min 24 sec) 
Heartbeat CPU 0 instructions: 512000002 cycles: 1444465927 heartbeat IPC: 0.464633 cumulative IPC: 0.397576 (Simulation time: 1 hr 16 min 31 sec) 
Heartbeat CPU 0 instructions: 513000001 cycles: 1450235690 heartbeat IPC: 0.173317 cumulative IPC: 0.389575 (Simulation time: 1 hr 16 min 45 sec) 
Heartbeat CPU 0 instructions: 514000000 cycles: 1457527254 heartbeat IPC: 0.137145 cumulative IPC: 0.378684 (Simulation time: 1 hr 17 min 1 sec) 
Heartbeat CPU 0 instructions: 515000000 cycles: 1460471693 heartbeat IPC: 0.339623 cumulative IPC: 0.378015 (Simulation time: 1 hr 17 min 10 sec) 
Heartbeat CPU 0 instructions: 516000001 cycles: 1462372738 heartbeat IPC: 0.526027 cumulative IPC: 0.379633 (Simulation time: 1 hr 17 min 18 sec) 
Heartbeat CPU 0 instructions: 517000000 cycles: 1464481239 heartbeat IPC: 0.47427 cumulative IPC: 0.380767 (Simulation time: 1 hr 17 min 26 sec) 
Heartbeat CPU 0 instructions: 518000000 cycles: 1466941015 heartbeat IPC: 0.406541 cumulative IPC: 0.381123 (Simulation time: 1 hr 17 min 34 sec) 
Heartbeat CPU 0 instructions: 519000000 cycles: 1469601905 heartbeat IPC: 0.375814 cumulative IPC: 0.381045 (Simulation time: 1 hr 17 min 43 sec) 
Heartbeat CPU 0 instructions: 520000002 cycles: 1471641127 heartbeat IPC: 0.490384 cumulative IPC: 0.382262 (Simulation time: 1 hr 17 min 51 sec) 
Heartbeat CPU 0 instructions: 521000000 cycles: 1474693902 heartbeat IPC: 0.32757 cumulative IPC: 0.381366 (Simulation time: 1 hr 18 min 0 sec) 
Heartbeat CPU 0 instructions: 522000001 cycles: 1477979496 heartbeat IPC: 0.304359 cumulative IPC: 0.38003 (Simulation time: 1 hr 18 min 10 sec) 
Heartbeat CPU 0 instructions: 523000000 cycles: 1480012827 heartbeat IPC: 0.491803 cumulative IPC: 0.381217 (Simulation time: 1 hr 18 min 17 sec) 
Heartbeat CPU 0 instructions: 524000000 cycles: 1481762839 heartbeat IPC: 0.571425 cumulative IPC: 0.382939 (Simulation time: 1 hr 18 min 25 sec) 
Heartbeat CPU 0 instructions: 525000000 cycles: 1483568989 heartbeat IPC: 0.553664 cumulative IPC: 0.38452 (Simulation time: 1 hr 18 min 32 sec) 
Heartbeat CPU 0 instructions: 526000000 cycles: 1485446971 heartbeat IPC: 0.532486 cumulative IPC: 0.385931 (Simulation time: 1 hr 18 min 40 sec) 
Heartbeat CPU 0 instructions: 527000000 cycles: 1489030343 heartbeat IPC: 0.279067 cumulative IPC: 0.384022 (Simulation time: 1 hr 18 min 50 sec) 
Heartbeat CPU 0 instructions: 528000000 cycles: 1492110729 heartbeat IPC: 0.324635 cumulative IPC: 0.383123 (Simulation time: 1 hr 18 min 59 sec) 
Heartbeat CPU 0 instructions: 529000002 cycles: 1493976765 heartbeat IPC: 0.535896 cumulative IPC: 0.384511 (Simulation time: 1 hr 19 min 7 sec) 
Heartbeat CPU 0 instructions: 530000000 cycles: 1495902248 heartbeat IPC: 0.519349 cumulative IPC: 0.385763 (Simulation time: 1 hr 19 min 14 sec) 
Heartbeat CPU 0 instructions: 531000000 cycles: 1498390648 heartbeat IPC: 0.401865 cumulative IPC: 0.385954 (Simulation time: 1 hr 19 min 23 sec) 
Heartbeat CPU 0 instructions: 532000000 cycles: 1500823778 heartbeat IPC: 0.410993 cumulative IPC: 0.386241 (Simulation time: 1 hr 19 min 31 sec) 
Heartbeat CPU 0 instructions: 533000001 cycles: 1502726759 heartbeat IPC: 0.525492 cumulative IPC: 0.387478 (Simulation time: 1 hr 19 min 39 sec) 
Heartbeat CPU 0 instructions: 534000000 cycles: 1505244362 heartbeat IPC: 0.397203 cumulative IPC: 0.387591 (Simulation time: 1 hr 19 min 47 sec) 
Heartbeat CPU 0 instructions: 535000000 cycles: 1511646595 heartbeat IPC: 0.156196 cumulative IPC: 0.380951 (Simulation time: 1 hr 20 min 1 sec) 
Heartbeat CPU 0 instructions: 536000001 cycles: 1518395108 heartbeat IPC: 0.148181 cumulative IPC: 0.374118 (Simulation time: 1 hr 20 min 17 sec) 
Heartbeat CPU 0 instructions: 537000000 cycles: 1520489265 heartbeat IPC: 0.477519 cumulative IPC: 0.375051 (Simulation time: 1 hr 20 min 24 sec) 
Heartbeat CPU 0 instructions: 538000001 cycles: 1522161128 heartbeat IPC: 0.598136 cumulative IPC: 0.376647 (Simulation time: 1 hr 20 min 32 sec) 
Heartbeat CPU 0 instructions: 539000000 cycles: 1524077214 heartbeat IPC: 0.521897 cumulative IPC: 0.377829 (Simulation time: 1 hr 20 min 40 sec) 
Heartbeat CPU 0 instructions: 540000000 cycles: 1526001215 heartbeat IPC: 0.51975 cumulative IPC: 0.378979 (Simulation time: 1 hr 20 min 48 sec) 
Heartbeat CPU 0 instructions: 541000000 cycles: 1528410923 heartbeat IPC: 0.414988 cumulative IPC: 0.37934 (Simulation time: 1 hr 20 min 56 sec) 
Heartbeat CPU 0 instructions: 542000002 cycles: 1530494491 heartbeat IPC: 0.479947 cumulative IPC: 0.380207 (Simulation time: 1 hr 21 min 4 sec) 
Heartbeat CPU 0 instructions: 543000001 cycles: 1533439256 heartbeat IPC: 0.339585 cumulative IPC: 0.379718 (Simulation time: 1 hr 21 min 13 sec) 
Heartbeat CPU 0 instructions: 544000001 cycles: 1536726550 heartbeat IPC: 0.304202 cumulative IPC: 0.378718 (Simulation time: 1 hr 21 min 23 sec) 
Heartbeat CPU 0 instructions: 545000000 cycles: 1538476935 heartbeat IPC: 0.571302 cumulative IPC: 0.380067 (Simulation time: 1 hr 21 min 30 sec) 
[...]
Heartbeat CPU 0 instructions: 834000002 cycles: 2304395951 heartbeat IPC: 0.597542 cumulative IPC: 0.377999 (Simulation time: 2 hr 3 min 56 sec) 
Heartbeat CPU 0 instructions: 835000002 cycles: 2307265830 heartbeat IPC: 0.348447 cumulative IPC: 0.377916 (Simulation time: 2 hr 4 min 5 sec) 
Heartbeat CPU 0 instructions: 836000000 cycles: 2313708237 heartbeat IPC: 0.155221 cumulative IPC: 0.376517 (Simulation time: 2 hr 4 min 21 sec) 
Heartbeat CPU 0 instructions: 837000000 cycles: 2320215205 heartbeat IPC: 0.153681 cumulative IPC: 0.375111 (Simulation time: 2 hr 4 min 36 sec) 
Heartbeat CPU 0 instructions: 838000002 cycles: 2325880785 heartbeat IPC: 0.176505 cumulative IPC: 0.374026 (Simulation time: 2 hr 4 min 49 sec) 
Heartbeat CPU 0 instructions: 839000000 cycles: 2327800571 heartbeat IPC: 0.52089 cumulative IPC: 0.374298 (Simulation time: 2 hr 4 min 57 sec) 
Heartbeat CPU 0 instructions: 840000002 cycles: 2329576423 heartbeat IPC: 0.563111 cumulative IPC: 0.37462 (Simulation time: 2 hr 5 min 3 sec) 
Heartbeat CPU 0 instructions: 841000001 cycles: 2331507128 heartbeat IPC: 0.517945 cumulative IPC: 0.374885 (Simulation time: 2 hr 5 min 11 sec) 
Heartbeat CPU 0 instructions: 842000000 cycles: 2333308518 heartbeat IPC: 0.555126 cumulative IPC: 0.375196 (Simulation time: 2 hr 5 min 19 sec) 
Heartbeat CPU 0 instructions: 843000001 cycles: 2335297620 heartbeat IPC: 0.50274 cumulative IPC: 0.375438 (Simulation time: 2 hr 5 min 27 sec) 
Heartbeat CPU 0 instructions: 844000000 cycles: 2337391121 heartbeat IPC: 0.477668 cumulative IPC: 0.375642 (Simulation time: 2 hr 5 min 34 sec) 
Heartbeat CPU 0 instructions: 845000003 cycles: 2340810469 heartbeat IPC: 0.292454 cumulative IPC: 0.375372 (Simulation time: 2 hr 5 min 42 sec) 
Heartbeat CPU 0 instructions: 846000001 cycles: 2347291021 heartbeat IPC: 0.154308 cumulative IPC: 0.374019 (Simulation time: 2 hr 5 min 55 sec) 
Heartbeat CPU 0 instructions: 847000000 cycles: 2349391858 heartbeat IPC: 0.476 cumulative IPC: 0.374221 (Simulation time: 2 hr 6 min 3 sec) 
Heartbeat CPU 0 instructions: 848000003 cycles: 2351061529 heartbeat IPC: 0.598922 cumulative IPC: 0.374574 (Simulation time: 2 hr 6 min 10 sec) 
Heartbeat CPU 0 instructions: 849000000 cycles: 2352749208 heartbeat IPC: 0.592528 cumulative IPC: 0.37492 (Simulation time: 2 hr 6 min 17 sec) 
Heartbeat CPU 0 instructions: 850000001 cycles: 2354469632 heartbeat IPC: 0.581253 cumulative IPC: 0.375253 (Simulation time: 2 hr 6 min 24 sec) 
Heartbeat CPU 0 instructions: 851000001 cycles: 2356238187 heartbeat IPC: 0.565433 cumulative IPC: 0.375568 (Simulation time: 2 hr 6 min 32 sec) 
Heartbeat CPU 0 instructions: 852000001 cycles: 2358157175 heartbeat IPC: 0.521108 cumulative IPC: 0.375829 (Simulation time: 2 hr 6 min 39 sec) 
Heartbeat CPU 0 instructions: 853000001 cycles: 2360205699 heartbeat IPC: 0.488156 cumulative IPC: 0.376043 (Simulation time: 2 hr 6 min 47 sec) 
Heartbeat CPU 0 instructions: 854000002 cycles: 2366115543 heartbeat IPC: 0.169209 cumulative IPC: 0.374909 (Simulation time: 2 hr 7 min 1 sec) 
Heartbeat CPU 0 instructions: 855000002 cycles: 2373039348 heartbeat IPC: 0.144429 cumulative IPC: 0.373438 (Simulation time: 2 hr 7 min 17 sec) 
Heartbeat CPU 0 instructions: 856000000 cycles: 2375965584 heartbeat IPC: 0.341735 cumulative IPC: 0.373352 (Simulation time: 2 hr 7 min 26 sec) 
Heartbeat CPU 0 instructions: 857000002 cycles: 2378090681 heartbeat IPC: 0.470568 cumulative IPC: 0.373542 (Simulation time: 2 hr 7 min 34 sec) 
Heartbeat CPU 0 instructions: 858000000 cycles: 2380280389 heartbeat IPC: 0.456681 cumulative IPC: 0.373709 (Simulation time: 2 hr 7 min 42 sec) 
Heartbeat CPU 0 instructions: 859000000 cycles: 2382354387 heartbeat IPC: 0.482161 cumulative IPC: 0.373914 (Simulation time: 2 hr 7 min 49 sec) 
Heartbeat CPU 0 instructions: 860000003 cycles: 2384334900 heartbeat IPC: 0.504921 cumulative IPC: 0.374151 (Simulation time: 2 hr 7 min 56 sec) 
Heartbeat CPU 0 instructions: 861000002 cycles: 2386455051 heartbeat IPC: 0.471664 cumulative IPC: 0.374339 (Simulation time: 2 hr 8 min 5 sec) 
Heartbeat CPU 0 instructions: 862000000 cycles: 2388483739 heartbeat IPC: 0.492928 cumulative IPC: 0.374558 (Simulation time: 2 hr 8 min 12 sec) 
Heartbeat CPU 0 instructions: 863000001 cycles: 2392474341 heartbeat IPC: 0.250589 cumulative IPC: 0.37411 (Simulation time: 2 hr 8 min 23 sec) 
Heartbeat CPU 0 instructions: 864000001 cycles: 2394371742 heartbeat IPC: 0.527037 cumulative IPC: 0.374372 (Simulation time: 2 hr 8 min 30 sec) 
Heartbeat CPU 0 instructions: 865000000 cycles: 2396320481 heartbeat IPC: 0.513152 cumulative IPC: 0.374616 (Simulation time: 2 hr 8 min 38 sec) 
Heartbeat CPU 0 instructions: 866000001 cycles: 2398212201 heartbeat IPC: 0.52862 cumulative IPC: 0.374879 (Simulation time: 2 hr 8 min 44 sec) 
Heartbeat CPU 0 instructions: 867000000 cycles: 2400067719 heartbeat IPC: 0.538933 cumulative IPC: 0.375153 (Simulation time: 2 hr 8 min 51 sec) 
Heartbeat CPU 0 instructions: 868000002 cycles: 2401899853 heartbeat IPC: 0.545813 cumulative IPC: 0.375434 (Simulation time: 2 hr 8 min 58 sec) 
Heartbeat CPU 0 instructions: 869000000 cycles: 2405794548 heartbeat IPC: 0.256759 cumulative IPC: 0.37502 (Simulation time: 2 hr 9 min 8 sec) 
Heartbeat CPU 0 instructions: 870000002 cycles: 2408659428 heartbeat IPC: 0.349055 cumulative IPC: 0.374954 (Simulation time: 2 hr 9 min 15 sec) 
Heartbeat CPU 0 instructions: 871000000 cycles: 2410783430 heartbeat IPC: 0.470808 cumulative IPC: 0.375135 (Simulation time: 2 hr 9 min 23 sec) 
Heartbeat CPU 0 instructions: 872000000 cycles: 2413009381 heartbeat IPC: 0.449246 cumulative IPC: 0.375282 (Simulation time: 2 hr 9 min 31 sec) 
Heartbeat CPU 0 instructions: 873000000 cycles: 2415128278 heartbeat IPC: 0.471944 cumulative IPC: 0.375464 (Simulation time: 2 hr 9 min 38 sec) 
Heartbeat CPU 0 instructions: 874000002 cycles: 2417699323 heartbeat IPC: 0.388948 cumulative IPC: 0.375494 (Simulation time: 2 hr 9 min 47 sec) 
Heartbeat CPU 0 instructions: 875000002 cycles: 2419883832 heartbeat IPC: 0.457769 cumulative IPC: 0.375653 (Simulation time: 2 hr 9 min 55 sec) 
Heartbeat CPU 0 instructions: 876000002 cycles: 2422667319 heartbeat IPC: 0.359262 cumulative IPC: 0.375613 (Simulation time: 2 hr 10 min 4 sec) 
Heartbeat CPU 0 instructions: 877000001 cycles: 2429637006 heartbeat IPC: 0.143478 cumulative IPC: 0.374195 (Simulation time: 2 hr 10 min 21 sec) 
Heartbeat CPU 0 instructions: 878000001 cycles: 2432198224 heartbeat IPC: 0.390439 cumulative IPC: 0.374231 (Simulation time: 2 hr 10 min 28 sec) 
Heartbeat CPU 0 instructions: 879000000 cycles: 2434354650 heartbeat IPC: 0.46373 cumulative IPC: 0.3744 (Simulation time: 2 hr 10 min 35 sec) 
Heartbeat CPU 0 instructions: 880000000 cycles: 2436381036 heartbeat IPC: 0.493489 cumulative IPC: 0.37461 (Simulation time: 2 hr 10 min 42 sec) 
Heartbeat CPU 0 instructions: 881000002 cycles: 2439091885 heartbeat IPC: 0.368889 cumulative IPC: 0.374597 (Simulation time: 2 hr 10 min 51 sec) 
Heartbeat CPU 0 instructions: 882000003 cycles: 2441364627 heartbeat IPC: 0.439998 cumulative IPC: 0.374726 (Simulation time: 2 hr 10 min 59 sec) 
Heartbeat CPU 0 instructions: 883000000 cycles: 2443636157 heartbeat IPC: 0.440231 cumulative IPC: 0.374854 (Simulation time: 2 hr 11 min 7 sec) 
Heartbeat CPU 0 instructions: 884000002 cycles: 2446051858 heartbeat IPC: 0.413959 cumulative IPC: 0.374936 (Simulation time: 2 hr 11 min 15 sec) 
Heartbeat CPU 0 instructions: 885000000 cycles: 2449955144 heartbeat IPC: 0.256194 cumulative IPC: 0.374537 (Simulation time: 2 hr 11 min 26 sec) 
Heartbeat CPU 0 instructions: 886000000 cycles: 2451632226 heartbeat IPC: 0.596274 cumulative IPC: 0.374857 (Simulation time: 2 hr 11 min 34 sec) 
Heartbeat CPU 0 instructions: 887000001 cycles: 2453171025 heartbeat IPC: 0.649858 cumulative IPC: 0.37522 (Simulation time: 2 hr 11 min 41 sec) 
Heartbeat CPU 0 instructions: 888000001 cycles: 2454768389 heartbeat IPC: 0.626031 cumulative IPC: 0.375563 (Simulation time: 2 hr 11 min 48 sec) 
Heartbeat CPU 0 instructions: 889000003 cycles: 2456379527 heartbeat IPC: 0.620681 cumulative IPC: 0.375902 (Simulation time: 2 hr 11 min 55 sec) 
Heartbeat CPU 0 instructions: 890000001 cycles: 2458001446 heartbeat IPC: 0.616552 cumulative IPC: 0.376235 (Simulation time: 2 hr 12 min 2 sec) 
Heartbeat CPU 0 instructions: 891000000 cycles: 2459951816 heartbeat IPC: 0.512723 cumulative IPC: 0.376463 (Simulation time: 2 hr 12 min 10 sec) 
Heartbeat CPU 0 instructions: 892000000 cycles: 2464083197 heartbeat IPC: 0.24205 cumulative IPC: 0.37599 (Simulation time: 2 hr 12 min 21 sec) 
Heartbeat CPU 0 instructions: 893000001 cycles: 2466346733 heartbeat IPC: 0.441787 cumulative IPC: 0.376117 (Simulation time: 2 hr 12 min 29 sec) 
Heartbeat CPU 0 instructions: 894000000 cycles: 2468255180 heartbeat IPC: 0.523986 cumulative IPC: 0.376356 (Simulation time: 2 hr 12 min 36 sec) 
Heartbeat CPU 0 instructions: 895000000 cycles: 2470322554 heartbeat IPC: 0.483705 cumulative IPC: 0.376544 (Simulation time: 2 hr 12 min 44 sec) 
Heartbeat CPU 0 instructions: 896000001 cycles: 2472616786 heartbeat IPC: 0.435876 cumulative IPC: 0.376659 (Simulation time: 2 hr 12 min 53 sec) 
Heartbeat CPU 0 instructions: 897000003 cycles: 2474628895 heartbeat IPC: 0.496992 cumulative IPC: 0.376863 (Simulation time: 2 hr 13 min 0 sec) 
Heartbeat CPU 0 instructions: 898000000 cycles: 2476405196 heartbeat IPC: 0.562966 cumulative IPC: 0.377141 (Simulation time: 2 hr 13 min 7 sec) 
Heartbeat CPU 0 instructions: 899000003 cycles: 2478258030 heartbeat IPC: 0.539715 cumulative IPC: 0.377394 (Simulation time: 2 hr 13 min 14 sec) 
Heartbeat CPU 0 instructions: 900000002 cycles: 2482241768 heartbeat IPC: 0.25102 cumulative IPC: 0.376973 (Simulation time: 2 hr 13 min 25 sec) 
Heartbeat CPU 0 instructions: 901000001 cycles: 2484521006 heartbeat IPC: 0.438743 cumulative IPC: 0.37709 (Simulation time: 2 hr 13 min 32 sec) 
Heartbeat CPU 0 instructions: 902000000 cycles: 2486340250 heartbeat IPC: 0.549678 cumulative IPC: 0.377352 (Simulation time: 2 hr 13 min 40 sec) 
Heartbeat CPU 0 instructions: 903000001 cycles: 2488388806 heartbeat IPC: 0.488149 cumulative IPC: 0.377542 (Simulation time: 2 hr 13 min 47 sec) 
Heartbeat CPU 0 instructions: 904000001 cycles: 2490879043 heartbeat IPC: 0.401568 cumulative IPC: 0.377591 (Simulation time: 2 hr 13 min 56 sec) 
Heartbeat CPU 0 instructions: 905000000 cycles: 2493051333 heartbeat IPC: 0.460343 cumulative IPC: 0.377741 (Simulation time: 2 hr 14 min 4 sec) 
Heartbeat CPU 0 instructions: 906000003 cycles: 2495005036 heartbeat IPC: 0.51185 cumulative IPC: 0.377958 (Simulation time: 2 hr 14 min 12 sec) 
Heartbeat CPU 0 instructions: 907000002 cycles: 2499370495 heartbeat IPC: 0.229071 cumulative IPC: 0.377421 (Simulation time: 2 hr 14 min 23 sec) 
Heartbeat CPU 0 instructions: 908000001 cycles: 2501915708 heartbeat IPC: 0.392894 cumulative IPC: 0.377453 (Simulation time: 2 hr 14 min 32 sec) 
Heartbeat CPU 0 instructions: 909000000 cycles: 2503982849 heartbeat IPC: 0.483759 cumulative IPC: 0.377634 (Simulation time: 2 hr 14 min 39 sec) 
Heartbeat CPU 0 instructions: 910000000 cycles: 2505793374 heartbeat IPC: 0.552326 cumulative IPC: 0.377894 (Simulation time: 2 hr 14 min 47 sec) 
Heartbeat CPU 0 instructions: 911000003 cycles: 2507859656 heartbeat IPC: 0.483963 cumulative IPC: 0.378074 (Simulation time: 2 hr 14 min 54 sec) 
Heartbeat CPU 0 instructions: 912000000 cycles: 2509878604 heartbeat IPC: 0.495306 cumulative IPC: 0.378268 (Simulation time: 2 hr 15 min 2 sec) 
Heartbeat CPU 0 instructions: 913000000 cycles: 2512000232 heartbeat IPC: 0.471336 cumulative IPC: 0.378429 (Simulation time: 2 hr 15 min 10 sec) 
Heartbeat CPU 0 instructions: 914000001 cycles: 2517061996 heartbeat IPC: 0.19756 cumulative IPC: 0.377684 (Simulation time: 2 hr 15 min 22 sec) 
Heartbeat CPU 0 instructions: 915000001 cycles: 2523091661 heartbeat IPC: 0.165847 cumulative IPC: 0.376649 (Simulation time: 2 hr 15 min 37 sec) 
Heartbeat CPU 0 instructions: 916000003 cycles: 2525210431 heartbeat IPC: 0.471973 cumulative IPC: 0.376812 (Simulation time: 2 hr 15 min 44 sec) 
Heartbeat CPU 0 instructions: 917000000 cycles: 2527403586 heartbeat IPC: 0.455963 cumulative IPC: 0.376953 (Simulation time: 2 hr 15 min 51 sec) 
Heartbeat CPU 0 instructions: 918000000 cycles: 2529273637 heartbeat IPC: 0.534745 cumulative IPC: 0.37719 (Simulation time: 2 hr 15 min 58 sec) 
Heartbeat CPU 0 instructions: 919000002 cycles: 2531931301 heartbeat IPC: 0.376271 cumulative IPC: 0.377188 (Simulation time: 2 hr 16 min 7 sec) 
Heartbeat CPU 0 instructions: 920000000 cycles: 2534345005 heartbeat IPC: 0.4143 cumulative IPC: 0.37726 (Simulation time: 2 hr 16 min 15 sec) 
Heartbeat CPU 0 instructions: 921000003 cycles: 2537041689 heartbeat IPC: 0.370827 cumulative IPC: 0.377246 (Simulation time: 2 hr 16 min 24 sec) 
Heartbeat CPU 0 instructions: 922000001 cycles: 2540447579 heartbeat IPC: 0.293608 cumulative IPC: 0.377019 (Simulation time: 2 hr 16 min 33 sec) 
Heartbeat CPU 0 instructions: 923000000 cycles: 2543985930 heartbeat IPC: 0.282617 cumulative IPC: 0.376753 (Simulation time: 2 hr 16 min 43 sec) 
Heartbeat CPU 0 instructions: 924000000 cycles: 2546300981 heartbeat IPC: 0.431956 cumulative IPC: 0.376854 (Simulation time: 2 hr 16 min 52 sec) 
Heartbeat CPU 0 instructions: 925000000 cycles: 2548071026 heartbeat IPC: 0.564957 cumulative IPC: 0.377119 (Simulation time: 2 hr 16 min 59 sec) 
Heartbeat CPU 0 instructions: 926000002 cycles: 2550079979 heartbeat IPC: 0.497773 cumulative IPC: 0.377311 (Simulation time: 2 hr 17 min 7 sec) 
Heartbeat CPU 0 instructions: 927000003 cycles: 2552305097 heartbeat IPC: 0.449415 cumulative IPC: 0.377438 (Simulation time: 2 hr 17 min 13 sec) 
Heartbeat CPU 0 instructions: 928000000 cycles: 2554424907 heartbeat IPC: 0.471739 cumulative IPC: 0.377596 (Simulation time: 2 hr 17 min 20 sec) 
Heartbeat CPU 0 instructions: 929000001 cycles: 2556727375 heartbeat IPC: 0.434317 cumulative IPC: 0.377699 (Simulation time: 2 hr 17 min 28 sec) 
Heartbeat CPU 0 instructions: 930000000 cycles: 2561127158 heartbeat IPC: 0.227284 cumulative IPC: 0.377179 (Simulation time: 2 hr 17 min 39 sec) 
Heartbeat CPU 0 instructions: 931000000 cycles: 2563353722 heartbeat IPC: 0.449123 cumulative IPC: 0.377304 (Simulation time: 2 hr 17 min 47 sec) 
Heartbeat CPU 0 instructions: 932000001 cycles: 2565054438 heartbeat IPC: 0.587988 cumulative IPC: 0.377585 (Simulation time: 2 hr 17 min 54 sec) 
Heartbeat CPU 0 instructions: 933000002 cycles: 2567015791 heartbeat IPC: 0.509853 cumulative IPC: 0.377788 (Simulation time: 2 hr 18 min 1 sec) 
Heartbeat CPU 0 instructions: 934000002 cycles: 2568819325 heartbeat IPC: 0.554467 cumulative IPC: 0.378037 (Simulation time: 2 hr 18 min 8 sec) 
Heartbeat CPU 0 instructions: 935000000 cycles: 2570626905 heartbeat IPC: 0.553225 cumulative IPC: 0.378284 (Simulation time: 2 hr 18 min 16 sec) 
Heartbeat CPU 0 instructions: 936000000 cycles: 2573532143 heartbeat IPC: 0.344206 cumulative IPC: 0.378207 (Simulation time: 2 hr 18 min 24 sec) 
Heartbeat CPU 0 instructions: 937000002 cycles: 2576807728 heartbeat IPC: 0.30529 cumulative IPC: 0.378021 (Simulation time: 2 hr 18 min 33 sec) 
Heartbeat CPU 0 instructions: 938000000 cycles: 2578756750 heartbeat IPC: 0.513077 cumulative IPC: 0.378225 (Simulation time: 2 hr 18 min 40 sec) 
Heartbeat CPU 0 instructions: 939000001 cycles: 2580700169 heartbeat IPC: 0.514558 cumulative IPC: 0.37843 (Simulation time: 2 hr 18 min 48 sec) 
Heartbeat CPU 0 instructions: 940000003 cycles: 2582817535 heartbeat IPC: 0.472286 cumulative IPC: 0.378584 (Simulation time: 2 hr 18 min 55 sec) 
Heartbeat CPU 0 instructions: 941000001 cycles: 2584872406 heartbeat IPC: 0.486648 cumulative IPC: 0.378755 (Simulation time: 2 hr 19 min 3 sec) 
Heartbeat CPU 0 instructions: 942000002 cycles: 2588848227 heartbeat IPC: 0.251521 cumulative IPC: 0.378366 (Simulation time: 2 hr 19 min 14 sec) 
Heartbeat CPU 0 instructions: 943000003 cycles: 2595237158 heartbeat IPC: 0.156521 cumulative IPC: 0.377282 (Simulation time: 2 hr 19 min 29 sec) 
Heartbeat CPU 0 instructions: 944000003 cycles: 2597441467 heartbeat IPC: 0.453657 cumulative IPC: 0.37741 (Simulation time: 2 hr 19 min 35 sec) 
Heartbeat CPU 0 instructions: 945000000 cycles: 2599207375 heartbeat IPC: 0.566279 cumulative IPC: 0.377665 (Simulation time: 2 hr 19 min 42 sec) 
Heartbeat CPU 0 instructions: 946000000 cycles: 2600953845 heartbeat IPC: 0.572584 cumulative IPC: 0.377924 (Simulation time: 2 hr 19 min 49 sec) 
Heartbeat CPU 0 instructions: 947000000 cycles: 2602905348 heartbeat IPC: 0.512426 cumulative IPC: 0.378124 (Simulation time: 2 hr 19 min 56 sec) 
Heartbeat CPU 0 instructions: 948000000 cycles: 2605145956 heartbeat IPC: 0.446307 cumulative IPC: 0.37824 (Simulation time: 2 hr 20 min 5 sec) 
Heartbeat CPU 0 instructions: 949000001 cycles: 2607286363 heartbeat IPC: 0.467201 cumulative IPC: 0.378384 (Simulation time: 2 hr 20 min 12 sec) 
Heartbeat CPU 0 instructions: 950000000 cycles: 2611992635 heartbeat IPC: 0.212482 cumulative IPC: 0.377794 (Simulation time: 2 hr 20 min 24 sec) 
Finished CPU 0 instructions: 500000000 cycles: 1323471809 cumulative IPC: 0.377794 (Simulation time: 2 hr 20 min 24 sec) 

ChampSim completed all CPUs

Region of Interest Statistics

CPU 0 cumulative IPC: 0.377794 instructions: 500000000 cycles: 1323471809
L1D TOTAL     ACCESS:  230451810  HIT:  217819778  MISS:   12632032
L1D LOAD      ACCESS:   91408959  HIT:   79921621  MISS:   11487338
L1D RFO       ACCESS:  139042851  HIT:  137898157  MISS:    1144694
L1D PREFETCH  ACCESS:          0  HIT:          0  MISS:          0
L1D WRITEBACK ACCESS:          0  HIT:          0  MISS:          0
L1D PREFETCH  REQUESTED:          0  ISSUED:          0  USEFUL:          0  USELESS:          0
L1D AVERAGE MISS LATENCY: 195.837 cycles
L1I TOTAL     ACCESS:  103890266  HIT:  103890266  MISS:          0
L1I LOAD      ACCESS:  103890266  HIT:  103890266  MISS:          0
L1I RFO       ACCESS:          0  HIT:          0  MISS:          0
L1I PREFETCH  ACCESS:          0  HIT:          0  MISS:          0
L1I WRITEBACK ACCESS:          0  HIT:          0  MISS:          0
L1I PREFETCH  REQUESTED:          0  ISSUED:          0  USEFUL:          0  USELESS:          0
L1I AVERAGE MISS LATENCY: -nan cycles
L2C TOTAL     ACCESS:   15627815  HIT:    3217605  MISS:   12410210
L2C LOAD      ACCESS:   11487263  HIT:     219488  MISS:   11267775
L2C RFO       ACCESS:    1144688  HIT:       9153  MISS:    1135535
L2C PREFETCH  ACCESS:          0  HIT:          0  MISS:          0
L2C WRITEBACK ACCESS:    2995864  HIT:    2988964  MISS:       6900
L2C PREFETCH  REQUESTED:          0  ISSUED:          0  USEFUL:          0  USELESS:          0
L2C AVERAGE MISS LATENCY: 182.808 cycles
LLC TOTAL     ACCESS:   16761510  HIT:    3847952  MISS:   12913558
LLC LOAD      ACCESS:   11267775  HIT:     553207  MISS:   10714568
LLC RFO       ACCESS:    1135535  HIT:      41387  MISS:    1094148
LLC PREFETCH  ACCESS:    1528137  HIT:     428155  MISS:    1099982
LLC WRITEBACK ACCESS:    2830063  HIT:    2825203  MISS:       4860
LLC PREFETCH  REQUESTED:   11267777  ISSUED:    1759291  USEFUL:     577356  USELESS:     521681
LLC AVERAGE MISS LATENCY: 159.495 cycles
Major fault: 0 Minor fault: 224018

DRAM Statistics
 CHANNEL 0
 RQ ROW_BUFFER_HIT:    4094805  ROW_BUFFER_MISS:    8813888
 DBUS_CONGESTED:    6836333
 WQ ROW_BUFFER_HIT:    1130655  ROW_BUFFER_MISS:    1688411  FULL:          0

 AVG_CONGESTED_CYCLE: 6

CPU 0 Branch Prediction Accuracy: 99.1681% MPKI: 0.815588 Average ROB Occupancy at Mispredict: 283.019

Branch types
NOT_BRANCH: 450981411 90.1963%
BRANCH_DIRECT_JUMP: 2292060 0.458412%
BRANCH_INDIRECT: 0 0%
BRANCH_CONDITIONAL: 46725815 9.34516%
BRANCH_DIRECT_CALL: 214 4.28e-05%
BRANCH_INDIRECT_CALL: 0 0%
BRANCH_RETURN: 214 4.28e-05%
BRANCH_OTHER: 0 0%

