
*** ChampSim Multicore Out-of-Order Simulator ***

Warmup Instructions: 1000000
Prefetch Warmup Instructions: 450000000
Simulation Instructions: 500000000
Stat Printing Period: 1000000
Number of CPUs: 1
LLC sets: 2048
LLC ways: 16
Off-chip DRAM Size: 4096 MB Channels: 1 Width: 64-bit Data Rate: 3200 MT/s

CPU 0 runs /scratch/cluster/cmolder/ML-DPC/ChampSimTraces/spec17/605.mcf-s6.trace.xz
Read seed: 227
Heartbeat CPU 0 instructions: 1000001 cycles: 411372 heartbeat IPC: 2.43089 cumulative IPC: 2.43089 (Simulation time: 0 hr 0 min 7 sec) 

Warmup complete CPU 0 instructions: 1000001 cycles: 411372 (Simulation time: 0 hr 0 min 7 sec) 

Heartbeat CPU 0 instructions: 2000001 cycles: 2944854 heartbeat IPC: 0.394714 cumulative IPC: 0.394714 (Simulation time: 0 hr 0 min 12 sec) 
Heartbeat CPU 0 instructions: 3000000 cycles: 5461832 heartbeat IPC: 0.397301 cumulative IPC: 0.396003 (Simulation time: 0 hr 0 min 18 sec) 
Heartbeat CPU 0 instructions: 4000002 cycles: 7945865 heartbeat IPC: 0.402572 cumulative IPC: 0.398169 (Simulation time: 0 hr 0 min 23 sec) 
Heartbeat CPU 0 instructions: 5000000 cycles: 10415844 heartbeat IPC: 0.404861 cumulative IPC: 0.399821 (Simulation time: 0 hr 0 min 29 sec) 
Heartbeat CPU 0 instructions: 6000001 cycles: 12867783 heartbeat IPC: 0.407841 cumulative IPC: 0.4014 (Simulation time: 0 hr 0 min 34 sec) 
Heartbeat CPU 0 instructions: 7000001 cycles: 15539713 heartbeat IPC: 0.374261 cumulative IPC: 0.396607 (Simulation time: 0 hr 0 min 39 sec) 
Heartbeat CPU 0 instructions: 8000002 cycles: 18051070 heartbeat IPC: 0.398191 cumulative IPC: 0.396832 (Simulation time: 0 hr 0 min 45 sec) 
Heartbeat CPU 0 instructions: 9000000 cycles: 20571801 heartbeat IPC: 0.39671 cumulative IPC: 0.396817 (Simulation time: 0 hr 0 min 50 sec) 
Heartbeat CPU 0 instructions: 10000000 cycles: 23088813 heartbeat IPC: 0.397296 cumulative IPC: 0.39687 (Simulation time: 0 hr 0 min 56 sec) 
Heartbeat CPU 0 instructions: 11000000 cycles: 25584388 heartbeat IPC: 0.400709 cumulative IPC: 0.397251 (Simulation time: 0 hr 1 min 1 sec) 
Heartbeat CPU 0 instructions: 12000001 cycles: 28143530 heartbeat IPC: 0.390756 cumulative IPC: 0.396651 (Simulation time: 0 hr 1 min 7 sec) 
Heartbeat CPU 0 instructions: 13000002 cycles: 30629813 heartbeat IPC: 0.402207 cumulative IPC: 0.397109 (Simulation time: 0 hr 1 min 13 sec) 
Heartbeat CPU 0 instructions: 14000003 cycles: 33123116 heartbeat IPC: 0.401075 cumulative IPC: 0.397411 (Simulation time: 0 hr 1 min 18 sec) 
Heartbeat CPU 0 instructions: 15000002 cycles: 35706154 heartbeat IPC: 0.387141 cumulative IPC: 0.396659 (Simulation time: 0 hr 1 min 24 sec) 
Heartbeat CPU 0 instructions: 16000001 cycles: 38243760 heartbeat IPC: 0.394072 cumulative IPC: 0.396486 (Simulation time: 0 hr 1 min 30 sec) 
Heartbeat CPU 0 instructions: 17000002 cycles: 40748800 heartbeat IPC: 0.399196 cumulative IPC: 0.396654 (Simulation time: 0 hr 1 min 36 sec) 
Heartbeat CPU 0 instructions: 18000001 cycles: 43279941 heartbeat IPC: 0.395078 cumulative IPC: 0.396561 (Simulation time: 0 hr 1 min 42 sec) 
Heartbeat CPU 0 instructions: 19000001 cycles: 45807956 heartbeat IPC: 0.395567 cumulative IPC: 0.396506 (Simulation time: 0 hr 1 min 47 sec) 
Heartbeat CPU 0 instructions: 20000001 cycles: 48220904 heartbeat IPC: 0.414431 cumulative IPC: 0.39741 (Simulation time: 0 hr 1 min 53 sec) 
Heartbeat CPU 0 instructions: 21000000 cycles: 50420990 heartbeat IPC: 0.454527 cumulative IPC: 0.399923 (Simulation time: 0 hr 2 min 0 sec) 
Heartbeat CPU 0 instructions: 22000000 cycles: 52808645 heartbeat IPC: 0.418821 cumulative IPC: 0.400784 (Simulation time: 0 hr 2 min 7 sec) 
Heartbeat CPU 0 instructions: 23000000 cycles: 55304814 heartbeat IPC: 0.400614 cumulative IPC: 0.400776 (Simulation time: 0 hr 2 min 12 sec) 
Heartbeat CPU 0 instructions: 24000000 cycles: 57796725 heartbeat IPC: 0.401298 cumulative IPC: 0.400799 (Simulation time: 0 hr 2 min 17 sec) 
Heartbeat CPU 0 instructions: 25000001 cycles: 60293508 heartbeat IPC: 0.400516 cumulative IPC: 0.400787 (Simulation time: 0 hr 2 min 22 sec) 
Heartbeat CPU 0 instructions: 26000000 cycles: 62869244 heartbeat IPC: 0.388238 cumulative IPC: 0.40027 (Simulation time: 0 hr 2 min 28 sec) 
Heartbeat CPU 0 instructions: 27000000 cycles: 65386665 heartbeat IPC: 0.397232 cumulative IPC: 0.400152 (Simulation time: 0 hr 2 min 33 sec) 
Heartbeat CPU 0 instructions: 28000000 cycles: 67906651 heartbeat IPC: 0.396828 cumulative IPC: 0.400028 (Simulation time: 0 hr 2 min 38 sec) 
Heartbeat CPU 0 instructions: 29000002 cycles: 70411623 heartbeat IPC: 0.399207 cumulative IPC: 0.399999 (Simulation time: 0 hr 2 min 43 sec) 
Heartbeat CPU 0 instructions: 30000000 cycles: 72895790 heartbeat IPC: 0.402549 cumulative IPC: 0.400086 (Simulation time: 0 hr 2 min 49 sec) 
Heartbeat CPU 0 instructions: 31000003 cycles: 75435285 heartbeat IPC: 0.39378 cumulative IPC: 0.399873 (Simulation time: 0 hr 2 min 55 sec) 
Heartbeat CPU 0 instructions: 32000000 cycles: 77921853 heartbeat IPC: 0.40216 cumulative IPC: 0.399946 (Simulation time: 0 hr 3 min 0 sec) 
Heartbeat CPU 0 instructions: 33000000 cycles: 80401665 heartbeat IPC: 0.403256 cumulative IPC: 0.400049 (Simulation time: 0 hr 3 min 5 sec) 
Heartbeat CPU 0 instructions: 34000001 cycles: 82892331 heartbeat IPC: 0.401499 cumulative IPC: 0.400092 (Simulation time: 0 hr 3 min 11 sec) 
Heartbeat CPU 0 instructions: 35000001 cycles: 85359488 heartbeat IPC: 0.405325 cumulative IPC: 0.400244 (Simulation time: 0 hr 3 min 16 sec) 
Heartbeat CPU 0 instructions: 36000000 cycles: 87913076 heartbeat IPC: 0.391605 cumulative IPC: 0.399992 (Simulation time: 0 hr 3 min 21 sec) 
Heartbeat CPU 0 instructions: 37000000 cycles: 90389291 heartbeat IPC: 0.403842 cumulative IPC: 0.400098 (Simulation time: 0 hr 3 min 27 sec) 
Heartbeat CPU 0 instructions: 38000000 cycles: 92899069 heartbeat IPC: 0.398442 cumulative IPC: 0.400053 (Simulation time: 0 hr 3 min 32 sec) 
Heartbeat CPU 0 instructions: 39000000 cycles: 95375546 heartbeat IPC: 0.403799 cumulative IPC: 0.400151 (Simulation time: 0 hr 3 min 38 sec) 
Heartbeat CPU 0 instructions: 40000000 cycles: 97857803 heartbeat IPC: 0.402859 cumulative IPC: 0.40022 (Simulation time: 0 hr 3 min 44 sec) 
Heartbeat CPU 0 instructions: 41000003 cycles: 100353775 heartbeat IPC: 0.400647 cumulative IPC: 0.400231 (Simulation time: 0 hr 3 min 50 sec) 
Heartbeat CPU 0 instructions: 42000002 cycles: 102923807 heartbeat IPC: 0.3891 cumulative IPC: 0.399951 (Simulation time: 0 hr 3 min 55 sec) 
Heartbeat CPU 0 instructions: 43000003 cycles: 105432573 heartbeat IPC: 0.398603 cumulative IPC: 0.399919 (Simulation time: 0 hr 4 min 1 sec) 
Heartbeat CPU 0 instructions: 44000000 cycles: 107831940 heartbeat IPC: 0.416775 cumulative IPC: 0.400296 (Simulation time: 0 hr 4 min 6 sec) 
Heartbeat CPU 0 instructions: 45000000 cycles: 110058316 heartbeat IPC: 0.44916 cumulative IPC: 0.401288 (Simulation time: 0 hr 4 min 11 sec) 
Heartbeat CPU 0 instructions: 46000001 cycles: 112446802 heartbeat IPC: 0.418676 cumulative IPC: 0.401659 (Simulation time: 0 hr 4 min 17 sec) 
Heartbeat CPU 0 instructions: 47000003 cycles: 114944780 heartbeat IPC: 0.400325 cumulative IPC: 0.40163 (Simulation time: 0 hr 4 min 22 sec) 
Heartbeat CPU 0 instructions: 48000001 cycles: 117441433 heartbeat IPC: 0.400535 cumulative IPC: 0.401606 (Simulation time: 0 hr 4 min 28 sec) 
Heartbeat CPU 0 instructions: 49000002 cycles: 119952466 heartbeat IPC: 0.398243 cumulative IPC: 0.401536 (Simulation time: 0 hr 4 min 34 sec) 
Heartbeat CPU 0 instructions: 50000000 cycles: 122430288 heartbeat IPC: 0.403579 cumulative IPC: 0.401577 (Simulation time: 0 hr 4 min 39 sec) 
Heartbeat CPU 0 instructions: 51000002 cycles: 124920321 heartbeat IPC: 0.401602 cumulative IPC: 0.401578 (Simulation time: 0 hr 4 min 44 sec) 
Heartbeat CPU 0 instructions: 52000000 cycles: 127401670 heartbeat IPC: 0.403006 cumulative IPC: 0.401605 (Simulation time: 0 hr 4 min 50 sec) 
Heartbeat CPU 0 instructions: 53000000 cycles: 129910832 heartbeat IPC: 0.398539 cumulative IPC: 0.401546 (Simulation time: 0 hr 4 min 56 sec) 
Heartbeat CPU 0 instructions: 54000000 cycles: 132444670 heartbeat IPC: 0.394658 cumulative IPC: 0.401414 (Simulation time: 0 hr 5 min 2 sec) 
Heartbeat CPU 0 instructions: 55000000 cycles: 135023665 heartbeat IPC: 0.387748 cumulative IPC: 0.401152 (Simulation time: 0 hr 5 min 8 sec) 
Heartbeat CPU 0 instructions: 56000001 cycles: 137553677 heartbeat IPC: 0.395255 cumulative IPC: 0.401043 (Simulation time: 0 hr 5 min 13 sec) 
Heartbeat CPU 0 instructions: 57000001 cycles: 140053878 heartbeat IPC: 0.399968 cumulative IPC: 0.401024 (Simulation time: 0 hr 5 min 19 sec) 
Heartbeat CPU 0 instructions: 58000002 cycles: 142615338 heartbeat IPC: 0.390403 cumulative IPC: 0.400833 (Simulation time: 0 hr 5 min 24 sec) 
Heartbeat CPU 0 instructions: 59000002 cycles: 145077417 heartbeat IPC: 0.406161 cumulative IPC: 0.400923 (Simulation time: 0 hr 5 min 29 sec) 
Heartbeat CPU 0 instructions: 60000003 cycles: 147554388 heartbeat IPC: 0.403719 cumulative IPC: 0.40097 (Simulation time: 0 hr 5 min 35 sec) 
Heartbeat CPU 0 instructions: 61000000 cycles: 150163297 heartbeat IPC: 0.383301 cumulative IPC: 0.400663 (Simulation time: 0 hr 5 min 40 sec) 
Heartbeat CPU 0 instructions: 62000001 cycles: 152659235 heartbeat IPC: 0.400651 cumulative IPC: 0.400662 (Simulation time: 0 hr 5 min 45 sec) 
Heartbeat CPU 0 instructions: 63000001 cycles: 155164752 heartbeat IPC: 0.399119 cumulative IPC: 0.400637 (Simulation time: 0 hr 5 min 50 sec) 
Heartbeat CPU 0 instructions: 64000000 cycles: 157676389 heartbeat IPC: 0.398146 cumulative IPC: 0.400598 (Simulation time: 0 hr 5 min 56 sec) 
Heartbeat CPU 0 instructions: 65000000 cycles: 160217108 heartbeat IPC: 0.393589 cumulative IPC: 0.400486 (Simulation time: 0 hr 6 min 1 sec) 
Heartbeat CPU 0 instructions: 66000000 cycles: 162707302 heartbeat IPC: 0.401575 cumulative IPC: 0.400503 (Simulation time: 0 hr 6 min 7 sec) 
Heartbeat CPU 0 instructions: 67000003 cycles: 164967654 heartbeat IPC: 0.44241 cumulative IPC: 0.401079 (Simulation time: 0 hr 6 min 12 sec) 
Heartbeat CPU 0 instructions: 68000001 cycles: 167323363 heartbeat IPC: 0.4245 cumulative IPC: 0.401409 (Simulation time: 0 hr 6 min 17 sec) 
Heartbeat CPU 0 instructions: 69000000 cycles: 169770149 heartbeat IPC: 0.408699 cumulative IPC: 0.401514 (Simulation time: 0 hr 6 min 23 sec) 
Heartbeat CPU 0 instructions: 70000003 cycles: 172283233 heartbeat IPC: 0.397919 cumulative IPC: 0.401462 (Simulation time: 0 hr 6 min 28 sec) 
Heartbeat CPU 0 instructions: 71000000 cycles: 174744927 heartbeat IPC: 0.406223 cumulative IPC: 0.401529 (Simulation time: 0 hr 6 min 34 sec) 
Heartbeat CPU 0 instructions: 72000000 cycles: 177257620 heartbeat IPC: 0.397979 cumulative IPC: 0.401479 (Simulation time: 0 hr 6 min 39 sec) 
Heartbeat CPU 0 instructions: 73000002 cycles: 179736804 heartbeat IPC: 0.403359 cumulative IPC: 0.401505 (Simulation time: 0 hr 6 min 45 sec) 
Heartbeat CPU 0 instructions: 74000000 cycles: 182279429 heartbeat IPC: 0.393294 cumulative IPC: 0.40139 (Simulation time: 0 hr 6 min 50 sec) 
Heartbeat CPU 0 instructions: 75000000 cycles: 184802446 heartbeat IPC: 0.396351 cumulative IPC: 0.401321 (Simulation time: 0 hr 6 min 55 sec) 
Heartbeat CPU 0 instructions: 76000002 cycles: 187298164 heartbeat IPC: 0.400687 cumulative IPC: 0.401312 (Simulation time: 0 hr 7 min 1 sec) 
Heartbeat CPU 0 instructions: 77000000 cycles: 189792400 heartbeat IPC: 0.400924 cumulative IPC: 0.401307 (Simulation time: 0 hr 7 min 6 sec) 
Heartbeat CPU 0 instructions: 78000001 cycles: 192283746 heartbeat IPC: 0.40139 cumulative IPC: 0.401308 (Simulation time: 0 hr 7 min 12 sec) 
Heartbeat CPU 0 instructions: 79000002 cycles: 194764723 heartbeat IPC: 0.403067 cumulative IPC: 0.401331 (Simulation time: 0 hr 7 min 17 sec) 
Heartbeat CPU 0 instructions: 80000001 cycles: 197240969 heartbeat IPC: 0.403837 cumulative IPC: 0.401362 (Simulation time: 0 hr 7 min 23 sec) 
Heartbeat CPU 0 instructions: 81000000 cycles: 199726535 heartbeat IPC: 0.402322 cumulative IPC: 0.401374 (Simulation time: 0 hr 7 min 28 sec) 
Heartbeat CPU 0 instructions: 82000002 cycles: 202212308 heartbeat IPC: 0.40229 cumulative IPC: 0.401386 (Simulation time: 0 hr 7 min 33 sec) 
Heartbeat CPU 0 instructions: 83000003 cycles: 204715615 heartbeat IPC: 0.399472 cumulative IPC: 0.401362 (Simulation time: 0 hr 7 min 38 sec) 
Heartbeat CPU 0 instructions: 84000002 cycles: 207231934 heartbeat IPC: 0.397406 cumulative IPC: 0.401314 (Simulation time: 0 hr 7 min 43 sec) 
Heartbeat CPU 0 instructions: 85000000 cycles: 209725514 heartbeat IPC: 0.401029 cumulative IPC: 0.401311 (Simulation time: 0 hr 7 min 48 sec) 
Heartbeat CPU 0 instructions: 86000001 cycles: 212180697 heartbeat IPC: 0.407302 cumulative IPC: 0.40138 (Simulation time: 0 hr 7 min 54 sec) 
Heartbeat CPU 0 instructions: 87000003 cycles: 214582996 heartbeat IPC: 0.416269 cumulative IPC: 0.401547 (Simulation time: 0 hr 7 min 59 sec) 
Heartbeat CPU 0 instructions: 88000000 cycles: 216976671 heartbeat IPC: 0.417766 cumulative IPC: 0.401726 (Simulation time: 0 hr 8 min 4 sec) 
Heartbeat CPU 0 instructions: 89000000 cycles: 220243840 heartbeat IPC: 0.306075 cumulative IPC: 0.400305 (Simulation time: 0 hr 8 min 9 sec) 
Heartbeat CPU 0 instructions: 90000001 cycles: 223050374 heartbeat IPC: 0.356312 cumulative IPC: 0.39975 (Simulation time: 0 hr 8 min 15 sec) 
Heartbeat CPU 0 instructions: 91000000 cycles: 225114793 heartbeat IPC: 0.484397 cumulative IPC: 0.400528 (Simulation time: 0 hr 8 min 20 sec) 
Heartbeat CPU 0 instructions: 92000000 cycles: 227866276 heartbeat IPC: 0.36344 cumulative IPC: 0.400079 (Simulation time: 0 hr 8 min 25 sec) 
Heartbeat CPU 0 instructions: 93000001 cycles: 229995106 heartbeat IPC: 0.469742 cumulative IPC: 0.400725 (Simulation time: 0 hr 8 min 30 sec) 
Heartbeat CPU 0 instructions: 94000000 cycles: 232719423 heartbeat IPC: 0.367064 cumulative IPC: 0.400331 (Simulation time: 0 hr 8 min 36 sec) 
Heartbeat CPU 0 instructions: 95000002 cycles: 234803172 heartbeat IPC: 0.479905 cumulative IPC: 0.401038 (Simulation time: 0 hr 8 min 40 sec) 
Heartbeat CPU 0 instructions: 96000000 cycles: 237525154 heartbeat IPC: 0.367379 cumulative IPC: 0.400652 (Simulation time: 0 hr 8 min 46 sec) 
Heartbeat CPU 0 instructions: 97000001 cycles: 239591924 heartbeat IPC: 0.483847 cumulative IPC: 0.40137 (Simulation time: 0 hr 8 min 50 sec) 
Heartbeat CPU 0 instructions: 98000002 cycles: 242327504 heartbeat IPC: 0.365554 cumulative IPC: 0.400965 (Simulation time: 0 hr 8 min 55 sec) 
Heartbeat CPU 0 instructions: 99000000 cycles: 244398882 heartbeat IPC: 0.482769 cumulative IPC: 0.40166 (Simulation time: 0 hr 9 min 0 sec) 
Heartbeat CPU 0 instructions: 100000000 cycles: 247118411 heartbeat IPC: 0.367711 cumulative IPC: 0.401286 (Simulation time: 0 hr 9 min 5 sec) 
Heartbeat CPU 0 instructions: 101000002 cycles: 249194631 heartbeat IPC: 0.481645 cumulative IPC: 0.401956 (Simulation time: 0 hr 9 min 10 sec) 
Heartbeat CPU 0 instructions: 102000000 cycles: 251985634 heartbeat IPC: 0.358293 cumulative IPC: 0.401472 (Simulation time: 0 hr 9 min 15 sec) 
Heartbeat CPU 0 instructions: 103000003 cycles: 254027026 heartbeat IPC: 0.489863 cumulative IPC: 0.402183 (Simulation time: 0 hr 9 min 20 sec) 
Heartbeat CPU 0 instructions: 104000001 cycles: 256830689 heartbeat IPC: 0.356676 cumulative IPC: 0.401686 (Simulation time: 0 hr 9 min 25 sec) 
Heartbeat CPU 0 instructions: 105000000 cycles: 258871019 heartbeat IPC: 0.490116 cumulative IPC: 0.402384 (Simulation time: 0 hr 9 min 30 sec) 
Heartbeat CPU 0 instructions: 106000000 cycles: 261610815 heartbeat IPC: 0.364991 cumulative IPC: 0.401992 (Simulation time: 0 hr 9 min 35 sec) 
Heartbeat CPU 0 instructions: 107000001 cycles: 263682785 heartbeat IPC: 0.482633 cumulative IPC: 0.402626 (Simulation time: 0 hr 9 min 39 sec) 
Heartbeat CPU 0 instructions: 108000003 cycles: 266463578 heartbeat IPC: 0.35961 cumulative IPC: 0.402177 (Simulation time: 0 hr 9 min 45 sec) 
Heartbeat CPU 0 instructions: 109000002 cycles: 268549246 heartbeat IPC: 0.479462 cumulative IPC: 0.402778 (Simulation time: 0 hr 9 min 50 sec) 
Heartbeat CPU 0 instructions: 110000000 cycles: 271307476 heartbeat IPC: 0.362551 cumulative IPC: 0.402368 (Simulation time: 0 hr 9 min 55 sec) 
Heartbeat CPU 0 instructions: 111000000 cycles: 273397975 heartbeat IPC: 0.478355 cumulative IPC: 0.40295 (Simulation time: 0 hr 9 min 59 sec) 
Heartbeat CPU 0 instructions: 112000003 cycles: 276104090 heartbeat IPC: 0.369535 cumulative IPC: 0.402622 (Simulation time: 0 hr 10 min 5 sec) 
Heartbeat CPU 0 instructions: 113000003 cycles: 278167904 heartbeat IPC: 0.48454 cumulative IPC: 0.403231 (Simulation time: 0 hr 10 min 9 sec) 
Heartbeat CPU 0 instructions: 114000001 cycles: 280895841 heartbeat IPC: 0.366577 cumulative IPC: 0.402874 (Simulation time: 0 hr 10 min 14 sec) 
Heartbeat CPU 0 instructions: 115000000 cycles: 282948461 heartbeat IPC: 0.487182 cumulative IPC: 0.403487 (Simulation time: 0 hr 10 min 19 sec) 
Heartbeat CPU 0 instructions: 116000000 cycles: 285650827 heartbeat IPC: 0.370046 cumulative IPC: 0.40317 (Simulation time: 0 hr 10 min 24 sec) 
Heartbeat CPU 0 instructions: 117000001 cycles: 287718315 heartbeat IPC: 0.483679 cumulative IPC: 0.403749 (Simulation time: 0 hr 10 min 29 sec) 
Heartbeat CPU 0 instructions: 118000003 cycles: 290423181 heartbeat IPC: 0.369705 cumulative IPC: 0.403432 (Simulation time: 0 hr 10 min 34 sec) 
Heartbeat CPU 0 instructions: 119000000 cycles: 292471361 heartbeat IPC: 0.488237 cumulative IPC: 0.404027 (Simulation time: 0 hr 10 min 39 sec) 
Heartbeat CPU 0 instructions: 120000000 cycles: 295197840 heartbeat IPC: 0.366773 cumulative IPC: 0.403682 (Simulation time: 0 hr 10 min 44 sec) 
Heartbeat CPU 0 instructions: 121000000 cycles: 297254777 heartbeat IPC: 0.48616 cumulative IPC: 0.404254 (Simulation time: 0 hr 10 min 48 sec) 
Heartbeat CPU 0 instructions: 122000002 cycles: 299953472 heartbeat IPC: 0.37055 cumulative IPC: 0.40395 (Simulation time: 0 hr 10 min 53 sec) 
Heartbeat CPU 0 instructions: 123000000 cycles: 302019314 heartbeat IPC: 0.484063 cumulative IPC: 0.404499 (Simulation time: 0 hr 10 min 58 sec) 
Heartbeat CPU 0 instructions: 124000000 cycles: 304722152 heartbeat IPC: 0.369981 cumulative IPC: 0.404192 (Simulation time: 0 hr 11 min 3 sec) 
Heartbeat CPU 0 instructions: 125000000 cycles: 306803664 heartbeat IPC: 0.48042 cumulative IPC: 0.40471 (Simulation time: 0 hr 11 min 8 sec) 
Heartbeat CPU 0 instructions: 126000000 cycles: 309508749 heartbeat IPC: 0.369674 cumulative IPC: 0.404403 (Simulation time: 0 hr 11 min 13 sec) 
Heartbeat CPU 0 instructions: 127000000 cycles: 311644030 heartbeat IPC: 0.468322 cumulative IPC: 0.404842 (Simulation time: 0 hr 11 min 18 sec) 
Heartbeat CPU 0 instructions: 128000000 cycles: 314303037 heartbeat IPC: 0.37608 cumulative IPC: 0.404598 (Simulation time: 0 hr 11 min 23 sec) 
Heartbeat CPU 0 instructions: 129000000 cycles: 316487726 heartbeat IPC: 0.457731 cumulative IPC: 0.404965 (Simulation time: 0 hr 11 min 28 sec) 
Heartbeat CPU 0 instructions: 130000000 cycles: 318985775 heartbeat IPC: 0.400312 cumulative IPC: 0.404929 (Simulation time: 0 hr 11 min 33 sec) 
Heartbeat CPU 0 instructions: 131000001 cycles: 321284841 heartbeat IPC: 0.43496 cumulative IPC: 0.405144 (Simulation time: 0 hr 11 min 37 sec) 
Heartbeat CPU 0 instructions: 132000000 cycles: 323669480 heartbeat IPC: 0.41935 cumulative IPC: 0.405249 (Simulation time: 0 hr 11 min 42 sec) 
Heartbeat CPU 0 instructions: 133000001 cycles: 326094003 heartbeat IPC: 0.412453 cumulative IPC: 0.405303 (Simulation time: 0 hr 11 min 47 sec) 
Heartbeat CPU 0 instructions: 134000001 cycles: 328519488 heartbeat IPC: 0.412289 cumulative IPC: 0.405354 (Simulation time: 0 hr 11 min 52 sec) 
Heartbeat CPU 0 instructions: 135000003 cycles: 330930416 heartbeat IPC: 0.414779 cumulative IPC: 0.405423 (Simulation time: 0 hr 11 min 57 sec) 
Heartbeat CPU 0 instructions: 136000002 cycles: 333259532 heartbeat IPC: 0.429347 cumulative IPC: 0.40559 (Simulation time: 0 hr 12 min 2 sec) 
Heartbeat CPU 0 instructions: 137000001 cycles: 335681672 heartbeat IPC: 0.412858 cumulative IPC: 0.405643 (Simulation time: 0 hr 12 min 6 sec) 
Heartbeat CPU 0 instructions: 138000001 cycles: 338217527 heartbeat IPC: 0.394344 cumulative IPC: 0.405558 (Simulation time: 0 hr 12 min 11 sec) 
Heartbeat CPU 0 instructions: 139000000 cycles: 340971534 heartbeat IPC: 0.363107 cumulative IPC: 0.405215 (Simulation time: 0 hr 12 min 16 sec) 
Heartbeat CPU 0 instructions: 140000002 cycles: 343453669 heartbeat IPC: 0.40288 cumulative IPC: 0.405198 (Simulation time: 0 hr 12 min 21 sec) 
Heartbeat CPU 0 instructions: 141000000 cycles: 346029237 heartbeat IPC: 0.388263 cumulative IPC: 0.405072 (Simulation time: 0 hr 12 min 26 sec) 
Heartbeat CPU 0 instructions: 142000000 cycles: 348217837 heartbeat IPC: 0.456913 cumulative IPC: 0.405398 (Simulation time: 0 hr 12 min 31 sec) 
Heartbeat CPU 0 instructions: 143000000 cycles: 350919227 heartbeat IPC: 0.37018 cumulative IPC: 0.405126 (Simulation time: 0 hr 12 min 35 sec) 
Heartbeat CPU 0 instructions: 144000003 cycles: 353013280 heartbeat IPC: 0.477544 cumulative IPC: 0.405557 (Simulation time: 0 hr 12 min 40 sec) 
Heartbeat CPU 0 instructions: 145000001 cycles: 355855408 heartbeat IPC: 0.351848 cumulative IPC: 0.405127 (Simulation time: 0 hr 12 min 45 sec) 
Heartbeat CPU 0 instructions: 146000002 cycles: 357987317 heartbeat IPC: 0.469064 cumulative IPC: 0.405508 (Simulation time: 0 hr 12 min 50 sec) 
Heartbeat CPU 0 instructions: 147000000 cycles: 360740508 heartbeat IPC: 0.363214 cumulative IPC: 0.405185 (Simulation time: 0 hr 12 min 55 sec) 
Heartbeat CPU 0 instructions: 148000000 cycles: 362877712 heartbeat IPC: 0.467901 cumulative IPC: 0.405555 (Simulation time: 0 hr 12 min 59 sec) 
Heartbeat CPU 0 instructions: 149000000 cycles: 365652058 heartbeat IPC: 0.360445 cumulative IPC: 0.405212 (Simulation time: 0 hr 13 min 5 sec) 
Heartbeat CPU 0 instructions: 150000000 cycles: 367752555 heartbeat IPC: 0.476078 cumulative IPC: 0.405617 (Simulation time: 0 hr 13 min 9 sec) 
Heartbeat CPU 0 instructions: 151000000 cycles: 370167030 heartbeat IPC: 0.414169 cumulative IPC: 0.405673 (Simulation time: 0 hr 13 min 14 sec) 
Heartbeat CPU 0 instructions: 152000003 cycles: 372747229 heartbeat IPC: 0.387568 cumulative IPC: 0.405548 (Simulation time: 0 hr 13 min 19 sec) 
Heartbeat CPU 0 instructions: 153000000 cycles: 374840495 heartbeat IPC: 0.477721 cumulative IPC: 0.405951 (Simulation time: 0 hr 13 min 24 sec) 
Heartbeat CPU 0 instructions: 154000000 cycles: 377630339 heartbeat IPC: 0.358443 cumulative IPC: 0.4056 (Simulation time: 0 hr 13 min 29 sec) 
Heartbeat CPU 0 instructions: 155000000 cycles: 379794531 heartbeat IPC: 0.462066 cumulative IPC: 0.405922 (Simulation time: 0 hr 13 min 33 sec) 
Heartbeat CPU 0 instructions: 156000000 cycles: 382641567 heartbeat IPC: 0.351242 cumulative IPC: 0.405515 (Simulation time: 0 hr 13 min 38 sec) 
Heartbeat CPU 0 instructions: 157000001 cycles: 384752180 heartbeat IPC: 0.473796 cumulative IPC: 0.40589 (Simulation time: 0 hr 13 min 43 sec) 
Heartbeat CPU 0 instructions: 158000000 cycles: 387317309 heartbeat IPC: 0.389844 cumulative IPC: 0.405783 (Simulation time: 0 hr 13 min 48 sec) 
Heartbeat CPU 0 instructions: 159000000 cycles: 389645254 heartbeat IPC: 0.429563 cumulative IPC: 0.405926 (Simulation time: 0 hr 13 min 53 sec) 
Heartbeat CPU 0 instructions: 160000000 cycles: 391732000 heartbeat IPC: 0.479215 cumulative IPC: 0.406316 (Simulation time: 0 hr 13 min 57 sec) 
Heartbeat CPU 0 instructions: 161000001 cycles: 394591160 heartbeat IPC: 0.349753 cumulative IPC: 0.405906 (Simulation time: 0 hr 14 min 3 sec) 
Heartbeat CPU 0 instructions: 162000001 cycles: 396680378 heartbeat IPC: 0.478648 cumulative IPC: 0.40629 (Simulation time: 0 hr 14 min 7 sec) 
Heartbeat CPU 0 instructions: 163000000 cycles: 399455330 heartbeat IPC: 0.360366 cumulative IPC: 0.40597 (Simulation time: 0 hr 14 min 13 sec) 
Heartbeat CPU 0 instructions: 164000000 cycles: 401574343 heartbeat IPC: 0.471918 cumulative IPC: 0.406319 (Simulation time: 0 hr 14 min 17 sec) 
Heartbeat CPU 0 instructions: 165000000 cycles: 404356437 heartbeat IPC: 0.359441 cumulative IPC: 0.405996 (Simulation time: 0 hr 14 min 23 sec) 
Heartbeat CPU 0 instructions: 166000001 cycles: 406566579 heartbeat IPC: 0.45246 cumulative IPC: 0.406249 (Simulation time: 0 hr 14 min 27 sec) 
Heartbeat CPU 0 instructions: 167000002 cycles: 408745439 heartbeat IPC: 0.458956 cumulative IPC: 0.40653 (Simulation time: 0 hr 14 min 32 sec) 
Heartbeat CPU 0 instructions: 168000000 cycles: 411500556 heartbeat IPC: 0.36296 cumulative IPC: 0.406238 (Simulation time: 0 hr 14 min 37 sec) 
Heartbeat CPU 0 instructions: 169000003 cycles: 413598816 heartbeat IPC: 0.476587 cumulative IPC: 0.406595 (Simulation time: 0 hr 14 min 42 sec) 
Heartbeat CPU 0 instructions: 170000000 cycles: 416413755 heartbeat IPC: 0.355246 cumulative IPC: 0.406248 (Simulation time: 0 hr 14 min 47 sec) 
Heartbeat CPU 0 instructions: 171000001 cycles: 418525355 heartbeat IPC: 0.473575 cumulative IPC: 0.406588 (Simulation time: 0 hr 14 min 52 sec) 
Heartbeat CPU 0 instructions: 172000000 cycles: 421312596 heartbeat IPC: 0.358777 cumulative IPC: 0.406271 (Simulation time: 0 hr 14 min 57 sec) 
Heartbeat CPU 0 instructions: 173000001 cycles: 423401163 heartbeat IPC: 0.478798 cumulative IPC: 0.406629 (Simulation time: 0 hr 15 min 2 sec) 
Heartbeat CPU 0 instructions: 174000002 cycles: 426157762 heartbeat IPC: 0.362766 cumulative IPC: 0.406345 (Simulation time: 0 hr 15 min 7 sec) 
Heartbeat CPU 0 instructions: 175000003 cycles: 428260696 heartbeat IPC: 0.475527 cumulative IPC: 0.406685 (Simulation time: 0 hr 15 min 12 sec) 
Heartbeat CPU 0 instructions: 176000000 cycles: 431046876 heartbeat IPC: 0.358913 cumulative IPC: 0.406376 (Simulation time: 0 hr 15 min 17 sec) 
Heartbeat CPU 0 instructions: 177000002 cycles: 433144080 heartbeat IPC: 0.476826 cumulative IPC: 0.406718 (Simulation time: 0 hr 15 min 22 sec) 
Heartbeat CPU 0 instructions: 178000000 cycles: 435381091 heartbeat IPC: 0.447024 cumulative IPC: 0.406925 (Simulation time: 0 hr 15 min 27 sec) 
Heartbeat CPU 0 instructions: 179000001 cycles: 438028343 heartbeat IPC: 0.377751 cumulative IPC: 0.406748 (Simulation time: 0 hr 15 min 32 sec) 
Heartbeat CPU 0 instructions: 180000001 cycles: 440249735 heartbeat IPC: 0.450168 cumulative IPC: 0.406968 (Simulation time: 0 hr 15 min 37 sec) 
Heartbeat CPU 0 instructions: 181000000 cycles: 442962741 heartbeat IPC: 0.368594 cumulative IPC: 0.406732 (Simulation time: 0 hr 15 min 42 sec) 
Heartbeat CPU 0 instructions: 182000000 cycles: 445047198 heartbeat IPC: 0.479741 cumulative IPC: 0.407075 (Simulation time: 0 hr 15 min 47 sec) 
Heartbeat CPU 0 instructions: 183000000 cycles: 447829928 heartbeat IPC: 0.359359 cumulative IPC: 0.406778 (Simulation time: 0 hr 15 min 52 sec) 
Heartbeat CPU 0 instructions: 184000003 cycles: 449924916 heartbeat IPC: 0.477331 cumulative IPC: 0.407107 (Simulation time: 0 hr 15 min 57 sec) 
Heartbeat CPU 0 instructions: 185000001 cycles: 452674829 heartbeat IPC: 0.363647 cumulative IPC: 0.406842 (Simulation time: 0 hr 16 min 2 sec) 
Heartbeat CPU 0 instructions: 186000001 cycles: 454842746 heartbeat IPC: 0.461272 cumulative IPC: 0.407102 (Simulation time: 0 hr 16 min 7 sec) 
Heartbeat CPU 0 instructions: 187000000 cycles: 457497265 heartbeat IPC: 0.376716 cumulative IPC: 0.406926 (Simulation time: 0 hr 16 min 12 sec) 
Heartbeat CPU 0 instructions: 188000000 cycles: 459572593 heartbeat IPC: 0.481852 cumulative IPC: 0.407264 (Simulation time: 0 hr 16 min 17 sec) 
Heartbeat CPU 0 instructions: 189000002 cycles: 462325564 heartbeat IPC: 0.363245 cumulative IPC: 0.407002 (Simulation time: 0 hr 16 min 22 sec) 
Heartbeat CPU 0 instructions: 190000002 cycles: 464410446 heartbeat IPC: 0.479643 cumulative IPC: 0.407328 (Simulation time: 0 hr 16 min 27 sec) 
Heartbeat CPU 0 instructions: 191000002 cycles: 467181232 heartbeat IPC: 0.360908 cumulative IPC: 0.407053 (Simulation time: 0 hr 16 min 33 sec) 
Heartbeat CPU 0 instructions: 192000002 cycles: 469323699 heartbeat IPC: 0.466752 cumulative IPC: 0.407326 (Simulation time: 0 hr 16 min 37 sec) 
Heartbeat CPU 0 instructions: 193000000 cycles: 472076891 heartbeat IPC: 0.363214 cumulative IPC: 0.407068 (Simulation time: 0 hr 16 min 43 sec) 
Heartbeat CPU 0 instructions: 194000001 cycles: 474174454 heartbeat IPC: 0.476744 cumulative IPC: 0.407377 (Simulation time: 0 hr 16 min 47 sec) 
Heartbeat CPU 0 instructions: 195000001 cycles: 476900686 heartbeat IPC: 0.366807 cumulative IPC: 0.407144 (Simulation time: 0 hr 16 min 53 sec) 
Heartbeat CPU 0 instructions: 196000000 cycles: 479000085 heartbeat IPC: 0.476326 cumulative IPC: 0.407448 (Simulation time: 0 hr 16 min 57 sec) 
Heartbeat CPU 0 instructions: 197000002 cycles: 481783840 heartbeat IPC: 0.359228 cumulative IPC: 0.407169 (Simulation time: 0 hr 17 min 2 sec) 
Heartbeat CPU 0 instructions: 198000000 cycles: 483899570 heartbeat IPC: 0.472649 cumulative IPC: 0.407456 (Simulation time: 0 hr 17 min 7 sec) 
Heartbeat CPU 0 instructions: 199000003 cycles: 486665824 heartbeat IPC: 0.361501 cumulative IPC: 0.407194 (Simulation time: 0 hr 17 min 13 sec) 
Heartbeat CPU 0 instructions: 200000000 cycles: 488766650 heartbeat IPC: 0.476002 cumulative IPC: 0.40749 (Simulation time: 0 hr 17 min 17 sec) 
Heartbeat CPU 0 instructions: 201000003 cycles: 491236694 heartbeat IPC: 0.404852 cumulative IPC: 0.407477 (Simulation time: 0 hr 17 min 22 sec) 
Heartbeat CPU 0 instructions: 202000001 cycles: 493680519 heartbeat IPC: 0.409194 cumulative IPC: 0.407485 (Simulation time: 0 hr 17 min 27 sec) 
Heartbeat CPU 0 instructions: 203000001 cycles: 495864998 heartbeat IPC: 0.457775 cumulative IPC: 0.407707 (Simulation time: 0 hr 17 min 32 sec) 
Heartbeat CPU 0 instructions: 204000000 cycles: 498570575 heartbeat IPC: 0.369607 cumulative IPC: 0.4075 (Simulation time: 0 hr 17 min 37 sec) 
Heartbeat CPU 0 instructions: 205000000 cycles: 500697186 heartbeat IPC: 0.470232 cumulative IPC: 0.407767 (Simulation time: 0 hr 17 min 42 sec) 
Heartbeat CPU 0 instructions: 206000000 cycles: 503437908 heartbeat IPC: 0.364867 cumulative IPC: 0.407533 (Simulation time: 0 hr 17 min 47 sec) 
Heartbeat CPU 0 instructions: 207000003 cycles: 505493636 heartbeat IPC: 0.486447 cumulative IPC: 0.407854 (Simulation time: 0 hr 17 min 52 sec) 
Heartbeat CPU 0 instructions: 208000000 cycles: 508227662 heartbeat IPC: 0.36576 cumulative IPC: 0.407628 (Simulation time: 0 hr 17 min 57 sec) 
Heartbeat CPU 0 instructions: 209000000 cycles: 510289770 heartbeat IPC: 0.484941 cumulative IPC: 0.40794 (Simulation time: 0 hr 18 min 2 sec) 
Heartbeat CPU 0 instructions: 210000003 cycles: 513042074 heartbeat IPC: 0.363333 cumulative IPC: 0.407701 (Simulation time: 0 hr 18 min 7 sec) 
Heartbeat CPU 0 instructions: 211000000 cycles: 515110768 heartbeat IPC: 0.483395 cumulative IPC: 0.408005 (Simulation time: 0 hr 18 min 12 sec) 
Heartbeat CPU 0 instructions: 212000001 cycles: 517860447 heartbeat IPC: 0.363679 cumulative IPC: 0.40777 (Simulation time: 0 hr 18 min 17 sec) 
Heartbeat CPU 0 instructions: 213000002 cycles: 519975855 heartbeat IPC: 0.472723 cumulative IPC: 0.408034 (Simulation time: 0 hr 18 min 22 sec) 
Heartbeat CPU 0 instructions: 214000002 cycles: 522418845 heartbeat IPC: 0.409334 cumulative IPC: 0.40804 (Simulation time: 0 hr 18 min 27 sec) 
Heartbeat CPU 0 instructions: 215000002 cycles: 524782347 heartbeat IPC: 0.423101 cumulative IPC: 0.408108 (Simulation time: 0 hr 18 min 32 sec) 
Heartbeat CPU 0 instructions: 216000000 cycles: 526889203 heartbeat IPC: 0.47464 cumulative IPC: 0.408374 (Simulation time: 0 hr 18 min 36 sec) 
Heartbeat CPU 0 instructions: 217000000 cycles: 529699596 heartbeat IPC: 0.355822 cumulative IPC: 0.408095 (Simulation time: 0 hr 18 min 42 sec) 
Heartbeat CPU 0 instructions: 218000001 cycles: 531805428 heartbeat IPC: 0.474872 cumulative IPC: 0.40836 (Simulation time: 0 hr 18 min 46 sec) 
Heartbeat CPU 0 instructions: 219000000 cycles: 534595186 heartbeat IPC: 0.358454 cumulative IPC: 0.408099 (Simulation time: 0 hr 18 min 52 sec) 
Heartbeat CPU 0 instructions: 220000000 cycles: 536713844 heartbeat IPC: 0.471997 cumulative IPC: 0.408352 (Simulation time: 0 hr 18 min 56 sec) 
Heartbeat CPU 0 instructions: 221000001 cycles: 539438300 heartbeat IPC: 0.367046 cumulative IPC: 0.408143 (Simulation time: 0 hr 19 min 1 sec) 
Heartbeat CPU 0 instructions: 222000000 cycles: 541538724 heartbeat IPC: 0.476094 cumulative IPC: 0.408407 (Simulation time: 0 hr 19 min 6 sec) 
Heartbeat CPU 0 instructions: 223000002 cycles: 544276157 heartbeat IPC: 0.365306 cumulative IPC: 0.40819 (Simulation time: 0 hr 19 min 11 sec) 
Heartbeat CPU 0 instructions: 224000001 cycles: 546336879 heartbeat IPC: 0.485266 cumulative IPC: 0.408481 (Simulation time: 0 hr 19 min 16 sec) 
Heartbeat CPU 0 instructions: 225000000 cycles: 549141031 heartbeat IPC: 0.356614 cumulative IPC: 0.408216 (Simulation time: 0 hr 19 min 21 sec) 
Heartbeat CPU 0 instructions: 226000000 cycles: 551984320 heartbeat IPC: 0.351705 cumulative IPC: 0.407924 (Simulation time: 0 hr 19 min 26 sec) 
Heartbeat CPU 0 instructions: 227000003 cycles: 554116625 heartbeat IPC: 0.468977 cumulative IPC: 0.408159 (Simulation time: 0 hr 19 min 30 sec) 
Heartbeat CPU 0 instructions: 228000002 cycles: 556982371 heartbeat IPC: 0.348949 cumulative IPC: 0.407855 (Simulation time: 0 hr 19 min 36 sec) 
Heartbeat CPU 0 instructions: 229000001 cycles: 559115193 heartbeat IPC: 0.468862 cumulative IPC: 0.408087 (Simulation time: 0 hr 19 min 41 sec) 
Heartbeat CPU 0 instructions: 230000000 cycles: 561766232 heartbeat IPC: 0.37721 cumulative IPC: 0.407942 (Simulation time: 0 hr 19 min 46 sec) 
Heartbeat CPU 0 instructions: 231000000 cycles: 564039392 heartbeat IPC: 0.439916 cumulative IPC: 0.408071 (Simulation time: 0 hr 19 min 51 sec) 
Heartbeat CPU 0 instructions: 232000001 cycles: 566161509 heartbeat IPC: 0.471228 cumulative IPC: 0.408307 (Simulation time: 0 hr 19 min 56 sec) 
Heartbeat CPU 0 instructions: 233000001 cycles: 568997327 heartbeat IPC: 0.352632 cumulative IPC: 0.40803 (Simulation time: 0 hr 20 min 1 sec) 
Heartbeat CPU 0 instructions: 234000001 cycles: 571107078 heartbeat IPC: 0.47399 cumulative IPC: 0.408274 (Simulation time: 0 hr 20 min 6 sec) 
Heartbeat CPU 0 instructions: 235000003 cycles: 573236803 heartbeat IPC: 0.469545 cumulative IPC: 0.408501 (Simulation time: 0 hr 20 min 10 sec) 
Heartbeat CPU 0 instructions: 236000001 cycles: 576126370 heartbeat IPC: 0.346072 cumulative IPC: 0.408188 (Simulation time: 0 hr 20 min 16 sec) 
Heartbeat CPU 0 instructions: 237000001 cycles: 578257840 heartbeat IPC: 0.46916 cumulative IPC: 0.408413 (Simulation time: 0 hr 20 min 20 sec) 
Heartbeat CPU 0 instructions: 238000003 cycles: 581082462 heartbeat IPC: 0.35403 cumulative IPC: 0.408148 (Simulation time: 0 hr 20 min 26 sec) 
Heartbeat CPU 0 instructions: 239000000 cycles: 583215739 heartbeat IPC: 0.468761 cumulative IPC: 0.40837 (Simulation time: 0 hr 20 min 30 sec) 
Heartbeat CPU 0 instructions: 240000000 cycles: 585301938 heartbeat IPC: 0.479341 cumulative IPC: 0.408623 (Simulation time: 0 hr 20 min 35 sec) 
Heartbeat CPU 0 instructions: 241000000 cycles: 588122251 heartbeat IPC: 0.354571 cumulative IPC: 0.408364 (Simulation time: 0 hr 20 min 41 sec) 
Heartbeat CPU 0 instructions: 242000000 cycles: 590268031 heartbeat IPC: 0.466031 cumulative IPC: 0.408574 (Simulation time: 0 hr 20 min 46 sec) 
Heartbeat CPU 0 instructions: 243000002 cycles: 592588650 heartbeat IPC: 0.43092 cumulative IPC: 0.408661 (Simulation time: 0 hr 20 min 50 sec) 
Heartbeat CPU 0 instructions: 244000001 cycles: 595221086 heartbeat IPC: 0.379876 cumulative IPC: 0.408534 (Simulation time: 0 hr 20 min 56 sec) 
Heartbeat CPU 0 instructions: 245000001 cycles: 597337465 heartbeat IPC: 0.472505 cumulative IPC: 0.408761 (Simulation time: 0 hr 21 min 0 sec) 
Heartbeat CPU 0 instructions: 246000003 cycles: 600149189 heartbeat IPC: 0.355654 cumulative IPC: 0.408512 (Simulation time: 0 hr 21 min 6 sec) 
Heartbeat CPU 0 instructions: 247000000 cycles: 602288801 heartbeat IPC: 0.467373 cumulative IPC: 0.408721 (Simulation time: 0 hr 21 min 10 sec) 
Heartbeat CPU 0 instructions: 248000000 cycles: 604450236 heartbeat IPC: 0.462656 cumulative IPC: 0.408914 (Simulation time: 0 hr 21 min 15 sec) 
Heartbeat CPU 0 instructions: 249000001 cycles: 607235094 heartbeat IPC: 0.359085 cumulative IPC: 0.408685 (Simulation time: 0 hr 21 min 21 sec) 
Heartbeat CPU 0 instructions: 250000001 cycles: 609352005 heartbeat IPC: 0.472386 cumulative IPC: 0.408907 (Simulation time: 0 hr 21 min 25 sec) 
Heartbeat CPU 0 instructions: 251000003 cycles: 611716278 heartbeat IPC: 0.422964 cumulative IPC: 0.408961 (Simulation time: 0 hr 21 min 30 sec) 
Heartbeat CPU 0 instructions: 252000001 cycles: 614312747 heartbeat IPC: 0.385138 cumulative IPC: 0.40886 (Simulation time: 0 hr 21 min 35 sec) 
Heartbeat CPU 0 instructions: 253000000 cycles: 616423033 heartbeat IPC: 0.473869 cumulative IPC: 0.409083 (Simulation time: 0 hr 21 min 40 sec) 
Heartbeat CPU 0 instructions: 254000000 cycles: 619232789 heartbeat IPC: 0.355903 cumulative IPC: 0.408842 (Simulation time: 0 hr 21 min 46 sec) 
Heartbeat CPU 0 instructions: 255000000 cycles: 621363451 heartbeat IPC: 0.469338 cumulative IPC: 0.409049 (Simulation time: 0 hr 21 min 51 sec) 
Heartbeat CPU 0 instructions: 256000001 cycles: 623488693 heartbeat IPC: 0.470535 cumulative IPC: 0.409259 (Simulation time: 0 hr 21 min 56 sec) 
Heartbeat CPU 0 instructions: 257000001 cycles: 626342485 heartbeat IPC: 0.350411 cumulative IPC: 0.408991 (Simulation time: 0 hr 22 min 1 sec) 
Heartbeat CPU 0 instructions: 258000001 cycles: 628496084 heartbeat IPC: 0.464339 cumulative IPC: 0.40918 (Simulation time: 0 hr 22 min 6 sec) 
Heartbeat CPU 0 instructions: 259000000 cycles: 631026247 heartbeat IPC: 0.395231 cumulative IPC: 0.409124 (Simulation time: 0 hr 22 min 11 sec) 
Heartbeat CPU 0 instructions: 260000002 cycles: 633520573 heartbeat IPC: 0.400911 cumulative IPC: 0.409092 (Simulation time: 0 hr 22 min 16 sec) 
Heartbeat CPU 0 instructions: 261000002 cycles: 635637437 heartbeat IPC: 0.472397 cumulative IPC: 0.409303 (Simulation time: 0 hr 22 min 21 sec) 
Heartbeat CPU 0 instructions: 262000000 cycles: 638525889 heartbeat IPC: 0.346206 cumulative IPC: 0.409018 (Simulation time: 0 hr 22 min 26 sec) 
Heartbeat CPU 0 instructions: 263000000 cycles: 640646174 heartbeat IPC: 0.471635 cumulative IPC: 0.409225 (Simulation time: 0 hr 22 min 31 sec) 
Heartbeat CPU 0 instructions: 264000000 cycles: 642957811 heartbeat IPC: 0.432594 cumulative IPC: 0.409309 (Simulation time: 0 hr 22 min 35 sec) 
Heartbeat CPU 0 instructions: 265000000 cycles: 645596988 heartbeat IPC: 0.378906 cumulative IPC: 0.409185 (Simulation time: 0 hr 22 min 40 sec) 
Heartbeat CPU 0 instructions: 266000003 cycles: 647752542 heartbeat IPC: 0.463919 cumulative IPC: 0.409367 (Simulation time: 0 hr 22 min 45 sec) 
Heartbeat CPU 0 instructions: 267000000 cycles: 650575904 heartbeat IPC: 0.354187 cumulative IPC: 0.409127 (Simulation time: 0 hr 22 min 50 sec) 
Heartbeat CPU 0 instructions: 268000001 cycles: 652678970 heartbeat IPC: 0.475497 cumulative IPC: 0.409341 (Simulation time: 0 hr 22 min 55 sec) 
Heartbeat CPU 0 instructions: 269000000 cycles: 654782233 heartbeat IPC: 0.475451 cumulative IPC: 0.409554 (Simulation time: 0 hr 22 min 59 sec) 
Heartbeat CPU 0 instructions: 270000003 cycles: 657615062 heartbeat IPC: 0.353005 cumulative IPC: 0.40931 (Simulation time: 0 hr 23 min 5 sec) 
Heartbeat CPU 0 instructions: 271000000 cycles: 659756905 heartbeat IPC: 0.466886 cumulative IPC: 0.409497 (Simulation time: 0 hr 23 min 10 sec) 
Heartbeat CPU 0 instructions: 272000002 cycles: 662408111 heartbeat IPC: 0.377188 cumulative IPC: 0.409368 (Simulation time: 0 hr 23 min 15 sec) 
Heartbeat CPU 0 instructions: 273000001 cycles: 664707114 heartbeat IPC: 0.434971 cumulative IPC: 0.409456 (Simulation time: 0 hr 23 min 20 sec) 
Heartbeat CPU 0 instructions: 274000000 cycles: 666836155 heartbeat IPC: 0.469695 cumulative IPC: 0.409649 (Simulation time: 0 hr 23 min 24 sec) 
Heartbeat CPU 0 instructions: 275000000 cycles: 669690286 heartbeat IPC: 0.350369 cumulative IPC: 0.409396 (Simulation time: 0 hr 23 min 30 sec) 
Heartbeat CPU 0 instructions: 276000000 cycles: 671785723 heartbeat IPC: 0.477227 cumulative IPC: 0.409608 (Simulation time: 0 hr 23 min 34 sec) 
Heartbeat CPU 0 instructions: 277000001 cycles: 674033541 heartbeat IPC: 0.444876 cumulative IPC: 0.409725 (Simulation time: 0 hr 23 min 39 sec) 
Heartbeat CPU 0 instructions: 278000000 cycles: 676759517 heartbeat IPC: 0.366841 cumulative IPC: 0.409552 (Simulation time: 0 hr 23 min 44 sec) 
Heartbeat CPU 0 instructions: 279000003 cycles: 678872788 heartbeat IPC: 0.473201 cumulative IPC: 0.409751 (Simulation time: 0 hr 23 min 48 sec) 
Heartbeat CPU 0 instructions: 280000001 cycles: 681697380 heartbeat IPC: 0.354033 cumulative IPC: 0.40952 (Simulation time: 0 hr 23 min 54 sec) 
Heartbeat CPU 0 instructions: 281000001 cycles: 683839327 heartbeat IPC: 0.466865 cumulative IPC: 0.409699 (Simulation time: 0 hr 23 min 58 sec) 
Heartbeat CPU 0 instructions: 282000003 cycles: 685960207 heartbeat IPC: 0.471503 cumulative IPC: 0.409891 (Simulation time: 0 hr 24 min 3 sec) 
Heartbeat CPU 0 instructions: 283000000 cycles: 688816100 heartbeat IPC: 0.350152 cumulative IPC: 0.409643 (Simulation time: 0 hr 24 min 8 sec) 
Heartbeat CPU 0 instructions: 284000000 cycles: 690961377 heartbeat IPC: 0.46614 cumulative IPC: 0.409818 (Simulation time: 0 hr 24 min 13 sec) 
Heartbeat CPU 0 instructions: 285000002 cycles: 693303500 heartbeat IPC: 0.426964 cumulative IPC: 0.409876 (Simulation time: 0 hr 24 min 18 sec) 
Heartbeat CPU 0 instructions: 286000000 cycles: 695932767 heartbeat IPC: 0.380333 cumulative IPC: 0.409765 (Simulation time: 0 hr 24 min 23 sec) 
Heartbeat CPU 0 instructions: 287000002 cycles: 698078308 heartbeat IPC: 0.466084 cumulative IPC: 0.409938 (Simulation time: 0 hr 24 min 28 sec) 
Heartbeat CPU 0 instructions: 288000000 cycles: 700821752 heartbeat IPC: 0.364505 cumulative IPC: 0.40976 (Simulation time: 0 hr 24 min 33 sec) 
Heartbeat CPU 0 instructions: 289000002 cycles: 703076066 heartbeat IPC: 0.443595 cumulative IPC: 0.409868 (Simulation time: 0 hr 24 min 38 sec) 
Heartbeat CPU 0 instructions: 290000001 cycles: 705196703 heartbeat IPC: 0.471556 cumulative IPC: 0.410054 (Simulation time: 0 hr 24 min 43 sec) 
Heartbeat CPU 0 instructions: 291000001 cycles: 708058144 heartbeat IPC: 0.349474 cumulative IPC: 0.409809 (Simulation time: 0 hr 24 min 48 sec) 
Heartbeat CPU 0 instructions: 292000001 cycles: 710143562 heartbeat IPC: 0.47952 cumulative IPC: 0.410014 (Simulation time: 0 hr 24 min 53 sec) 
Heartbeat CPU 0 instructions: 293000001 cycles: 713006771 heartbeat IPC: 0.349258 cumulative IPC: 0.40977 (Simulation time: 0 hr 24 min 59 sec) 
Heartbeat CPU 0 instructions: 294000001 cycles: 715474704 heartbeat IPC: 0.405197 cumulative IPC: 0.409754 (Simulation time: 0 hr 25 min 4 sec) 
Heartbeat CPU 0 instructions: 295000001 cycles: 717906616 heartbeat IPC: 0.411199 cumulative IPC: 0.409759 (Simulation time: 0 hr 25 min 9 sec) 
Heartbeat CPU 0 instructions: 296000001 cycles: 719977799 heartbeat IPC: 0.482816 cumulative IPC: 0.409969 (Simulation time: 0 hr 25 min 14 sec) 
Heartbeat CPU 0 instructions: 297000000 cycles: 722035798 heartbeat IPC: 0.485908 cumulative IPC: 0.410186 (Simulation time: 0 hr 25 min 19 sec) 
Heartbeat CPU 0 instructions: 298000003 cycles: 724228715 heartbeat IPC: 0.456015 cumulative IPC: 0.410325 (Simulation time: 0 hr 25 min 24 sec) 
Heartbeat CPU 0 instructions: 299000001 cycles: 726846127 heartbeat IPC: 0.382056 cumulative IPC: 0.410223 (Simulation time: 0 hr 25 min 29 sec) 
Heartbeat CPU 0 instructions: 300000000 cycles: 728920006 heartbeat IPC: 0.482188 cumulative IPC: 0.410428 (Simulation time: 0 hr 25 min 34 sec) 
Heartbeat CPU 0 instructions: 301000001 cycles: 731009233 heartbeat IPC: 0.478646 cumulative IPC: 0.410623 (Simulation time: 0 hr 25 min 39 sec) 
Heartbeat CPU 0 instructions: 302000000 cycles: 733100422 heartbeat IPC: 0.478196 cumulative IPC: 0.410815 (Simulation time: 0 hr 25 min 43 sec) 
Heartbeat CPU 0 instructions: 303000000 cycles: 735860591 heartbeat IPC: 0.362297 cumulative IPC: 0.410633 (Simulation time: 0 hr 25 min 49 sec) 
Heartbeat CPU 0 instructions: 304000000 cycles: 737903631 heartbeat IPC: 0.489467 cumulative IPC: 0.410852 (Simulation time: 0 hr 25 min 54 sec) 
Heartbeat CPU 0 instructions: 305000000 cycles: 739987275 heartbeat IPC: 0.479928 cumulative IPC: 0.411046 (Simulation time: 0 hr 25 min 58 sec) 
Heartbeat CPU 0 instructions: 306000002 cycles: 742096983 heartbeat IPC: 0.474 cumulative IPC: 0.411225 (Simulation time: 0 hr 26 min 3 sec) 
Heartbeat CPU 0 instructions: 307000000 cycles: 744697584 heartbeat IPC: 0.384526 cumulative IPC: 0.411132 (Simulation time: 0 hr 26 min 8 sec) 
Heartbeat CPU 0 instructions: 308000000 cycles: 746908013 heartbeat IPC: 0.452401 cumulative IPC: 0.411254 (Simulation time: 0 hr 26 min 13 sec) 
Heartbeat CPU 0 instructions: 309000000 cycles: 748975092 heartbeat IPC: 0.483774 cumulative IPC: 0.411455 (Simulation time: 0 hr 26 min 18 sec) 
Heartbeat CPU 0 instructions: 310000002 cycles: 751046410 heartbeat IPC: 0.482785 cumulative IPC: 0.411651 (Simulation time: 0 hr 26 min 22 sec) 
Heartbeat CPU 0 instructions: 311000002 cycles: 753272458 heartbeat IPC: 0.449227 cumulative IPC: 0.411763 (Simulation time: 0 hr 26 min 27 sec) 
Heartbeat CPU 0 instructions: 312000001 cycles: 756035685 heartbeat IPC: 0.361895 cumulative IPC: 0.41158 (Simulation time: 0 hr 26 min 33 sec) 
Heartbeat CPU 0 instructions: 313000002 cycles: 758127981 heartbeat IPC: 0.477944 cumulative IPC: 0.411763 (Simulation time: 0 hr 26 min 38 sec) 
Heartbeat CPU 0 instructions: 314000002 cycles: 760243444 heartbeat IPC: 0.47271 cumulative IPC: 0.411933 (Simulation time: 0 hr 26 min 43 sec) 
Heartbeat CPU 0 instructions: 315000002 cycles: 762989832 heartbeat IPC: 0.364115 cumulative IPC: 0.411761 (Simulation time: 0 hr 26 min 48 sec) 
Heartbeat CPU 0 instructions: 316000001 cycles: 765126387 heartbeat IPC: 0.468043 cumulative IPC: 0.411918 (Simulation time: 0 hr 26 min 53 sec) 
Heartbeat CPU 0 instructions: 317000000 cycles: 767192756 heartbeat IPC: 0.48394 cumulative IPC: 0.412112 (Simulation time: 0 hr 26 min 58 sec) 
Heartbeat CPU 0 instructions: 318000002 cycles: 769299322 heartbeat IPC: 0.474707 cumulative IPC: 0.412284 (Simulation time: 0 hr 27 min 2 sec) 
Heartbeat CPU 0 instructions: 319000000 cycles: 772037936 heartbeat IPC: 0.365147 cumulative IPC: 0.412116 (Simulation time: 0 hr 27 min 8 sec) 
Heartbeat CPU 0 instructions: 320000001 cycles: 774120782 heartbeat IPC: 0.480113 cumulative IPC: 0.412299 (Simulation time: 0 hr 27 min 12 sec) 
Heartbeat CPU 0 instructions: 321000003 cycles: 776214058 heartbeat IPC: 0.477721 cumulative IPC: 0.412476 (Simulation time: 0 hr 27 min 17 sec) 
Heartbeat CPU 0 instructions: 322000000 cycles: 778980558 heartbeat IPC: 0.361466 cumulative IPC: 0.412295 (Simulation time: 0 hr 27 min 22 sec) 
Heartbeat CPU 0 instructions: 323000001 cycles: 781029227 heartbeat IPC: 0.488122 cumulative IPC: 0.412494 (Simulation time: 0 hr 27 min 27 sec) 
Heartbeat CPU 0 instructions: 324000000 cycles: 783101300 heartbeat IPC: 0.482608 cumulative IPC: 0.412679 (Simulation time: 0 hr 27 min 31 sec) 
Heartbeat CPU 0 instructions: 325000000 cycles: 785232842 heartbeat IPC: 0.469144 cumulative IPC: 0.412833 (Simulation time: 0 hr 27 min 36 sec) 
Heartbeat CPU 0 instructions: 326000000 cycles: 787876117 heartbeat IPC: 0.378319 cumulative IPC: 0.412717 (Simulation time: 0 hr 27 min 41 sec) 
Heartbeat CPU 0 instructions: 327000001 cycles: 789940440 heartbeat IPC: 0.484421 cumulative IPC: 0.412904 (Simulation time: 0 hr 27 min 46 sec) 
Heartbeat CPU 0 instructions: 328000002 cycles: 792027998 heartbeat IPC: 0.479029 cumulative IPC: 0.413079 (Simulation time: 0 hr 27 min 51 sec) 
Heartbeat CPU 0 instructions: 329000002 cycles: 794752063 heartbeat IPC: 0.367098 cumulative IPC: 0.412921 (Simulation time: 0 hr 27 min 56 sec) 
Heartbeat CPU 0 instructions: 330000000 cycles: 796871033 heartbeat IPC: 0.471926 cumulative IPC: 0.413078 (Simulation time: 0 hr 28 min 1 sec) 
Heartbeat CPU 0 instructions: 331000001 cycles: 798918258 heartbeat IPC: 0.488467 cumulative IPC: 0.413271 (Simulation time: 0 hr 28 min 6 sec) 
Heartbeat CPU 0 instructions: 332000002 cycles: 800968959 heartbeat IPC: 0.487639 cumulative IPC: 0.413462 (Simulation time: 0 hr 28 min 11 sec) 
Heartbeat CPU 0 instructions: 333000000 cycles: 803677663 heartbeat IPC: 0.36918 cumulative IPC: 0.413312 (Simulation time: 0 hr 28 min 16 sec) 
Heartbeat CPU 0 instructions: 334000002 cycles: 805755823 heartbeat IPC: 0.481196 cumulative IPC: 0.413488 (Simulation time: 0 hr 28 min 21 sec) 
Heartbeat CPU 0 instructions: 335000000 cycles: 807852023 heartbeat IPC: 0.477053 cumulative IPC: 0.413653 (Simulation time: 0 hr 28 min 25 sec) 
Heartbeat CPU 0 instructions: 336000001 cycles: 810304656 heartbeat IPC: 0.407725 cumulative IPC: 0.413635 (Simulation time: 0 hr 28 min 30 sec) 
Heartbeat CPU 0 instructions: 337000000 cycles: 812636172 heartbeat IPC: 0.428905 cumulative IPC: 0.413679 (Simulation time: 0 hr 28 min 35 sec) 
Heartbeat CPU 0 instructions: 338000000 cycles: 814701109 heartbeat IPC: 0.484276 cumulative IPC: 0.413858 (Simulation time: 0 hr 28 min 40 sec) 
Heartbeat CPU 0 instructions: 339000003 cycles: 816782200 heartbeat IPC: 0.480519 cumulative IPC: 0.414028 (Simulation time: 0 hr 28 min 44 sec) 
Heartbeat CPU 0 instructions: 340000003 cycles: 819513603 heartbeat IPC: 0.366112 cumulative IPC: 0.413868 (Simulation time: 0 hr 28 min 49 sec) 
Heartbeat CPU 0 instructions: 341000000 cycles: 821545756 heartbeat IPC: 0.492087 cumulative IPC: 0.414061 (Simulation time: 0 hr 28 min 54 sec) 
Heartbeat CPU 0 instructions: 342000003 cycles: 823631171 heartbeat IPC: 0.479522 cumulative IPC: 0.414227 (Simulation time: 0 hr 28 min 58 sec) 
Heartbeat CPU 0 instructions: 343000003 cycles: 826021356 heartbeat IPC: 0.418378 cumulative IPC: 0.414239 (Simulation time: 0 hr 29 min 3 sec) 
Heartbeat CPU 0 instructions: 344000001 cycles: 828420792 heartbeat IPC: 0.416764 cumulative IPC: 0.414246 (Simulation time: 0 hr 29 min 9 sec) 
Heartbeat CPU 0 instructions: 345000002 cycles: 830468629 heartbeat IPC: 0.488321 cumulative IPC: 0.414429 (Simulation time: 0 hr 29 min 13 sec) 
Heartbeat CPU 0 instructions: 346000000 cycles: 832551617 heartbeat IPC: 0.480079 cumulative IPC: 0.414594 (Simulation time: 0 hr 29 min 18 sec) 
Heartbeat CPU 0 instructions: 347000001 cycles: 835318021 heartbeat IPC: 0.36148 cumulative IPC: 0.414418 (Simulation time: 0 hr 29 min 24 sec) 
Heartbeat CPU 0 instructions: 348000001 cycles: 837369251 heartbeat IPC: 0.487512 cumulative IPC: 0.414597 (Simulation time: 0 hr 29 min 29 sec) 
Heartbeat CPU 0 instructions: 349000002 cycles: 839427403 heartbeat IPC: 0.485873 cumulative IPC: 0.414772 (Simulation time: 0 hr 29 min 34 sec) 
Heartbeat CPU 0 instructions: 350000002 cycles: 842162198 heartbeat IPC: 0.365658 cumulative IPC: 0.414612 (Simulation time: 0 hr 29 min 39 sec) 
Heartbeat CPU 0 instructions: 351000000 cycles: 844218679 heartbeat IPC: 0.486267 cumulative IPC: 0.414787 (Simulation time: 0 hr 29 min 44 sec) 
Heartbeat CPU 0 instructions: 352000000 cycles: 846262576 heartbeat IPC: 0.489261 cumulative IPC: 0.414967 (Simulation time: 0 hr 29 min 49 sec) 
Heartbeat CPU 0 instructions: 353000000 cycles: 848385327 heartbeat IPC: 0.471087 cumulative IPC: 0.415107 (Simulation time: 0 hr 29 min 54 sec) 
Heartbeat CPU 0 instructions: 354000000 cycles: 851046019 heartbeat IPC: 0.375842 cumulative IPC: 0.414984 (Simulation time: 0 hr 29 min 59 sec) 
Heartbeat CPU 0 instructions: 355000000 cycles: 853093412 heartbeat IPC: 0.488426 cumulative IPC: 0.415161 (Simulation time: 0 hr 30 min 4 sec) 
Heartbeat CPU 0 instructions: 356000002 cycles: 855190157 heartbeat IPC: 0.476931 cumulative IPC: 0.415312 (Simulation time: 0 hr 30 min 9 sec) 
Heartbeat CPU 0 instructions: 357000000 cycles: 857937598 heartbeat IPC: 0.363974 cumulative IPC: 0.415148 (Simulation time: 0 hr 30 min 14 sec) 
Heartbeat CPU 0 instructions: 358000000 cycles: 859988354 heartbeat IPC: 0.487625 cumulative IPC: 0.415321 (Simulation time: 0 hr 30 min 19 sec) 
Heartbeat CPU 0 instructions: 359000000 cycles: 862079821 heartbeat IPC: 0.478133 cumulative IPC: 0.415473 (Simulation time: 0 hr 30 min 23 sec) 
Heartbeat CPU 0 instructions: 360000001 cycles: 864495366 heartbeat IPC: 0.413986 cumulative IPC: 0.415469 (Simulation time: 0 hr 30 min 28 sec) 
Heartbeat CPU 0 instructions: 361000001 cycles: 866881466 heartbeat IPC: 0.419094 cumulative IPC: 0.415479 (Simulation time: 0 hr 30 min 34 sec) 
Heartbeat CPU 0 instructions: 362000000 cycles: 868955660 heartbeat IPC: 0.482114 cumulative IPC: 0.415638 (Simulation time: 0 hr 30 min 38 sec) 
Heartbeat CPU 0 instructions: 363000000 cycles: 871036142 heartbeat IPC: 0.480658 cumulative IPC: 0.415793 (Simulation time: 0 hr 30 min 43 sec) 
Heartbeat CPU 0 instructions: 364000000 cycles: 873803188 heartbeat IPC: 0.361396 cumulative IPC: 0.415621 (Simulation time: 0 hr 30 min 49 sec) 
Heartbeat CPU 0 instructions: 365000002 cycles: 875862908 heartbeat IPC: 0.485504 cumulative IPC: 0.415785 (Simulation time: 0 hr 30 min 54 sec) 
Heartbeat CPU 0 instructions: 366000002 cycles: 877939225 heartbeat IPC: 0.481622 cumulative IPC: 0.415941 (Simulation time: 0 hr 30 min 58 sec) 
Heartbeat CPU 0 instructions: 367000000 cycles: 880342120 heartbeat IPC: 0.416164 cumulative IPC: 0.415942 (Simulation time: 0 hr 31 min 3 sec) 
Heartbeat CPU 0 instructions: 368000003 cycles: 882757117 heartbeat IPC: 0.41408 cumulative IPC: 0.415937 (Simulation time: 0 hr 31 min 9 sec) 
Heartbeat CPU 0 instructions: 369000002 cycles: 884822334 heartbeat IPC: 0.48421 cumulative IPC: 0.416096 (Simulation time: 0 hr 31 min 14 sec) 
Heartbeat CPU 0 instructions: 370000002 cycles: 886908983 heartbeat IPC: 0.479237 cumulative IPC: 0.416245 (Simulation time: 0 hr 31 min 18 sec) 
Heartbeat CPU 0 instructions: 371000003 cycles: 889641513 heartbeat IPC: 0.365962 cumulative IPC: 0.41609 (Simulation time: 0 hr 31 min 24 sec) 
Heartbeat CPU 0 instructions: 372000000 cycles: 891714259 heartbeat IPC: 0.48245 cumulative IPC: 0.416245 (Simulation time: 0 hr 31 min 29 sec) 
Heartbeat CPU 0 instructions: 373000001 cycles: 893798327 heartbeat IPC: 0.479831 cumulative IPC: 0.416393 (Simulation time: 0 hr 31 min 34 sec) 
Heartbeat CPU 0 instructions: 374000000 cycles: 896065122 heartbeat IPC: 0.441151 cumulative IPC: 0.416456 (Simulation time: 0 hr 31 min 39 sec) 
Heartbeat CPU 0 instructions: 375000000 cycles: 898578203 heartbeat IPC: 0.397918 cumulative IPC: 0.416404 (Simulation time: 0 hr 31 min 44 sec) 
Heartbeat CPU 0 instructions: 376000000 cycles: 900638319 heartbeat IPC: 0.48541 cumulative IPC: 0.416562 (Simulation time: 0 hr 31 min 49 sec) 
Heartbeat CPU 0 instructions: 377000003 cycles: 902712435 heartbeat IPC: 0.482135 cumulative IPC: 0.416712 (Simulation time: 0 hr 31 min 54 sec) 
Heartbeat CPU 0 instructions: 378000002 cycles: 905457360 heartbeat IPC: 0.364308 cumulative IPC: 0.416553 (Simulation time: 0 hr 31 min 59 sec) 
Heartbeat CPU 0 instructions: 379000001 cycles: 907539655 heartbeat IPC: 0.480239 cumulative IPC: 0.4167 (Simulation time: 0 hr 32 min 4 sec) 
Heartbeat CPU 0 instructions: 380000000 cycles: 909622905 heartbeat IPC: 0.480019 cumulative IPC: 0.416845 (Simulation time: 0 hr 32 min 9 sec) 
Heartbeat CPU 0 instructions: 381000001 cycles: 911902022 heartbeat IPC: 0.438767 cumulative IPC: 0.4169 (Simulation time: 0 hr 32 min 14 sec) 
Heartbeat CPU 0 instructions: 382000000 cycles: 914444067 heartbeat IPC: 0.393384 cumulative IPC: 0.416834 (Simulation time: 0 hr 32 min 19 sec) 
Heartbeat CPU 0 instructions: 383000003 cycles: 916520337 heartbeat IPC: 0.481634 cumulative IPC: 0.416981 (Simulation time: 0 hr 32 min 24 sec) 
Heartbeat CPU 0 instructions: 384000002 cycles: 918584284 heartbeat IPC: 0.484508 cumulative IPC: 0.417133 (Simulation time: 0 hr 32 min 29 sec) 
Heartbeat CPU 0 instructions: 385000000 cycles: 921322491 heartbeat IPC: 0.365202 cumulative IPC: 0.416978 (Simulation time: 0 hr 32 min 34 sec) 
Heartbeat CPU 0 instructions: 386000000 cycles: 923361329 heartbeat IPC: 0.490475 cumulative IPC: 0.417141 (Simulation time: 0 hr 32 min 39 sec) 
Heartbeat CPU 0 instructions: 387000000 cycles: 925442907 heartbeat IPC: 0.480405 cumulative IPC: 0.417283 (Simulation time: 0 hr 32 min 44 sec) 
Heartbeat CPU 0 instructions: 388000002 cycles: 927501892 heartbeat IPC: 0.485677 cumulative IPC: 0.417435 (Simulation time: 0 hr 32 min 49 sec) 
Heartbeat CPU 0 instructions: 389000002 cycles: 930228642 heartbeat IPC: 0.366737 cumulative IPC: 0.417286 (Simulation time: 0 hr 32 min 54 sec) 
Heartbeat CPU 0 instructions: 390000000 cycles: 932292427 heartbeat IPC: 0.484546 cumulative IPC: 0.417435 (Simulation time: 0 hr 32 min 59 sec) 
Heartbeat CPU 0 instructions: 391000000 cycles: 934383446 heartbeat IPC: 0.478236 cumulative IPC: 0.417571 (Simulation time: 0 hr 33 min 3 sec) 
Heartbeat CPU 0 instructions: 392000000 cycles: 937152135 heartbeat IPC: 0.361182 cumulative IPC: 0.417405 (Simulation time: 0 hr 33 min 9 sec) 
Heartbeat CPU 0 instructions: 393000003 cycles: 939204810 heartbeat IPC: 0.487171 cumulative IPC: 0.417557 (Simulation time: 0 hr 33 min 14 sec) 
Heartbeat CPU 0 instructions: 394000001 cycles: 941238591 heartbeat IPC: 0.491694 cumulative IPC: 0.417718 (Simulation time: 0 hr 33 min 19 sec) 
Heartbeat CPU 0 instructions: 395000003 cycles: 943646041 heartbeat IPC: 0.415378 cumulative IPC: 0.417712 (Simulation time: 0 hr 33 min 24 sec) 
Heartbeat CPU 0 instructions: 396000000 cycles: 946029844 heartbeat IPC: 0.419497 cumulative IPC: 0.417716 (Simulation time: 0 hr 33 min 29 sec) 
Heartbeat CPU 0 instructions: 397000001 cycles: 948082868 heartbeat IPC: 0.487087 cumulative IPC: 0.417866 (Simulation time: 0 hr 33 min 34 sec) 
Heartbeat CPU 0 instructions: 398000002 cycles: 950132767 heartbeat IPC: 0.487829 cumulative IPC: 0.418017 (Simulation time: 0 hr 33 min 39 sec) 
Heartbeat CPU 0 instructions: 399000000 cycles: 952829311 heartbeat IPC: 0.370844 cumulative IPC: 0.417884 (Simulation time: 0 hr 33 min 44 sec) 
Heartbeat CPU 0 instructions: 400000001 cycles: 954903594 heartbeat IPC: 0.482095 cumulative IPC: 0.418023 (Simulation time: 0 hr 33 min 49 sec) 
Heartbeat CPU 0 instructions: 401000001 cycles: 956972000 heartbeat IPC: 0.483464 cumulative IPC: 0.418165 (Simulation time: 0 hr 33 min 54 sec) 
Heartbeat CPU 0 instructions: 402000001 cycles: 959711001 heartbeat IPC: 0.365097 cumulative IPC: 0.418013 (Simulation time: 0 hr 33 min 59 sec) 
Heartbeat CPU 0 instructions: 403000003 cycles: 961783824 heartbeat IPC: 0.482435 cumulative IPC: 0.418152 (Simulation time: 0 hr 34 min 4 sec) 
Heartbeat CPU 0 instructions: 404000000 cycles: 963851618 heartbeat IPC: 0.483606 cumulative IPC: 0.418293 (Simulation time: 0 hr 34 min 9 sec) 
Heartbeat CPU 0 instructions: 405000000 cycles: 966259835 heartbeat IPC: 0.415245 cumulative IPC: 0.418285 (Simulation time: 0 hr 34 min 14 sec) 
Heartbeat CPU 0 instructions: 406000002 cycles: 968680497 heartbeat IPC: 0.413111 cumulative IPC: 0.418272 (Simulation time: 0 hr 34 min 19 sec) 
Heartbeat CPU 0 instructions: 407000000 cycles: 970751486 heartbeat IPC: 0.48286 cumulative IPC: 0.41841 (Simulation time: 0 hr 34 min 24 sec) 
Heartbeat CPU 0 instructions: 408000000 cycles: 972821111 heartbeat IPC: 0.483179 cumulative IPC: 0.418548 (Simulation time: 0 hr 34 min 29 sec) 
Heartbeat CPU 0 instructions: 409000003 cycles: 975603950 heartbeat IPC: 0.359346 cumulative IPC: 0.418379 (Simulation time: 0 hr 34 min 34 sec) 
Heartbeat CPU 0 instructions: 410000000 cycles: 977660279 heartbeat IPC: 0.486302 cumulative IPC: 0.418522 (Simulation time: 0 hr 34 min 39 sec) 
Heartbeat CPU 0 instructions: 411000000 cycles: 979757763 heartbeat IPC: 0.476762 cumulative IPC: 0.418647 (Simulation time: 0 hr 34 min 44 sec) 
Heartbeat CPU 0 instructions: 412000000 cycles: 982241453 heartbeat IPC: 0.402627 cumulative IPC: 0.418606 (Simulation time: 0 hr 34 min 49 sec) 
Heartbeat CPU 0 instructions: 413000000 cycles: 984609202 heartbeat IPC: 0.422342 cumulative IPC: 0.418615 (Simulation time: 0 hr 34 min 54 sec) 
Heartbeat CPU 0 instructions: 414000002 cycles: 986666340 heartbeat IPC: 0.486113 cumulative IPC: 0.418756 (Simulation time: 0 hr 34 min 59 sec) 
Heartbeat CPU 0 instructions: 415000000 cycles: 988728144 heartbeat IPC: 0.485011 cumulative IPC: 0.418894 (Simulation time: 0 hr 35 min 4 sec) 
Heartbeat CPU 0 instructions: 416000000 cycles: 991489298 heartbeat IPC: 0.362167 cumulative IPC: 0.418736 (Simulation time: 0 hr 35 min 9 sec) 
Heartbeat CPU 0 instructions: 417000000 cycles: 993551353 heartbeat IPC: 0.484953 cumulative IPC: 0.418873 (Simulation time: 0 hr 35 min 14 sec) 
Heartbeat CPU 0 instructions: 418000000 cycles: 995637374 heartbeat IPC: 0.479382 cumulative IPC: 0.419 (Simulation time: 0 hr 35 min 19 sec) 
Heartbeat CPU 0 instructions: 419000002 cycles: 997737685 heartbeat IPC: 0.476121 cumulative IPC: 0.419121 (Simulation time: 0 hr 35 min 24 sec) 
Heartbeat CPU 0 instructions: 420000003 cycles: 1000467167 heartbeat IPC: 0.36637 cumulative IPC: 0.418977 (Simulation time: 0 hr 35 min 29 sec) 
Heartbeat CPU 0 instructions: 421000001 cycles: 1002517342 heartbeat IPC: 0.487762 cumulative IPC: 0.419117 (Simulation time: 0 hr 35 min 34 sec) 
Heartbeat CPU 0 instructions: 422000003 cycles: 1004601806 heartbeat IPC: 0.479741 cumulative IPC: 0.419243 (Simulation time: 0 hr 35 min 39 sec) 
Heartbeat CPU 0 instructions: 423000000 cycles: 1007137960 heartbeat IPC: 0.394297 cumulative IPC: 0.41918 (Simulation time: 0 hr 35 min 44 sec) 
Heartbeat CPU 0 instructions: 424000000 cycles: 1009437955 heartbeat IPC: 0.434784 cumulative IPC: 0.419216 (Simulation time: 0 hr 35 min 49 sec) 
Heartbeat CPU 0 instructions: 425000000 cycles: 1011510234 heartbeat IPC: 0.482561 cumulative IPC: 0.419346 (Simulation time: 0 hr 35 min 54 sec) 
Heartbeat CPU 0 instructions: 426000003 cycles: 1013816617 heartbeat IPC: 0.433581 cumulative IPC: 0.419378 (Simulation time: 0 hr 35 min 59 sec) 
Heartbeat CPU 0 instructions: 427000002 cycles: 1016359955 heartbeat IPC: 0.393184 cumulative IPC: 0.419313 (Simulation time: 0 hr 36 min 5 sec) 
Heartbeat CPU 0 instructions: 428000000 cycles: 1018422785 heartbeat IPC: 0.48477 cumulative IPC: 0.419445 (Simulation time: 0 hr 36 min 10 sec) 
Heartbeat CPU 0 instructions: 429000000 cycles: 1020505999 heartbeat IPC: 0.480027 cumulative IPC: 0.419569 (Simulation time: 0 hr 36 min 14 sec) 
Heartbeat CPU 0 instructions: 430000000 cycles: 1023251072 heartbeat IPC: 0.364289 cumulative IPC: 0.419421 (Simulation time: 0 hr 36 min 20 sec) 
Heartbeat CPU 0 instructions: 431000001 cycles: 1025326122 heartbeat IPC: 0.481917 cumulative IPC: 0.419547 (Simulation time: 0 hr 36 min 25 sec) 
Heartbeat CPU 0 instructions: 432000000 cycles: 1027404612 heartbeat IPC: 0.481118 cumulative IPC: 0.419672 (Simulation time: 0 hr 36 min 30 sec) 
Heartbeat CPU 0 instructions: 433000003 cycles: 1030133847 heartbeat IPC: 0.366404 cumulative IPC: 0.419531 (Simulation time: 0 hr 36 min 35 sec) 
Heartbeat CPU 0 instructions: 434000000 cycles: 1032202520 heartbeat IPC: 0.4834 cumulative IPC: 0.419659 (Simulation time: 0 hr 36 min 40 sec) 
Heartbeat CPU 0 instructions: 435000002 cycles: 1034283459 heartbeat IPC: 0.480553 cumulative IPC: 0.419781 (Simulation time: 0 hr 36 min 45 sec) 
Heartbeat CPU 0 instructions: 436000001 cycles: 1037017920 heartbeat IPC: 0.365702 cumulative IPC: 0.419638 (Simulation time: 0 hr 36 min 50 sec) 
Heartbeat CPU 0 instructions: 437000003 cycles: 1039068185 heartbeat IPC: 0.487743 cumulative IPC: 0.419773 (Simulation time: 0 hr 36 min 55 sec) 
Heartbeat CPU 0 instructions: 438000000 cycles: 1041131149 heartbeat IPC: 0.484738 cumulative IPC: 0.419902 (Simulation time: 0 hr 37 min 0 sec) 
Heartbeat CPU 0 instructions: 439000003 cycles: 1043506268 heartbeat IPC: 0.421033 cumulative IPC: 0.419904 (Simulation time: 0 hr 37 min 5 sec) 
Heartbeat CPU 0 instructions: 440000000 cycles: 1045936814 heartbeat IPC: 0.411429 cumulative IPC: 0.419885 (Simulation time: 0 hr 37 min 10 sec) 
Heartbeat CPU 0 instructions: 441000001 cycles: 1048108603 heartbeat IPC: 0.46045 cumulative IPC: 0.419969 (Simulation time: 0 hr 37 min 15 sec) 
Heartbeat CPU 0 instructions: 442000000 cycles: 1050205145 heartbeat IPC: 0.476975 cumulative IPC: 0.420083 (Simulation time: 0 hr 37 min 20 sec) 
Heartbeat CPU 0 instructions: 443000000 cycles: 1052945018 heartbeat IPC: 0.36498 cumulative IPC: 0.419939 (Simulation time: 0 hr 37 min 25 sec) 
Heartbeat CPU 0 instructions: 444000001 cycles: 1055205996 heartbeat IPC: 0.442287 cumulative IPC: 0.419987 (Simulation time: 0 hr 37 min 30 sec) 
Heartbeat CPU 0 instructions: 445000001 cycles: 1057288994 heartbeat IPC: 0.480077 cumulative IPC: 0.420105 (Simulation time: 0 hr 37 min 35 sec) 
Heartbeat CPU 0 instructions: 446000003 cycles: 1060047906 heartbeat IPC: 0.362462 cumulative IPC: 0.419955 (Simulation time: 0 hr 37 min 40 sec) 
Heartbeat CPU 0 instructions: 447000003 cycles: 1062126304 heartbeat IPC: 0.48114 cumulative IPC: 0.420075 (Simulation time: 0 hr 37 min 44 sec) 
Heartbeat CPU 0 instructions: 448000000 cycles: 1064222522 heartbeat IPC: 0.477048 cumulative IPC: 0.420187 (Simulation time: 0 hr 37 min 49 sec) 
Heartbeat CPU 0 instructions: 449000001 cycles: 1066990954 heartbeat IPC: 0.361216 cumulative IPC: 0.420034 (Simulation time: 0 hr 37 min 55 sec) 
Heartbeat CPU 0 instructions: 450000000 cycles: 1069045014 heartbeat IPC: 0.48684 cumulative IPC: 0.420163 (Simulation time: 0 hr 37 min 59 sec) 

Warmup complete CPU 0 instructions: 450000004 cycles: 1069045015 (Simulation time: 0 hr 37 min 59 sec) 

Heartbeat CPU 0 instructions: 451000000 cycles: 1070953227 heartbeat IPC: 0.524051 cumulative IPC: 0.524049 (Simulation time: 0 hr 38 min 4 sec) 
Heartbeat CPU 0 instructions: 452000000 cycles: 1073350582 heartbeat IPC: 0.417126 cumulative IPC: 0.464514 (Simulation time: 0 hr 38 min 9 sec) 
Heartbeat CPU 0 instructions: 453000000 cycles: 1075242713 heartbeat IPC: 0.528505 cumulative IPC: 0.48405 (Simulation time: 0 hr 38 min 14 sec) 
Heartbeat CPU 0 instructions: 454000002 cycles: 1077142035 heartbeat IPC: 0.526505 cumulative IPC: 0.494009 (Simulation time: 0 hr 38 min 18 sec) 
Heartbeat CPU 0 instructions: 455000002 cycles: 1079523698 heartbeat IPC: 0.419875 cumulative IPC: 0.477159 (Simulation time: 0 hr 38 min 23 sec) 
Heartbeat CPU 0 instructions: 456000001 cycles: 1081402364 heartbeat IPC: 0.532292 cumulative IPC: 0.485541 (Simulation time: 0 hr 38 min 28 sec) 
Heartbeat CPU 0 instructions: 457000000 cycles: 1083294543 heartbeat IPC: 0.528491 cumulative IPC: 0.491244 (Simulation time: 0 hr 38 min 33 sec) 
Heartbeat CPU 0 instructions: 458000002 cycles: 1085960036 heartbeat IPC: 0.375166 cumulative IPC: 0.472952 (Simulation time: 0 hr 38 min 39 sec) 
Heartbeat CPU 0 instructions: 459000000 cycles: 1087833034 heartbeat IPC: 0.533902 cumulative IPC: 0.479028 (Simulation time: 0 hr 38 min 44 sec) 
Heartbeat CPU 0 instructions: 460000001 cycles: 1089924805 heartbeat IPC: 0.478064 cumulative IPC: 0.478932 (Simulation time: 0 hr 38 min 48 sec) 
Heartbeat CPU 0 instructions: 461000000 cycles: 1092163166 heartbeat IPC: 0.446755 cumulative IPC: 0.475816 (Simulation time: 0 hr 38 min 54 sec) 
Heartbeat CPU 0 instructions: 462000000 cycles: 1094066789 heartbeat IPC: 0.525314 cumulative IPC: 0.479582 (Simulation time: 0 hr 38 min 58 sec) 
Heartbeat CPU 0 instructions: 463000000 cycles: 1096482981 heartbeat IPC: 0.413874 cumulative IPC: 0.473796 (Simulation time: 0 hr 39 min 4 sec) 
Heartbeat CPU 0 instructions: 464000000 cycles: 1098393112 heartbeat IPC: 0.523524 cumulative IPC: 0.477032 (Simulation time: 0 hr 39 min 8 sec) 
Heartbeat CPU 0 instructions: 465000003 cycles: 1100777441 heartbeat IPC: 0.419406 cumulative IPC: 0.472703 (Simulation time: 0 hr 39 min 14 sec) 
Heartbeat CPU 0 instructions: 466000003 cycles: 1102657702 heartbeat IPC: 0.531841 cumulative IPC: 0.476011 (Simulation time: 0 hr 39 min 18 sec) 
Heartbeat CPU 0 instructions: 467000000 cycles: 1104588837 heartbeat IPC: 0.517829 cumulative IPC: 0.478283 (Simulation time: 0 hr 39 min 23 sec) 
Heartbeat CPU 0 instructions: 468000000 cycles: 1106961506 heartbeat IPC: 0.421466 cumulative IPC: 0.474727 (Simulation time: 0 hr 39 min 28 sec) 
Heartbeat CPU 0 instructions: 469000000 cycles: 1108879974 heartbeat IPC: 0.521249 cumulative IPC: 0.476968 (Simulation time: 0 hr 39 min 33 sec) 
Heartbeat CPU 0 instructions: 470000002 cycles: 1111258041 heartbeat IPC: 0.42051 cumulative IPC: 0.473787 (Simulation time: 0 hr 39 min 38 sec) 
Heartbeat CPU 0 instructions: 471000000 cycles: 1113210969 heartbeat IPC: 0.512051 cumulative IPC: 0.475479 (Simulation time: 0 hr 39 min 43 sec) 
Heartbeat CPU 0 instructions: 472000001 cycles: 1115414700 heartbeat IPC: 0.453776 cumulative IPC: 0.474448 (Simulation time: 0 hr 39 min 48 sec) 
Heartbeat CPU 0 instructions: 473000000 cycles: 1117484457 heartbeat IPC: 0.483148 cumulative IPC: 0.47482 (Simulation time: 0 hr 39 min 53 sec) 
Heartbeat CPU 0 instructions: 474000000 cycles: 1119396293 heartbeat IPC: 0.523057 cumulative IPC: 0.476651 (Simulation time: 0 hr 39 min 58 sec) 
Heartbeat CPU 0 instructions: 475000001 cycles: 1121829443 heartbeat IPC: 0.41099 cumulative IPC: 0.473624 (Simulation time: 0 hr 40 min 3 sec) 
Heartbeat CPU 0 instructions: 476000001 cycles: 1123740797 heartbeat IPC: 0.523189 cumulative IPC: 0.475357 (Simulation time: 0 hr 40 min 8 sec) 
Heartbeat CPU 0 instructions: 477000001 cycles: 1126146242 heartbeat IPC: 0.415724 cumulative IPC: 0.472844 (Simulation time: 0 hr 40 min 14 sec) 
Heartbeat CPU 0 instructions: 478000003 cycles: 1128020795 heartbeat IPC: 0.533462 cumulative IPC: 0.474771 (Simulation time: 0 hr 40 min 18 sec) 
Heartbeat CPU 0 instructions: 479000000 cycles: 1130198597 heartbeat IPC: 0.459177 cumulative IPC: 0.474216 (Simulation time: 0 hr 40 min 23 sec) 
Heartbeat CPU 0 instructions: 480000000 cycles: 1132304071 heartbeat IPC: 0.474952 cumulative IPC: 0.47424 (Simulation time: 0 hr 40 min 28 sec) 
Heartbeat CPU 0 instructions: 481000003 cycles: 1134209901 heartbeat IPC: 0.524707 cumulative IPC: 0.475716 (Simulation time: 0 hr 40 min 33 sec) 
Heartbeat CPU 0 instructions: 482000002 cycles: 1136588156 heartbeat IPC: 0.420476 cumulative IPC: 0.473771 (Simulation time: 0 hr 40 min 38 sec) 
Heartbeat CPU 0 instructions: 483000001 cycles: 1138509530 heartbeat IPC: 0.52046 cumulative IPC: 0.475063 (Simulation time: 0 hr 40 min 43 sec) 
Heartbeat CPU 0 instructions: 484000000 cycles: 1140866595 heartbeat IPC: 0.424256 cumulative IPC: 0.473395 (Simulation time: 0 hr 40 min 48 sec) 
Heartbeat CPU 0 instructions: 485000001 cycles: 1142765737 heartbeat IPC: 0.526554 cumulative IPC: 0.474765 (Simulation time: 0 hr 40 min 52 sec) 
Heartbeat CPU 0 instructions: 486000000 cycles: 1145080841 heartbeat IPC: 0.431946 cumulative IPC: 0.473461 (Simulation time: 0 hr 40 min 57 sec) 
Heartbeat CPU 0 instructions: 487000000 cycles: 1147073382 heartbeat IPC: 0.501872 cumulative IPC: 0.474186 (Simulation time: 0 hr 41 min 2 sec) 
Heartbeat CPU 0 instructions: 488000002 cycles: 1148987881 heartbeat IPC: 0.522331 cumulative IPC: 0.475339 (Simulation time: 0 hr 41 min 7 sec) 
Heartbeat CPU 0 instructions: 489000003 cycles: 1151360724 heartbeat IPC: 0.421436 cumulative IPC: 0.473786 (Simulation time: 0 hr 41 min 13 sec) 
Heartbeat CPU 0 instructions: 490000002 cycles: 1153275385 heartbeat IPC: 0.522285 cumulative IPC: 0.474888 (Simulation time: 0 hr 41 min 18 sec) 
Heartbeat CPU 0 instructions: 491000001 cycles: 1155690055 heartbeat IPC: 0.414135 cumulative IPC: 0.473195 (Simulation time: 0 hr 41 min 23 sec) 
Heartbeat CPU 0 instructions: 492000001 cycles: 1157581396 heartbeat IPC: 0.528725 cumulative IPC: 0.474381 (Simulation time: 0 hr 41 min 28 sec) 
Heartbeat CPU 0 instructions: 493000000 cycles: 1159979861 heartbeat IPC: 0.416933 cumulative IPC: 0.472866 (Simulation time: 0 hr 41 min 33 sec) 
Heartbeat CPU 0 instructions: 494000000 cycles: 1161859537 heartbeat IPC: 0.532007 cumulative IPC: 0.474064 (Simulation time: 0 hr 41 min 38 sec) 
Heartbeat CPU 0 instructions: 495000000 cycles: 1163814703 heartbeat IPC: 0.511466 cumulative IPC: 0.474835 (Simulation time: 0 hr 41 min 43 sec) 
Heartbeat CPU 0 instructions: 496000000 cycles: 1166176076 heartbeat IPC: 0.423482 cumulative IPC: 0.473587 (Simulation time: 0 hr 41 min 48 sec) 
Heartbeat CPU 0 instructions: 497000003 cycles: 1168100022 heartbeat IPC: 0.519767 cumulative IPC: 0.474484 (Simulation time: 0 hr 41 min 53 sec) 
Heartbeat CPU 0 instructions: 498000000 cycles: 1170508623 heartbeat IPC: 0.415178 cumulative IPC: 0.473076 (Simulation time: 0 hr 41 min 58 sec) 
Heartbeat CPU 0 instructions: 499000000 cycles: 1172425797 heartbeat IPC: 0.521601 cumulative IPC: 0.473976 (Simulation time: 0 hr 42 min 3 sec) 
Heartbeat CPU 0 instructions: 500000000 cycles: 1174851835 heartbeat IPC: 0.412195 cumulative IPC: 0.472559 (Simulation time: 0 hr 42 min 8 sec) 
Heartbeat CPU 0 instructions: 501000001 cycles: 1176718120 heartbeat IPC: 0.535824 cumulative IPC: 0.473656 (Simulation time: 0 hr 42 min 13 sec) 
Heartbeat CPU 0 instructions: 502000003 cycles: 1178733799 heartbeat IPC: 0.496112 cumulative IPC: 0.474069 (Simulation time: 0 hr 42 min 18 sec) 
Heartbeat CPU 0 instructions: 503000000 cycles: 1180996587 heartbeat IPC: 0.441931 cumulative IPC: 0.473419 (Simulation time: 0 hr 42 min 23 sec) 
Heartbeat CPU 0 instructions: 504000000 cycles: 1182891748 heartbeat IPC: 0.52766 cumulative IPC: 0.474322 (Simulation time: 0 hr 42 min 28 sec) 
Heartbeat CPU 0 instructions: 505000003 cycles: 1185255118 heartbeat IPC: 0.423126 cumulative IPC: 0.473281 (Simulation time: 0 hr 42 min 33 sec) 
Heartbeat CPU 0 instructions: 506000000 cycles: 1187166451 heartbeat IPC: 0.523193 cumulative IPC: 0.474088 (Simulation time: 0 hr 42 min 38 sec) 
Heartbeat CPU 0 instructions: 507000000 cycles: 1189569806 heartbeat IPC: 0.416085 cumulative IPC: 0.472932 (Simulation time: 0 hr 42 min 43 sec) 
Heartbeat CPU 0 instructions: 508000003 cycles: 1191479610 heartbeat IPC: 0.523616 cumulative IPC: 0.473722 (Simulation time: 0 hr 42 min 48 sec) 
Heartbeat CPU 0 instructions: 509000001 cycles: 1193442190 heartbeat IPC: 0.509532 cumulative IPC: 0.474287 (Simulation time: 0 hr 42 min 53 sec) 
Heartbeat CPU 0 instructions: 510000001 cycles: 1195719463 heartbeat IPC: 0.439122 cumulative IPC: 0.473655 (Simulation time: 0 hr 42 min 58 sec) 
Heartbeat CPU 0 instructions: 511000000 cycles: 1197635249 heartbeat IPC: 0.521978 cumulative IPC: 0.474375 (Simulation time: 0 hr 43 min 2 sec) 
Heartbeat CPU 0 instructions: 512000001 cycles: 1200011927 heartbeat IPC: 0.420756 cumulative IPC: 0.473402 (Simulation time: 0 hr 43 min 8 sec) 
Heartbeat CPU 0 instructions: 513000002 cycles: 1201921263 heartbeat IPC: 0.523743 cumulative IPC: 0.474125 (Simulation time: 0 hr 43 min 12 sec) 
Heartbeat CPU 0 instructions: 514000001 cycles: 1204319123 heartbeat IPC: 0.417038 cumulative IPC: 0.473113 (Simulation time: 0 hr 43 min 17 sec) 
Heartbeat CPU 0 instructions: 515000000 cycles: 1206232571 heartbeat IPC: 0.522616 cumulative IPC: 0.473804 (Simulation time: 0 hr 43 min 22 sec) 
Heartbeat CPU 0 instructions: 516000001 cycles: 1208162426 heartbeat IPC: 0.518174 cumulative IPC: 0.474419 (Simulation time: 0 hr 43 min 27 sec) 
Heartbeat CPU 0 instructions: 517000000 cycles: 1210511969 heartbeat IPC: 0.425614 cumulative IPC: 0.473609 (Simulation time: 0 hr 43 min 32 sec) 
Heartbeat CPU 0 instructions: 518000003 cycles: 1212405270 heartbeat IPC: 0.52818 cumulative IPC: 0.47433 (Simulation time: 0 hr 43 min 37 sec) 
Heartbeat CPU 0 instructions: 519000002 cycles: 1214792473 heartbeat IPC: 0.4189 cumulative IPC: 0.473422 (Simulation time: 0 hr 43 min 42 sec) 
Heartbeat CPU 0 instructions: 520000000 cycles: 1216691443 heartbeat IPC: 0.5266 cumulative IPC: 0.474106 (Simulation time: 0 hr 43 min 47 sec) 
Heartbeat CPU 0 instructions: 521000000 cycles: 1219089299 heartbeat IPC: 0.417039 cumulative IPC: 0.473194 (Simulation time: 0 hr 43 min 53 sec) 
Heartbeat CPU 0 instructions: 522000001 cycles: 1220966668 heartbeat IPC: 0.532661 cumulative IPC: 0.473928 (Simulation time: 0 hr 43 min 57 sec) 
Heartbeat CPU 0 instructions: 523000002 cycles: 1223192218 heartbeat IPC: 0.449328 cumulative IPC: 0.473573 (Simulation time: 0 hr 44 min 2 sec) 
Heartbeat CPU 0 instructions: 524000000 cycles: 1225281520 heartbeat IPC: 0.478628 cumulative IPC: 0.473641 (Simulation time: 0 hr 44 min 7 sec) 
Heartbeat CPU 0 instructions: 525000002 cycles: 1227192087 heartbeat IPC: 0.523406 cumulative IPC: 0.474242 (Simulation time: 0 hr 44 min 12 sec) 
Heartbeat CPU 0 instructions: 526000002 cycles: 1229586733 heartbeat IPC: 0.417598 cumulative IPC: 0.473397 (Simulation time: 0 hr 44 min 17 sec) 
Heartbeat CPU 0 instructions: 527000000 cycles: 1231492055 heartbeat IPC: 0.524845 cumulative IPC: 0.474001 (Simulation time: 0 hr 44 min 22 sec) 
Heartbeat CPU 0 instructions: 528000000 cycles: 1233895337 heartbeat IPC: 0.416098 cumulative IPC: 0.473156 (Simulation time: 0 hr 44 min 27 sec) 
Heartbeat CPU 0 instructions: 529000001 cycles: 1235782436 heartbeat IPC: 0.529914 cumulative IPC: 0.473799 (Simulation time: 0 hr 44 min 32 sec) 
Heartbeat CPU 0 instructions: 530000003 cycles: 1238160055 heartbeat IPC: 0.42059 cumulative IPC: 0.473051 (Simulation time: 0 hr 44 min 37 sec) 
Heartbeat CPU 0 instructions: 531000002 cycles: 1240025597 heartbeat IPC: 0.536037 cumulative IPC: 0.473738 (Simulation time: 0 hr 44 min 42 sec) 
Heartbeat CPU 0 instructions: 532000000 cycles: 1242271757 heartbeat IPC: 0.445203 cumulative IPC: 0.473368 (Simulation time: 0 hr 44 min 47 sec) 
Heartbeat CPU 0 instructions: 533000001 cycles: 1244339585 heartbeat IPC: 0.4836 cumulative IPC: 0.473489 (Simulation time: 0 hr 44 min 52 sec) 
Heartbeat CPU 0 instructions: 534000000 cycles: 1246464383 heartbeat IPC: 0.470632 cumulative IPC: 0.473454 (Simulation time: 0 hr 44 min 56 sec) 
Heartbeat CPU 0 instructions: 535000001 cycles: 1248631498 heartbeat IPC: 0.461443 cumulative IPC: 0.47331 (Simulation time: 0 hr 45 min 1 sec) 
Heartbeat CPU 0 instructions: 536000000 cycles: 1250519926 heartbeat IPC: 0.52954 cumulative IPC: 0.473895 (Simulation time: 0 hr 45 min 6 sec) 
Heartbeat CPU 0 instructions: 537000001 cycles: 1252920965 heartbeat IPC: 0.416487 cumulative IPC: 0.473145 (Simulation time: 0 hr 45 min 11 sec) 
Heartbeat CPU 0 instructions: 538000001 cycles: 1254804783 heartbeat IPC: 0.530837 cumulative IPC: 0.47373 (Simulation time: 0 hr 45 min 16 sec) 
Heartbeat CPU 0 instructions: 539000000 cycles: 1257216451 heartbeat IPC: 0.41465 cumulative IPC: 0.472973 (Simulation time: 0 hr 45 min 22 sec) 
Heartbeat CPU 0 instructions: 540000003 cycles: 1259168276 heartbeat IPC: 0.512343 cumulative IPC: 0.473377 (Simulation time: 0 hr 45 min 26 sec) 
Heartbeat CPU 0 instructions: 541000002 cycles: 1261533392 heartbeat IPC: 0.422812 cumulative IPC: 0.472756 (Simulation time: 0 hr 45 min 32 sec) 
Heartbeat CPU 0 instructions: 542000001 cycles: 1263431207 heartbeat IPC: 0.526921 cumulative IPC: 0.473285 (Simulation time: 0 hr 45 min 36 sec) 
Heartbeat CPU 0 instructions: 543000001 cycles: 1265864418 heartbeat IPC: 0.41098 cumulative IPC: 0.472514 (Simulation time: 0 hr 45 min 42 sec) 
Heartbeat CPU 0 instructions: 544000003 cycles: 1267774285 heartbeat IPC: 0.523598 cumulative IPC: 0.473005 (Simulation time: 0 hr 45 min 47 sec) 
Heartbeat CPU 0 instructions: 545000003 cycles: 1270145879 heartbeat IPC: 0.421657 cumulative IPC: 0.4724 (Simulation time: 0 hr 45 min 52 sec) 
Heartbeat CPU 0 instructions: 546000001 cycles: 1272046227 heartbeat IPC: 0.526218 cumulative IPC: 0.472904 (Simulation time: 0 hr 45 min 57 sec) 
[...]
Heartbeat CPU 0 instructions: 835000000 cycles: 1927295466 heartbeat IPC: 0.400149 cumulative IPC: 0.448587 (Simulation time: 1 hr 10 min 6 sec) 
Heartbeat CPU 0 instructions: 836000000 cycles: 1929709013 heartbeat IPC: 0.414328 cumulative IPC: 0.448491 (Simulation time: 1 hr 10 min 11 sec) 
Heartbeat CPU 0 instructions: 837000000 cycles: 1931906694 heartbeat IPC: 0.455025 cumulative IPC: 0.448508 (Simulation time: 1 hr 10 min 17 sec) 
Heartbeat CPU 0 instructions: 838000000 cycles: 1934383725 heartbeat IPC: 0.403709 cumulative IPC: 0.448379 (Simulation time: 1 hr 10 min 22 sec) 
Heartbeat CPU 0 instructions: 839000001 cycles: 1936672777 heartbeat IPC: 0.436862 cumulative IPC: 0.448349 (Simulation time: 1 hr 10 min 27 sec) 
Heartbeat CPU 0 instructions: 840000000 cycles: 1938961016 heartbeat IPC: 0.437017 cumulative IPC: 0.448319 (Simulation time: 1 hr 10 min 32 sec) 
Heartbeat CPU 0 instructions: 841000000 cycles: 1941448271 heartbeat IPC: 0.40205 cumulative IPC: 0.448187 (Simulation time: 1 hr 10 min 37 sec) 
Heartbeat CPU 0 instructions: 842000003 cycles: 1944135000 heartbeat IPC: 0.372201 cumulative IPC: 0.447954 (Simulation time: 1 hr 10 min 43 sec) 
Heartbeat CPU 0 instructions: 843000000 cycles: 1946397822 heartbeat IPC: 0.441925 cumulative IPC: 0.447938 (Simulation time: 1 hr 10 min 49 sec) 
Heartbeat CPU 0 instructions: 844000003 cycles: 1948810983 heartbeat IPC: 0.414395 cumulative IPC: 0.447846 (Simulation time: 1 hr 10 min 54 sec) 
Heartbeat CPU 0 instructions: 845000003 cycles: 1951277046 heartbeat IPC: 0.405505 cumulative IPC: 0.447728 (Simulation time: 1 hr 11 min 0 sec) 
Heartbeat CPU 0 instructions: 846000003 cycles: 1953752834 heartbeat IPC: 0.403912 cumulative IPC: 0.447605 (Simulation time: 1 hr 11 min 5 sec) 
Heartbeat CPU 0 instructions: 847000000 cycles: 1956185025 heartbeat IPC: 0.411151 cumulative IPC: 0.447505 (Simulation time: 1 hr 11 min 11 sec) 
Heartbeat CPU 0 instructions: 848000000 cycles: 1958898567 heartbeat IPC: 0.368522 cumulative IPC: 0.447265 (Simulation time: 1 hr 11 min 17 sec) 
Heartbeat CPU 0 instructions: 849000002 cycles: 1961313964 heartbeat IPC: 0.414011 cumulative IPC: 0.447175 (Simulation time: 1 hr 11 min 22 sec) 
Heartbeat CPU 0 instructions: 850000001 cycles: 1963571920 heartbeat IPC: 0.442878 cumulative IPC: 0.447164 (Simulation time: 1 hr 11 min 28 sec) 
Heartbeat CPU 0 instructions: 851000001 cycles: 1965887328 heartbeat IPC: 0.431889 cumulative IPC: 0.447124 (Simulation time: 1 hr 11 min 33 sec) 
Heartbeat CPU 0 instructions: 852000000 cycles: 1968331055 heartbeat IPC: 0.409211 cumulative IPC: 0.447021 (Simulation time: 1 hr 11 min 39 sec) 
Heartbeat CPU 0 instructions: 853000001 cycles: 1970780877 heartbeat IPC: 0.408193 cumulative IPC: 0.446916 (Simulation time: 1 hr 11 min 44 sec) 
Heartbeat CPU 0 instructions: 854000002 cycles: 1973222129 heartbeat IPC: 0.409626 cumulative IPC: 0.446815 (Simulation time: 1 hr 11 min 50 sec) 
Heartbeat CPU 0 instructions: 855000001 cycles: 1975679581 heartbeat IPC: 0.406925 cumulative IPC: 0.446707 (Simulation time: 1 hr 11 min 55 sec) 
Heartbeat CPU 0 instructions: 856000002 cycles: 1977983026 heartbeat IPC: 0.434133 cumulative IPC: 0.446675 (Simulation time: 1 hr 12 min 0 sec) 
Heartbeat CPU 0 instructions: 857000002 cycles: 1980257911 heartbeat IPC: 0.439583 cumulative IPC: 0.446657 (Simulation time: 1 hr 12 min 6 sec) 
Heartbeat CPU 0 instructions: 858000000 cycles: 1982621146 heartbeat IPC: 0.423148 cumulative IPC: 0.446597 (Simulation time: 1 hr 12 min 11 sec) 
Heartbeat CPU 0 instructions: 859000000 cycles: 1985070934 heartbeat IPC: 0.408199 cumulative IPC: 0.446494 (Simulation time: 1 hr 12 min 16 sec) 
Heartbeat CPU 0 instructions: 860000000 cycles: 1987497242 heartbeat IPC: 0.412149 cumulative IPC: 0.446403 (Simulation time: 1 hr 12 min 21 sec) 
Heartbeat CPU 0 instructions: 861000002 cycles: 1989951869 heartbeat IPC: 0.407395 cumulative IPC: 0.446299 (Simulation time: 1 hr 12 min 27 sec) 
Heartbeat CPU 0 instructions: 862000001 cycles: 1992385948 heartbeat IPC: 0.410833 cumulative IPC: 0.446206 (Simulation time: 1 hr 12 min 33 sec) 
Heartbeat CPU 0 instructions: 863000002 cycles: 1994828815 heartbeat IPC: 0.409355 cumulative IPC: 0.446108 (Simulation time: 1 hr 12 min 38 sec) 
Heartbeat CPU 0 instructions: 864000000 cycles: 1997035675 heartbeat IPC: 0.453132 cumulative IPC: 0.446125 (Simulation time: 1 hr 12 min 43 sec) 
Heartbeat CPU 0 instructions: 865000000 cycles: 1999358531 heartbeat IPC: 0.430505 cumulative IPC: 0.446086 (Simulation time: 1 hr 12 min 49 sec) 
Heartbeat CPU 0 instructions: 866000001 cycles: 2001842400 heartbeat IPC: 0.402598 cumulative IPC: 0.44597 (Simulation time: 1 hr 12 min 55 sec) 
Heartbeat CPU 0 instructions: 867000002 cycles: 2004287948 heartbeat IPC: 0.408907 cumulative IPC: 0.445873 (Simulation time: 1 hr 13 min 0 sec) 
Heartbeat CPU 0 instructions: 868000000 cycles: 2006725082 heartbeat IPC: 0.410317 cumulative IPC: 0.445781 (Simulation time: 1 hr 13 min 6 sec) 
Heartbeat CPU 0 instructions: 869000000 cycles: 2009148428 heartbeat IPC: 0.412653 cumulative IPC: 0.445696 (Simulation time: 1 hr 13 min 11 sec) 
Heartbeat CPU 0 instructions: 870000001 cycles: 2011566431 heartbeat IPC: 0.413565 cumulative IPC: 0.445613 (Simulation time: 1 hr 13 min 17 sec) 
Heartbeat CPU 0 instructions: 871000000 cycles: 2014010363 heartbeat IPC: 0.409176 cumulative IPC: 0.445519 (Simulation time: 1 hr 13 min 23 sec) 
Heartbeat CPU 0 instructions: 872000002 cycles: 2016472126 heartbeat IPC: 0.406214 cumulative IPC: 0.445417 (Simulation time: 1 hr 13 min 28 sec) 
Heartbeat CPU 0 instructions: 873000003 cycles: 2018894436 heartbeat IPC: 0.412829 cumulative IPC: 0.445334 (Simulation time: 1 hr 13 min 34 sec) 
Heartbeat CPU 0 instructions: 874000003 cycles: 2021302899 heartbeat IPC: 0.415203 cumulative IPC: 0.445258 (Simulation time: 1 hr 13 min 39 sec) 
Heartbeat CPU 0 instructions: 875000001 cycles: 2023761914 heartbeat IPC: 0.406666 cumulative IPC: 0.445158 (Simulation time: 1 hr 13 min 45 sec) 
Heartbeat CPU 0 instructions: 876000000 cycles: 2026192216 heartbeat IPC: 0.411471 cumulative IPC: 0.445073 (Simulation time: 1 hr 13 min 51 sec) 
Heartbeat CPU 0 instructions: 877000000 cycles: 2028630687 heartbeat IPC: 0.410093 cumulative IPC: 0.444984 (Simulation time: 1 hr 13 min 56 sec) 
Heartbeat CPU 0 instructions: 878000003 cycles: 2030971446 heartbeat IPC: 0.427213 cumulative IPC: 0.44494 (Simulation time: 1 hr 14 min 2 sec) 
Heartbeat CPU 0 instructions: 879000000 cycles: 2033328542 heartbeat IPC: 0.42425 cumulative IPC: 0.44489 (Simulation time: 1 hr 14 min 8 sec) 
Heartbeat CPU 0 instructions: 880000000 cycles: 2035644363 heartbeat IPC: 0.431812 cumulative IPC: 0.444859 (Simulation time: 1 hr 14 min 13 sec) 
Heartbeat CPU 0 instructions: 881000001 cycles: 2038042688 heartbeat IPC: 0.416958 cumulative IPC: 0.444789 (Simulation time: 1 hr 14 min 18 sec) 
Heartbeat CPU 0 instructions: 882000003 cycles: 2040443179 heartbeat IPC: 0.416582 cumulative IPC: 0.44472 (Simulation time: 1 hr 14 min 24 sec) 
Heartbeat CPU 0 instructions: 883000002 cycles: 2042876394 heartbeat IPC: 0.410978 cumulative IPC: 0.444636 (Simulation time: 1 hr 14 min 30 sec) 
Heartbeat CPU 0 instructions: 884000003 cycles: 2045324445 heartbeat IPC: 0.408489 cumulative IPC: 0.444545 (Simulation time: 1 hr 14 min 35 sec) 
Heartbeat CPU 0 instructions: 885000003 cycles: 2047749503 heartbeat IPC: 0.412361 cumulative IPC: 0.444465 (Simulation time: 1 hr 14 min 41 sec) 
Heartbeat CPU 0 instructions: 886000000 cycles: 2050182755 heartbeat IPC: 0.410971 cumulative IPC: 0.444382 (Simulation time: 1 hr 14 min 47 sec) 
Heartbeat CPU 0 instructions: 887000000 cycles: 2052600510 heartbeat IPC: 0.413607 cumulative IPC: 0.444306 (Simulation time: 1 hr 14 min 52 sec) 
Heartbeat CPU 0 instructions: 888000000 cycles: 2055040356 heartbeat IPC: 0.409862 cumulative IPC: 0.444221 (Simulation time: 1 hr 14 min 58 sec) 
Heartbeat CPU 0 instructions: 889000003 cycles: 2057486351 heartbeat IPC: 0.408833 cumulative IPC: 0.444134 (Simulation time: 1 hr 15 min 3 sec) 
Heartbeat CPU 0 instructions: 890000000 cycles: 2059898687 heartbeat IPC: 0.414535 cumulative IPC: 0.444062 (Simulation time: 1 hr 15 min 9 sec) 
Heartbeat CPU 0 instructions: 891000000 cycles: 2062297512 heartbeat IPC: 0.416871 cumulative IPC: 0.443996 (Simulation time: 1 hr 15 min 15 sec) 
Heartbeat CPU 0 instructions: 892000000 cycles: 2064714377 heartbeat IPC: 0.413759 cumulative IPC: 0.443922 (Simulation time: 1 hr 15 min 21 sec) 
Heartbeat CPU 0 instructions: 893000000 cycles: 2067267479 heartbeat IPC: 0.39168 cumulative IPC: 0.443789 (Simulation time: 1 hr 15 min 26 sec) 
Heartbeat CPU 0 instructions: 894000003 cycles: 2069634287 heartbeat IPC: 0.422511 cumulative IPC: 0.443739 (Simulation time: 1 hr 15 min 32 sec) 
Heartbeat CPU 0 instructions: 895000002 cycles: 2072041746 heartbeat IPC: 0.415375 cumulative IPC: 0.44367 (Simulation time: 1 hr 15 min 37 sec) 
Heartbeat CPU 0 instructions: 896000000 cycles: 2074449788 heartbeat IPC: 0.415274 cumulative IPC: 0.443602 (Simulation time: 1 hr 15 min 43 sec) 
Heartbeat CPU 0 instructions: 897000001 cycles: 2076849136 heartbeat IPC: 0.41678 cumulative IPC: 0.443539 (Simulation time: 1 hr 15 min 48 sec) 
Heartbeat CPU 0 instructions: 898000000 cycles: 2079263231 heartbeat IPC: 0.414234 cumulative IPC: 0.443469 (Simulation time: 1 hr 15 min 54 sec) 
Heartbeat CPU 0 instructions: 899000003 cycles: 2081656965 heartbeat IPC: 0.417759 cumulative IPC: 0.443408 (Simulation time: 1 hr 16 min 0 sec) 
Heartbeat CPU 0 instructions: 900000000 cycles: 2084035687 heartbeat IPC: 0.420393 cumulative IPC: 0.443354 (Simulation time: 1 hr 16 min 5 sec) 
Heartbeat CPU 0 instructions: 901000001 cycles: 2086435834 heartbeat IPC: 0.416642 cumulative IPC: 0.443291 (Simulation time: 1 hr 16 min 10 sec) 
Heartbeat CPU 0 instructions: 902000000 cycles: 2088801442 heartbeat IPC: 0.422724 cumulative IPC: 0.443243 (Simulation time: 1 hr 16 min 16 sec) 
Heartbeat CPU 0 instructions: 903000003 cycles: 2091164627 heartbeat IPC: 0.423159 cumulative IPC: 0.443197 (Simulation time: 1 hr 16 min 21 sec) 
Heartbeat CPU 0 instructions: 904000001 cycles: 2093552341 heartbeat IPC: 0.41881 cumulative IPC: 0.44314 (Simulation time: 1 hr 16 min 27 sec) 
Heartbeat CPU 0 instructions: 905000002 cycles: 2095950469 heartbeat IPC: 0.416992 cumulative IPC: 0.443079 (Simulation time: 1 hr 16 min 32 sec) 
Heartbeat CPU 0 instructions: 906000000 cycles: 2098354930 heartbeat IPC: 0.415893 cumulative IPC: 0.443015 (Simulation time: 1 hr 16 min 38 sec) 
Heartbeat CPU 0 instructions: 907000000 cycles: 2100758252 heartbeat IPC: 0.416091 cumulative IPC: 0.442953 (Simulation time: 1 hr 16 min 42 sec) 
Heartbeat CPU 0 instructions: 908000001 cycles: 2103137435 heartbeat IPC: 0.420313 cumulative IPC: 0.4429 (Simulation time: 1 hr 16 min 48 sec) 
Heartbeat CPU 0 instructions: 909000000 cycles: 2105515483 heartbeat IPC: 0.420513 cumulative IPC: 0.442849 (Simulation time: 1 hr 16 min 54 sec) 
Heartbeat CPU 0 instructions: 910000003 cycles: 2107907070 heartbeat IPC: 0.418134 cumulative IPC: 0.442792 (Simulation time: 1 hr 16 min 59 sec) 
Heartbeat CPU 0 instructions: 911000003 cycles: 2110312013 heartbeat IPC: 0.41581 cumulative IPC: 0.44273 (Simulation time: 1 hr 17 min 5 sec) 
Heartbeat CPU 0 instructions: 912000000 cycles: 2112729090 heartbeat IPC: 0.413722 cumulative IPC: 0.442663 (Simulation time: 1 hr 17 min 10 sec) 
Heartbeat CPU 0 instructions: 913000000 cycles: 2115302932 heartbeat IPC: 0.388524 cumulative IPC: 0.442529 (Simulation time: 1 hr 17 min 16 sec) 
Heartbeat CPU 0 instructions: 914000000 cycles: 2117798985 heartbeat IPC: 0.400633 cumulative IPC: 0.44243 (Simulation time: 1 hr 17 min 22 sec) 
Heartbeat CPU 0 instructions: 915000002 cycles: 2120296960 heartbeat IPC: 0.400325 cumulative IPC: 0.44233 (Simulation time: 1 hr 17 min 28 sec) 
Heartbeat CPU 0 instructions: 916000003 cycles: 2122728023 heartbeat IPC: 0.411343 cumulative IPC: 0.442258 (Simulation time: 1 hr 17 min 34 sec) 
Heartbeat CPU 0 instructions: 917000001 cycles: 2125118924 heartbeat IPC: 0.418252 cumulative IPC: 0.442204 (Simulation time: 1 hr 17 min 40 sec) 
Heartbeat CPU 0 instructions: 918000001 cycles: 2127513744 heartbeat IPC: 0.417568 cumulative IPC: 0.442148 (Simulation time: 1 hr 17 min 46 sec) 
Heartbeat CPU 0 instructions: 919000000 cycles: 2129939593 heartbeat IPC: 0.412226 cumulative IPC: 0.44208 (Simulation time: 1 hr 17 min 52 sec) 
Heartbeat CPU 0 instructions: 920000000 cycles: 2132342902 heartbeat IPC: 0.416093 cumulative IPC: 0.442021 (Simulation time: 1 hr 17 min 57 sec) 
Heartbeat CPU 0 instructions: 921000002 cycles: 2134763539 heartbeat IPC: 0.413115 cumulative IPC: 0.441955 (Simulation time: 1 hr 18 min 3 sec) 
Heartbeat CPU 0 instructions: 922000000 cycles: 2137188340 heartbeat IPC: 0.412404 cumulative IPC: 0.441888 (Simulation time: 1 hr 18 min 8 sec) 
Heartbeat CPU 0 instructions: 923000000 cycles: 2139613189 heartbeat IPC: 0.412397 cumulative IPC: 0.441821 (Simulation time: 1 hr 18 min 14 sec) 
Heartbeat CPU 0 instructions: 924000000 cycles: 2142027473 heartbeat IPC: 0.414201 cumulative IPC: 0.441759 (Simulation time: 1 hr 18 min 20 sec) 
Heartbeat CPU 0 instructions: 925000000 cycles: 2144433271 heartbeat IPC: 0.415662 cumulative IPC: 0.441701 (Simulation time: 1 hr 18 min 25 sec) 
Heartbeat CPU 0 instructions: 926000001 cycles: 2146829655 heartbeat IPC: 0.417296 cumulative IPC: 0.441647 (Simulation time: 1 hr 18 min 31 sec) 
Heartbeat CPU 0 instructions: 927000000 cycles: 2149249565 heartbeat IPC: 0.413238 cumulative IPC: 0.441583 (Simulation time: 1 hr 18 min 37 sec) 
Heartbeat CPU 0 instructions: 928000002 cycles: 2151641393 heartbeat IPC: 0.418091 cumulative IPC: 0.441531 (Simulation time: 1 hr 18 min 42 sec) 
Heartbeat CPU 0 instructions: 929000002 cycles: 2154074478 heartbeat IPC: 0.411001 cumulative IPC: 0.441463 (Simulation time: 1 hr 18 min 48 sec) 
Heartbeat CPU 0 instructions: 930000003 cycles: 2156542787 heartbeat IPC: 0.405136 cumulative IPC: 0.44138 (Simulation time: 1 hr 18 min 54 sec) 
Heartbeat CPU 0 instructions: 931000003 cycles: 2159085585 heartbeat IPC: 0.393268 cumulative IPC: 0.441268 (Simulation time: 1 hr 19 min 0 sec) 
Heartbeat CPU 0 instructions: 932000002 cycles: 2161539961 heartbeat IPC: 0.407435 cumulative IPC: 0.441192 (Simulation time: 1 hr 19 min 5 sec) 
Heartbeat CPU 0 instructions: 933000000 cycles: 2163992337 heartbeat IPC: 0.407767 cumulative IPC: 0.441117 (Simulation time: 1 hr 19 min 11 sec) 
Heartbeat CPU 0 instructions: 934000000 cycles: 2166384943 heartbeat IPC: 0.417954 cumulative IPC: 0.441067 (Simulation time: 1 hr 19 min 17 sec) 
Heartbeat CPU 0 instructions: 935000000 cycles: 2168768942 heartbeat IPC: 0.419463 cumulative IPC: 0.44102 (Simulation time: 1 hr 19 min 22 sec) 
Heartbeat CPU 0 instructions: 936000001 cycles: 2171183363 heartbeat IPC: 0.414178 cumulative IPC: 0.440961 (Simulation time: 1 hr 19 min 28 sec) 
Heartbeat CPU 0 instructions: 937000001 cycles: 2173588405 heartbeat IPC: 0.415793 cumulative IPC: 0.440906 (Simulation time: 1 hr 19 min 33 sec) 
Heartbeat CPU 0 instructions: 938000000 cycles: 2175981231 heartbeat IPC: 0.417915 cumulative IPC: 0.440856 (Simulation time: 1 hr 19 min 38 sec) 
Heartbeat CPU 0 instructions: 939000000 cycles: 2178364672 heartbeat IPC: 0.419561 cumulative IPC: 0.440811 (Simulation time: 1 hr 19 min 44 sec) 
Heartbeat CPU 0 instructions: 940000000 cycles: 2180780867 heartbeat IPC: 0.413874 cumulative IPC: 0.440752 (Simulation time: 1 hr 19 min 49 sec) 
Heartbeat CPU 0 instructions: 941000002 cycles: 2183152779 heartbeat IPC: 0.421602 cumulative IPC: 0.440711 (Simulation time: 1 hr 19 min 54 sec) 
Heartbeat CPU 0 instructions: 942000003 cycles: 2185592284 heartbeat IPC: 0.40992 cumulative IPC: 0.440644 (Simulation time: 1 hr 20 min 1 sec) 
Heartbeat CPU 0 instructions: 943000002 cycles: 2188035349 heartbeat IPC: 0.409321 cumulative IPC: 0.440576 (Simulation time: 1 hr 20 min 6 sec) 
Heartbeat CPU 0 instructions: 944000000 cycles: 2190555314 heartbeat IPC: 0.39683 cumulative IPC: 0.440477 (Simulation time: 1 hr 20 min 12 sec) 
Heartbeat CPU 0 instructions: 945000000 cycles: 2193021026 heartbeat IPC: 0.405562 cumulative IPC: 0.440401 (Simulation time: 1 hr 20 min 17 sec) 
Heartbeat CPU 0 instructions: 946000000 cycles: 2195442329 heartbeat IPC: 0.413001 cumulative IPC: 0.440342 (Simulation time: 1 hr 20 min 23 sec) 
Heartbeat CPU 0 instructions: 947000000 cycles: 2197870194 heartbeat IPC: 0.411885 cumulative IPC: 0.440281 (Simulation time: 1 hr 20 min 29 sec) 
Heartbeat CPU 0 instructions: 948000002 cycles: 2200289711 heartbeat IPC: 0.413306 cumulative IPC: 0.440223 (Simulation time: 1 hr 20 min 33 sec) 
Heartbeat CPU 0 instructions: 949000000 cycles: 2202690344 heartbeat IPC: 0.416556 cumulative IPC: 0.440173 (Simulation time: 1 hr 20 min 39 sec) 
Heartbeat CPU 0 instructions: 950000001 cycles: 2205068779 heartbeat IPC: 0.420445 cumulative IPC: 0.440132 (Simulation time: 1 hr 20 min 44 sec) 
Finished CPU 0 instructions: 500000001 cycles: 1136023765 cumulative IPC: 0.440132 (Simulation time: 1 hr 20 min 44 sec) 

ChampSim completed all CPUs

Region of Interest Statistics

CPU 0 cumulative IPC: 0.440132 instructions: 500000001 cycles: 1136023765
L1D TOTAL     ACCESS:  179834823  HIT:  158960644  MISS:   20874179
L1D LOAD      ACCESS:  125726797  HIT:  106710554  MISS:   19016243
L1D RFO       ACCESS:   54108026  HIT:   52250090  MISS:    1857936
L1D PREFETCH  ACCESS:          0  HIT:          0  MISS:          0
L1D WRITEBACK ACCESS:          0  HIT:          0  MISS:          0
L1D PREFETCH  REQUESTED:          0  ISSUED:          0  USEFUL:          0  USELESS:          0
L1D AVERAGE MISS LATENCY: 56.4525 cycles
L1I TOTAL     ACCESS:   95967333  HIT:   95967333  MISS:          0
L1I LOAD      ACCESS:   95967333  HIT:   95967333  MISS:          0
L1I RFO       ACCESS:          0  HIT:          0  MISS:          0
L1I PREFETCH  ACCESS:          0  HIT:          0  MISS:          0
L1I WRITEBACK ACCESS:          0  HIT:          0  MISS:          0
L1I PREFETCH  REQUESTED:          0  ISSUED:          0  USEFUL:          0  USELESS:          0
L1I AVERAGE MISS LATENCY: -nan cycles
L2C TOTAL     ACCESS:   23748462  HIT:    9458709  MISS:   14289753
L2C LOAD      ACCESS:   19016173  HIT:    5570056  MISS:   13446117
L2C RFO       ACCESS:    1857912  HIT:    1016216  MISS:     841696
L2C PREFETCH  ACCESS:          0  HIT:          0  MISS:          0
L2C WRITEBACK ACCESS:    2874377  HIT:    2872437  MISS:       1940
L2C PREFETCH  REQUESTED:          0  ISSUED:          0  USEFUL:          0  USELESS:          0
L2C AVERAGE MISS LATENCY: 59.8784 cycles
LLC TOTAL     ACCESS:   28584558  HIT:   21433713  MISS:    7150845
LLC LOAD      ACCESS:   13446103  HIT:   11062365  MISS:    2383738
LLC RFO       ACCESS:     841677  HIT:     829875  MISS:      11802
LLC PREFETCH  ACCESS:   12640364  HIT:    7909160  MISS:    4731204
LLC WRITEBACK ACCESS:    1656414  HIT:    1632313  MISS:      24101
LLC PREFETCH  REQUESTED:   13429163  ISSUED:   12903980  USEFUL:    4097126  USELESS:     631888
LLC AVERAGE MISS LATENCY: 151.108 cycles
Major fault: 0 Minor fault: 121652
performance stats:
mapping cache size: 7679865
divergence: 11402347

DRAM Statistics
 CHANNEL 0
 RQ ROW_BUFFER_HIT:    2823086  ROW_BUFFER_MISS:    4303580
 DBUS_CONGESTED:    1760282
 WQ ROW_BUFFER_HIT:      40094  ROW_BUFFER_MISS:      67015  FULL:          0

 AVG_CONGESTED_CYCLE: 5

CPU 0 Branch Prediction Accuracy: 93.4378% MPKI: 16.5871 Average ROB Occupancy at Mispredict: 27.2148

Branch types
NOT_BRANCH: 373615675 74.7231%
BRANCH_DIRECT_JUMP: 13596032 2.71921%
BRANCH_INDIRECT: 0 0%
BRANCH_CONDITIONAL: 86167671 17.2335%
BRANCH_DIRECT_CALL: 12564851 2.51297%
BRANCH_INDIRECT_CALL: 745445 0.149089%
BRANCH_RETURN: 13310293 2.66206%
BRANCH_OTHER: 0 0%

