
*** ChampSim Multicore Out-of-Order Simulator ***

Warmup Instructions: 1000000
Prefetch Warmup Instructions: 450000000
Simulation Instructions: 500000000
Stat Printing Period: 1000000
Number of CPUs: 1
LLC sets: 2048
LLC ways: 16
Off-chip DRAM Size: 4096 MB Channels: 1 Width: 64-bit Data Rate: 3200 MT/s

CPU 0 runs /scratch/cluster/cmolder/ML-DPC/ChampSimTraces/spec17/620.omnetpp-s1.trace.xz
Read seed: 229
Heartbeat CPU 0 instructions: 1000000 cycles: 560405 heartbeat IPC: 1.78442 cumulative IPC: 1.78442 (Simulation time: 0 hr 0 min 5 sec) 

Warmup complete CPU 0 instructions: 1000002 cycles: 560406 (Simulation time: 0 hr 0 min 5 sec) 

Heartbeat CPU 0 instructions: 2000003 cycles: 3142878 heartbeat IPC: 0.387227 cumulative IPC: 0.387226 (Simulation time: 0 hr 0 min 12 sec) 
Heartbeat CPU 0 instructions: 3000000 cycles: 5821890 heartbeat IPC: 0.373271 cumulative IPC: 0.380121 (Simulation time: 0 hr 0 min 19 sec) 
Heartbeat CPU 0 instructions: 4000002 cycles: 8640466 heartbeat IPC: 0.35479 cumulative IPC: 0.371284 (Simulation time: 0 hr 0 min 26 sec) 
Heartbeat CPU 0 instructions: 5000000 cycles: 11372671 heartbeat IPC: 0.366004 cumulative IPC: 0.36995 (Simulation time: 0 hr 0 min 32 sec) 
Heartbeat CPU 0 instructions: 6000003 cycles: 14103979 heartbeat IPC: 0.366126 cumulative IPC: 0.369179 (Simulation time: 0 hr 0 min 39 sec) 
Heartbeat CPU 0 instructions: 7000000 cycles: 16959964 heartbeat IPC: 0.350141 cumulative IPC: 0.365863 (Simulation time: 0 hr 0 min 46 sec) 
Heartbeat CPU 0 instructions: 8000000 cycles: 19603252 heartbeat IPC: 0.378317 cumulative IPC: 0.367592 (Simulation time: 0 hr 0 min 53 sec) 
Heartbeat CPU 0 instructions: 9000001 cycles: 22309686 heartbeat IPC: 0.36949 cumulative IPC: 0.367828 (Simulation time: 0 hr 1 min 1 sec) 
Heartbeat CPU 0 instructions: 10000001 cycles: 25048441 heartbeat IPC: 0.365129 cumulative IPC: 0.367526 (Simulation time: 0 hr 1 min 8 sec) 
Heartbeat CPU 0 instructions: 11000000 cycles: 27758417 heartbeat IPC: 0.369007 cumulative IPC: 0.367674 (Simulation time: 0 hr 1 min 14 sec) 
Heartbeat CPU 0 instructions: 12000001 cycles: 30539030 heartbeat IPC: 0.359633 cumulative IPC: 0.366928 (Simulation time: 0 hr 1 min 21 sec) 
Heartbeat CPU 0 instructions: 13000002 cycles: 33192069 heartbeat IPC: 0.376927 cumulative IPC: 0.367741 (Simulation time: 0 hr 1 min 28 sec) 
Heartbeat CPU 0 instructions: 14000000 cycles: 35927297 heartbeat IPC: 0.3656 cumulative IPC: 0.367575 (Simulation time: 0 hr 1 min 35 sec) 
Heartbeat CPU 0 instructions: 15000001 cycles: 38546090 heartbeat IPC: 0.381856 cumulative IPC: 0.36856 (Simulation time: 0 hr 1 min 42 sec) 
Heartbeat CPU 0 instructions: 16000003 cycles: 41147552 heartbeat IPC: 0.3844 cumulative IPC: 0.369575 (Simulation time: 0 hr 1 min 48 sec) 
Heartbeat CPU 0 instructions: 17000002 cycles: 43916846 heartbeat IPC: 0.361102 cumulative IPC: 0.369034 (Simulation time: 0 hr 1 min 55 sec) 
Heartbeat CPU 0 instructions: 18000002 cycles: 46654236 heartbeat IPC: 0.365311 cumulative IPC: 0.368813 (Simulation time: 0 hr 2 min 3 sec) 
Heartbeat CPU 0 instructions: 19000000 cycles: 49555260 heartbeat IPC: 0.344705 cumulative IPC: 0.367385 (Simulation time: 0 hr 2 min 10 sec) 
Heartbeat CPU 0 instructions: 20000000 cycles: 52491045 heartbeat IPC: 0.340624 cumulative IPC: 0.365873 (Simulation time: 0 hr 2 min 18 sec) 
Heartbeat CPU 0 instructions: 21000001 cycles: 55155455 heartbeat IPC: 0.375318 cumulative IPC: 0.366334 (Simulation time: 0 hr 2 min 24 sec) 
Heartbeat CPU 0 instructions: 22000000 cycles: 57795052 heartbeat IPC: 0.378845 cumulative IPC: 0.366911 (Simulation time: 0 hr 2 min 30 sec) 
Heartbeat CPU 0 instructions: 23000002 cycles: 60744815 heartbeat IPC: 0.339011 cumulative IPC: 0.365543 (Simulation time: 0 hr 2 min 37 sec) 
Heartbeat CPU 0 instructions: 24000002 cycles: 63459551 heartbeat IPC: 0.36836 cumulative IPC: 0.365665 (Simulation time: 0 hr 2 min 44 sec) 
Heartbeat CPU 0 instructions: 25000000 cycles: 66088188 heartbeat IPC: 0.380425 cumulative IPC: 0.366257 (Simulation time: 0 hr 2 min 50 sec) 
Heartbeat CPU 0 instructions: 26000001 cycles: 68995152 heartbeat IPC: 0.344002 cumulative IPC: 0.365312 (Simulation time: 0 hr 2 min 57 sec) 
Heartbeat CPU 0 instructions: 27000003 cycles: 71674434 heartbeat IPC: 0.373235 cumulative IPC: 0.36561 (Simulation time: 0 hr 3 min 5 sec) 
Heartbeat CPU 0 instructions: 28000002 cycles: 74535347 heartbeat IPC: 0.349538 cumulative IPC: 0.364988 (Simulation time: 0 hr 3 min 11 sec) 
Heartbeat CPU 0 instructions: 29000003 cycles: 77358373 heartbeat IPC: 0.35423 cumulative IPC: 0.364593 (Simulation time: 0 hr 3 min 16 sec) 
Heartbeat CPU 0 instructions: 30000002 cycles: 80303090 heartbeat IPC: 0.339591 cumulative IPC: 0.36367 (Simulation time: 0 hr 3 min 23 sec) 
Heartbeat CPU 0 instructions: 31000000 cycles: 83043279 heartbeat IPC: 0.364938 cumulative IPC: 0.363712 (Simulation time: 0 hr 3 min 30 sec) 
Heartbeat CPU 0 instructions: 32000000 cycles: 85904806 heartbeat IPC: 0.349464 cumulative IPC: 0.363234 (Simulation time: 0 hr 3 min 37 sec) 
Heartbeat CPU 0 instructions: 33000000 cycles: 88652520 heartbeat IPC: 0.363939 cumulative IPC: 0.363256 (Simulation time: 0 hr 3 min 44 sec) 
Heartbeat CPU 0 instructions: 34000000 cycles: 91384598 heartbeat IPC: 0.366022 cumulative IPC: 0.363339 (Simulation time: 0 hr 3 min 51 sec) 
Heartbeat CPU 0 instructions: 35000000 cycles: 94252012 heartbeat IPC: 0.348746 cumulative IPC: 0.362893 (Simulation time: 0 hr 3 min 58 sec) 
Heartbeat CPU 0 instructions: 36000000 cycles: 97020231 heartbeat IPC: 0.361243 cumulative IPC: 0.362845 (Simulation time: 0 hr 4 min 5 sec) 
Heartbeat CPU 0 instructions: 37000003 cycles: 99889060 heartbeat IPC: 0.348575 cumulative IPC: 0.362433 (Simulation time: 0 hr 4 min 12 sec) 
Heartbeat CPU 0 instructions: 38000001 cycles: 102869056 heartbeat IPC: 0.33557 cumulative IPC: 0.361651 (Simulation time: 0 hr 4 min 19 sec) 
Heartbeat CPU 0 instructions: 39000000 cycles: 105769583 heartbeat IPC: 0.344765 cumulative IPC: 0.361185 (Simulation time: 0 hr 4 min 27 sec) 
Heartbeat CPU 0 instructions: 40000000 cycles: 108277519 heartbeat IPC: 0.398734 cumulative IPC: 0.362059 (Simulation time: 0 hr 4 min 34 sec) 
Heartbeat CPU 0 instructions: 41000001 cycles: 110835368 heartbeat IPC: 0.390954 cumulative IPC: 0.36273 (Simulation time: 0 hr 4 min 42 sec) 
Heartbeat CPU 0 instructions: 42000002 cycles: 113644840 heartbeat IPC: 0.355939 cumulative IPC: 0.362561 (Simulation time: 0 hr 4 min 47 sec) 
Heartbeat CPU 0 instructions: 43000001 cycles: 116471762 heartbeat IPC: 0.353741 cumulative IPC: 0.362346 (Simulation time: 0 hr 4 min 54 sec) 
Heartbeat CPU 0 instructions: 44000000 cycles: 119292896 heartbeat IPC: 0.354467 cumulative IPC: 0.362159 (Simulation time: 0 hr 5 min 1 sec) 
Heartbeat CPU 0 instructions: 45000001 cycles: 122273436 heartbeat IPC: 0.33551 cumulative IPC: 0.361506 (Simulation time: 0 hr 5 min 8 sec) 
Heartbeat CPU 0 instructions: 46000000 cycles: 125012144 heartbeat IPC: 0.365135 cumulative IPC: 0.361586 (Simulation time: 0 hr 5 min 16 sec) 
Heartbeat CPU 0 instructions: 47000001 cycles: 127928403 heartbeat IPC: 0.342905 cumulative IPC: 0.361158 (Simulation time: 0 hr 5 min 23 sec) 
Heartbeat CPU 0 instructions: 48000002 cycles: 130868891 heartbeat IPC: 0.34008 cumulative IPC: 0.360683 (Simulation time: 0 hr 5 min 30 sec) 
Heartbeat CPU 0 instructions: 49000003 cycles: 133508390 heartbeat IPC: 0.37886 cumulative IPC: 0.361043 (Simulation time: 0 hr 5 min 37 sec) 
Heartbeat CPU 0 instructions: 50000000 cycles: 136411853 heartbeat IPC: 0.344415 cumulative IPC: 0.360688 (Simulation time: 0 hr 5 min 44 sec) 
Heartbeat CPU 0 instructions: 51000000 cycles: 139047604 heartbeat IPC: 0.379398 cumulative IPC: 0.361044 (Simulation time: 0 hr 5 min 50 sec) 
Heartbeat CPU 0 instructions: 52000000 cycles: 142192116 heartbeat IPC: 0.318014 cumulative IPC: 0.360089 (Simulation time: 0 hr 5 min 58 sec) 
Heartbeat CPU 0 instructions: 53000002 cycles: 145145855 heartbeat IPC: 0.338555 cumulative IPC: 0.359649 (Simulation time: 0 hr 6 min 5 sec) 
Heartbeat CPU 0 instructions: 54000000 cycles: 147743130 heartbeat IPC: 0.385018 cumulative IPC: 0.360097 (Simulation time: 0 hr 6 min 11 sec) 
Heartbeat CPU 0 instructions: 55000000 cycles: 150383022 heartbeat IPC: 0.378803 cumulative IPC: 0.360426 (Simulation time: 0 hr 6 min 19 sec) 
Heartbeat CPU 0 instructions: 56000001 cycles: 153176411 heartbeat IPC: 0.357988 cumulative IPC: 0.360382 (Simulation time: 0 hr 6 min 26 sec) 
Heartbeat CPU 0 instructions: 57000000 cycles: 156004963 heartbeat IPC: 0.353537 cumulative IPC: 0.360257 (Simulation time: 0 hr 6 min 34 sec) 
Heartbeat CPU 0 instructions: 58000000 cycles: 158769591 heartbeat IPC: 0.361712 cumulative IPC: 0.360282 (Simulation time: 0 hr 6 min 41 sec) 
Heartbeat CPU 0 instructions: 59000003 cycles: 161650327 heartbeat IPC: 0.347135 cumulative IPC: 0.360047 (Simulation time: 0 hr 6 min 48 sec) 
Heartbeat CPU 0 instructions: 60000001 cycles: 164342084 heartbeat IPC: 0.371504 cumulative IPC: 0.360236 (Simulation time: 0 hr 6 min 55 sec) 
Heartbeat CPU 0 instructions: 61000000 cycles: 167152329 heartbeat IPC: 0.355841 cumulative IPC: 0.360162 (Simulation time: 0 hr 7 min 1 sec) 
Heartbeat CPU 0 instructions: 62000001 cycles: 169985342 heartbeat IPC: 0.352981 cumulative IPC: 0.360041 (Simulation time: 0 hr 7 min 9 sec) 
Heartbeat CPU 0 instructions: 63000003 cycles: 172739882 heartbeat IPC: 0.363038 cumulative IPC: 0.360089 (Simulation time: 0 hr 7 min 16 sec) 
Heartbeat CPU 0 instructions: 64000003 cycles: 175436756 heartbeat IPC: 0.3708 cumulative IPC: 0.360255 (Simulation time: 0 hr 7 min 24 sec) 
Heartbeat CPU 0 instructions: 65000001 cycles: 178270382 heartbeat IPC: 0.352904 cumulative IPC: 0.360137 (Simulation time: 0 hr 7 min 31 sec) 
Heartbeat CPU 0 instructions: 66000000 cycles: 180918170 heartbeat IPC: 0.377673 cumulative IPC: 0.360395 (Simulation time: 0 hr 7 min 38 sec) 
Heartbeat CPU 0 instructions: 67000002 cycles: 183830705 heartbeat IPC: 0.343344 cumulative IPC: 0.360124 (Simulation time: 0 hr 7 min 45 sec) 
Heartbeat CPU 0 instructions: 68000000 cycles: 186391938 heartbeat IPC: 0.390436 cumulative IPC: 0.360542 (Simulation time: 0 hr 7 min 52 sec) 
Heartbeat CPU 0 instructions: 69000000 cycles: 189291651 heartbeat IPC: 0.344862 cumulative IPC: 0.360301 (Simulation time: 0 hr 7 min 59 sec) 
Heartbeat CPU 0 instructions: 70000001 cycles: 191914883 heartbeat IPC: 0.38121 cumulative IPC: 0.360587 (Simulation time: 0 hr 8 min 6 sec) 
Heartbeat CPU 0 instructions: 71000001 cycles: 194563674 heartbeat IPC: 0.377531 cumulative IPC: 0.360819 (Simulation time: 0 hr 8 min 14 sec) 
Heartbeat CPU 0 instructions: 72000003 cycles: 197297362 heartbeat IPC: 0.365807 cumulative IPC: 0.360888 (Simulation time: 0 hr 8 min 21 sec) 
Heartbeat CPU 0 instructions: 73000000 cycles: 200177169 heartbeat IPC: 0.347244 cumulative IPC: 0.360691 (Simulation time: 0 hr 8 min 28 sec) 
Heartbeat CPU 0 instructions: 74000000 cycles: 203132405 heartbeat IPC: 0.338382 cumulative IPC: 0.360366 (Simulation time: 0 hr 8 min 35 sec) 
Heartbeat CPU 0 instructions: 75000000 cycles: 205874567 heartbeat IPC: 0.364676 cumulative IPC: 0.360423 (Simulation time: 0 hr 8 min 42 sec) 
Heartbeat CPU 0 instructions: 76000002 cycles: 208747520 heartbeat IPC: 0.348075 cumulative IPC: 0.360253 (Simulation time: 0 hr 8 min 48 sec) 
Heartbeat CPU 0 instructions: 77000000 cycles: 211539693 heartbeat IPC: 0.358143 cumulative IPC: 0.360225 (Simulation time: 0 hr 8 min 56 sec) 
Heartbeat CPU 0 instructions: 78000001 cycles: 214242460 heartbeat IPC: 0.369992 cumulative IPC: 0.360348 (Simulation time: 0 hr 9 min 3 sec) 
Heartbeat CPU 0 instructions: 79000000 cycles: 217094032 heartbeat IPC: 0.350683 cumulative IPC: 0.360221 (Simulation time: 0 hr 9 min 10 sec) 
Heartbeat CPU 0 instructions: 80000002 cycles: 219864581 heartbeat IPC: 0.36094 cumulative IPC: 0.36023 (Simulation time: 0 hr 9 min 17 sec) 
Heartbeat CPU 0 instructions: 81000003 cycles: 222618162 heartbeat IPC: 0.363164 cumulative IPC: 0.360267 (Simulation time: 0 hr 9 min 24 sec) 
Heartbeat CPU 0 instructions: 82000001 cycles: 225382300 heartbeat IPC: 0.361776 cumulative IPC: 0.360285 (Simulation time: 0 hr 9 min 31 sec) 
Heartbeat CPU 0 instructions: 83000000 cycles: 228166709 heartbeat IPC: 0.359142 cumulative IPC: 0.360271 (Simulation time: 0 hr 9 min 38 sec) 
Heartbeat CPU 0 instructions: 84000000 cycles: 231084033 heartbeat IPC: 0.34278 cumulative IPC: 0.36005 (Simulation time: 0 hr 9 min 46 sec) 
Heartbeat CPU 0 instructions: 85000000 cycles: 233796613 heartbeat IPC: 0.368653 cumulative IPC: 0.36015 (Simulation time: 0 hr 9 min 52 sec) 
Heartbeat CPU 0 instructions: 86000001 cycles: 236487000 heartbeat IPC: 0.371694 cumulative IPC: 0.360282 (Simulation time: 0 hr 9 min 59 sec) 
Heartbeat CPU 0 instructions: 87000003 cycles: 238907654 heartbeat IPC: 0.413112 cumulative IPC: 0.360818 (Simulation time: 0 hr 10 min 6 sec) 
Heartbeat CPU 0 instructions: 88000000 cycles: 241487970 heartbeat IPC: 0.387548 cumulative IPC: 0.361104 (Simulation time: 0 hr 10 min 13 sec) 
Heartbeat CPU 0 instructions: 89000003 cycles: 243956130 heartbeat IPC: 0.405161 cumulative IPC: 0.361551 (Simulation time: 0 hr 10 min 20 sec) 
Heartbeat CPU 0 instructions: 90000002 cycles: 247001401 heartbeat IPC: 0.328378 cumulative IPC: 0.361141 (Simulation time: 0 hr 10 min 28 sec) 
Heartbeat CPU 0 instructions: 91000000 cycles: 249564950 heartbeat IPC: 0.390083 cumulative IPC: 0.361439 (Simulation time: 0 hr 10 min 35 sec) 
Heartbeat CPU 0 instructions: 92000002 cycles: 252476773 heartbeat IPC: 0.343428 cumulative IPC: 0.361231 (Simulation time: 0 hr 10 min 42 sec) 
Heartbeat CPU 0 instructions: 93000003 cycles: 255331813 heartbeat IPC: 0.350258 cumulative IPC: 0.361108 (Simulation time: 0 hr 10 min 49 sec) 
Heartbeat CPU 0 instructions: 94000000 cycles: 258322722 heartbeat IPC: 0.334346 cumulative IPC: 0.360797 (Simulation time: 0 hr 10 min 57 sec) 
Heartbeat CPU 0 instructions: 95000003 cycles: 260925556 heartbeat IPC: 0.384198 cumulative IPC: 0.361031 (Simulation time: 0 hr 11 min 4 sec) 
Heartbeat CPU 0 instructions: 96000002 cycles: 263668816 heartbeat IPC: 0.364529 cumulative IPC: 0.361068 (Simulation time: 0 hr 11 min 11 sec) 
Heartbeat CPU 0 instructions: 97000000 cycles: 266771056 heartbeat IPC: 0.322347 cumulative IPC: 0.360617 (Simulation time: 0 hr 11 min 17 sec) 
Heartbeat CPU 0 instructions: 98000002 cycles: 269594971 heartbeat IPC: 0.354119 cumulative IPC: 0.360548 (Simulation time: 0 hr 11 min 23 sec) 
Heartbeat CPU 0 instructions: 99000000 cycles: 272498775 heartbeat IPC: 0.344375 cumulative IPC: 0.360376 (Simulation time: 0 hr 11 min 29 sec) 
Heartbeat CPU 0 instructions: 100000000 cycles: 275269844 heartbeat IPC: 0.360872 cumulative IPC: 0.360381 (Simulation time: 0 hr 11 min 37 sec) 
Heartbeat CPU 0 instructions: 101000002 cycles: 278028676 heartbeat IPC: 0.362473 cumulative IPC: 0.360402 (Simulation time: 0 hr 11 min 43 sec) 
Heartbeat CPU 0 instructions: 102000000 cycles: 280996679 heartbeat IPC: 0.336926 cumulative IPC: 0.360153 (Simulation time: 0 hr 11 min 50 sec) 
Heartbeat CPU 0 instructions: 103000000 cycles: 283543450 heartbeat IPC: 0.392654 cumulative IPC: 0.360446 (Simulation time: 0 hr 11 min 57 sec) 
Heartbeat CPU 0 instructions: 104000002 cycles: 286455377 heartbeat IPC: 0.343416 cumulative IPC: 0.360272 (Simulation time: 0 hr 12 min 4 sec) 
Heartbeat CPU 0 instructions: 105000000 cycles: 289107554 heartbeat IPC: 0.377048 cumulative IPC: 0.360426 (Simulation time: 0 hr 12 min 11 sec) 
Heartbeat CPU 0 instructions: 106000000 cycles: 292055551 heartbeat IPC: 0.339213 cumulative IPC: 0.360212 (Simulation time: 0 hr 12 min 17 sec) 
Heartbeat CPU 0 instructions: 107000000 cycles: 295161279 heartbeat IPC: 0.321986 cumulative IPC: 0.359809 (Simulation time: 0 hr 12 min 23 sec) 
Heartbeat CPU 0 instructions: 108000002 cycles: 297789974 heartbeat IPC: 0.380418 cumulative IPC: 0.359991 (Simulation time: 0 hr 12 min 30 sec) 
Heartbeat CPU 0 instructions: 109000000 cycles: 300207946 heartbeat IPC: 0.413569 cumulative IPC: 0.360423 (Simulation time: 0 hr 12 min 36 sec) 
Heartbeat CPU 0 instructions: 110000000 cycles: 302791919 heartbeat IPC: 0.387001 cumulative IPC: 0.360651 (Simulation time: 0 hr 12 min 43 sec) 
Heartbeat CPU 0 instructions: 111000000 cycles: 305689010 heartbeat IPC: 0.345174 cumulative IPC: 0.360504 (Simulation time: 0 hr 12 min 50 sec) 
Heartbeat CPU 0 instructions: 112000000 cycles: 308425160 heartbeat IPC: 0.365477 cumulative IPC: 0.360548 (Simulation time: 0 hr 12 min 58 sec) 
Heartbeat CPU 0 instructions: 113000001 cycles: 311404032 heartbeat IPC: 0.335698 cumulative IPC: 0.36031 (Simulation time: 0 hr 13 min 4 sec) 
Heartbeat CPU 0 instructions: 114000001 cycles: 314222020 heartbeat IPC: 0.354863 cumulative IPC: 0.360261 (Simulation time: 0 hr 13 min 11 sec) 
Heartbeat CPU 0 instructions: 115000003 cycles: 316773003 heartbeat IPC: 0.392007 cumulative IPC: 0.360517 (Simulation time: 0 hr 13 min 17 sec) 
Heartbeat CPU 0 instructions: 116000000 cycles: 319529221 heartbeat IPC: 0.362815 cumulative IPC: 0.360537 (Simulation time: 0 hr 13 min 23 sec) 
Heartbeat CPU 0 instructions: 117000002 cycles: 322415062 heartbeat IPC: 0.34652 cumulative IPC: 0.360411 (Simulation time: 0 hr 13 min 30 sec) 
Heartbeat CPU 0 instructions: 118000000 cycles: 325178798 heartbeat IPC: 0.361828 cumulative IPC: 0.360423 (Simulation time: 0 hr 13 min 37 sec) 
Heartbeat CPU 0 instructions: 119000000 cycles: 327854411 heartbeat IPC: 0.373746 cumulative IPC: 0.360532 (Simulation time: 0 hr 13 min 43 sec) 
Heartbeat CPU 0 instructions: 120000003 cycles: 330597742 heartbeat IPC: 0.364521 cumulative IPC: 0.360565 (Simulation time: 0 hr 13 min 50 sec) 
Heartbeat CPU 0 instructions: 121000000 cycles: 333346042 heartbeat IPC: 0.36386 cumulative IPC: 0.360592 (Simulation time: 0 hr 13 min 58 sec) 
Heartbeat CPU 0 instructions: 122000001 cycles: 336291641 heartbeat IPC: 0.33949 cumulative IPC: 0.360407 (Simulation time: 0 hr 14 min 5 sec) 
Heartbeat CPU 0 instructions: 123000003 cycles: 338957196 heartbeat IPC: 0.375157 cumulative IPC: 0.360524 (Simulation time: 0 hr 14 min 12 sec) 
Heartbeat CPU 0 instructions: 124000000 cycles: 341964021 heartbeat IPC: 0.332576 cumulative IPC: 0.360277 (Simulation time: 0 hr 14 min 19 sec) 
Heartbeat CPU 0 instructions: 125000000 cycles: 344651569 heartbeat IPC: 0.372086 cumulative IPC: 0.36037 (Simulation time: 0 hr 14 min 26 sec) 
Heartbeat CPU 0 instructions: 126000002 cycles: 347402849 heartbeat IPC: 0.363468 cumulative IPC: 0.360394 (Simulation time: 0 hr 14 min 32 sec) 
Heartbeat CPU 0 instructions: 127000000 cycles: 350115689 heartbeat IPC: 0.368617 cumulative IPC: 0.360458 (Simulation time: 0 hr 14 min 39 sec) 
Heartbeat CPU 0 instructions: 128000003 cycles: 352815472 heartbeat IPC: 0.370401 cumulative IPC: 0.360534 (Simulation time: 0 hr 14 min 46 sec) 
Heartbeat CPU 0 instructions: 129000000 cycles: 355786564 heartbeat IPC: 0.336576 cumulative IPC: 0.360334 (Simulation time: 0 hr 14 min 54 sec) 
Heartbeat CPU 0 instructions: 130000000 cycles: 358756723 heartbeat IPC: 0.336682 cumulative IPC: 0.360138 (Simulation time: 0 hr 15 min 1 sec) 
Heartbeat CPU 0 instructions: 131000002 cycles: 361367110 heartbeat IPC: 0.383086 cumulative IPC: 0.360304 (Simulation time: 0 hr 15 min 8 sec) 
Heartbeat CPU 0 instructions: 132000000 cycles: 364282281 heartbeat IPC: 0.343032 cumulative IPC: 0.360165 (Simulation time: 0 hr 15 min 15 sec) 
Heartbeat CPU 0 instructions: 133000003 cycles: 367156538 heartbeat IPC: 0.347917 cumulative IPC: 0.360069 (Simulation time: 0 hr 15 min 22 sec) 
Heartbeat CPU 0 instructions: 134000002 cycles: 369915304 heartbeat IPC: 0.362481 cumulative IPC: 0.360087 (Simulation time: 0 hr 15 min 30 sec) 
Heartbeat CPU 0 instructions: 135000001 cycles: 372684535 heartbeat IPC: 0.361111 cumulative IPC: 0.360095 (Simulation time: 0 hr 15 min 36 sec) 
Heartbeat CPU 0 instructions: 136000001 cycles: 375437874 heartbeat IPC: 0.363195 cumulative IPC: 0.360118 (Simulation time: 0 hr 15 min 43 sec) 
Heartbeat CPU 0 instructions: 137000003 cycles: 378095899 heartbeat IPC: 0.37622 cumulative IPC: 0.360231 (Simulation time: 0 hr 15 min 50 sec) 
Heartbeat CPU 0 instructions: 138000001 cycles: 380844132 heartbeat IPC: 0.363869 cumulative IPC: 0.360257 (Simulation time: 0 hr 15 min 57 sec) 
Heartbeat CPU 0 instructions: 139000000 cycles: 384003800 heartbeat IPC: 0.316489 cumulative IPC: 0.359897 (Simulation time: 0 hr 16 min 5 sec) 
Heartbeat CPU 0 instructions: 140000001 cycles: 386493396 heartbeat IPC: 0.401672 cumulative IPC: 0.360166 (Simulation time: 0 hr 16 min 11 sec) 
Heartbeat CPU 0 instructions: 141000003 cycles: 389269818 heartbeat IPC: 0.360177 cumulative IPC: 0.360166 (Simulation time: 0 hr 16 min 18 sec) 
Heartbeat CPU 0 instructions: 142000001 cycles: 391875679 heartbeat IPC: 0.38375 cumulative IPC: 0.360323 (Simulation time: 0 hr 16 min 25 sec) 
Heartbeat CPU 0 instructions: 143000000 cycles: 394754771 heartbeat IPC: 0.347331 cumulative IPC: 0.360228 (Simulation time: 0 hr 16 min 32 sec) 
Heartbeat CPU 0 instructions: 144000000 cycles: 397547915 heartbeat IPC: 0.35802 cumulative IPC: 0.360213 (Simulation time: 0 hr 16 min 40 sec) 
Heartbeat CPU 0 instructions: 145000001 cycles: 400382818 heartbeat IPC: 0.352746 cumulative IPC: 0.36016 (Simulation time: 0 hr 16 min 46 sec) 
Heartbeat CPU 0 instructions: 146000000 cycles: 403246186 heartbeat IPC: 0.349239 cumulative IPC: 0.360082 (Simulation time: 0 hr 16 min 53 sec) 
Heartbeat CPU 0 instructions: 147000003 cycles: 406021171 heartbeat IPC: 0.360363 cumulative IPC: 0.360084 (Simulation time: 0 hr 17 min 0 sec) 
Heartbeat CPU 0 instructions: 148000003 cycles: 408930397 heartbeat IPC: 0.343734 cumulative IPC: 0.359968 (Simulation time: 0 hr 17 min 7 sec) 
Heartbeat CPU 0 instructions: 149000000 cycles: 411682743 heartbeat IPC: 0.363325 cumulative IPC: 0.35999 (Simulation time: 0 hr 17 min 13 sec) 
Heartbeat CPU 0 instructions: 150000002 cycles: 414380885 heartbeat IPC: 0.370626 cumulative IPC: 0.360059 (Simulation time: 0 hr 17 min 20 sec) 
Heartbeat CPU 0 instructions: 151000003 cycles: 417333991 heartbeat IPC: 0.338627 cumulative IPC: 0.359908 (Simulation time: 0 hr 17 min 28 sec) 
Heartbeat CPU 0 instructions: 152000000 cycles: 420178773 heartbeat IPC: 0.35152 cumulative IPC: 0.359851 (Simulation time: 0 hr 17 min 35 sec) 
Heartbeat CPU 0 instructions: 153000001 cycles: 422988976 heartbeat IPC: 0.355847 cumulative IPC: 0.359824 (Simulation time: 0 hr 17 min 42 sec) 
Heartbeat CPU 0 instructions: 154000000 cycles: 425768726 heartbeat IPC: 0.359744 cumulative IPC: 0.359824 (Simulation time: 0 hr 17 min 49 sec) 
Heartbeat CPU 0 instructions: 155000002 cycles: 428772816 heartbeat IPC: 0.33288 cumulative IPC: 0.359635 (Simulation time: 0 hr 17 min 55 sec) 
Heartbeat CPU 0 instructions: 156000001 cycles: 431682999 heartbeat IPC: 0.343621 cumulative IPC: 0.359527 (Simulation time: 0 hr 18 min 2 sec) 
Heartbeat CPU 0 instructions: 157000000 cycles: 434328444 heartbeat IPC: 0.378008 cumulative IPC: 0.359639 (Simulation time: 0 hr 18 min 9 sec) 
Heartbeat CPU 0 instructions: 158000002 cycles: 437226618 heartbeat IPC: 0.345046 cumulative IPC: 0.359542 (Simulation time: 0 hr 18 min 14 sec) 
Heartbeat CPU 0 instructions: 159000001 cycles: 439693016 heartbeat IPC: 0.405449 cumulative IPC: 0.3598 (Simulation time: 0 hr 18 min 21 sec) 
Heartbeat CPU 0 instructions: 160000000 cycles: 442600870 heartbeat IPC: 0.343896 cumulative IPC: 0.359696 (Simulation time: 0 hr 18 min 29 sec) 
Heartbeat CPU 0 instructions: 161000002 cycles: 445602821 heartbeat IPC: 0.333117 cumulative IPC: 0.359516 (Simulation time: 0 hr 18 min 38 sec) 
Heartbeat CPU 0 instructions: 162000001 cycles: 447925701 heartbeat IPC: 0.4305 cumulative IPC: 0.359885 (Simulation time: 0 hr 18 min 45 sec) 
Heartbeat CPU 0 instructions: 163000001 cycles: 450657434 heartbeat IPC: 0.366068 cumulative IPC: 0.359922 (Simulation time: 0 hr 18 min 53 sec) 
Heartbeat CPU 0 instructions: 164000001 cycles: 453346969 heartbeat IPC: 0.371811 cumulative IPC: 0.359993 (Simulation time: 0 hr 19 min 2 sec) 
Heartbeat CPU 0 instructions: 165000000 cycles: 456193549 heartbeat IPC: 0.351298 cumulative IPC: 0.359939 (Simulation time: 0 hr 19 min 10 sec) 
Heartbeat CPU 0 instructions: 166000003 cycles: 459035023 heartbeat IPC: 0.351931 cumulative IPC: 0.359889 (Simulation time: 0 hr 19 min 18 sec) 
Heartbeat CPU 0 instructions: 167000000 cycles: 461858514 heartbeat IPC: 0.35417 cumulative IPC: 0.359854 (Simulation time: 0 hr 19 min 25 sec) 
Heartbeat CPU 0 instructions: 168000001 cycles: 464643388 heartbeat IPC: 0.359083 cumulative IPC: 0.359849 (Simulation time: 0 hr 19 min 33 sec) 
Heartbeat CPU 0 instructions: 169000001 cycles: 467542462 heartbeat IPC: 0.344938 cumulative IPC: 0.359757 (Simulation time: 0 hr 19 min 41 sec) 
Heartbeat CPU 0 instructions: 170000000 cycles: 470125953 heartbeat IPC: 0.387073 cumulative IPC: 0.359907 (Simulation time: 0 hr 19 min 48 sec) 
Heartbeat CPU 0 instructions: 171000001 cycles: 472940752 heartbeat IPC: 0.355265 cumulative IPC: 0.359879 (Simulation time: 0 hr 19 min 56 sec) 
Heartbeat CPU 0 instructions: 172000003 cycles: 475707693 heartbeat IPC: 0.361411 cumulative IPC: 0.359888 (Simulation time: 0 hr 20 min 3 sec) 
Heartbeat CPU 0 instructions: 173000000 cycles: 478364590 heartbeat IPC: 0.376378 cumulative IPC: 0.35998 (Simulation time: 0 hr 20 min 11 sec) 
Heartbeat CPU 0 instructions: 174000002 cycles: 481295418 heartbeat IPC: 0.341201 cumulative IPC: 0.359866 (Simulation time: 0 hr 20 min 19 sec) 
Heartbeat CPU 0 instructions: 175000000 cycles: 484064582 heartbeat IPC: 0.361119 cumulative IPC: 0.359873 (Simulation time: 0 hr 20 min 27 sec) 
Heartbeat CPU 0 instructions: 176000000 cycles: 486908267 heartbeat IPC: 0.351656 cumulative IPC: 0.359825 (Simulation time: 0 hr 20 min 34 sec) 
Heartbeat CPU 0 instructions: 177000000 cycles: 489720040 heartbeat IPC: 0.355647 cumulative IPC: 0.359801 (Simulation time: 0 hr 20 min 42 sec) 
Heartbeat CPU 0 instructions: 178000000 cycles: 492318552 heartbeat IPC: 0.384836 cumulative IPC: 0.359933 (Simulation time: 0 hr 20 min 50 sec) 
Heartbeat CPU 0 instructions: 179000002 cycles: 495270807 heartbeat IPC: 0.338725 cumulative IPC: 0.359806 (Simulation time: 0 hr 20 min 58 sec) 
Heartbeat CPU 0 instructions: 180000000 cycles: 497978175 heartbeat IPC: 0.369362 cumulative IPC: 0.359858 (Simulation time: 0 hr 21 min 6 sec) 
Heartbeat CPU 0 instructions: 181000002 cycles: 500901255 heartbeat IPC: 0.342106 cumulative IPC: 0.359755 (Simulation time: 0 hr 21 min 14 sec) 
Heartbeat CPU 0 instructions: 182000002 cycles: 503640390 heartbeat IPC: 0.365079 cumulative IPC: 0.359784 (Simulation time: 0 hr 21 min 22 sec) 
Heartbeat CPU 0 instructions: 183000002 cycles: 506271491 heartbeat IPC: 0.380069 cumulative IPC: 0.359889 (Simulation time: 0 hr 21 min 30 sec) 
Heartbeat CPU 0 instructions: 184000000 cycles: 509073339 heartbeat IPC: 0.356907 cumulative IPC: 0.359873 (Simulation time: 0 hr 21 min 38 sec) 
Heartbeat CPU 0 instructions: 185000001 cycles: 511936539 heartbeat IPC: 0.34926 cumulative IPC: 0.359813 (Simulation time: 0 hr 21 min 47 sec) 
Heartbeat CPU 0 instructions: 186000001 cycles: 514950900 heartbeat IPC: 0.331745 cumulative IPC: 0.359649 (Simulation time: 0 hr 21 min 55 sec) 
Heartbeat CPU 0 instructions: 187000000 cycles: 517745826 heartbeat IPC: 0.357791 cumulative IPC: 0.359639 (Simulation time: 0 hr 22 min 3 sec) 
Heartbeat CPU 0 instructions: 188000001 cycles: 520456801 heartbeat IPC: 0.368871 cumulative IPC: 0.359687 (Simulation time: 0 hr 22 min 11 sec) 
Heartbeat CPU 0 instructions: 189000001 cycles: 523309538 heartbeat IPC: 0.350541 cumulative IPC: 0.359637 (Simulation time: 0 hr 22 min 19 sec) 
Heartbeat CPU 0 instructions: 190000003 cycles: 526022192 heartbeat IPC: 0.368643 cumulative IPC: 0.359684 (Simulation time: 0 hr 22 min 27 sec) 
Heartbeat CPU 0 instructions: 191000000 cycles: 528676169 heartbeat IPC: 0.376792 cumulative IPC: 0.35977 (Simulation time: 0 hr 22 min 35 sec) 
Heartbeat CPU 0 instructions: 192000000 cycles: 531526392 heartbeat IPC: 0.35085 cumulative IPC: 0.359722 (Simulation time: 0 hr 22 min 43 sec) 
Heartbeat CPU 0 instructions: 193000000 cycles: 534356793 heartbeat IPC: 0.353307 cumulative IPC: 0.359688 (Simulation time: 0 hr 22 min 51 sec) 
Heartbeat CPU 0 instructions: 194000000 cycles: 537081583 heartbeat IPC: 0.367001 cumulative IPC: 0.359725 (Simulation time: 0 hr 22 min 59 sec) 
Heartbeat CPU 0 instructions: 195000002 cycles: 539857064 heartbeat IPC: 0.360299 cumulative IPC: 0.359728 (Simulation time: 0 hr 23 min 7 sec) 
Heartbeat CPU 0 instructions: 196000003 cycles: 542781700 heartbeat IPC: 0.341923 cumulative IPC: 0.359632 (Simulation time: 0 hr 23 min 15 sec) 
Heartbeat CPU 0 instructions: 197000000 cycles: 545334401 heartbeat IPC: 0.391741 cumulative IPC: 0.359782 (Simulation time: 0 hr 23 min 23 sec) 
Heartbeat CPU 0 instructions: 198000000 cycles: 548228741 heartbeat IPC: 0.345502 cumulative IPC: 0.359707 (Simulation time: 0 hr 23 min 31 sec) 
Heartbeat CPU 0 instructions: 199000002 cycles: 550990936 heartbeat IPC: 0.362032 cumulative IPC: 0.359718 (Simulation time: 0 hr 23 min 39 sec) 
Heartbeat CPU 0 instructions: 200000000 cycles: 553753894 heartbeat IPC: 0.36193 cumulative IPC: 0.359729 (Simulation time: 0 hr 23 min 47 sec) 
Heartbeat CPU 0 instructions: 201000001 cycles: 556541949 heartbeat IPC: 0.358673 cumulative IPC: 0.359724 (Simulation time: 0 hr 23 min 56 sec) 
Heartbeat CPU 0 instructions: 202000001 cycles: 559255035 heartbeat IPC: 0.368584 cumulative IPC: 0.359767 (Simulation time: 0 hr 24 min 5 sec) 
Heartbeat CPU 0 instructions: 203000000 cycles: 562012812 heartbeat IPC: 0.362611 cumulative IPC: 0.359781 (Simulation time: 0 hr 24 min 14 sec) 
Heartbeat CPU 0 instructions: 204000003 cycles: 564909128 heartbeat IPC: 0.345267 cumulative IPC: 0.359707 (Simulation time: 0 hr 24 min 23 sec) 
Heartbeat CPU 0 instructions: 205000002 cycles: 567598496 heartbeat IPC: 0.371834 cumulative IPC: 0.359764 (Simulation time: 0 hr 24 min 32 sec) 
Heartbeat CPU 0 instructions: 206000002 cycles: 570317608 heartbeat IPC: 0.367767 cumulative IPC: 0.359802 (Simulation time: 0 hr 24 min 40 sec) 
Heartbeat CPU 0 instructions: 207000002 cycles: 573335075 heartbeat IPC: 0.331404 cumulative IPC: 0.359653 (Simulation time: 0 hr 24 min 48 sec) 
Heartbeat CPU 0 instructions: 208000000 cycles: 576223815 heartbeat IPC: 0.346171 cumulative IPC: 0.359585 (Simulation time: 0 hr 24 min 56 sec) 
Heartbeat CPU 0 instructions: 209000000 cycles: 578846758 heartbeat IPC: 0.381251 cumulative IPC: 0.359683 (Simulation time: 0 hr 25 min 4 sec) 
Heartbeat CPU 0 instructions: 210000000 cycles: 581649504 heartbeat IPC: 0.356793 cumulative IPC: 0.359669 (Simulation time: 0 hr 25 min 13 sec) 
Heartbeat CPU 0 instructions: 211000003 cycles: 584653967 heartbeat IPC: 0.332839 cumulative IPC: 0.359531 (Simulation time: 0 hr 25 min 21 sec) 
Heartbeat CPU 0 instructions: 212000000 cycles: 587441615 heartbeat IPC: 0.358724 cumulative IPC: 0.359528 (Simulation time: 0 hr 25 min 29 sec) 
Heartbeat CPU 0 instructions: 213000003 cycles: 590106977 heartbeat IPC: 0.375185 cumulative IPC: 0.359598 (Simulation time: 0 hr 25 min 39 sec) 
Heartbeat CPU 0 instructions: 214000002 cycles: 592848094 heartbeat IPC: 0.364814 cumulative IPC: 0.359623 (Simulation time: 0 hr 25 min 47 sec) 
Heartbeat CPU 0 instructions: 215000000 cycles: 595552699 heartbeat IPC: 0.369739 cumulative IPC: 0.359669 (Simulation time: 0 hr 25 min 56 sec) 
Heartbeat CPU 0 instructions: 216000003 cycles: 598435034 heartbeat IPC: 0.346942 cumulative IPC: 0.359607 (Simulation time: 0 hr 26 min 5 sec) 
Heartbeat CPU 0 instructions: 217000000 cycles: 601552033 heartbeat IPC: 0.32082 cumulative IPC: 0.359406 (Simulation time: 0 hr 26 min 13 sec) 
Heartbeat CPU 0 instructions: 218000000 cycles: 603761656 heartbeat IPC: 0.452566 cumulative IPC: 0.359747 (Simulation time: 0 hr 26 min 21 sec) 
Heartbeat CPU 0 instructions: 219000003 cycles: 606550083 heartbeat IPC: 0.358626 cumulative IPC: 0.359742 (Simulation time: 0 hr 26 min 29 sec) 
Heartbeat CPU 0 instructions: 220000000 cycles: 609353320 heartbeat IPC: 0.356729 cumulative IPC: 0.359728 (Simulation time: 0 hr 26 min 37 sec) 
Heartbeat CPU 0 instructions: 221000000 cycles: 612165003 heartbeat IPC: 0.355659 cumulative IPC: 0.35971 (Simulation time: 0 hr 26 min 45 sec) 
Heartbeat CPU 0 instructions: 222000003 cycles: 614628738 heartbeat IPC: 0.405889 cumulative IPC: 0.359895 (Simulation time: 0 hr 26 min 53 sec) 
Heartbeat CPU 0 instructions: 223000001 cycles: 617455939 heartbeat IPC: 0.353706 cumulative IPC: 0.359866 (Simulation time: 0 hr 27 min 1 sec) 
Heartbeat CPU 0 instructions: 224000003 cycles: 620237138 heartbeat IPC: 0.359558 cumulative IPC: 0.359865 (Simulation time: 0 hr 27 min 8 sec) 
Heartbeat CPU 0 instructions: 225000000 cycles: 623042317 heartbeat IPC: 0.356482 cumulative IPC: 0.35985 (Simulation time: 0 hr 27 min 16 sec) 
Heartbeat CPU 0 instructions: 226000000 cycles: 625587964 heartbeat IPC: 0.392827 cumulative IPC: 0.359984 (Simulation time: 0 hr 27 min 23 sec) 
Heartbeat CPU 0 instructions: 227000000 cycles: 628403320 heartbeat IPC: 0.355195 cumulative IPC: 0.359963 (Simulation time: 0 hr 27 min 31 sec) 
Heartbeat CPU 0 instructions: 228000000 cycles: 631220854 heartbeat IPC: 0.35492 cumulative IPC: 0.35994 (Simulation time: 0 hr 27 min 39 sec) 
Heartbeat CPU 0 instructions: 229000001 cycles: 634018817 heartbeat IPC: 0.357403 cumulative IPC: 0.359929 (Simulation time: 0 hr 27 min 47 sec) 
Heartbeat CPU 0 instructions: 230000002 cycles: 636804447 heartbeat IPC: 0.358986 cumulative IPC: 0.359925 (Simulation time: 0 hr 27 min 55 sec) 
Heartbeat CPU 0 instructions: 231000000 cycles: 639652628 heartbeat IPC: 0.351101 cumulative IPC: 0.359885 (Simulation time: 0 hr 28 min 3 sec) 
Heartbeat CPU 0 instructions: 232000003 cycles: 642443943 heartbeat IPC: 0.358255 cumulative IPC: 0.359878 (Simulation time: 0 hr 28 min 11 sec) 
Heartbeat CPU 0 instructions: 233000002 cycles: 645275780 heartbeat IPC: 0.353127 cumulative IPC: 0.359849 (Simulation time: 0 hr 28 min 19 sec) 
Heartbeat CPU 0 instructions: 234000002 cycles: 648078815 heartbeat IPC: 0.356756 cumulative IPC: 0.359835 (Simulation time: 0 hr 28 min 26 sec) 
Heartbeat CPU 0 instructions: 235000003 cycles: 650878873 heartbeat IPC: 0.357136 cumulative IPC: 0.359824 (Simulation time: 0 hr 28 min 34 sec) 
Heartbeat CPU 0 instructions: 236000000 cycles: 653768642 heartbeat IPC: 0.346047 cumulative IPC: 0.359763 (Simulation time: 0 hr 28 min 42 sec) 
Heartbeat CPU 0 instructions: 237000000 cycles: 656474438 heartbeat IPC: 0.369577 cumulative IPC: 0.359803 (Simulation time: 0 hr 28 min 50 sec) 
Heartbeat CPU 0 instructions: 238000000 cycles: 659382340 heartbeat IPC: 0.343891 cumulative IPC: 0.359733 (Simulation time: 0 hr 28 min 57 sec) 
Heartbeat CPU 0 instructions: 239000001 cycles: 662045770 heartbeat IPC: 0.375456 cumulative IPC: 0.359796 (Simulation time: 0 hr 29 min 5 sec) 
Heartbeat CPU 0 instructions: 240000001 cycles: 664777687 heartbeat IPC: 0.366043 cumulative IPC: 0.359822 (Simulation time: 0 hr 29 min 12 sec) 
Heartbeat CPU 0 instructions: 241000001 cycles: 667682449 heartbeat IPC: 0.344262 cumulative IPC: 0.359754 (Simulation time: 0 hr 29 min 20 sec) 
Heartbeat CPU 0 instructions: 242000000 cycles: 670581217 heartbeat IPC: 0.344974 cumulative IPC: 0.35969 (Simulation time: 0 hr 29 min 28 sec) 
Heartbeat CPU 0 instructions: 243000003 cycles: 673298465 heartbeat IPC: 0.368021 cumulative IPC: 0.359724 (Simulation time: 0 hr 29 min 35 sec) 
Heartbeat CPU 0 instructions: 244000000 cycles: 676088124 heartbeat IPC: 0.358466 cumulative IPC: 0.359719 (Simulation time: 0 hr 29 min 43 sec) 
Heartbeat CPU 0 instructions: 245000000 cycles: 679005919 heartbeat IPC: 0.342725 cumulative IPC: 0.359646 (Simulation time: 0 hr 29 min 50 sec) 
Heartbeat CPU 0 instructions: 246000000 cycles: 681678897 heartbeat IPC: 0.374115 cumulative IPC: 0.359702 (Simulation time: 0 hr 29 min 58 sec) 
Heartbeat CPU 0 instructions: 247000001 cycles: 684480755 heartbeat IPC: 0.356906 cumulative IPC: 0.359691 (Simulation time: 0 hr 30 min 6 sec) 
Heartbeat CPU 0 instructions: 248000000 cycles: 687254359 heartbeat IPC: 0.360541 cumulative IPC: 0.359694 (Simulation time: 0 hr 30 min 13 sec) 
Heartbeat CPU 0 instructions: 249000001 cycles: 689949418 heartbeat IPC: 0.37105 cumulative IPC: 0.359739 (Simulation time: 0 hr 30 min 21 sec) 
Heartbeat CPU 0 instructions: 250000000 cycles: 692696844 heartbeat IPC: 0.363977 cumulative IPC: 0.359756 (Simulation time: 0 hr 30 min 29 sec) 
Heartbeat CPU 0 instructions: 251000002 cycles: 695454063 heartbeat IPC: 0.362685 cumulative IPC: 0.359767 (Simulation time: 0 hr 30 min 36 sec) 
Heartbeat CPU 0 instructions: 252000000 cycles: 698265829 heartbeat IPC: 0.355648 cumulative IPC: 0.359751 (Simulation time: 0 hr 30 min 44 sec) 
Heartbeat CPU 0 instructions: 253000000 cycles: 700938539 heartbeat IPC: 0.374152 cumulative IPC: 0.359806 (Simulation time: 0 hr 30 min 52 sec) 
Heartbeat CPU 0 instructions: 254000000 cycles: 703949450 heartbeat IPC: 0.332125 cumulative IPC: 0.359687 (Simulation time: 0 hr 31 min 0 sec) 
Heartbeat CPU 0 instructions: 255000003 cycles: 706777908 heartbeat IPC: 0.353551 cumulative IPC: 0.359663 (Simulation time: 0 hr 31 min 8 sec) 
Heartbeat CPU 0 instructions: 256000001 cycles: 709278227 heartbeat IPC: 0.399948 cumulative IPC: 0.359805 (Simulation time: 0 hr 31 min 15 sec) 
Heartbeat CPU 0 instructions: 257000000 cycles: 712169779 heartbeat IPC: 0.345835 cumulative IPC: 0.359748 (Simulation time: 0 hr 31 min 24 sec) 
Heartbeat CPU 0 instructions: 258000002 cycles: 714941392 heartbeat IPC: 0.360801 cumulative IPC: 0.359752 (Simulation time: 0 hr 31 min 31 sec) 
Heartbeat CPU 0 instructions: 259000001 cycles: 717848607 heartbeat IPC: 0.343971 cumulative IPC: 0.359688 (Simulation time: 0 hr 31 min 39 sec) 
Heartbeat CPU 0 instructions: 260000000 cycles: 720560096 heartbeat IPC: 0.368801 cumulative IPC: 0.359722 (Simulation time: 0 hr 31 min 47 sec) 
Heartbeat CPU 0 instructions: 261000000 cycles: 723255321 heartbeat IPC: 0.371027 cumulative IPC: 0.359765 (Simulation time: 0 hr 31 min 55 sec) 
Heartbeat CPU 0 instructions: 262000001 cycles: 726244580 heartbeat IPC: 0.334531 cumulative IPC: 0.359661 (Simulation time: 0 hr 32 min 3 sec) 
Heartbeat CPU 0 instructions: 263000003 cycles: 729054505 heartbeat IPC: 0.355882 cumulative IPC: 0.359646 (Simulation time: 0 hr 32 min 11 sec) 
Heartbeat CPU 0 instructions: 264000000 cycles: 731774686 heartbeat IPC: 0.367621 cumulative IPC: 0.359676 (Simulation time: 0 hr 32 min 19 sec) 
Heartbeat CPU 0 instructions: 265000000 cycles: 734616891 heartbeat IPC: 0.35184 cumulative IPC: 0.359645 (Simulation time: 0 hr 32 min 27 sec) 
Heartbeat CPU 0 instructions: 266000000 cycles: 737493177 heartbeat IPC: 0.347671 cumulative IPC: 0.359599 (Simulation time: 0 hr 32 min 35 sec) 
Heartbeat CPU 0 instructions: 267000001 cycles: 740249696 heartbeat IPC: 0.362777 cumulative IPC: 0.35961 (Simulation time: 0 hr 32 min 43 sec) 
Heartbeat CPU 0 instructions: 268000000 cycles: 742998124 heartbeat IPC: 0.363844 cumulative IPC: 0.359626 (Simulation time: 0 hr 32 min 50 sec) 
Heartbeat CPU 0 instructions: 269000002 cycles: 745811380 heartbeat IPC: 0.355461 cumulative IPC: 0.35961 (Simulation time: 0 hr 32 min 58 sec) 
Heartbeat CPU 0 instructions: 270000000 cycles: 748659591 heartbeat IPC: 0.351097 cumulative IPC: 0.359578 (Simulation time: 0 hr 33 min 6 sec) 
Heartbeat CPU 0 instructions: 271000001 cycles: 751482475 heartbeat IPC: 0.354248 cumulative IPC: 0.359558 (Simulation time: 0 hr 33 min 14 sec) 
Heartbeat CPU 0 instructions: 272000003 cycles: 754568319 heartbeat IPC: 0.324061 cumulative IPC: 0.359413 (Simulation time: 0 hr 33 min 21 sec) 
Heartbeat CPU 0 instructions: 273000002 cycles: 756854761 heartbeat IPC: 0.43736 cumulative IPC: 0.359648 (Simulation time: 0 hr 33 min 29 sec) 
Heartbeat CPU 0 instructions: 274000001 cycles: 759760538 heartbeat IPC: 0.344142 cumulative IPC: 0.359589 (Simulation time: 0 hr 33 min 37 sec) 
Heartbeat CPU 0 instructions: 275000000 cycles: 762480204 heartbeat IPC: 0.367692 cumulative IPC: 0.359618 (Simulation time: 0 hr 33 min 45 sec) 
Heartbeat CPU 0 instructions: 276000000 cycles: 765478580 heartbeat IPC: 0.333514 cumulative IPC: 0.359516 (Simulation time: 0 hr 33 min 53 sec) 
Heartbeat CPU 0 instructions: 277000000 cycles: 768235465 heartbeat IPC: 0.362728 cumulative IPC: 0.359527 (Simulation time: 0 hr 34 min 1 sec) 
Heartbeat CPU 0 instructions: 278000000 cycles: 771103010 heartbeat IPC: 0.34873 cumulative IPC: 0.359487 (Simulation time: 0 hr 34 min 9 sec) 
Heartbeat CPU 0 instructions: 279000001 cycles: 773708641 heartbeat IPC: 0.383785 cumulative IPC: 0.359569 (Simulation time: 0 hr 34 min 17 sec) 
Heartbeat CPU 0 instructions: 280000001 cycles: 776546157 heartbeat IPC: 0.352421 cumulative IPC: 0.359543 (Simulation time: 0 hr 34 min 25 sec) 
Heartbeat CPU 0 instructions: 281000001 cycles: 779383085 heartbeat IPC: 0.352494 cumulative IPC: 0.359517 (Simulation time: 0 hr 34 min 33 sec) 
Heartbeat CPU 0 instructions: 282000001 cycles: 782344418 heartbeat IPC: 0.337686 cumulative IPC: 0.359434 (Simulation time: 0 hr 34 min 41 sec) 
Heartbeat CPU 0 instructions: 283000000 cycles: 785076978 heartbeat IPC: 0.365957 cumulative IPC: 0.359457 (Simulation time: 0 hr 34 min 48 sec) 
Heartbeat CPU 0 instructions: 284000003 cycles: 787822009 heartbeat IPC: 0.364296 cumulative IPC: 0.359474 (Simulation time: 0 hr 34 min 56 sec) 
Heartbeat CPU 0 instructions: 285000000 cycles: 790548071 heartbeat IPC: 0.366828 cumulative IPC: 0.359499 (Simulation time: 0 hr 35 min 4 sec) 
Heartbeat CPU 0 instructions: 286000000 cycles: 793425513 heartbeat IPC: 0.347531 cumulative IPC: 0.359456 (Simulation time: 0 hr 35 min 12 sec) 
Heartbeat CPU 0 instructions: 287000002 cycles: 796196123 heartbeat IPC: 0.360932 cumulative IPC: 0.359461 (Simulation time: 0 hr 35 min 20 sec) 
Heartbeat CPU 0 instructions: 288000000 cycles: 798888401 heartbeat IPC: 0.371432 cumulative IPC: 0.359501 (Simulation time: 0 hr 35 min 28 sec) 
Heartbeat CPU 0 instructions: 289000001 cycles: 801840295 heartbeat IPC: 0.338766 cumulative IPC: 0.359425 (Simulation time: 0 hr 35 min 35 sec) 
Heartbeat CPU 0 instructions: 290000000 cycles: 804635231 heartbeat IPC: 0.35779 cumulative IPC: 0.359419 (Simulation time: 0 hr 35 min 43 sec) 
Heartbeat CPU 0 instructions: 291000002 cycles: 807324286 heartbeat IPC: 0.371879 cumulative IPC: 0.359461 (Simulation time: 0 hr 35 min 51 sec) 
Heartbeat CPU 0 instructions: 292000001 cycles: 810083210 heartbeat IPC: 0.36246 cumulative IPC: 0.359471 (Simulation time: 0 hr 35 min 59 sec) 
Heartbeat CPU 0 instructions: 293000003 cycles: 812948962 heartbeat IPC: 0.348949 cumulative IPC: 0.359434 (Simulation time: 0 hr 36 min 8 sec) 
Heartbeat CPU 0 instructions: 294000001 cycles: 815854503 heartbeat IPC: 0.344169 cumulative IPC: 0.35938 (Simulation time: 0 hr 36 min 16 sec) 
Heartbeat CPU 0 instructions: 295000000 cycles: 818723477 heartbeat IPC: 0.348556 cumulative IPC: 0.359342 (Simulation time: 0 hr 36 min 24 sec) 
Heartbeat CPU 0 instructions: 296000000 cycles: 821439138 heartbeat IPC: 0.368234 cumulative IPC: 0.359371 (Simulation time: 0 hr 36 min 31 sec) 
Heartbeat CPU 0 instructions: 297000000 cycles: 824255690 heartbeat IPC: 0.355044 cumulative IPC: 0.359356 (Simulation time: 0 hr 36 min 39 sec) 
Heartbeat CPU 0 instructions: 298000003 cycles: 827118093 heartbeat IPC: 0.349358 cumulative IPC: 0.359322 (Simulation time: 0 hr 36 min 47 sec) 
Heartbeat CPU 0 instructions: 299000003 cycles: 829897947 heartbeat IPC: 0.359731 cumulative IPC: 0.359323 (Simulation time: 0 hr 36 min 55 sec) 
Heartbeat CPU 0 instructions: 300000000 cycles: 832503903 heartbeat IPC: 0.383735 cumulative IPC: 0.359399 (Simulation time: 0 hr 37 min 2 sec) 
Heartbeat CPU 0 instructions: 301000003 cycles: 835305877 heartbeat IPC: 0.356892 cumulative IPC: 0.359391 (Simulation time: 0 hr 37 min 10 sec) 
Heartbeat CPU 0 instructions: 302000000 cycles: 837919819 heartbeat IPC: 0.382563 cumulative IPC: 0.359463 (Simulation time: 0 hr 37 min 18 sec) 
Heartbeat CPU 0 instructions: 303000001 cycles: 840770406 heartbeat IPC: 0.350805 cumulative IPC: 0.359434 (Simulation time: 0 hr 37 min 26 sec) 
Heartbeat CPU 0 instructions: 304000000 cycles: 843322814 heartbeat IPC: 0.391787 cumulative IPC: 0.359532 (Simulation time: 0 hr 37 min 34 sec) 
Heartbeat CPU 0 instructions: 305000000 cycles: 846254221 heartbeat IPC: 0.341133 cumulative IPC: 0.359468 (Simulation time: 0 hr 37 min 42 sec) 
Heartbeat CPU 0 instructions: 306000001 cycles: 848892744 heartbeat IPC: 0.379 cumulative IPC: 0.359529 (Simulation time: 0 hr 37 min 50 sec) 
Heartbeat CPU 0 instructions: 307000000 cycles: 851695919 heartbeat IPC: 0.356738 cumulative IPC: 0.35952 (Simulation time: 0 hr 37 min 57 sec) 
Heartbeat CPU 0 instructions: 308000000 cycles: 854562706 heartbeat IPC: 0.348823 cumulative IPC: 0.359484 (Simulation time: 0 hr 38 min 5 sec) 
Heartbeat CPU 0 instructions: 309000000 cycles: 857241316 heartbeat IPC: 0.373328 cumulative IPC: 0.359527 (Simulation time: 0 hr 38 min 13 sec) 
Heartbeat CPU 0 instructions: 310000000 cycles: 860002483 heartbeat IPC: 0.362166 cumulative IPC: 0.359536 (Simulation time: 0 hr 38 min 21 sec) 
Heartbeat CPU 0 instructions: 311000000 cycles: 862801126 heartbeat IPC: 0.357316 cumulative IPC: 0.359528 (Simulation time: 0 hr 38 min 28 sec) 
Heartbeat CPU 0 instructions: 312000002 cycles: 865672098 heartbeat IPC: 0.348315 cumulative IPC: 0.359491 (Simulation time: 0 hr 38 min 36 sec) 
Heartbeat CPU 0 instructions: 313000001 cycles: 868222359 heartbeat IPC: 0.392116 cumulative IPC: 0.359587 (Simulation time: 0 hr 38 min 43 sec) 
Heartbeat CPU 0 instructions: 314000000 cycles: 871147760 heartbeat IPC: 0.341833 cumulative IPC: 0.359527 (Simulation time: 0 hr 38 min 51 sec) 
Heartbeat CPU 0 instructions: 315000000 cycles: 873838566 heartbeat IPC: 0.371636 cumulative IPC: 0.359565 (Simulation time: 0 hr 38 min 59 sec) 
Heartbeat CPU 0 instructions: 316000001 cycles: 876489165 heartbeat IPC: 0.377274 cumulative IPC: 0.359618 (Simulation time: 0 hr 39 min 7 sec) 
Heartbeat CPU 0 instructions: 317000003 cycles: 879422808 heartbeat IPC: 0.340874 cumulative IPC: 0.359556 (Simulation time: 0 hr 39 min 15 sec) 
Heartbeat CPU 0 instructions: 318000000 cycles: 882119644 heartbeat IPC: 0.370804 cumulative IPC: 0.35959 (Simulation time: 0 hr 39 min 23 sec) 
Heartbeat CPU 0 instructions: 319000000 cycles: 885066147 heartbeat IPC: 0.339385 cumulative IPC: 0.359523 (Simulation time: 0 hr 39 min 31 sec) 
Heartbeat CPU 0 instructions: 320000002 cycles: 887899644 heartbeat IPC: 0.352921 cumulative IPC: 0.359502 (Simulation time: 0 hr 39 min 39 sec) 
Heartbeat CPU 0 instructions: 321000002 cycles: 890433302 heartbeat IPC: 0.394686 cumulative IPC: 0.359602 (Simulation time: 0 hr 39 min 47 sec) 
Heartbeat CPU 0 instructions: 322000002 cycles: 893217062 heartbeat IPC: 0.359226 cumulative IPC: 0.359601 (Simulation time: 0 hr 39 min 55 sec) 
Heartbeat CPU 0 instructions: 323000000 cycles: 896222363 heartbeat IPC: 0.332745 cumulative IPC: 0.359511 (Simulation time: 0 hr 40 min 3 sec) 
Heartbeat CPU 0 instructions: 324000000 cycles: 898878901 heartbeat IPC: 0.37643 cumulative IPC: 0.359561 (Simulation time: 0 hr 40 min 11 sec) 
Heartbeat CPU 0 instructions: 325000002 cycles: 901793503 heartbeat IPC: 0.343101 cumulative IPC: 0.359507 (Simulation time: 0 hr 40 min 18 sec) 
Heartbeat CPU 0 instructions: 326000000 cycles: 904510112 heartbeat IPC: 0.368105 cumulative IPC: 0.359533 (Simulation time: 0 hr 40 min 26 sec) 
Heartbeat CPU 0 instructions: 327000002 cycles: 907406635 heartbeat IPC: 0.345242 cumulative IPC: 0.359488 (Simulation time: 0 hr 40 min 33 sec) 
Heartbeat CPU 0 instructions: 328000000 cycles: 910493252 heartbeat IPC: 0.323979 cumulative IPC: 0.359367 (Simulation time: 0 hr 40 min 42 sec) 
Heartbeat CPU 0 instructions: 329000003 cycles: 912876581 heartbeat IPC: 0.419582 cumulative IPC: 0.359524 (Simulation time: 0 hr 40 min 49 sec) 
Heartbeat CPU 0 instructions: 330000000 cycles: 915851798 heartbeat IPC: 0.336109 cumulative IPC: 0.359448 (Simulation time: 0 hr 40 min 57 sec) 
Heartbeat CPU 0 instructions: 331000000 cycles: 918610266 heartbeat IPC: 0.36252 cumulative IPC: 0.359458 (Simulation time: 0 hr 41 min 4 sec) 
Heartbeat CPU 0 instructions: 332000000 cycles: 921356028 heartbeat IPC: 0.364198 cumulative IPC: 0.359472 (Simulation time: 0 hr 41 min 12 sec) 
Heartbeat CPU 0 instructions: 333000003 cycles: 924077807 heartbeat IPC: 0.367408 cumulative IPC: 0.359495 (Simulation time: 0 hr 41 min 20 sec) 
Heartbeat CPU 0 instructions: 334000000 cycles: 926921182 heartbeat IPC: 0.351694 cumulative IPC: 0.359471 (Simulation time: 0 hr 41 min 27 sec) 
Heartbeat CPU 0 instructions: 335000000 cycles: 929945066 heartbeat IPC: 0.330701 cumulative IPC: 0.359378 (Simulation time: 0 hr 41 min 35 sec) 
Heartbeat CPU 0 instructions: 336000002 cycles: 932793360 heartbeat IPC: 0.351088 cumulative IPC: 0.359352 (Simulation time: 0 hr 41 min 43 sec) 
Heartbeat CPU 0 instructions: 337000001 cycles: 935538982 heartbeat IPC: 0.364216 cumulative IPC: 0.359367 (Simulation time: 0 hr 41 min 50 sec) 
Heartbeat CPU 0 instructions: 338000000 cycles: 938333835 heartbeat IPC: 0.3578 cumulative IPC: 0.359362 (Simulation time: 0 hr 41 min 58 sec) 
Heartbeat CPU 0 instructions: 339000001 cycles: 941207449 heartbeat IPC: 0.347994 cumulative IPC: 0.359327 (Simulation time: 0 hr 42 min 6 sec) 
Heartbeat CPU 0 instructions: 340000001 cycles: 944013377 heartbeat IPC: 0.356388 cumulative IPC: 0.359318 (Simulation time: 0 hr 42 min 14 sec) 
Heartbeat CPU 0 instructions: 341000000 cycles: 946702245 heartbeat IPC: 0.371903 cumulative IPC: 0.359354 (Simulation time: 0 hr 42 min 21 sec) 
Heartbeat CPU 0 instructions: 342000001 cycles: 949379393 heartbeat IPC: 0.373532 cumulative IPC: 0.359394 (Simulation time: 0 hr 42 min 29 sec) 
Heartbeat CPU 0 instructions: 343000002 cycles: 952138017 heartbeat IPC: 0.3625 cumulative IPC: 0.359403 (Simulation time: 0 hr 42 min 37 sec) 
Heartbeat CPU 0 instructions: 344000002 cycles: 955261858 heartbeat IPC: 0.320119 cumulative IPC: 0.359275 (Simulation time: 0 hr 42 min 45 sec) 
Heartbeat CPU 0 instructions: 345000002 cycles: 958285349 heartbeat IPC: 0.330743 cumulative IPC: 0.359185 (Simulation time: 0 hr 42 min 53 sec) 
Heartbeat CPU 0 instructions: 346000000 cycles: 960513334 heartbeat IPC: 0.448835 cumulative IPC: 0.359393 (Simulation time: 0 hr 43 min 1 sec) 
Heartbeat CPU 0 instructions: 347000001 cycles: 963489130 heartbeat IPC: 0.336045 cumulative IPC: 0.35932 (Simulation time: 0 hr 43 min 8 sec) 
Heartbeat CPU 0 instructions: 348000001 cycles: 966336366 heartbeat IPC: 0.351218 cumulative IPC: 0.359297 (Simulation time: 0 hr 43 min 16 sec) 
Heartbeat CPU 0 instructions: 349000002 cycles: 969130361 heartbeat IPC: 0.357911 cumulative IPC: 0.359293 (Simulation time: 0 hr 43 min 23 sec) 
Heartbeat CPU 0 instructions: 350000000 cycles: 972063607 heartbeat IPC: 0.340919 cumulative IPC: 0.359237 (Simulation time: 0 hr 43 min 31 sec) 
Heartbeat CPU 0 instructions: 351000002 cycles: 974912760 heartbeat IPC: 0.350982 cumulative IPC: 0.359213 (Simulation time: 0 hr 43 min 39 sec) 
Heartbeat CPU 0 instructions: 352000000 cycles: 977684685 heartbeat IPC: 0.360759 cumulative IPC: 0.359217 (Simulation time: 0 hr 43 min 47 sec) 
Heartbeat CPU 0 instructions: 353000003 cycles: 980567521 heartbeat IPC: 0.346882 cumulative IPC: 0.359181 (Simulation time: 0 hr 43 min 55 sec) 
Heartbeat CPU 0 instructions: 354000002 cycles: 983421131 heartbeat IPC: 0.350433 cumulative IPC: 0.359156 (Simulation time: 0 hr 44 min 3 sec) 
Heartbeat CPU 0 instructions: 355000001 cycles: 986233369 heartbeat IPC: 0.355588 cumulative IPC: 0.359145 (Simulation time: 0 hr 44 min 10 sec) 
Heartbeat CPU 0 instructions: 356000000 cycles: 988897167 heartbeat IPC: 0.375403 cumulative IPC: 0.359189 (Simulation time: 0 hr 44 min 18 sec) 
Heartbeat CPU 0 instructions: 357000002 cycles: 991804545 heartbeat IPC: 0.343953 cumulative IPC: 0.359145 (Simulation time: 0 hr 44 min 26 sec) 
Heartbeat CPU 0 instructions: 358000000 cycles: 994735146 heartbeat IPC: 0.341226 cumulative IPC: 0.359092 (Simulation time: 0 hr 44 min 35 sec) 
Heartbeat CPU 0 instructions: 359000000 cycles: 997402130 heartbeat IPC: 0.374955 cumulative IPC: 0.359134 (Simulation time: 0 hr 44 min 42 sec) 
Heartbeat CPU 0 instructions: 360000003 cycles: 1000064408 heartbeat IPC: 0.375619 cumulative IPC: 0.359178 (Simulation time: 0 hr 44 min 50 sec) 
Heartbeat CPU 0 instructions: 361000000 cycles: 1002909920 heartbeat IPC: 0.35143 cumulative IPC: 0.359156 (Simulation time: 0 hr 44 min 58 sec) 
Heartbeat CPU 0 instructions: 362000001 cycles: 1005640477 heartbeat IPC: 0.366226 cumulative IPC: 0.359175 (Simulation time: 0 hr 45 min 6 sec) 
Heartbeat CPU 0 instructions: 363000000 cycles: 1008519307 heartbeat IPC: 0.347363 cumulative IPC: 0.359142 (Simulation time: 0 hr 45 min 14 sec) 
Heartbeat CPU 0 instructions: 364000000 cycles: 1011110734 heartbeat IPC: 0.385888 cumulative IPC: 0.35921 (Simulation time: 0 hr 45 min 21 sec) 
Heartbeat CPU 0 instructions: 365000000 cycles: 1014015059 heartbeat IPC: 0.344314 cumulative IPC: 0.359168 (Simulation time: 0 hr 45 min 29 sec) 
Heartbeat CPU 0 instructions: 366000000 cycles: 1016782089 heartbeat IPC: 0.361398 cumulative IPC: 0.359174 (Simulation time: 0 hr 45 min 37 sec) 
Heartbeat CPU 0 instructions: 367000000 cycles: 1019547862 heartbeat IPC: 0.361563 cumulative IPC: 0.35918 (Simulation time: 0 hr 45 min 45 sec) 
Heartbeat CPU 0 instructions: 368000001 cycles: 1022304043 heartbeat IPC: 0.362821 cumulative IPC: 0.35919 (Simulation time: 0 hr 45 min 53 sec) 
Heartbeat CPU 0 instructions: 369000001 cycles: 1025105893 heartbeat IPC: 0.356907 cumulative IPC: 0.359184 (Simulation time: 0 hr 46 min 1 sec) 
Heartbeat CPU 0 instructions: 370000000 cycles: 1027900010 heartbeat IPC: 0.357894 cumulative IPC: 0.35918 (Simulation time: 0 hr 46 min 8 sec) 
Heartbeat CPU 0 instructions: 371000000 cycles: 1030735657 heartbeat IPC: 0.352653 cumulative IPC: 0.359162 (Simulation time: 0 hr 46 min 16 sec) 
Heartbeat CPU 0 instructions: 372000003 cycles: 1033569418 heartbeat IPC: 0.352889 cumulative IPC: 0.359145 (Simulation time: 0 hr 46 min 24 sec) 
Heartbeat CPU 0 instructions: 373000000 cycles: 1036344448 heartbeat IPC: 0.360355 cumulative IPC: 0.359148 (Simulation time: 0 hr 46 min 32 sec) 
Heartbeat CPU 0 instructions: 374000000 cycles: 1039161494 heartbeat IPC: 0.354982 cumulative IPC: 0.359137 (Simulation time: 0 hr 46 min 40 sec) 
Heartbeat CPU 0 instructions: 375000000 cycles: 1041805850 heartbeat IPC: 0.378164 cumulative IPC: 0.359185 (Simulation time: 0 hr 46 min 48 sec) 
Heartbeat CPU 0 instructions: 376000002 cycles: 1044424966 heartbeat IPC: 0.381809 cumulative IPC: 0.359242 (Simulation time: 0 hr 46 min 56 sec) 
Heartbeat CPU 0 instructions: 377000000 cycles: 1047295143 heartbeat IPC: 0.34841 cumulative IPC: 0.359212 (Simulation time: 0 hr 47 min 4 sec) 
Heartbeat CPU 0 instructions: 378000000 cycles: 1050174648 heartbeat IPC: 0.347282 cumulative IPC: 0.35918 (Simulation time: 0 hr 47 min 12 sec) 
Heartbeat CPU 0 instructions: 379000001 cycles: 1052948279 heartbeat IPC: 0.360539 cumulative IPC: 0.359183 (Simulation time: 0 hr 47 min 20 sec) 
Heartbeat CPU 0 instructions: 380000003 cycles: 1055858239 heartbeat IPC: 0.343648 cumulative IPC: 0.35914 (Simulation time: 0 hr 47 min 28 sec) 
Heartbeat CPU 0 instructions: 381000001 cycles: 1058376664 heartbeat IPC: 0.397073 cumulative IPC: 0.359231 (Simulation time: 0 hr 47 min 35 sec) 
Heartbeat CPU 0 instructions: 382000001 cycles: 1061211729 heartbeat IPC: 0.352726 cumulative IPC: 0.359213 (Simulation time: 0 hr 47 min 43 sec) 
Heartbeat CPU 0 instructions: 383000000 cycles: 1063829186 heartbeat IPC: 0.38205 cumulative IPC: 0.359269 (Simulation time: 0 hr 47 min 51 sec) 
Heartbeat CPU 0 instructions: 384000000 cycles: 1066765304 heartbeat IPC: 0.340586 cumulative IPC: 0.359218 (Simulation time: 0 hr 47 min 59 sec) 
Heartbeat CPU 0 instructions: 385000000 cycles: 1069457146 heartbeat IPC: 0.371493 cumulative IPC: 0.359249 (Simulation time: 0 hr 48 min 7 sec) 
Heartbeat CPU 0 instructions: 386000000 cycles: 1072275768 heartbeat IPC: 0.354783 cumulative IPC: 0.359237 (Simulation time: 0 hr 48 min 15 sec) 
Heartbeat CPU 0 instructions: 387000002 cycles: 1075110736 heartbeat IPC: 0.352738 cumulative IPC: 0.35922 (Simulation time: 0 hr 48 min 23 sec) 
Heartbeat CPU 0 instructions: 388000000 cycles: 1077783019 heartbeat IPC: 0.374211 cumulative IPC: 0.359257 (Simulation time: 0 hr 48 min 31 sec) 
Heartbeat CPU 0 instructions: 389000002 cycles: 1080485564 heartbeat IPC: 0.370022 cumulative IPC: 0.359284 (Simulation time: 0 hr 48 min 39 sec) 
Heartbeat CPU 0 instructions: 390000003 cycles: 1083301864 heartbeat IPC: 0.355076 cumulative IPC: 0.359273 (Simulation time: 0 hr 48 min 47 sec) 
Heartbeat CPU 0 instructions: 391000003 cycles: 1086127725 heartbeat IPC: 0.353874 cumulative IPC: 0.359259 (Simulation time: 0 hr 48 min 55 sec) 
Heartbeat CPU 0 instructions: 392000000 cycles: 1088884416 heartbeat IPC: 0.362753 cumulative IPC: 0.359268 (Simulation time: 0 hr 49 min 3 sec) 
Heartbeat CPU 0 instructions: 393000000 cycles: 1091720121 heartbeat IPC: 0.352646 cumulative IPC: 0.359251 (Simulation time: 0 hr 49 min 11 sec) 
Heartbeat CPU 0 instructions: 394000002 cycles: 1094459909 heartbeat IPC: 0.364992 cumulative IPC: 0.359265 (Simulation time: 0 hr 49 min 18 sec) 
Heartbeat CPU 0 instructions: 395000001 cycles: 1097512458 heartbeat IPC: 0.327595 cumulative IPC: 0.359177 (Simulation time: 0 hr 49 min 27 sec) 
Heartbeat CPU 0 instructions: 396000000 cycles: 1100400044 heartbeat IPC: 0.34631 cumulative IPC: 0.359143 (Simulation time: 0 hr 49 min 35 sec) 
Heartbeat CPU 0 instructions: 397000000 cycles: 1103128739 heartbeat IPC: 0.366476 cumulative IPC: 0.359161 (Simulation time: 0 hr 49 min 43 sec) 
Heartbeat CPU 0 instructions: 398000000 cycles: 1105935313 heartbeat IPC: 0.356306 cumulative IPC: 0.359154 (Simulation time: 0 hr 49 min 51 sec) 
Heartbeat CPU 0 instructions: 399000001 cycles: 1108808372 heartbeat IPC: 0.348061 cumulative IPC: 0.359125 (Simulation time: 0 hr 49 min 58 sec) 
Heartbeat CPU 0 instructions: 400000000 cycles: 1111494594 heartbeat IPC: 0.37227 cumulative IPC: 0.359157 (Simulation time: 0 hr 50 min 6 sec) 
Heartbeat CPU 0 instructions: 401000001 cycles: 1114212423 heartbeat IPC: 0.367941 cumulative IPC: 0.359179 (Simulation time: 0 hr 50 min 14 sec) 
Heartbeat CPU 0 instructions: 402000003 cycles: 1116950764 heartbeat IPC: 0.365185 cumulative IPC: 0.359193 (Simulation time: 0 hr 50 min 22 sec) 
Heartbeat CPU 0 instructions: 403000000 cycles: 1119859784 heartbeat IPC: 0.343757 cumulative IPC: 0.359153 (Simulation time: 0 hr 50 min 30 sec) 
Heartbeat CPU 0 instructions: 404000002 cycles: 1122691692 heartbeat IPC: 0.35312 cumulative IPC: 0.359138 (Simulation time: 0 hr 50 min 38 sec) 
Heartbeat CPU 0 instructions: 405000002 cycles: 1125509219 heartbeat IPC: 0.354921 cumulative IPC: 0.359127 (Simulation time: 0 hr 50 min 46 sec) 
Heartbeat CPU 0 instructions: 406000000 cycles: 1128148704 heartbeat IPC: 0.378861 cumulative IPC: 0.359174 (Simulation time: 0 hr 50 min 54 sec) 
Heartbeat CPU 0 instructions: 407000000 cycles: 1131088534 heartbeat IPC: 0.340156 cumulative IPC: 0.359124 (Simulation time: 0 hr 51 min 2 sec) 
Heartbeat CPU 0 instructions: 408000001 cycles: 1133911043 heartbeat IPC: 0.354295 cumulative IPC: 0.359112 (Simulation time: 0 hr 51 min 10 sec) 
Heartbeat CPU 0 instructions: 409000003 cycles: 1136646689 heartbeat IPC: 0.365545 cumulative IPC: 0.359128 (Simulation time: 0 hr 51 min 17 sec) 
Heartbeat CPU 0 instructions: 410000001 cycles: 1139337620 heartbeat IPC: 0.371618 cumulative IPC: 0.359157 (Simulation time: 0 hr 51 min 25 sec) 
Heartbeat CPU 0 instructions: 411000003 cycles: 1142250961 heartbeat IPC: 0.343249 cumulative IPC: 0.359117 (Simulation time: 0 hr 51 min 34 sec) 
Heartbeat CPU 0 instructions: 412000000 cycles: 1145143464 heartbeat IPC: 0.34572 cumulative IPC: 0.359083 (Simulation time: 0 hr 51 min 42 sec) 
Heartbeat CPU 0 instructions: 413000003 cycles: 1147916179 heartbeat IPC: 0.360658 cumulative IPC: 0.359087 (Simulation time: 0 hr 51 min 49 sec) 
Heartbeat CPU 0 instructions: 414000000 cycles: 1150298161 heartbeat IPC: 0.419817 cumulative IPC: 0.359212 (Simulation time: 0 hr 51 min 57 sec) 
Heartbeat CPU 0 instructions: 415000001 cycles: 1153090705 heartbeat IPC: 0.358097 cumulative IPC: 0.35921 (Simulation time: 0 hr 52 min 4 sec) 
Heartbeat CPU 0 instructions: 416000003 cycles: 1155905849 heartbeat IPC: 0.355222 cumulative IPC: 0.3592 (Simulation time: 0 hr 52 min 12 sec) 
Heartbeat CPU 0 instructions: 417000001 cycles: 1158722061 heartbeat IPC: 0.355086 cumulative IPC: 0.35919 (Simulation time: 0 hr 52 min 20 sec) 
Heartbeat CPU 0 instructions: 418000000 cycles: 1161487856 heartbeat IPC: 0.361559 cumulative IPC: 0.359196 (Simulation time: 0 hr 52 min 27 sec) 
Heartbeat CPU 0 instructions: 419000002 cycles: 1164243592 heartbeat IPC: 0.36288 cumulative IPC: 0.359204 (Simulation time: 0 hr 52 min 35 sec) 
Heartbeat CPU 0 instructions: 420000000 cycles: 1167048837 heartbeat IPC: 0.356474 cumulative IPC: 0.359198 (Simulation time: 0 hr 52 min 42 sec) 
Heartbeat CPU 0 instructions: 421000003 cycles: 1169868305 heartbeat IPC: 0.354678 cumulative IPC: 0.359187 (Simulation time: 0 hr 52 min 50 sec) 
Heartbeat CPU 0 instructions: 422000000 cycles: 1172595450 heartbeat IPC: 0.366683 cumulative IPC: 0.359204 (Simulation time: 0 hr 52 min 58 sec) 
Heartbeat CPU 0 instructions: 423000001 cycles: 1175338096 heartbeat IPC: 0.364612 cumulative IPC: 0.359217 (Simulation time: 0 hr 53 min 6 sec) 
Heartbeat CPU 0 instructions: 424000003 cycles: 1178393608 heartbeat IPC: 0.327278 cumulative IPC: 0.359134 (Simulation time: 0 hr 53 min 14 sec) 
Heartbeat CPU 0 instructions: 425000003 cycles: 1181123887 heartbeat IPC: 0.366263 cumulative IPC: 0.359151 (Simulation time: 0 hr 53 min 22 sec) 
Heartbeat CPU 0 instructions: 426000002 cycles: 1184043721 heartbeat IPC: 0.342485 cumulative IPC: 0.359109 (Simulation time: 0 hr 53 min 30 sec) 
Heartbeat CPU 0 instructions: 427000003 cycles: 1186697581 heartbeat IPC: 0.37681 cumulative IPC: 0.359149 (Simulation time: 0 hr 53 min 38 sec) 
Heartbeat CPU 0 instructions: 428000000 cycles: 1189707563 heartbeat IPC: 0.332227 cumulative IPC: 0.359081 (Simulation time: 0 hr 53 min 45 sec) 
Heartbeat CPU 0 instructions: 429000000 cycles: 1192421918 heartbeat IPC: 0.368412 cumulative IPC: 0.359102 (Simulation time: 0 hr 53 min 53 sec) 
Heartbeat CPU 0 instructions: 430000000 cycles: 1195182740 heartbeat IPC: 0.362211 cumulative IPC: 0.359109 (Simulation time: 0 hr 54 min 1 sec) 
Heartbeat CPU 0 instructions: 431000001 cycles: 1197955851 heartbeat IPC: 0.360606 cumulative IPC: 0.359113 (Simulation time: 0 hr 54 min 9 sec) 
Heartbeat CPU 0 instructions: 432000003 cycles: 1200724138 heartbeat IPC: 0.361235 cumulative IPC: 0.359118 (Simulation time: 0 hr 54 min 17 sec) 
Heartbeat CPU 0 instructions: 433000001 cycles: 1203486416 heartbeat IPC: 0.362019 cumulative IPC: 0.359124 (Simulation time: 0 hr 54 min 25 sec) 
Heartbeat CPU 0 instructions: 434000002 cycles: 1206244861 heartbeat IPC: 0.362523 cumulative IPC: 0.359132 (Simulation time: 0 hr 54 min 33 sec) 
Heartbeat CPU 0 instructions: 435000002 cycles: 1209014598 heartbeat IPC: 0.361045 cumulative IPC: 0.359136 (Simulation time: 0 hr 54 min 41 sec) 
Heartbeat CPU 0 instructions: 436000000 cycles: 1211724207 heartbeat IPC: 0.369056 cumulative IPC: 0.359159 (Simulation time: 0 hr 54 min 49 sec) 
Heartbeat CPU 0 instructions: 437000002 cycles: 1214616816 heartbeat IPC: 0.345709 cumulative IPC: 0.359127 (Simulation time: 0 hr 54 min 56 sec) 
Heartbeat CPU 0 instructions: 438000000 cycles: 1217443111 heartbeat IPC: 0.353819 cumulative IPC: 0.359114 (Simulation time: 0 hr 55 min 4 sec) 
Heartbeat CPU 0 instructions: 439000003 cycles: 1219990806 heartbeat IPC: 0.392513 cumulative IPC: 0.359184 (Simulation time: 0 hr 55 min 12 sec) 
Heartbeat CPU 0 instructions: 440000000 cycles: 1222788543 heartbeat IPC: 0.357431 cumulative IPC: 0.35918 (Simulation time: 0 hr 55 min 20 sec) 
Heartbeat CPU 0 instructions: 441000002 cycles: 1225617182 heartbeat IPC: 0.353528 cumulative IPC: 0.359167 (Simulation time: 0 hr 55 min 28 sec) 
Heartbeat CPU 0 instructions: 442000001 cycles: 1228351282 heartbeat IPC: 0.365751 cumulative IPC: 0.359182 (Simulation time: 0 hr 55 min 36 sec) 
Heartbeat CPU 0 instructions: 443000001 cycles: 1231122495 heartbeat IPC: 0.360853 cumulative IPC: 0.359185 (Simulation time: 0 hr 55 min 44 sec) 
Heartbeat CPU 0 instructions: 444000003 cycles: 1234076390 heartbeat IPC: 0.338537 cumulative IPC: 0.359136 (Simulation time: 0 hr 55 min 52 sec) 
Heartbeat CPU 0 instructions: 445000000 cycles: 1236898542 heartbeat IPC: 0.354338 cumulative IPC: 0.359125 (Simulation time: 0 hr 56 min 0 sec) 
Heartbeat CPU 0 instructions: 446000000 cycles: 1239621888 heartbeat IPC: 0.367195 cumulative IPC: 0.359143 (Simulation time: 0 hr 56 min 8 sec) 
Heartbeat CPU 0 instructions: 447000000 cycles: 1242417852 heartbeat IPC: 0.357658 cumulative IPC: 0.359139 (Simulation time: 0 hr 56 min 15 sec) 
Heartbeat CPU 0 instructions: 448000000 cycles: 1245213300 heartbeat IPC: 0.357724 cumulative IPC: 0.359136 (Simulation time: 0 hr 56 min 22 sec) 
Heartbeat CPU 0 instructions: 449000000 cycles: 1248039392 heartbeat IPC: 0.353846 cumulative IPC: 0.359124 (Simulation time: 0 hr 56 min 30 sec) 
Heartbeat CPU 0 instructions: 450000001 cycles: 1250758294 heartbeat IPC: 0.367796 cumulative IPC: 0.359143 (Simulation time: 0 hr 56 min 37 sec) 

Warmup complete CPU 0 instructions: 450000001 cycles: 1250758294 (Simulation time: 0 hr 56 min 37 sec) 

Heartbeat CPU 0 instructions: 451000000 cycles: 1253095761 heartbeat IPC: 0.427813 cumulative IPC: 0.427813 (Simulation time: 0 hr 56 min 45 sec) 
Heartbeat CPU 0 instructions: 452000000 cycles: 1255260701 heartbeat IPC: 0.461907 cumulative IPC: 0.444207 (Simulation time: 0 hr 56 min 52 sec) 
Heartbeat CPU 0 instructions: 453000000 cycles: 1257637835 heartbeat IPC: 0.420675 cumulative IPC: 0.436075 (Simulation time: 0 hr 57 min 0 sec) 
Heartbeat CPU 0 instructions: 454000001 cycles: 1259846220 heartbeat IPC: 0.45282 cumulative IPC: 0.440144 (Simulation time: 0 hr 57 min 7 sec) 
Heartbeat CPU 0 instructions: 455000000 cycles: 1262182182 heartbeat IPC: 0.428089 cumulative IPC: 0.437679 (Simulation time: 0 hr 57 min 15 sec) 
Heartbeat CPU 0 instructions: 456000003 cycles: 1264347096 heartbeat IPC: 0.461913 cumulative IPC: 0.44154 (Simulation time: 0 hr 57 min 22 sec) 
Heartbeat CPU 0 instructions: 457000001 cycles: 1266619252 heartbeat IPC: 0.44011 cumulative IPC: 0.441335 (Simulation time: 0 hr 57 min 30 sec) 
Heartbeat CPU 0 instructions: 458000002 cycles: 1269044252 heartbeat IPC: 0.412372 cumulative IPC: 0.437494 (Simulation time: 0 hr 57 min 37 sec) 
Heartbeat CPU 0 instructions: 459000000 cycles: 1271417971 heartbeat IPC: 0.421279 cumulative IPC: 0.435631 (Simulation time: 0 hr 57 min 45 sec) 
Heartbeat CPU 0 instructions: 460000000 cycles: 1273707452 heartbeat IPC: 0.43678 cumulative IPC: 0.435746 (Simulation time: 0 hr 57 min 53 sec) 
Heartbeat CPU 0 instructions: 461000000 cycles: 1275954956 heartbeat IPC: 0.444938 cumulative IPC: 0.436566 (Simulation time: 0 hr 58 min 0 sec) 
Heartbeat CPU 0 instructions: 462000000 cycles: 1278349153 heartbeat IPC: 0.417677 cumulative IPC: 0.434927 (Simulation time: 0 hr 58 min 8 sec) 
Heartbeat CPU 0 instructions: 463000002 cycles: 1280731300 heartbeat IPC: 0.41979 cumulative IPC: 0.433724 (Simulation time: 0 hr 58 min 15 sec) 
Heartbeat CPU 0 instructions: 464000002 cycles: 1283049091 heartbeat IPC: 0.431445 cumulative IPC: 0.43356 (Simulation time: 0 hr 58 min 23 sec) 
Heartbeat CPU 0 instructions: 465000000 cycles: 1285387810 heartbeat IPC: 0.427584 cumulative IPC: 0.433156 (Simulation time: 0 hr 58 min 30 sec) 
Heartbeat CPU 0 instructions: 466000000 cycles: 1287781202 heartbeat IPC: 0.417817 cumulative IPC: 0.432165 (Simulation time: 0 hr 58 min 37 sec) 
Heartbeat CPU 0 instructions: 467000001 cycles: 1290006036 heartbeat IPC: 0.449472 cumulative IPC: 0.433146 (Simulation time: 0 hr 58 min 44 sec) 
Heartbeat CPU 0 instructions: 468000002 cycles: 1292292528 heartbeat IPC: 0.437352 cumulative IPC: 0.433377 (Simulation time: 0 hr 58 min 51 sec) 
Heartbeat CPU 0 instructions: 469000001 cycles: 1294662913 heartbeat IPC: 0.421872 cumulative IPC: 0.432756 (Simulation time: 0 hr 58 min 58 sec) 
Heartbeat CPU 0 instructions: 470000002 cycles: 1296925167 heartbeat IPC: 0.442037 cumulative IPC: 0.433211 (Simulation time: 0 hr 59 min 5 sec) 
Heartbeat CPU 0 instructions: 471000002 cycles: 1299114575 heartbeat IPC: 0.456744 cumulative IPC: 0.434277 (Simulation time: 0 hr 59 min 12 sec) 
Heartbeat CPU 0 instructions: 472000000 cycles: 1301488737 heartbeat IPC: 0.4212 cumulative IPC: 0.433665 (Simulation time: 0 hr 59 min 20 sec) 
Heartbeat CPU 0 instructions: 473000000 cycles: 1303388239 heartbeat IPC: 0.526454 cumulative IPC: 0.437014 (Simulation time: 0 hr 59 min 27 sec) 
Heartbeat CPU 0 instructions: 474000000 cycles: 1305677933 heartbeat IPC: 0.43674 cumulative IPC: 0.437002 (Simulation time: 0 hr 59 min 35 sec) 
Heartbeat CPU 0 instructions: 475000000 cycles: 1308013966 heartbeat IPC: 0.428076 cumulative IPC: 0.436638 (Simulation time: 0 hr 59 min 42 sec) 
Heartbeat CPU 0 instructions: 476000002 cycles: 1310397094 heartbeat IPC: 0.419617 cumulative IPC: 0.435958 (Simulation time: 0 hr 59 min 49 sec) 
Heartbeat CPU 0 instructions: 477000001 cycles: 1312726672 heartbeat IPC: 0.429262 cumulative IPC: 0.435706 (Simulation time: 0 hr 59 min 57 sec) 
Heartbeat CPU 0 instructions: 478000000 cycles: 1314903021 heartbeat IPC: 0.459485 cumulative IPC: 0.436513 (Simulation time: 1 hr 0 min 5 sec) 
Heartbeat CPU 0 instructions: 479000000 cycles: 1317458708 heartbeat IPC: 0.391284 cumulative IPC: 0.43478 (Simulation time: 1 hr 0 min 12 sec) 
Heartbeat CPU 0 instructions: 480000000 cycles: 1319786326 heartbeat IPC: 0.429624 cumulative IPC: 0.434606 (Simulation time: 1 hr 0 min 19 sec) 
Heartbeat CPU 0 instructions: 481000000 cycles: 1322070769 heartbeat IPC: 0.437743 cumulative IPC: 0.434707 (Simulation time: 1 hr 0 min 26 sec) 
Heartbeat CPU 0 instructions: 482000002 cycles: 1324364494 heartbeat IPC: 0.435973 cumulative IPC: 0.434746 (Simulation time: 1 hr 0 min 33 sec) 
Heartbeat CPU 0 instructions: 483000000 cycles: 1326710501 heartbeat IPC: 0.426255 cumulative IPC: 0.434484 (Simulation time: 1 hr 0 min 41 sec) 
Heartbeat CPU 0 instructions: 484000000 cycles: 1329055537 heartbeat IPC: 0.426433 cumulative IPC: 0.434243 (Simulation time: 1 hr 0 min 48 sec) 
Heartbeat CPU 0 instructions: 485000002 cycles: 1331433056 heartbeat IPC: 0.420607 cumulative IPC: 0.433841 (Simulation time: 1 hr 0 min 56 sec) 
Heartbeat CPU 0 instructions: 486000001 cycles: 1333658946 heartbeat IPC: 0.449258 cumulative IPC: 0.434255 (Simulation time: 1 hr 1 min 3 sec) 
Heartbeat CPU 0 instructions: 487000003 cycles: 1336060682 heartbeat IPC: 0.416366 cumulative IPC: 0.433751 (Simulation time: 1 hr 1 min 11 sec) 
Heartbeat CPU 0 instructions: 488000000 cycles: 1338302225 heartbeat IPC: 0.44612 cumulative IPC: 0.434068 (Simulation time: 1 hr 1 min 18 sec) 
Heartbeat CPU 0 instructions: 489000002 cycles: 1340483121 heartbeat IPC: 0.458528 cumulative IPC: 0.434662 (Simulation time: 1 hr 1 min 25 sec) 
Heartbeat CPU 0 instructions: 490000000 cycles: 1342862658 heartbeat IPC: 0.420249 cumulative IPC: 0.43429 (Simulation time: 1 hr 1 min 32 sec) 
Heartbeat CPU 0 instructions: 491000002 cycles: 1345170825 heartbeat IPC: 0.433245 cumulative IPC: 0.434264 (Simulation time: 1 hr 1 min 39 sec) 
Heartbeat CPU 0 instructions: 492000000 cycles: 1347425825 heartbeat IPC: 0.443458 cumulative IPC: 0.434479 (Simulation time: 1 hr 1 min 46 sec) 
Heartbeat CPU 0 instructions: 493000002 cycles: 1349770416 heartbeat IPC: 0.426514 cumulative IPC: 0.43429 (Simulation time: 1 hr 1 min 54 sec) 
Heartbeat CPU 0 instructions: 494000000 cycles: 1352085911 heartbeat IPC: 0.431872 cumulative IPC: 0.434235 (Simulation time: 1 hr 2 min 1 sec) 
Heartbeat CPU 0 instructions: 495000000 cycles: 1354344258 heartbeat IPC: 0.442802 cumulative IPC: 0.434422 (Simulation time: 1 hr 2 min 8 sec) 
Heartbeat CPU 0 instructions: 496000001 cycles: 1356724809 heartbeat IPC: 0.420071 cumulative IPC: 0.434099 (Simulation time: 1 hr 2 min 16 sec) 
Heartbeat CPU 0 instructions: 497000001 cycles: 1359101380 heartbeat IPC: 0.420774 cumulative IPC: 0.433807 (Simulation time: 1 hr 2 min 23 sec) 
Heartbeat CPU 0 instructions: 498000001 cycles: 1361322131 heartbeat IPC: 0.450298 cumulative IPC: 0.434138 (Simulation time: 1 hr 2 min 31 sec) 
Heartbeat CPU 0 instructions: 499000001 cycles: 1363641746 heartbeat IPC: 0.431106 cumulative IPC: 0.434076 (Simulation time: 1 hr 2 min 38 sec) 
Heartbeat CPU 0 instructions: 500000003 cycles: 1365823845 heartbeat IPC: 0.458275 cumulative IPC: 0.434535 (Simulation time: 1 hr 2 min 45 sec) 
Heartbeat CPU 0 instructions: 501000001 cycles: 1368181024 heartbeat IPC: 0.424235 cumulative IPC: 0.434328 (Simulation time: 1 hr 2 min 53 sec) 
Heartbeat CPU 0 instructions: 502000001 cycles: 1370386193 heartbeat IPC: 0.45348 cumulative IPC: 0.434681 (Simulation time: 1 hr 3 min 0 sec) 
Heartbeat CPU 0 instructions: 503000002 cycles: 1372711415 heartbeat IPC: 0.430067 cumulative IPC: 0.434593 (Simulation time: 1 hr 3 min 8 sec) 
Heartbeat CPU 0 instructions: 504000000 cycles: 1375093048 heartbeat IPC: 0.419879 cumulative IPC: 0.434311 (Simulation time: 1 hr 3 min 16 sec) 
Heartbeat CPU 0 instructions: 505000003 cycles: 1377456837 heartbeat IPC: 0.423051 cumulative IPC: 0.434101 (Simulation time: 1 hr 3 min 23 sec) 
Heartbeat CPU 0 instructions: 506000000 cycles: 1379661350 heartbeat IPC: 0.453614 cumulative IPC: 0.434435 (Simulation time: 1 hr 3 min 30 sec) 
Heartbeat CPU 0 instructions: 507000002 cycles: 1381970482 heartbeat IPC: 0.433064 cumulative IPC: 0.434411 (Simulation time: 1 hr 3 min 38 sec) 
Heartbeat CPU 0 instructions: 508000001 cycles: 1384262292 heartbeat IPC: 0.436336 cumulative IPC: 0.434444 (Simulation time: 1 hr 3 min 45 sec) 
Heartbeat CPU 0 instructions: 509000001 cycles: 1386586766 heartbeat IPC: 0.430205 cumulative IPC: 0.434371 (Simulation time: 1 hr 3 min 53 sec) 
Heartbeat CPU 0 instructions: 510000003 cycles: 1388883777 heartbeat IPC: 0.435349 cumulative IPC: 0.434388 (Simulation time: 1 hr 4 min 0 sec) 
Heartbeat CPU 0 instructions: 511000000 cycles: 1391069821 heartbeat IPC: 0.457446 cumulative IPC: 0.434747 (Simulation time: 1 hr 4 min 8 sec) 
Heartbeat CPU 0 instructions: 512000001 cycles: 1393320361 heartbeat IPC: 0.444338 cumulative IPC: 0.434898 (Simulation time: 1 hr 4 min 15 sec) 
Heartbeat CPU 0 instructions: 513000000 cycles: 1395579399 heartbeat IPC: 0.442666 cumulative IPC: 0.435019 (Simulation time: 1 hr 4 min 23 sec) 
Heartbeat CPU 0 instructions: 514000003 cycles: 1397879243 heartbeat IPC: 0.434813 cumulative IPC: 0.435016 (Simulation time: 1 hr 4 min 30 sec) 
Heartbeat CPU 0 instructions: 515000001 cycles: 1400205694 heartbeat IPC: 0.429838 cumulative IPC: 0.434936 (Simulation time: 1 hr 4 min 37 sec) 
Heartbeat CPU 0 instructions: 516000001 cycles: 1402591014 heartbeat IPC: 0.419231 cumulative IPC: 0.434689 (Simulation time: 1 hr 4 min 44 sec) 
Heartbeat CPU 0 instructions: 517000000 cycles: 1404725327 heartbeat IPC: 0.468534 cumulative IPC: 0.435158 (Simulation time: 1 hr 4 min 51 sec) 
Heartbeat CPU 0 instructions: 518000003 cycles: 1407138857 heartbeat IPC: 0.414332 cumulative IPC: 0.434837 (Simulation time: 1 hr 4 min 58 sec) 
Heartbeat CPU 0 instructions: 519000002 cycles: 1409482165 heartbeat IPC: 0.426747 cumulative IPC: 0.434717 (Simulation time: 1 hr 5 min 6 sec) 
Heartbeat CPU 0 instructions: 520000001 cycles: 1411872710 heartbeat IPC: 0.418314 cumulative IPC: 0.434474 (Simulation time: 1 hr 5 min 14 sec) 
Heartbeat CPU 0 instructions: 521000002 cycles: 1414171949 heartbeat IPC: 0.434927 cumulative IPC: 0.43448 (Simulation time: 1 hr 5 min 21 sec) 
Heartbeat CPU 0 instructions: 522000000 cycles: 1416400800 heartbeat IPC: 0.448661 cumulative IPC: 0.434671 (Simulation time: 1 hr 5 min 28 sec) 
Heartbeat CPU 0 instructions: 523000000 cycles: 1418785850 heartbeat IPC: 0.419278 cumulative IPC: 0.434453 (Simulation time: 1 hr 5 min 36 sec) 
Heartbeat CPU 0 instructions: 524000002 cycles: 1421091948 heartbeat IPC: 0.433634 cumulative IPC: 0.434441 (Simulation time: 1 hr 5 min 43 sec) 
Heartbeat CPU 0 instructions: 525000001 cycles: 1423390176 heartbeat IPC: 0.435117 cumulative IPC: 0.43445 (Simulation time: 1 hr 5 min 51 sec) 
Heartbeat CPU 0 instructions: 526000000 cycles: 1425704868 heartbeat IPC: 0.432022 cumulative IPC: 0.434418 (Simulation time: 1 hr 5 min 58 sec) 
Heartbeat CPU 0 instructions: 527000000 cycles: 1427983491 heartbeat IPC: 0.438862 cumulative IPC: 0.434475 (Simulation time: 1 hr 6 min 6 sec) 
Heartbeat CPU 0 instructions: 528000000 cycles: 1430246998 heartbeat IPC: 0.441792 cumulative IPC: 0.434568 (Simulation time: 1 hr 6 min 13 sec) 
Heartbeat CPU 0 instructions: 529000002 cycles: 1432551953 heartbeat IPC: 0.433849 cumulative IPC: 0.434559 (Simulation time: 1 hr 6 min 21 sec) 
Heartbeat CPU 0 instructions: 530000001 cycles: 1434945066 heartbeat IPC: 0.417865 cumulative IPC: 0.434342 (Simulation time: 1 hr 6 min 29 sec) 
Heartbeat CPU 0 instructions: 531000003 cycles: 1436809987 heartbeat IPC: 0.536217 cumulative IPC: 0.435363 (Simulation time: 1 hr 6 min 36 sec) 
Heartbeat CPU 0 instructions: 532000000 cycles: 1439200800 heartbeat IPC: 0.418267 cumulative IPC: 0.435146 (Simulation time: 1 hr 6 min 44 sec) 
Heartbeat CPU 0 instructions: 533000000 cycles: 1441442868 heartbeat IPC: 0.446017 cumulative IPC: 0.435274 (Simulation time: 1 hr 6 min 51 sec) 
Heartbeat CPU 0 instructions: 534000000 cycles: 1443848181 heartbeat IPC: 0.415746 cumulative IPC: 0.435031 (Simulation time: 1 hr 6 min 59 sec) 
Heartbeat CPU 0 instructions: 535000002 cycles: 1446135421 heartbeat IPC: 0.437209 cumulative IPC: 0.435056 (Simulation time: 1 hr 7 min 6 sec) 
Heartbeat CPU 0 instructions: 536000001 cycles: 1448329993 heartbeat IPC: 0.455669 cumulative IPC: 0.435285 (Simulation time: 1 hr 7 min 13 sec) 
Heartbeat CPU 0 instructions: 537000001 cycles: 1450509957 heartbeat IPC: 0.458723 cumulative IPC: 0.435541 (Simulation time: 1 hr 7 min 21 sec) 
Heartbeat CPU 0 instructions: 538000001 cycles: 1452943011 heartbeat IPC: 0.411006 cumulative IPC: 0.435246 (Simulation time: 1 hr 7 min 28 sec) 
Heartbeat CPU 0 instructions: 539000000 cycles: 1455271579 heartbeat IPC: 0.429448 cumulative IPC: 0.43518 (Simulation time: 1 hr 7 min 35 sec) 
Heartbeat CPU 0 instructions: 540000001 cycles: 1457569945 heartbeat IPC: 0.435092 cumulative IPC: 0.435179 (Simulation time: 1 hr 7 min 43 sec) 
Heartbeat CPU 0 instructions: 541000000 cycles: 1459911590 heartbeat IPC: 0.42705 cumulative IPC: 0.435088 (Simulation time: 1 hr 7 min 51 sec) 
Heartbeat CPU 0 instructions: 542000002 cycles: 1462301168 heartbeat IPC: 0.418485 cumulative IPC: 0.4349 (Simulation time: 1 hr 7 min 58 sec) 
Heartbeat CPU 0 instructions: 543000001 cycles: 1464483041 heartbeat IPC: 0.458321 cumulative IPC: 0.435139 (Simulation time: 1 hr 8 min 5 sec) 
Heartbeat CPU 0 instructions: 544000001 cycles: 1466943836 heartbeat IPC: 0.406373 cumulative IPC: 0.434812 (Simulation time: 1 hr 8 min 13 sec) 
Heartbeat CPU 0 instructions: 545000002 cycles: 1469180921 heartbeat IPC: 0.447011 cumulative IPC: 0.434937 (Simulation time: 1 hr 8 min 20 sec) 
[...]
Heartbeat CPU 0 instructions: 835000001 cycles: 2143133851 heartbeat IPC: 0.416209 cumulative IPC: 0.431433 (Simulation time: 1 hr 39 min 48 sec) 
Heartbeat CPU 0 instructions: 836000000 cycles: 2145563701 heartbeat IPC: 0.411548 cumulative IPC: 0.431379 (Simulation time: 1 hr 39 min 56 sec) 
Heartbeat CPU 0 instructions: 837000000 cycles: 2147731222 heartbeat IPC: 0.461357 cumulative IPC: 0.431451 (Simulation time: 1 hr 40 min 4 sec) 
Heartbeat CPU 0 instructions: 838000000 cycles: 2149972610 heartbeat IPC: 0.446152 cumulative IPC: 0.431488 (Simulation time: 1 hr 40 min 12 sec) 
Heartbeat CPU 0 instructions: 839000001 cycles: 2152350651 heartbeat IPC: 0.420515 cumulative IPC: 0.431459 (Simulation time: 1 hr 40 min 20 sec) 
Heartbeat CPU 0 instructions: 840000001 cycles: 2154903629 heartbeat IPC: 0.391699 cumulative IPC: 0.431347 (Simulation time: 1 hr 40 min 29 sec) 
Heartbeat CPU 0 instructions: 841000000 cycles: 2157145594 heartbeat IPC: 0.446037 cumulative IPC: 0.431383 (Simulation time: 1 hr 40 min 37 sec) 
Heartbeat CPU 0 instructions: 842000002 cycles: 2159499145 heartbeat IPC: 0.424891 cumulative IPC: 0.431366 (Simulation time: 1 hr 40 min 45 sec) 
Heartbeat CPU 0 instructions: 843000000 cycles: 2161885934 heartbeat IPC: 0.418972 cumulative IPC: 0.431334 (Simulation time: 1 hr 40 min 53 sec) 
Heartbeat CPU 0 instructions: 844000000 cycles: 2164204872 heartbeat IPC: 0.431232 cumulative IPC: 0.431333 (Simulation time: 1 hr 41 min 1 sec) 
Heartbeat CPU 0 instructions: 845000000 cycles: 2166612385 heartbeat IPC: 0.415366 cumulative IPC: 0.431291 (Simulation time: 1 hr 41 min 10 sec) 
Heartbeat CPU 0 instructions: 846000003 cycles: 2168924106 heartbeat IPC: 0.432579 cumulative IPC: 0.431295 (Simulation time: 1 hr 41 min 18 sec) 
Heartbeat CPU 0 instructions: 847000000 cycles: 2171278602 heartbeat IPC: 0.424718 cumulative IPC: 0.431278 (Simulation time: 1 hr 41 min 25 sec) 
Heartbeat CPU 0 instructions: 848000000 cycles: 2173566493 heartbeat IPC: 0.437084 cumulative IPC: 0.431292 (Simulation time: 1 hr 41 min 33 sec) 
Heartbeat CPU 0 instructions: 849000000 cycles: 2175901068 heartbeat IPC: 0.428343 cumulative IPC: 0.431285 (Simulation time: 1 hr 41 min 41 sec) 
Heartbeat CPU 0 instructions: 850000000 cycles: 2178344734 heartbeat IPC: 0.409221 cumulative IPC: 0.431227 (Simulation time: 1 hr 41 min 49 sec) 
Heartbeat CPU 0 instructions: 851000000 cycles: 2180697807 heartbeat IPC: 0.424976 cumulative IPC: 0.431211 (Simulation time: 1 hr 41 min 57 sec) 
Heartbeat CPU 0 instructions: 852000002 cycles: 2182988122 heartbeat IPC: 0.436622 cumulative IPC: 0.431224 (Simulation time: 1 hr 42 min 5 sec) 
Heartbeat CPU 0 instructions: 853000001 cycles: 2185240970 heartbeat IPC: 0.443882 cumulative IPC: 0.431255 (Simulation time: 1 hr 42 min 13 sec) 
Heartbeat CPU 0 instructions: 854000000 cycles: 2187637427 heartbeat IPC: 0.417282 cumulative IPC: 0.431219 (Simulation time: 1 hr 42 min 20 sec) 
Heartbeat CPU 0 instructions: 855000000 cycles: 2189929048 heartbeat IPC: 0.436372 cumulative IPC: 0.431231 (Simulation time: 1 hr 42 min 28 sec) 
Heartbeat CPU 0 instructions: 856000001 cycles: 2192362559 heartbeat IPC: 0.410929 cumulative IPC: 0.431179 (Simulation time: 1 hr 42 min 36 sec) 
Heartbeat CPU 0 instructions: 857000000 cycles: 2194630321 heartbeat IPC: 0.440963 cumulative IPC: 0.431203 (Simulation time: 1 hr 42 min 44 sec) 
Heartbeat CPU 0 instructions: 858000000 cycles: 2197051760 heartbeat IPC: 0.412978 cumulative IPC: 0.431156 (Simulation time: 1 hr 42 min 51 sec) 
Heartbeat CPU 0 instructions: 859000000 cycles: 2199383052 heartbeat IPC: 0.428947 cumulative IPC: 0.43115 (Simulation time: 1 hr 42 min 59 sec) 
Heartbeat CPU 0 instructions: 860000000 cycles: 2201710246 heartbeat IPC: 0.429702 cumulative IPC: 0.431147 (Simulation time: 1 hr 43 min 7 sec) 
Heartbeat CPU 0 instructions: 861000002 cycles: 2204005847 heartbeat IPC: 0.435617 cumulative IPC: 0.431158 (Simulation time: 1 hr 43 min 14 sec) 
Heartbeat CPU 0 instructions: 862000003 cycles: 2206534851 heartbeat IPC: 0.395413 cumulative IPC: 0.431063 (Simulation time: 1 hr 43 min 21 sec) 
Heartbeat CPU 0 instructions: 863000000 cycles: 2208907876 heartbeat IPC: 0.421402 cumulative IPC: 0.431039 (Simulation time: 1 hr 43 min 29 sec) 
Heartbeat CPU 0 instructions: 864000002 cycles: 2211240079 heartbeat IPC: 0.42878 cumulative IPC: 0.431034 (Simulation time: 1 hr 43 min 36 sec) 
Heartbeat CPU 0 instructions: 865000003 cycles: 2213635493 heartbeat IPC: 0.417465 cumulative IPC: 0.431 (Simulation time: 1 hr 43 min 43 sec) 
Heartbeat CPU 0 instructions: 866000000 cycles: 2216000984 heartbeat IPC: 0.422744 cumulative IPC: 0.43098 (Simulation time: 1 hr 43 min 51 sec) 
Heartbeat CPU 0 instructions: 867000002 cycles: 2218510708 heartbeat IPC: 0.398451 cumulative IPC: 0.430895 (Simulation time: 1 hr 43 min 58 sec) 
Heartbeat CPU 0 instructions: 868000000 cycles: 2220767447 heartbeat IPC: 0.443116 cumulative IPC: 0.430924 (Simulation time: 1 hr 44 min 5 sec) 
Heartbeat CPU 0 instructions: 869000000 cycles: 2223039389 heartbeat IPC: 0.440152 cumulative IPC: 0.430945 (Simulation time: 1 hr 44 min 13 sec) 
Heartbeat CPU 0 instructions: 870000001 cycles: 2225514960 heartbeat IPC: 0.403948 cumulative IPC: 0.430877 (Simulation time: 1 hr 44 min 20 sec) 
Heartbeat CPU 0 instructions: 871000000 cycles: 2227787061 heartbeat IPC: 0.440121 cumulative IPC: 0.430898 (Simulation time: 1 hr 44 min 27 sec) 
Heartbeat CPU 0 instructions: 872000000 cycles: 2230045696 heartbeat IPC: 0.442745 cumulative IPC: 0.430926 (Simulation time: 1 hr 44 min 35 sec) 
Heartbeat CPU 0 instructions: 873000002 cycles: 2232394519 heartbeat IPC: 0.425746 cumulative IPC: 0.430913 (Simulation time: 1 hr 44 min 42 sec) 
Heartbeat CPU 0 instructions: 874000001 cycles: 2234615112 heartbeat IPC: 0.45033 cumulative IPC: 0.430957 (Simulation time: 1 hr 44 min 49 sec) 
Heartbeat CPU 0 instructions: 875000003 cycles: 2236945457 heartbeat IPC: 0.429122 cumulative IPC: 0.430953 (Simulation time: 1 hr 44 min 57 sec) 
Heartbeat CPU 0 instructions: 876000001 cycles: 2239169273 heartbeat IPC: 0.449677 cumulative IPC: 0.430995 (Simulation time: 1 hr 45 min 4 sec) 
Heartbeat CPU 0 instructions: 877000001 cycles: 2241341554 heartbeat IPC: 0.460346 cumulative IPC: 0.431059 (Simulation time: 1 hr 45 min 11 sec) 
Heartbeat CPU 0 instructions: 878000003 cycles: 2243675549 heartbeat IPC: 0.428451 cumulative IPC: 0.431053 (Simulation time: 1 hr 45 min 18 sec) 
Heartbeat CPU 0 instructions: 879000000 cycles: 2245972043 heartbeat IPC: 0.435445 cumulative IPC: 0.431063 (Simulation time: 1 hr 45 min 26 sec) 
Heartbeat CPU 0 instructions: 880000000 cycles: 2248376657 heartbeat IPC: 0.415867 cumulative IPC: 0.431027 (Simulation time: 1 hr 45 min 33 sec) 
Heartbeat CPU 0 instructions: 881000002 cycles: 2250729451 heartbeat IPC: 0.425027 cumulative IPC: 0.431012 (Simulation time: 1 hr 45 min 40 sec) 
Heartbeat CPU 0 instructions: 882000002 cycles: 2253100696 heartbeat IPC: 0.421719 cumulative IPC: 0.43099 (Simulation time: 1 hr 45 min 48 sec) 
Heartbeat CPU 0 instructions: 883000001 cycles: 2255336407 heartbeat IPC: 0.447285 cumulative IPC: 0.431027 (Simulation time: 1 hr 45 min 55 sec) 
Heartbeat CPU 0 instructions: 884000001 cycles: 2258004278 heartbeat IPC: 0.374831 cumulative IPC: 0.430878 (Simulation time: 1 hr 46 min 3 sec) 
Heartbeat CPU 0 instructions: 885000003 cycles: 2260134834 heartbeat IPC: 0.469362 cumulative IPC: 0.430959 (Simulation time: 1 hr 46 min 10 sec) 
Heartbeat CPU 0 instructions: 886000001 cycles: 2262694911 heartbeat IPC: 0.390612 cumulative IPC: 0.430857 (Simulation time: 1 hr 46 min 18 sec) 
Heartbeat CPU 0 instructions: 887000002 cycles: 2264943868 heartbeat IPC: 0.444651 cumulative IPC: 0.430888 (Simulation time: 1 hr 46 min 25 sec) 
Heartbeat CPU 0 instructions: 888000000 cycles: 2267181702 heartbeat IPC: 0.44686 cumulative IPC: 0.430923 (Simulation time: 1 hr 46 min 32 sec) 
Heartbeat CPU 0 instructions: 889000001 cycles: 2269362786 heartbeat IPC: 0.458488 cumulative IPC: 0.430982 (Simulation time: 1 hr 46 min 40 sec) 
Heartbeat CPU 0 instructions: 890000000 cycles: 2271712195 heartbeat IPC: 0.425639 cumulative IPC: 0.43097 (Simulation time: 1 hr 46 min 47 sec) 
Heartbeat CPU 0 instructions: 891000000 cycles: 2274128868 heartbeat IPC: 0.413792 cumulative IPC: 0.430929 (Simulation time: 1 hr 46 min 55 sec) 
Heartbeat CPU 0 instructions: 892000001 cycles: 2276432430 heartbeat IPC: 0.434111 cumulative IPC: 0.430936 (Simulation time: 1 hr 47 min 3 sec) 
Heartbeat CPU 0 instructions: 893000001 cycles: 2278715480 heartbeat IPC: 0.438011 cumulative IPC: 0.430952 (Simulation time: 1 hr 47 min 10 sec) 
Heartbeat CPU 0 instructions: 894000000 cycles: 2281052717 heartbeat IPC: 0.427855 cumulative IPC: 0.430945 (Simulation time: 1 hr 47 min 17 sec) 
Heartbeat CPU 0 instructions: 895000002 cycles: 2283295432 heartbeat IPC: 0.445889 cumulative IPC: 0.430977 (Simulation time: 1 hr 47 min 24 sec) 
Heartbeat CPU 0 instructions: 896000002 cycles: 2285599828 heartbeat IPC: 0.433953 cumulative IPC: 0.430984 (Simulation time: 1 hr 47 min 31 sec) 
Heartbeat CPU 0 instructions: 897000002 cycles: 2287911776 heartbeat IPC: 0.432536 cumulative IPC: 0.430987 (Simulation time: 1 hr 47 min 38 sec) 
Heartbeat CPU 0 instructions: 898000001 cycles: 2290172004 heartbeat IPC: 0.442433 cumulative IPC: 0.431012 (Simulation time: 1 hr 47 min 45 sec) 
Heartbeat CPU 0 instructions: 899000000 cycles: 2292565810 heartbeat IPC: 0.417744 cumulative IPC: 0.430982 (Simulation time: 1 hr 47 min 52 sec) 
Heartbeat CPU 0 instructions: 900000001 cycles: 2294899511 heartbeat IPC: 0.428504 cumulative IPC: 0.430976 (Simulation time: 1 hr 48 min 0 sec) 
Heartbeat CPU 0 instructions: 901000000 cycles: 2297127401 heartbeat IPC: 0.448855 cumulative IPC: 0.431014 (Simulation time: 1 hr 48 min 7 sec) 
Heartbeat CPU 0 instructions: 902000000 cycles: 2299475014 heartbeat IPC: 0.425965 cumulative IPC: 0.431003 (Simulation time: 1 hr 48 min 14 sec) 
Heartbeat CPU 0 instructions: 903000003 cycles: 2301857870 heartbeat IPC: 0.419666 cumulative IPC: 0.430977 (Simulation time: 1 hr 48 min 22 sec) 
Heartbeat CPU 0 instructions: 904000000 cycles: 2304230947 heartbeat IPC: 0.421393 cumulative IPC: 0.430956 (Simulation time: 1 hr 48 min 29 sec) 
Heartbeat CPU 0 instructions: 905000001 cycles: 2306581997 heartbeat IPC: 0.425342 cumulative IPC: 0.430943 (Simulation time: 1 hr 48 min 36 sec) 
Heartbeat CPU 0 instructions: 906000002 cycles: 2308810060 heartbeat IPC: 0.448821 cumulative IPC: 0.430981 (Simulation time: 1 hr 48 min 43 sec) 
Heartbeat CPU 0 instructions: 907000002 cycles: 2311159407 heartbeat IPC: 0.42565 cumulative IPC: 0.430969 (Simulation time: 1 hr 48 min 51 sec) 
Heartbeat CPU 0 instructions: 908000003 cycles: 2313467043 heartbeat IPC: 0.433344 cumulative IPC: 0.430974 (Simulation time: 1 hr 48 min 58 sec) 
Heartbeat CPU 0 instructions: 909000000 cycles: 2315918564 heartbeat IPC: 0.407909 cumulative IPC: 0.430921 (Simulation time: 1 hr 49 min 6 sec) 
Heartbeat CPU 0 instructions: 910000000 cycles: 2318288966 heartbeat IPC: 0.421869 cumulative IPC: 0.430901 (Simulation time: 1 hr 49 min 13 sec) 
Heartbeat CPU 0 instructions: 911000000 cycles: 2320676671 heartbeat IPC: 0.418812 cumulative IPC: 0.430874 (Simulation time: 1 hr 49 min 20 sec) 
Heartbeat CPU 0 instructions: 912000000 cycles: 2322926600 heartbeat IPC: 0.444458 cumulative IPC: 0.430902 (Simulation time: 1 hr 49 min 28 sec) 
Heartbeat CPU 0 instructions: 913000000 cycles: 2325133545 heartbeat IPC: 0.453115 cumulative IPC: 0.430948 (Simulation time: 1 hr 49 min 36 sec) 
Heartbeat CPU 0 instructions: 914000001 cycles: 2327551420 heartbeat IPC: 0.413587 cumulative IPC: 0.430909 (Simulation time: 1 hr 49 min 44 sec) 
Heartbeat CPU 0 instructions: 915000002 cycles: 2329914620 heartbeat IPC: 0.423155 cumulative IPC: 0.430892 (Simulation time: 1 hr 49 min 51 sec) 
Heartbeat CPU 0 instructions: 916000001 cycles: 2332228371 heartbeat IPC: 0.432198 cumulative IPC: 0.430895 (Simulation time: 1 hr 49 min 59 sec) 
Heartbeat CPU 0 instructions: 917000003 cycles: 2334587522 heartbeat IPC: 0.423882 cumulative IPC: 0.43088 (Simulation time: 1 hr 50 min 6 sec) 
Heartbeat CPU 0 instructions: 918000000 cycles: 2336905264 heartbeat IPC: 0.431453 cumulative IPC: 0.430881 (Simulation time: 1 hr 50 min 14 sec) 
Heartbeat CPU 0 instructions: 919000000 cycles: 2339220156 heartbeat IPC: 0.431986 cumulative IPC: 0.430883 (Simulation time: 1 hr 50 min 21 sec) 
Heartbeat CPU 0 instructions: 920000001 cycles: 2341600879 heartbeat IPC: 0.420041 cumulative IPC: 0.43086 (Simulation time: 1 hr 50 min 28 sec) 
Heartbeat CPU 0 instructions: 921000000 cycles: 2343978209 heartbeat IPC: 0.42064 cumulative IPC: 0.430837 (Simulation time: 1 hr 50 min 36 sec) 
Heartbeat CPU 0 instructions: 922000001 cycles: 2346341009 heartbeat IPC: 0.423227 cumulative IPC: 0.430821 (Simulation time: 1 hr 50 min 44 sec) 
Heartbeat CPU 0 instructions: 923000000 cycles: 2348583607 heartbeat IPC: 0.445911 cumulative IPC: 0.430852 (Simulation time: 1 hr 50 min 51 sec) 
Heartbeat CPU 0 instructions: 924000000 cycles: 2350940357 heartbeat IPC: 0.424313 cumulative IPC: 0.430838 (Simulation time: 1 hr 50 min 59 sec) 
Heartbeat CPU 0 instructions: 925000000 cycles: 2353196898 heartbeat IPC: 0.443156 cumulative IPC: 0.430863 (Simulation time: 1 hr 51 min 7 sec) 
Heartbeat CPU 0 instructions: 926000001 cycles: 2355475608 heartbeat IPC: 0.438845 cumulative IPC: 0.430879 (Simulation time: 1 hr 51 min 15 sec) 
Heartbeat CPU 0 instructions: 927000000 cycles: 2357788430 heartbeat IPC: 0.432372 cumulative IPC: 0.430883 (Simulation time: 1 hr 51 min 22 sec) 
Heartbeat CPU 0 instructions: 928000000 cycles: 2359954187 heartbeat IPC: 0.461732 cumulative IPC: 0.430943 (Simulation time: 1 hr 51 min 30 sec) 
Heartbeat CPU 0 instructions: 929000002 cycles: 2362491356 heartbeat IPC: 0.394141 cumulative IPC: 0.430859 (Simulation time: 1 hr 51 min 38 sec) 
Heartbeat CPU 0 instructions: 930000003 cycles: 2364859272 heartbeat IPC: 0.422313 cumulative IPC: 0.430841 (Simulation time: 1 hr 51 min 46 sec) 
Heartbeat CPU 0 instructions: 931000000 cycles: 2367250147 heartbeat IPC: 0.418256 cumulative IPC: 0.430814 (Simulation time: 1 hr 51 min 53 sec) 
Heartbeat CPU 0 instructions: 932000000 cycles: 2369319713 heartbeat IPC: 0.483193 cumulative IPC: 0.430911 (Simulation time: 1 hr 52 min 0 sec) 
Heartbeat CPU 0 instructions: 933000000 cycles: 2371524687 heartbeat IPC: 0.45352 cumulative IPC: 0.430955 (Simulation time: 1 hr 52 min 8 sec) 
Heartbeat CPU 0 instructions: 934000002 cycles: 2373846512 heartbeat IPC: 0.430697 cumulative IPC: 0.430955 (Simulation time: 1 hr 52 min 15 sec) 
Heartbeat CPU 0 instructions: 935000000 cycles: 2376073735 heartbeat IPC: 0.448989 cumulative IPC: 0.43099 (Simulation time: 1 hr 52 min 23 sec) 
Heartbeat CPU 0 instructions: 936000000 cycles: 2378477054 heartbeat IPC: 0.416091 cumulative IPC: 0.430959 (Simulation time: 1 hr 52 min 32 sec) 
Heartbeat CPU 0 instructions: 937000003 cycles: 2380765551 heartbeat IPC: 0.436969 cumulative IPC: 0.430971 (Simulation time: 1 hr 52 min 40 sec) 
Heartbeat CPU 0 instructions: 938000000 cycles: 2383158168 heartbeat IPC: 0.417951 cumulative IPC: 0.430943 (Simulation time: 1 hr 52 min 48 sec) 
Heartbeat CPU 0 instructions: 939000000 cycles: 2385379618 heartbeat IPC: 0.450156 cumulative IPC: 0.430981 (Simulation time: 1 hr 52 min 55 sec) 
Heartbeat CPU 0 instructions: 940000002 cycles: 2387745425 heartbeat IPC: 0.42269 cumulative IPC: 0.430964 (Simulation time: 1 hr 53 min 5 sec) 
Heartbeat CPU 0 instructions: 941000000 cycles: 2390136572 heartbeat IPC: 0.418209 cumulative IPC: 0.430937 (Simulation time: 1 hr 53 min 13 sec) 
Heartbeat CPU 0 instructions: 942000002 cycles: 2392600472 heartbeat IPC: 0.405861 cumulative IPC: 0.430883 (Simulation time: 1 hr 53 min 21 sec) 
Heartbeat CPU 0 instructions: 943000003 cycles: 2394786646 heartbeat IPC: 0.457421 cumulative IPC: 0.430933 (Simulation time: 1 hr 53 min 29 sec) 
Heartbeat CPU 0 instructions: 944000000 cycles: 2397055930 heartbeat IPC: 0.440666 cumulative IPC: 0.430953 (Simulation time: 1 hr 53 min 37 sec) 
Heartbeat CPU 0 instructions: 945000001 cycles: 2399364052 heartbeat IPC: 0.433253 cumulative IPC: 0.430957 (Simulation time: 1 hr 53 min 45 sec) 
Heartbeat CPU 0 instructions: 946000000 cycles: 2401756170 heartbeat IPC: 0.418039 cumulative IPC: 0.43093 (Simulation time: 1 hr 53 min 53 sec) 
Heartbeat CPU 0 instructions: 947000000 cycles: 2403906136 heartbeat IPC: 0.465124 cumulative IPC: 0.430994 (Simulation time: 1 hr 54 min 1 sec) 
Heartbeat CPU 0 instructions: 948000002 cycles: 2406320593 heartbeat IPC: 0.414173 cumulative IPC: 0.430959 (Simulation time: 1 hr 54 min 9 sec) 
Heartbeat CPU 0 instructions: 949000002 cycles: 2408645664 heartbeat IPC: 0.430094 cumulative IPC: 0.430957 (Simulation time: 1 hr 54 min 17 sec) 
Heartbeat CPU 0 instructions: 950000000 cycles: 2410949207 heartbeat IPC: 0.434113 cumulative IPC: 0.430964 (Simulation time: 1 hr 54 min 25 sec) 
Finished CPU 0 instructions: 500000000 cycles: 1160190914 cumulative IPC: 0.430964 (Simulation time: 1 hr 54 min 25 sec) 

ChampSim completed all CPUs

Region of Interest Statistics

CPU 0 cumulative IPC: 0.430964 instructions: 500000000 cycles: 1160190914
L1D TOTAL     ACCESS:  207466046  HIT:  198286606  MISS:    9179440
L1D LOAD      ACCESS:  118039589  HIT:  110057278  MISS:    7982311
L1D RFO       ACCESS:   89426457  HIT:   88229328  MISS:    1197129
L1D PREFETCH  ACCESS:          0  HIT:          0  MISS:          0
L1D WRITEBACK ACCESS:          0  HIT:          0  MISS:          0
L1D PREFETCH  REQUESTED:          0  ISSUED:          0  USEFUL:          0  USELESS:          0
L1D AVERAGE MISS LATENCY: 76.6375 cycles
L1I TOTAL     ACCESS:  112343663  HIT:  112152261  MISS:     191402
L1I LOAD      ACCESS:  112343663  HIT:  112152261  MISS:     191402
L1I RFO       ACCESS:          0  HIT:          0  MISS:          0
L1I PREFETCH  ACCESS:          0  HIT:          0  MISS:          0
L1I WRITEBACK ACCESS:          0  HIT:          0  MISS:          0
L1I PREFETCH  REQUESTED:          0  ISSUED:          0  USEFUL:          0  USELESS:          0
L1I AVERAGE MISS LATENCY: 30.6178 cycles
L2C TOTAL     ACCESS:   13903566  HIT:    7765064  MISS:    6138502
L2C LOAD      ACCESS:    8173554  HIT:    2825792  MISS:    5347762
L2C RFO       ACCESS:    1197113  HIT:     411585  MISS:     785528
L2C PREFETCH  ACCESS:          0  HIT:          0  MISS:          0
L2C WRITEBACK ACCESS:    4532899  HIT:    4527687  MISS:       5212
L2C PREFETCH  REQUESTED:          0  ISSUED:          0  USEFUL:          0  USELESS:          0
L2C AVERAGE MISS LATENCY: 84.2386 cycles
LLC TOTAL     ACCESS:   14293310  HIT:    8874601  MISS:    5418709
LLC LOAD      ACCESS:    5347750  HIT:    3901888  MISS:    1445862
LLC RFO       ACCESS:     785528  HIT:     326998  MISS:     458530
LLC PREFETCH  ACCESS:    5119603  HIT:    1620565  MISS:    3499038
LLC WRITEBACK ACCESS:    3040429  HIT:    3025150  MISS:      15279
LLC PREFETCH  REQUESTED:    5324175  ISSUED:    5323913  USEFUL:    2766662  USELESS:     728252
LLC AVERAGE MISS LATENCY: 173.051 cycles
Major fault: 0 Minor fault: 51304
performance stats:
mapping cache size: 433069
divergence: 4692378

DRAM Statistics
 CHANNEL 0
 RQ ROW_BUFFER_HIT:     340907  ROW_BUFFER_MISS:    5062487
 DBUS_CONGESTED:    3054397
 WQ ROW_BUFFER_HIT:     350296  ROW_BUFFER_MISS:    1879137  FULL:          0

 AVG_CONGESTED_CYCLE: 6

CPU 0 Branch Prediction Accuracy: 98.1911% MPKI: 3.75995 Average ROB Occupancy at Mispredict: 93.2625

Branch types
NOT_BRANCH: 396068354 79.2137%
BRANCH_DIRECT_JUMP: 5695008 1.139%
BRANCH_INDIRECT: 1682098 0.33642%
BRANCH_CONDITIONAL: 66814580 13.3629%
BRANCH_DIRECT_CALL: 8889234 1.77785%
BRANCH_INDIRECT_CALL: 5980763 1.19615%
BRANCH_RETURN: 14869998 2.974%
BRANCH_OTHER: 0 0%

