
*** ChampSim Multicore Out-of-Order Simulator ***

Warmup Instructions: 1000000
Prefetch Warmup Instructions: 450000000
Simulation Instructions: 500000000
Number of CPUs: 1
LLC sets: 2048
LLC ways: 16
Off-chip DRAM Size: 4096 MB Channels: 1 Width: 64-bit Data Rate: 3200 MT/s

CPU 0 runs /scratch/cluster/cmolder/ML-DPC/data/champsim_traces/spec17/605.mcf-s0.trace.xz
Read seed: 267
CPU 0 LLC from_file prefetcher

Warmup complete CPU 0 instructions: 1000001 cycles: 419014 (Simulation time: 0 hr 0 min 14 sec) 

Heartbeat CPU 0 instructions: 10000002 cycles: 25707781 heartbeat IPC: 0.388987 cumulative IPC: 0.355889 (Simulation time: 0 hr 1 min 46 sec) 
Heartbeat CPU 0 instructions: 20000001 cycles: 54348279 heartbeat IPC: 0.349156 cumulative IPC: 0.352313 (Simulation time: 0 hr 3 min 34 sec) 
Heartbeat CPU 0 instructions: 30000000 cycles: 82559839 heartbeat IPC: 0.354465 cumulative IPC: 0.353052 (Simulation time: 0 hr 5 min 20 sec) 
Heartbeat CPU 0 instructions: 40000001 cycles: 110794561 heartbeat IPC: 0.354174 cumulative IPC: 0.353339 (Simulation time: 0 hr 7 min 9 sec) 
Heartbeat CPU 0 instructions: 50000001 cycles: 139314721 heartbeat IPC: 0.350629 cumulative IPC: 0.352783 (Simulation time: 0 hr 8 min 59 sec) 
Heartbeat CPU 0 instructions: 60000001 cycles: 167471447 heartbeat IPC: 0.355155 cumulative IPC: 0.353183 (Simulation time: 0 hr 10 min 47 sec) 
Heartbeat CPU 0 instructions: 70000001 cycles: 196249363 heartbeat IPC: 0.347489 cumulative IPC: 0.352346 (Simulation time: 0 hr 12 min 35 sec) 
Heartbeat CPU 0 instructions: 80000003 cycles: 224365465 heartbeat IPC: 0.355668 cumulative IPC: 0.352763 (Simulation time: 0 hr 14 min 23 sec) 
Heartbeat CPU 0 instructions: 90000003 cycles: 252879118 heartbeat IPC: 0.350709 cumulative IPC: 0.352531 (Simulation time: 0 hr 16 min 13 sec) 
Heartbeat CPU 0 instructions: 100000001 cycles: 281734866 heartbeat IPC: 0.346551 cumulative IPC: 0.351918 (Simulation time: 0 hr 18 min 4 sec) 
Heartbeat CPU 0 instructions: 110000000 cycles: 310607660 heartbeat IPC: 0.346347 cumulative IPC: 0.351399 (Simulation time: 0 hr 19 min 54 sec) 
Heartbeat CPU 0 instructions: 120000002 cycles: 339779735 heartbeat IPC: 0.342794 cumulative IPC: 0.350659 (Simulation time: 0 hr 21 min 45 sec) 
Heartbeat CPU 0 instructions: 130000002 cycles: 369719848 heartbeat IPC: 0.334 cumulative IPC: 0.349309 (Simulation time: 0 hr 23 min 41 sec) 
Heartbeat CPU 0 instructions: 140000002 cycles: 400479476 heartbeat IPC: 0.325101 cumulative IPC: 0.347447 (Simulation time: 0 hr 25 min 38 sec) 
Heartbeat CPU 0 instructions: 150000001 cycles: 431919342 heartbeat IPC: 0.318067 cumulative IPC: 0.345307 (Simulation time: 0 hr 27 min 42 sec) 
Heartbeat CPU 0 instructions: 160000001 cycles: 464455598 heartbeat IPC: 0.307349 cumulative IPC: 0.342645 (Simulation time: 0 hr 29 min 51 sec) 
Heartbeat CPU 0 instructions: 170000001 cycles: 498310290 heartbeat IPC: 0.29538 cumulative IPC: 0.339432 (Simulation time: 0 hr 32 min 8 sec) 
Heartbeat CPU 0 instructions: 180000003 cycles: 532637905 heartbeat IPC: 0.291311 cumulative IPC: 0.336328 (Simulation time: 0 hr 34 min 33 sec) 
Heartbeat CPU 0 instructions: 190000002 cycles: 567636130 heartbeat IPC: 0.285729 cumulative IPC: 0.333206 (Simulation time: 0 hr 36 min 46 sec) 
Heartbeat CPU 0 instructions: 200000001 cycles: 603304543 heartbeat IPC: 0.28036 cumulative IPC: 0.330079 (Simulation time: 0 hr 39 min 3 sec) 
Heartbeat CPU 0 instructions: 210000002 cycles: 638688095 heartbeat IPC: 0.282617 cumulative IPC: 0.327448 (Simulation time: 0 hr 41 min 20 sec) 
Heartbeat CPU 0 instructions: 220000000 cycles: 672938682 heartbeat IPC: 0.291966 cumulative IPC: 0.325641 (Simulation time: 0 hr 43 min 35 sec) 
Heartbeat CPU 0 instructions: 230000001 cycles: 706943723 heartbeat IPC: 0.294074 cumulative IPC: 0.324122 (Simulation time: 0 hr 45 min 48 sec) 
Heartbeat CPU 0 instructions: 240000001 cycles: 745143854 heartbeat IPC: 0.261779 cumulative IPC: 0.320924 (Simulation time: 0 hr 48 min 8 sec) 
Heartbeat CPU 0 instructions: 250000001 cycles: 780083020 heartbeat IPC: 0.286212 cumulative IPC: 0.319368 (Simulation time: 0 hr 50 min 17 sec) 
Heartbeat CPU 0 instructions: 260000000 cycles: 811920335 heartbeat IPC: 0.314097 cumulative IPC: 0.319162 (Simulation time: 0 hr 52 min 24 sec) 
Heartbeat CPU 0 instructions: 270000000 cycles: 844380384 heartbeat IPC: 0.308071 cumulative IPC: 0.318735 (Simulation time: 0 hr 54 min 28 sec) 
Heartbeat CPU 0 instructions: 280000000 cycles: 876385873 heartbeat IPC: 0.312446 cumulative IPC: 0.318505 (Simulation time: 0 hr 56 min 32 sec) 
Heartbeat CPU 0 instructions: 290000000 cycles: 908732628 heartbeat IPC: 0.30915 cumulative IPC: 0.318172 (Simulation time: 0 hr 58 min 33 sec) 
Heartbeat CPU 0 instructions: 300000000 cycles: 940674163 heartbeat IPC: 0.313072 cumulative IPC: 0.317999 (Simulation time: 1 hr 0 min 36 sec) 
Heartbeat CPU 0 instructions: 310000000 cycles: 973027664 heartbeat IPC: 0.309086 cumulative IPC: 0.317702 (Simulation time: 1 hr 2 min 41 sec) 
Heartbeat CPU 0 instructions: 320000000 cycles: 1005305909 heartbeat IPC: 0.309806 cumulative IPC: 0.317449 (Simulation time: 1 hr 4 min 43 sec) 
Heartbeat CPU 0 instructions: 330000000 cycles: 1037361455 heartbeat IPC: 0.311958 cumulative IPC: 0.317279 (Simulation time: 1 hr 6 min 45 sec) 
Heartbeat CPU 0 instructions: 340000003 cycles: 1069901250 heartbeat IPC: 0.307316 cumulative IPC: 0.316976 (Simulation time: 1 hr 8 min 55 sec) 
Heartbeat CPU 0 instructions: 350000000 cycles: 1102552962 heartbeat IPC: 0.306263 cumulative IPC: 0.316658 (Simulation time: 1 hr 11 min 4 sec) 
Heartbeat CPU 0 instructions: 360000001 cycles: 1134806081 heartbeat IPC: 0.310048 cumulative IPC: 0.31647 (Simulation time: 1 hr 13 min 11 sec) 
Heartbeat CPU 0 instructions: 370000002 cycles: 1167564320 heartbeat IPC: 0.305267 cumulative IPC: 0.316156 (Simulation time: 1 hr 15 min 19 sec) 
Heartbeat CPU 0 instructions: 380000000 cycles: 1201329439 heartbeat IPC: 0.296164 cumulative IPC: 0.315594 (Simulation time: 1 hr 17 min 30 sec) 
Heartbeat CPU 0 instructions: 390000002 cycles: 1235189908 heartbeat IPC: 0.29533 cumulative IPC: 0.315038 (Simulation time: 1 hr 19 min 45 sec) 
Heartbeat CPU 0 instructions: 400000001 cycles: 1270614932 heartbeat IPC: 0.282286 cumulative IPC: 0.314125 (Simulation time: 1 hr 22 min 5 sec) 
Heartbeat CPU 0 instructions: 410000003 cycles: 1311161975 heartbeat IPC: 0.246627 cumulative IPC: 0.312037 (Simulation time: 1 hr 24 min 29 sec) 
Heartbeat CPU 0 instructions: 420000001 cycles: 1344001942 heartbeat IPC: 0.304507 cumulative IPC: 0.311853 (Simulation time: 1 hr 26 min 39 sec) 
Heartbeat CPU 0 instructions: 430000001 cycles: 1378514075 heartbeat IPC: 0.289753 cumulative IPC: 0.311299 (Simulation time: 1 hr 28 min 54 sec) 
Heartbeat CPU 0 instructions: 440000000 cycles: 1412772557 heartbeat IPC: 0.291898 cumulative IPC: 0.310829 (Simulation time: 1 hr 31 min 10 sec) 
Heartbeat CPU 0 instructions: 450000001 cycles: 1447011115 heartbeat IPC: 0.292068 cumulative IPC: 0.310385 (Simulation time: 1 hr 33 min 26 sec) 

Warmup complete CPU 0 instructions: 450000001 cycles: 1447011115 (Simulation time: 1 hr 33 min 26 sec) 

Heartbeat CPU 0 instructions: 460000000 cycles: 1484465247 heartbeat IPC: 0.266993 cumulative IPC: 0.266993 (Simulation time: 1 hr 35 min 41 sec) 
Heartbeat CPU 0 instructions: 470000002 cycles: 1525058193 heartbeat IPC: 0.246348 cumulative IPC: 0.256256 (Simulation time: 1 hr 38 min 12 sec) 
Heartbeat CPU 0 instructions: 480000000 cycles: 1565468407 heartbeat IPC: 0.247462 cumulative IPC: 0.253256 (Simulation time: 1 hr 40 min 37 sec) 
Heartbeat CPU 0 instructions: 490000003 cycles: 1606654193 heartbeat IPC: 0.242802 cumulative IPC: 0.250559 (Simulation time: 1 hr 43 min 13 sec) 
Heartbeat CPU 0 instructions: 500000002 cycles: 1646919643 heartbeat IPC: 0.248352 cumulative IPC: 0.250114 (Simulation time: 1 hr 45 min 46 sec) 
Heartbeat CPU 0 instructions: 510000000 cycles: 1680957510 heartbeat IPC: 0.29379 cumulative IPC: 0.256469 (Simulation time: 1 hr 47 min 55 sec) 
Heartbeat CPU 0 instructions: 520000000 cycles: 1713377328 heartbeat IPC: 0.308453 cumulative IPC: 0.262796 (Simulation time: 1 hr 50 min 1 sec) 
Heartbeat CPU 0 instructions: 530000002 cycles: 1746188871 heartbeat IPC: 0.304771 cumulative IPC: 0.2674 (Simulation time: 1 hr 52 min 8 sec) 
Heartbeat CPU 0 instructions: 540000000 cycles: 1778458456 heartbeat IPC: 0.309889 cumulative IPC: 0.271536 (Simulation time: 1 hr 54 min 13 sec) 
Heartbeat CPU 0 instructions: 550000000 cycles: 1810939182 heartbeat IPC: 0.307875 cumulative IPC: 0.27478 (Simulation time: 1 hr 56 min 17 sec) 
Heartbeat CPU 0 instructions: 560000002 cycles: 1842509157 heartbeat IPC: 0.316757 cumulative IPC: 0.27813 (Simulation time: 1 hr 58 min 19 sec) 
Heartbeat CPU 0 instructions: 570000003 cycles: 1873847242 heartbeat IPC: 0.319101 cumulative IPC: 0.281138 (Simulation time: 2 hr 0 min 22 sec) 
Heartbeat CPU 0 instructions: 580000000 cycles: 1911856052 heartbeat IPC: 0.263097 cumulative IPC: 0.279663 (Simulation time: 2 hr 2 min 33 sec) 
Heartbeat CPU 0 instructions: 590000000 cycles: 1943049498 heartbeat IPC: 0.32058 cumulative IPC: 0.282236 (Simulation time: 2 hr 4 min 29 sec) 
Heartbeat CPU 0 instructions: 600000000 cycles: 1973768382 heartbeat IPC: 0.325533 cumulative IPC: 0.284761 (Simulation time: 2 hr 6 min 26 sec) 
Heartbeat CPU 0 instructions: 610000001 cycles: 2004239262 heartbeat IPC: 0.328182 cumulative IPC: 0.287136 (Simulation time: 2 hr 8 min 21 sec) 
Heartbeat CPU 0 instructions: 620000002 cycles: 2034496741 heartbeat IPC: 0.330497 cumulative IPC: 0.289369 (Simulation time: 2 hr 10 min 16 sec) 
Heartbeat CPU 0 instructions: 630000002 cycles: 2065121378 heartbeat IPC: 0.326534 cumulative IPC: 0.29121 (Simulation time: 2 hr 12 min 12 sec) 
Heartbeat CPU 0 instructions: 640000003 cycles: 2095157125 heartbeat IPC: 0.332937 cumulative IPC: 0.293144 (Simulation time: 2 hr 14 min 9 sec) 
Heartbeat CPU 0 instructions: 650000000 cycles: 2125032475 heartbeat IPC: 0.334724 cumulative IPC: 0.294976 (Simulation time: 2 hr 16 min 3 sec) 
Heartbeat CPU 0 instructions: 660000000 cycles: 2155166962 heartbeat IPC: 0.331846 cumulative IPC: 0.296545 (Simulation time: 2 hr 17 min 59 sec) 
Heartbeat CPU 0 instructions: 670000001 cycles: 2185541904 heartbeat IPC: 0.329219 cumulative IPC: 0.297889 (Simulation time: 2 hr 19 min 54 sec) 
Heartbeat CPU 0 instructions: 680000000 cycles: 2216000775 heartbeat IPC: 0.328312 cumulative IPC: 0.299094 (Simulation time: 2 hr 21 min 49 sec) 
Heartbeat CPU 0 instructions: 690000001 cycles: 2246627344 heartbeat IPC: 0.326514 cumulative IPC: 0.300144 (Simulation time: 2 hr 23 min 47 sec) 
Heartbeat CPU 0 instructions: 700000000 cycles: 2275890569 heartbeat IPC: 0.341726 cumulative IPC: 0.301612 (Simulation time: 2 hr 25 min 38 sec) 
Heartbeat CPU 0 instructions: 710000001 cycles: 2302851618 heartbeat IPC: 0.370905 cumulative IPC: 0.303795 (Simulation time: 2 hr 27 min 19 sec) 
Heartbeat CPU 0 instructions: 720000001 cycles: 2330322695 heartbeat IPC: 0.364019 cumulative IPC: 0.305668 (Simulation time: 2 hr 29 min 2 sec) 
Heartbeat CPU 0 instructions: 730000000 cycles: 2357110095 heartbeat IPC: 0.37331 cumulative IPC: 0.307659 (Simulation time: 2 hr 30 min 40 sec) 
Heartbeat CPU 0 instructions: 740000002 cycles: 2383930474 heartbeat IPC: 0.372851 cumulative IPC: 0.309525 (Simulation time: 2 hr 32 min 16 sec) 
Heartbeat CPU 0 instructions: 750000002 cycles: 2411244676 heartbeat IPC: 0.36611 cumulative IPC: 0.311128 (Simulation time: 2 hr 33 min 13 sec) 
Heartbeat CPU 0 instructions: 760000001 cycles: 2440816550 heartbeat IPC: 0.338159 cumulative IPC: 0.311932 (Simulation time: 2 hr 33 min 54 sec) 
Heartbeat CPU 0 instructions: 770000000 cycles: 2471929100 heartbeat IPC: 0.321414 cumulative IPC: 0.31222 (Simulation time: 2 hr 34 min 38 sec) 
Heartbeat CPU 0 instructions: 780000003 cycles: 2503478441 heartbeat IPC: 0.316964 cumulative IPC: 0.312362 (Simulation time: 2 hr 35 min 23 sec) 
Heartbeat CPU 0 instructions: 790000000 cycles: 2536890587 heartbeat IPC: 0.299292 cumulative IPC: 0.311961 (Simulation time: 2 hr 36 min 10 sec) 
Heartbeat CPU 0 instructions: 800000003 cycles: 2570360179 heartbeat IPC: 0.298779 cumulative IPC: 0.311568 (Simulation time: 2 hr 36 min 55 sec) 
Heartbeat CPU 0 instructions: 810000003 cycles: 2604282171 heartbeat IPC: 0.294794 cumulative IPC: 0.311077 (Simulation time: 2 hr 37 min 37 sec) 
Heartbeat CPU 0 instructions: 820000003 cycles: 2637398529 heartbeat IPC: 0.301966 cumulative IPC: 0.310823 (Simulation time: 2 hr 38 min 17 sec) 
Heartbeat CPU 0 instructions: 830000000 cycles: 2669969574 heartbeat IPC: 0.307021 cumulative IPC: 0.310722 (Simulation time: 2 hr 38 min 57 sec) 
Heartbeat CPU 0 instructions: 840000001 cycles: 2702727233 heartbeat IPC: 0.305272 cumulative IPC: 0.31058 (Simulation time: 2 hr 39 min 36 sec) 
Heartbeat CPU 0 instructions: 850000001 cycles: 2735746044 heartbeat IPC: 0.302858 cumulative IPC: 0.310382 (Simulation time: 2 hr 40 min 15 sec) 
Heartbeat CPU 0 instructions: 860000000 cycles: 2768853248 heartbeat IPC: 0.302049 cumulative IPC: 0.310173 (Simulation time: 2 hr 40 min 55 sec) 
Heartbeat CPU 0 instructions: 870000003 cycles: 2801498088 heartbeat IPC: 0.306327 cumulative IPC: 0.31008 (Simulation time: 2 hr 41 min 35 sec) 
Heartbeat CPU 0 instructions: 880000000 cycles: 2834802744 heartbeat IPC: 0.300258 cumulative IPC: 0.309845 (Simulation time: 2 hr 42 min 14 sec) 
Heartbeat CPU 0 instructions: 890000000 cycles: 2868124806 heartbeat IPC: 0.300101 cumulative IPC: 0.309616 (Simulation time: 2 hr 42 min 55 sec) 
Heartbeat CPU 0 instructions: 900000000 cycles: 2900500987 heartbeat IPC: 0.308869 cumulative IPC: 0.3096 (Simulation time: 2 hr 43 min 35 sec) 
Heartbeat CPU 0 instructions: 910000001 cycles: 2933466814 heartbeat IPC: 0.303344 cumulative IPC: 0.309461 (Simulation time: 2 hr 44 min 15 sec) 
Heartbeat CPU 0 instructions: 920000000 cycles: 2965986147 heartbeat IPC: 0.307509 cumulative IPC: 0.309419 (Simulation time: 2 hr 44 min 55 sec) 
Heartbeat CPU 0 instructions: 930000000 cycles: 2999071159 heartbeat IPC: 0.302252 cumulative IPC: 0.309266 (Simulation time: 2 hr 45 min 36 sec) 
Heartbeat CPU 0 instructions: 940000000 cycles: 3032635571 heartbeat IPC: 0.297935 cumulative IPC: 0.309027 (Simulation time: 2 hr 46 min 17 sec) 
Heartbeat CPU 0 instructions: 950000000 cycles: 3066918853 heartbeat IPC: 0.291687 cumulative IPC: 0.30866 (Simulation time: 2 hr 46 min 58 sec) 
Finished CPU 0 instructions: 500000000 cycles: 1619907739 cumulative IPC: 0.30866 (Simulation time: 2 hr 46 min 58 sec) 

ChampSim completed all CPUs

Region of Interest Statistics

CPU 0 cumulative IPC: 0.30866 instructions: 500000000 cycles: 1619907739
L1D TOTAL     ACCESS:  164215898  HIT:  131649819  MISS:   32566079
L1D LOAD      ACCESS:  121481613  HIT:   90492339  MISS:   30989274
L1D RFO       ACCESS:   42734285  HIT:   41157480  MISS:    1576805
L1D PREFETCH  ACCESS:          0  HIT:          0  MISS:          0
L1D WRITEBACK ACCESS:          0  HIT:          0  MISS:          0
L1D PREFETCH  REQUESTED:          0  ISSUED:          0  USEFUL:          0  USELESS:          0
L1D AVERAGE MISS LATENCY: 89.4648 cycles
L1I TOTAL     ACCESS:   90205249  HIT:   90205249  MISS:          0
L1I LOAD      ACCESS:   90205249  HIT:   90205249  MISS:          0
L1I RFO       ACCESS:          0  HIT:          0  MISS:          0
L1I PREFETCH  ACCESS:          0  HIT:          0  MISS:          0
L1I WRITEBACK ACCESS:          0  HIT:          0  MISS:          0
L1I PREFETCH  REQUESTED:          0  ISSUED:          0  USEFUL:          0  USELESS:          0
L1I AVERAGE MISS LATENCY: -nan cycles
L2C TOTAL     ACCESS:   34973922  HIT:    8761883  MISS:   26212039
L2C LOAD      ACCESS:   30989127  HIT:    5546978  MISS:   25442149
L2C RFO       ACCESS:    1576797  HIT:     810201  MISS:     766596
L2C PREFETCH  ACCESS:          0  HIT:          0  MISS:          0
L2C WRITEBACK ACCESS:    2407998  HIT:    2404704  MISS:       3294
L2C PREFETCH  REQUESTED:          0  ISSUED:          0  USEFUL:          0  USELESS:          0
L2C AVERAGE MISS LATENCY: 92.0531 cycles
LLC TOTAL     ACCESS:   30221779  HIT:   16616758  MISS:   13605021
LLC LOAD      ACCESS:   25442139  HIT:   12692511  MISS:   12749628
LLC RFO       ACCESS:     766594  HIT:     749538  MISS:      17056
LLC PREFETCH  ACCESS:    2469023  HIT:    1658903  MISS:     810120
LLC WRITEBACK ACCESS:    1544023  HIT:    1515806  MISS:      28217
LLC PREFETCH  REQUESTED:    2713760  ISSUED:    2713760  USEFUL:      32757  USELESS:     777363
LLC AVERAGE MISS LATENCY: 132.851 cycles
Major fault: 0 Minor fault: 303883
CPU 0 LLC from file prefetcher final stats

DRAM Statistics
 CHANNEL 0
 RQ ROW_BUFFER_HIT:    6882517  ROW_BUFFER_MISS:    6694226
 DBUS_CONGESTED:    6086555
 WQ ROW_BUFFER_HIT:      59807  ROW_BUFFER_MISS:      92807  FULL:          0

 AVG_CONGESTED_CYCLE: 5

CPU 0 Branch Prediction Accuracy: 94.4017% MPKI: 14.3155 Average ROB Occupancy at Mispredict: 32.874

Branch types
NOT_BRANCH: 372143845 74.4288%
BRANCH_DIRECT_JUMP: 14238481 2.8477%
BRANCH_INDIRECT: 0 0%
BRANCH_CONDITIONAL: 93325958 18.6652%
BRANCH_DIRECT_CALL: 9505113 1.90102%
BRANCH_INDIRECT_CALL: 640558 0.128112%
BRANCH_RETURN: 10145672 2.02913%
BRANCH_OTHER: 0 0%

