
*** ChampSim Multicore Out-of-Order Simulator ***

Warmup Instructions: 1000000
Prefetch Warmup Instructions: 10000000
Simulation Instructions: 500000000
Stat Printing Period: 1000000
Number of CPUs: 1
LLC sets: 2048
LLC ways: 16
Off-chip DRAM Size: 32768 MB Channels: 2 Width: 64-bit Data Rate: 1024 MT/s

CPU 0 runs /scratch/cluster/cmolder/ML-DPC/ChampSimTraces/spec06/410.bwaves-s2.trace.gz
Read seed: 922
Heartbeat CPU 0 instructions: 1000001 cycles: 337225 heartbeat IPC: 2.96538 cumulative IPC: 2.96538 (Simulation time: 0 hr 0 min 4 sec) 

Warmup complete CPU 0 instructions: 1000001 cycles: 337225 (Simulation time: 0 hr 0 min 4 sec) 

Heartbeat CPU 0 instructions: 2000002 cycles: 929319 heartbeat IPC: 1.68892 cumulative IPC: 1.68892 (Simulation time: 0 hr 0 min 7 sec) 
Heartbeat CPU 0 instructions: 3000001 cycles: 1511777 heartbeat IPC: 1.71686 cumulative IPC: 1.70278 (Simulation time: 0 hr 0 min 10 sec) 
Heartbeat CPU 0 instructions: 4000002 cycles: 2089744 heartbeat IPC: 1.7302 cumulative IPC: 1.71182 (Simulation time: 0 hr 0 min 14 sec) 
Heartbeat CPU 0 instructions: 5000002 cycles: 2661077 heartbeat IPC: 1.75029 cumulative IPC: 1.72128 (Simulation time: 0 hr 0 min 17 sec) 
Heartbeat CPU 0 instructions: 6000001 cycles: 3241546 heartbeat IPC: 1.72274 cumulative IPC: 1.72157 (Simulation time: 0 hr 0 min 20 sec) 
Heartbeat CPU 0 instructions: 7000001 cycles: 3821763 heartbeat IPC: 1.72349 cumulative IPC: 1.72189 (Simulation time: 0 hr 0 min 24 sec) 
Heartbeat CPU 0 instructions: 8000000 cycles: 4402688 heartbeat IPC: 1.72139 cumulative IPC: 1.72182 (Simulation time: 0 hr 0 min 27 sec) 
Heartbeat CPU 0 instructions: 9000000 cycles: 4971327 heartbeat IPC: 1.75858 cumulative IPC: 1.72633 (Simulation time: 0 hr 0 min 30 sec) 
Heartbeat CPU 0 instructions: 10000002 cycles: 5548294 heartbeat IPC: 1.7332 cumulative IPC: 1.72709 (Simulation time: 0 hr 0 min 33 sec) 

Warmup complete CPU 0 instructions: 10000002 cycles: 5548294 (Simulation time: 0 hr 0 min 33 sec) 

Heartbeat CPU 0 instructions: 11000000 cycles: 6115331 heartbeat IPC: 1.76355 cumulative IPC: 1.76355 (Simulation time: 0 hr 0 min 36 sec) 
Heartbeat CPU 0 instructions: 12000001 cycles: 6683734 heartbeat IPC: 1.75932 cumulative IPC: 1.76143 (Simulation time: 0 hr 0 min 40 sec) 
Heartbeat CPU 0 instructions: 13000003 cycles: 7222399 heartbeat IPC: 1.85645 cumulative IPC: 1.792 (Simulation time: 0 hr 0 min 45 sec) 
Heartbeat CPU 0 instructions: 14000002 cycles: 7786917 heartbeat IPC: 1.77142 cumulative IPC: 1.78681 (Simulation time: 0 hr 0 min 48 sec) 
Heartbeat CPU 0 instructions: 15000001 cycles: 8366091 heartbeat IPC: 1.7266 cumulative IPC: 1.77444 (Simulation time: 0 hr 0 min 52 sec) 
Heartbeat CPU 0 instructions: 16000000 cycles: 8944996 heartbeat IPC: 1.7274 cumulative IPC: 1.76642 (Simulation time: 0 hr 0 min 55 sec) 
Heartbeat CPU 0 instructions: 17000000 cycles: 9508601 heartbeat IPC: 1.77429 cumulative IPC: 1.76754 (Simulation time: 0 hr 0 min 58 sec) 
Heartbeat CPU 0 instructions: 18000003 cycles: 10084776 heartbeat IPC: 1.73559 cumulative IPC: 1.76348 (Simulation time: 0 hr 1 min 2 sec) 
Heartbeat CPU 0 instructions: 19000001 cycles: 10664424 heartbeat IPC: 1.72518 cumulative IPC: 1.75914 (Simulation time: 0 hr 1 min 5 sec) 
Heartbeat CPU 0 instructions: 20000000 cycles: 11244007 heartbeat IPC: 1.72538 cumulative IPC: 1.75571 (Simulation time: 0 hr 1 min 8 sec) 
Heartbeat CPU 0 instructions: 21000000 cycles: 11795566 heartbeat IPC: 1.81304 cumulative IPC: 1.76077 (Simulation time: 0 hr 1 min 11 sec) 
Heartbeat CPU 0 instructions: 22000000 cycles: 12374186 heartbeat IPC: 1.72825 cumulative IPC: 1.75801 (Simulation time: 0 hr 1 min 14 sec) 
Heartbeat CPU 0 instructions: 23000000 cycles: 12950282 heartbeat IPC: 1.73582 cumulative IPC: 1.75628 (Simulation time: 0 hr 1 min 17 sec) 
Heartbeat CPU 0 instructions: 24000000 cycles: 13528959 heartbeat IPC: 1.72808 cumulative IPC: 1.75424 (Simulation time: 0 hr 1 min 20 sec) 
Heartbeat CPU 0 instructions: 25000003 cycles: 14086075 heartbeat IPC: 1.79496 cumulative IPC: 1.7569 (Simulation time: 0 hr 1 min 23 sec) 
Heartbeat CPU 0 instructions: 26000002 cycles: 14664739 heartbeat IPC: 1.72812 cumulative IPC: 1.75507 (Simulation time: 0 hr 1 min 26 sec) 
Heartbeat CPU 0 instructions: 27000003 cycles: 15204769 heartbeat IPC: 1.85175 cumulative IPC: 1.76048 (Simulation time: 0 hr 1 min 30 sec) 
Heartbeat CPU 0 instructions: 28000003 cycles: 15715902 heartbeat IPC: 1.95644 cumulative IPC: 1.77033 (Simulation time: 0 hr 1 min 34 sec) 
Heartbeat CPU 0 instructions: 29000002 cycles: 16279934 heartbeat IPC: 1.77295 cumulative IPC: 1.77047 (Simulation time: 0 hr 1 min 37 sec) 
Heartbeat CPU 0 instructions: 30000002 cycles: 16856706 heartbeat IPC: 1.73379 cumulative IPC: 1.76859 (Simulation time: 0 hr 1 min 40 sec) 
Heartbeat CPU 0 instructions: 31000001 cycles: 17414337 heartbeat IPC: 1.7933 cumulative IPC: 1.76976 (Simulation time: 0 hr 1 min 43 sec) 
Heartbeat CPU 0 instructions: 32000001 cycles: 17971164 heartbeat IPC: 1.79589 cumulative IPC: 1.77093 (Simulation time: 0 hr 1 min 47 sec) 
Heartbeat CPU 0 instructions: 33000000 cycles: 18479586 heartbeat IPC: 1.96687 cumulative IPC: 1.77863 (Simulation time: 0 hr 1 min 51 sec) 
Heartbeat CPU 0 instructions: 34000002 cycles: 19043053 heartbeat IPC: 1.77473 cumulative IPC: 1.77847 (Simulation time: 0 hr 1 min 54 sec) 
Heartbeat CPU 0 instructions: 35000000 cycles: 19609116 heartbeat IPC: 1.76658 cumulative IPC: 1.77799 (Simulation time: 0 hr 1 min 57 sec) 
Heartbeat CPU 0 instructions: 36000001 cycles: 20185636 heartbeat IPC: 1.73455 cumulative IPC: 1.77628 (Simulation time: 0 hr 2 min 0 sec) 
Heartbeat CPU 0 instructions: 37000001 cycles: 20765159 heartbeat IPC: 1.72556 cumulative IPC: 1.77435 (Simulation time: 0 hr 2 min 3 sec) 
Heartbeat CPU 0 instructions: 38000000 cycles: 21338967 heartbeat IPC: 1.74274 cumulative IPC: 1.7732 (Simulation time: 0 hr 2 min 6 sec) 
Heartbeat CPU 0 instructions: 39000002 cycles: 21913451 heartbeat IPC: 1.7407 cumulative IPC: 1.77206 (Simulation time: 0 hr 2 min 9 sec) 
Heartbeat CPU 0 instructions: 40000001 cycles: 22487783 heartbeat IPC: 1.74115 cumulative IPC: 1.77101 (Simulation time: 0 hr 2 min 12 sec) 
Heartbeat CPU 0 instructions: 41000003 cycles: 23066710 heartbeat IPC: 1.72734 cumulative IPC: 1.76957 (Simulation time: 0 hr 2 min 15 sec) 
Heartbeat CPU 0 instructions: 42000000 cycles: 23645001 heartbeat IPC: 1.72923 cumulative IPC: 1.76828 (Simulation time: 0 hr 2 min 18 sec) 
Heartbeat CPU 0 instructions: 43000002 cycles: 24219569 heartbeat IPC: 1.74044 cumulative IPC: 1.76742 (Simulation time: 0 hr 2 min 21 sec) 
Heartbeat CPU 0 instructions: 44000000 cycles: 24798380 heartbeat IPC: 1.72768 cumulative IPC: 1.76623 (Simulation time: 0 hr 2 min 24 sec) 
Heartbeat CPU 0 instructions: 45000003 cycles: 25372002 heartbeat IPC: 1.74331 cumulative IPC: 1.76556 (Simulation time: 0 hr 2 min 27 sec) 
Heartbeat CPU 0 instructions: 46000003 cycles: 25929134 heartbeat IPC: 1.79491 cumulative IPC: 1.76636 (Simulation time: 0 hr 2 min 31 sec) 
Heartbeat CPU 0 instructions: 47000003 cycles: 26463228 heartbeat IPC: 1.87233 cumulative IPC: 1.76907 (Simulation time: 0 hr 2 min 35 sec) 
Heartbeat CPU 0 instructions: 48000000 cycles: 27034921 heartbeat IPC: 1.74919 cumulative IPC: 1.76854 (Simulation time: 0 hr 2 min 38 sec) 
Heartbeat CPU 0 instructions: 49000001 cycles: 27610133 heartbeat IPC: 1.73849 cumulative IPC: 1.76776 (Simulation time: 0 hr 2 min 41 sec) 
Heartbeat CPU 0 instructions: 50000000 cycles: 28189360 heartbeat IPC: 1.72644 cumulative IPC: 1.7667 (Simulation time: 0 hr 2 min 45 sec) 
Heartbeat CPU 0 instructions: 51000000 cycles: 28766029 heartbeat IPC: 1.7341 cumulative IPC: 1.76589 (Simulation time: 0 hr 2 min 48 sec) 
Heartbeat CPU 0 instructions: 52000000 cycles: 29341780 heartbeat IPC: 1.73686 cumulative IPC: 1.76519 (Simulation time: 0 hr 2 min 51 sec) 
Heartbeat CPU 0 instructions: 53000002 cycles: 29915590 heartbeat IPC: 1.74274 cumulative IPC: 1.76466 (Simulation time: 0 hr 2 min 54 sec) 
Heartbeat CPU 0 instructions: 54000000 cycles: 30494206 heartbeat IPC: 1.72826 cumulative IPC: 1.76382 (Simulation time: 0 hr 2 min 57 sec) 
Heartbeat CPU 0 instructions: 55000000 cycles: 31065025 heartbeat IPC: 1.75187 cumulative IPC: 1.76355 (Simulation time: 0 hr 3 min 0 sec) 
Heartbeat CPU 0 instructions: 56000002 cycles: 31629803 heartbeat IPC: 1.77061 cumulative IPC: 1.7637 (Simulation time: 0 hr 3 min 3 sec) 
Heartbeat CPU 0 instructions: 57000000 cycles: 32208853 heartbeat IPC: 1.72696 cumulative IPC: 1.7629 (Simulation time: 0 hr 3 min 6 sec) 
Heartbeat CPU 0 instructions: 58000000 cycles: 32782311 heartbeat IPC: 1.74381 cumulative IPC: 1.7625 (Simulation time: 0 hr 3 min 9 sec) 
Heartbeat CPU 0 instructions: 59000000 cycles: 33337151 heartbeat IPC: 1.80232 cumulative IPC: 1.7633 (Simulation time: 0 hr 3 min 12 sec) 
Heartbeat CPU 0 instructions: 60000002 cycles: 33863186 heartbeat IPC: 1.90102 cumulative IPC: 1.76586 (Simulation time: 0 hr 3 min 16 sec) 
Heartbeat CPU 0 instructions: 61000000 cycles: 34421382 heartbeat IPC: 1.79148 cumulative IPC: 1.76635 (Simulation time: 0 hr 3 min 19 sec) 
Heartbeat CPU 0 instructions: 62000003 cycles: 34987071 heartbeat IPC: 1.76776 cumulative IPC: 1.76638 (Simulation time: 0 hr 3 min 22 sec) 
Heartbeat CPU 0 instructions: 63000000 cycles: 35555302 heartbeat IPC: 1.75984 cumulative IPC: 1.76625 (Simulation time: 0 hr 3 min 25 sec) 
Heartbeat CPU 0 instructions: 64000001 cycles: 36097325 heartbeat IPC: 1.84494 cumulative IPC: 1.76765 (Simulation time: 0 hr 3 min 29 sec) 
Heartbeat CPU 0 instructions: 65000000 cycles: 36632469 heartbeat IPC: 1.86865 cumulative IPC: 1.76939 (Simulation time: 0 hr 3 min 33 sec) 
Heartbeat CPU 0 instructions: 66000000 cycles: 37211072 heartbeat IPC: 1.7283 cumulative IPC: 1.76864 (Simulation time: 0 hr 3 min 36 sec) 
Heartbeat CPU 0 instructions: 67000000 cycles: 37781499 heartbeat IPC: 1.75307 cumulative IPC: 1.76836 (Simulation time: 0 hr 3 min 39 sec) 
Heartbeat CPU 0 instructions: 68000002 cycles: 38359967 heartbeat IPC: 1.72871 cumulative IPC: 1.76766 (Simulation time: 0 hr 3 min 42 sec) 
Heartbeat CPU 0 instructions: 69000000 cycles: 38937756 heartbeat IPC: 1.73073 cumulative IPC: 1.76702 (Simulation time: 0 hr 3 min 46 sec) 
Heartbeat CPU 0 instructions: 70000002 cycles: 39511779 heartbeat IPC: 1.74209 cumulative IPC: 1.7666 (Simulation time: 0 hr 3 min 49 sec) 
Heartbeat CPU 0 instructions: 71000000 cycles: 40080415 heartbeat IPC: 1.75859 cumulative IPC: 1.76647 (Simulation time: 0 hr 3 min 52 sec) 
Heartbeat CPU 0 instructions: 72000000 cycles: 40659358 heartbeat IPC: 1.72729 cumulative IPC: 1.76583 (Simulation time: 0 hr 3 min 55 sec) 
Heartbeat CPU 0 instructions: 73000002 cycles: 41236128 heartbeat IPC: 1.7338 cumulative IPC: 1.76531 (Simulation time: 0 hr 3 min 58 sec) 
Heartbeat CPU 0 instructions: 74000001 cycles: 41801292 heartbeat IPC: 1.7694 cumulative IPC: 1.76537 (Simulation time: 0 hr 4 min 2 sec) 
Heartbeat CPU 0 instructions: 75000001 cycles: 42376309 heartbeat IPC: 1.73908 cumulative IPC: 1.76496 (Simulation time: 0 hr 4 min 5 sec) 
Heartbeat CPU 0 instructions: 76000003 cycles: 42953812 heartbeat IPC: 1.7316 cumulative IPC: 1.76445 (Simulation time: 0 hr 4 min 8 sec) 
Heartbeat CPU 0 instructions: 77000000 cycles: 43519096 heartbeat IPC: 1.76902 cumulative IPC: 1.76451 (Simulation time: 0 hr 4 min 11 sec) 
Heartbeat CPU 0 instructions: 78000001 cycles: 44034596 heartbeat IPC: 1.93987 cumulative IPC: 1.76686 (Simulation time: 0 hr 4 min 15 sec) 
Heartbeat CPU 0 instructions: 79000000 cycles: 44530349 heartbeat IPC: 2.01713 cumulative IPC: 1.77005 (Simulation time: 0 hr 4 min 19 sec) 
Heartbeat CPU 0 instructions: 80000000 cycles: 45023778 heartbeat IPC: 2.02663 cumulative IPC: 1.77325 (Simulation time: 0 hr 4 min 24 sec) 
Heartbeat CPU 0 instructions: 81000000 cycles: 45519667 heartbeat IPC: 2.01658 cumulative IPC: 1.77627 (Simulation time: 0 hr 4 min 28 sec) 
Heartbeat CPU 0 instructions: 82000003 cycles: 46079208 heartbeat IPC: 1.78718 cumulative IPC: 1.77642 (Simulation time: 0 hr 4 min 31 sec) 
Heartbeat CPU 0 instructions: 83000000 cycles: 46655468 heartbeat IPC: 1.73532 cumulative IPC: 1.77585 (Simulation time: 0 hr 4 min 34 sec) 
Heartbeat CPU 0 instructions: 84000000 cycles: 47234319 heartbeat IPC: 1.72756 cumulative IPC: 1.77518 (Simulation time: 0 hr 4 min 37 sec) 
Heartbeat CPU 0 instructions: 85000001 cycles: 47806447 heartbeat IPC: 1.74786 cumulative IPC: 1.77481 (Simulation time: 0 hr 4 min 40 sec) 
Heartbeat CPU 0 instructions: 86000003 cycles: 48379681 heartbeat IPC: 1.74449 cumulative IPC: 1.7744 (Simulation time: 0 hr 4 min 44 sec) 
Heartbeat CPU 0 instructions: 87000003 cycles: 48958164 heartbeat IPC: 1.72866 cumulative IPC: 1.77379 (Simulation time: 0 hr 4 min 47 sec) 
Heartbeat CPU 0 instructions: 88000000 cycles: 49536044 heartbeat IPC: 1.73046 cumulative IPC: 1.77322 (Simulation time: 0 hr 4 min 50 sec) 
Heartbeat CPU 0 instructions: 89000001 cycles: 50107206 heartbeat IPC: 1.75082 cumulative IPC: 1.77293 (Simulation time: 0 hr 4 min 53 sec) 
Heartbeat CPU 0 instructions: 90000002 cycles: 50683718 heartbeat IPC: 1.73457 cumulative IPC: 1.77244 (Simulation time: 0 hr 4 min 56 sec) 
Heartbeat CPU 0 instructions: 91000000 cycles: 51260671 heartbeat IPC: 1.73324 cumulative IPC: 1.77195 (Simulation time: 0 hr 4 min 59 sec) 
Heartbeat CPU 0 instructions: 92000002 cycles: 51837980 heartbeat IPC: 1.73218 cumulative IPC: 1.77145 (Simulation time: 0 hr 5 min 2 sec) 
Heartbeat CPU 0 instructions: 93000001 cycles: 52407631 heartbeat IPC: 1.75546 cumulative IPC: 1.77126 (Simulation time: 0 hr 5 min 5 sec) 
Heartbeat CPU 0 instructions: 94000003 cycles: 52953194 heartbeat IPC: 1.83297 cumulative IPC: 1.77197 (Simulation time: 0 hr 5 min 8 sec) 
Heartbeat CPU 0 instructions: 95000003 cycles: 53497253 heartbeat IPC: 1.83804 cumulative IPC: 1.77272 (Simulation time: 0 hr 5 min 12 sec) 
Heartbeat CPU 0 instructions: 96000001 cycles: 54064482 heartbeat IPC: 1.76295 cumulative IPC: 1.7726 (Simulation time: 0 hr 5 min 15 sec) 
Heartbeat CPU 0 instructions: 97000003 cycles: 54629978 heartbeat IPC: 1.76836 cumulative IPC: 1.77256 (Simulation time: 0 hr 5 min 18 sec) 
Heartbeat CPU 0 instructions: 98000000 cycles: 55187142 heartbeat IPC: 1.7948 cumulative IPC: 1.7728 (Simulation time: 0 hr 5 min 21 sec) 
Heartbeat CPU 0 instructions: 99000000 cycles: 55712438 heartbeat IPC: 1.90369 cumulative IPC: 1.77418 (Simulation time: 0 hr 5 min 25 sec) 
Heartbeat CPU 0 instructions: 100000000 cycles: 56267107 heartbeat IPC: 1.80288 cumulative IPC: 1.77449 (Simulation time: 0 hr 5 min 28 sec) 
Heartbeat CPU 0 instructions: 101000001 cycles: 56840025 heartbeat IPC: 1.74545 cumulative IPC: 1.77417 (Simulation time: 0 hr 5 min 31 sec) 
Heartbeat CPU 0 instructions: 102000000 cycles: 57417819 heartbeat IPC: 1.73072 cumulative IPC: 1.77368 (Simulation time: 0 hr 5 min 34 sec) 
Heartbeat CPU 0 instructions: 103000000 cycles: 57982842 heartbeat IPC: 1.76984 cumulative IPC: 1.77364 (Simulation time: 0 hr 5 min 38 sec) 
Heartbeat CPU 0 instructions: 104000001 cycles: 58553628 heartbeat IPC: 1.75197 cumulative IPC: 1.77341 (Simulation time: 0 hr 5 min 41 sec) 
Heartbeat CPU 0 instructions: 105000000 cycles: 59131442 heartbeat IPC: 1.73066 cumulative IPC: 1.77295 (Simulation time: 0 hr 5 min 44 sec) 
Heartbeat CPU 0 instructions: 106000001 cycles: 59705408 heartbeat IPC: 1.74227 cumulative IPC: 1.77262 (Simulation time: 0 hr 5 min 47 sec) 
Heartbeat CPU 0 instructions: 107000000 cycles: 60280573 heartbeat IPC: 1.73863 cumulative IPC: 1.77226 (Simulation time: 0 hr 5 min 50 sec) 
Heartbeat CPU 0 instructions: 108000002 cycles: 60857159 heartbeat IPC: 1.73435 cumulative IPC: 1.77187 (Simulation time: 0 hr 5 min 53 sec) 
Heartbeat CPU 0 instructions: 109000001 cycles: 61434688 heartbeat IPC: 1.73151 cumulative IPC: 1.77145 (Simulation time: 0 hr 5 min 56 sec) 
Heartbeat CPU 0 instructions: 110000000 cycles: 62008965 heartbeat IPC: 1.74132 cumulative IPC: 1.77114 (Simulation time: 0 hr 5 min 59 sec) 
Heartbeat CPU 0 instructions: 111000001 cycles: 62581699 heartbeat IPC: 1.74601 cumulative IPC: 1.77089 (Simulation time: 0 hr 6 min 2 sec) 
Heartbeat CPU 0 instructions: 112000001 cycles: 63112690 heartbeat IPC: 1.88327 cumulative IPC: 1.77193 (Simulation time: 0 hr 6 min 6 sec) 
Heartbeat CPU 0 instructions: 113000003 cycles: 63670373 heartbeat IPC: 1.79314 cumulative IPC: 1.77213 (Simulation time: 0 hr 6 min 10 sec) 
Heartbeat CPU 0 instructions: 114000000 cycles: 64245154 heartbeat IPC: 1.73979 cumulative IPC: 1.77182 (Simulation time: 0 hr 6 min 13 sec) 
Heartbeat CPU 0 instructions: 115000000 cycles: 64822484 heartbeat IPC: 1.73211 cumulative IPC: 1.77143 (Simulation time: 0 hr 6 min 16 sec) 
Heartbeat CPU 0 instructions: 116000000 cycles: 65395052 heartbeat IPC: 1.74652 cumulative IPC: 1.77119 (Simulation time: 0 hr 6 min 19 sec) 
Heartbeat CPU 0 instructions: 117000000 cycles: 65972639 heartbeat IPC: 1.73134 cumulative IPC: 1.77081 (Simulation time: 0 hr 6 min 23 sec) 
Heartbeat CPU 0 instructions: 118000003 cycles: 66550824 heartbeat IPC: 1.72956 cumulative IPC: 1.77042 (Simulation time: 0 hr 6 min 26 sec) 
Heartbeat CPU 0 instructions: 119000000 cycles: 67123984 heartbeat IPC: 1.74471 cumulative IPC: 1.77018 (Simulation time: 0 hr 6 min 29 sec) 
Heartbeat CPU 0 instructions: 120000002 cycles: 67699468 heartbeat IPC: 1.73767 cumulative IPC: 1.76988 (Simulation time: 0 hr 6 min 32 sec) 
Heartbeat CPU 0 instructions: 121000000 cycles: 68270283 heartbeat IPC: 1.75188 cumulative IPC: 1.76971 (Simulation time: 0 hr 6 min 35 sec) 
Heartbeat CPU 0 instructions: 122000001 cycles: 68847875 heartbeat IPC: 1.73133 cumulative IPC: 1.76936 (Simulation time: 0 hr 6 min 38 sec) 
Heartbeat CPU 0 instructions: 123000002 cycles: 69425313 heartbeat IPC: 1.73179 cumulative IPC: 1.76902 (Simulation time: 0 hr 6 min 41 sec) 
Heartbeat CPU 0 instructions: 124000000 cycles: 69987004 heartbeat IPC: 1.78033 cumulative IPC: 1.76912 (Simulation time: 0 hr 6 min 44 sec) 
Heartbeat CPU 0 instructions: 125000000 cycles: 70547463 heartbeat IPC: 1.78425 cumulative IPC: 1.76925 (Simulation time: 0 hr 6 min 47 sec) 
Heartbeat CPU 0 instructions: 126000000 cycles: 71045545 heartbeat IPC: 2.0077 cumulative IPC: 1.77107 (Simulation time: 0 hr 6 min 51 sec) 
Heartbeat CPU 0 instructions: 127000001 cycles: 71541537 heartbeat IPC: 2.01616 cumulative IPC: 1.77291 (Simulation time: 0 hr 6 min 56 sec) 
Heartbeat CPU 0 instructions: 128000002 cycles: 72047742 heartbeat IPC: 1.97549 cumulative IPC: 1.77445 (Simulation time: 0 hr 6 min 59 sec) 
Heartbeat CPU 0 instructions: 129000003 cycles: 72626107 heartbeat IPC: 1.72901 cumulative IPC: 1.77406 (Simulation time: 0 hr 7 min 3 sec) 
Heartbeat CPU 0 instructions: 130000003 cycles: 73187586 heartbeat IPC: 1.78101 cumulative IPC: 1.77412 (Simulation time: 0 hr 7 min 6 sec) 
Heartbeat CPU 0 instructions: 131000002 cycles: 73764717 heartbeat IPC: 1.73271 cumulative IPC: 1.77377 (Simulation time: 0 hr 7 min 9 sec) 
Heartbeat CPU 0 instructions: 132000000 cycles: 74338512 heartbeat IPC: 1.74278 cumulative IPC: 1.77351 (Simulation time: 0 hr 7 min 12 sec) 
Heartbeat CPU 0 instructions: 133000003 cycles: 74916163 heartbeat IPC: 1.73115 cumulative IPC: 1.77316 (Simulation time: 0 hr 7 min 15 sec) 
Heartbeat CPU 0 instructions: 134000002 cycles: 75479122 heartbeat IPC: 1.77633 cumulative IPC: 1.77318 (Simulation time: 0 hr 7 min 18 sec) 
Heartbeat CPU 0 instructions: 135000001 cycles: 76056190 heartbeat IPC: 1.7329 cumulative IPC: 1.77285 (Simulation time: 0 hr 7 min 21 sec) 
Heartbeat CPU 0 instructions: 136000003 cycles: 76629846 heartbeat IPC: 1.74321 cumulative IPC: 1.77261 (Simulation time: 0 hr 7 min 25 sec) 
Heartbeat CPU 0 instructions: 137000000 cycles: 77207978 heartbeat IPC: 1.7297 cumulative IPC: 1.77227 (Simulation time: 0 hr 7 min 28 sec) 
Heartbeat CPU 0 instructions: 138000002 cycles: 77777046 heartbeat IPC: 1.75726 cumulative IPC: 1.77215 (Simulation time: 0 hr 7 min 31 sec) 
Heartbeat CPU 0 instructions: 139000000 cycles: 78355062 heartbeat IPC: 1.73005 cumulative IPC: 1.77181 (Simulation time: 0 hr 7 min 34 sec) 
Heartbeat CPU 0 instructions: 140000000 cycles: 78922935 heartbeat IPC: 1.76096 cumulative IPC: 1.77173 (Simulation time: 0 hr 7 min 37 sec) 
Heartbeat CPU 0 instructions: 141000003 cycles: 79484161 heartbeat IPC: 1.78182 cumulative IPC: 1.77181 (Simulation time: 0 hr 7 min 41 sec) 
Heartbeat CPU 0 instructions: 142000001 cycles: 79981429 heartbeat IPC: 2.01098 cumulative IPC: 1.7734 (Simulation time: 0 hr 7 min 45 sec) 
Heartbeat CPU 0 instructions: 143000000 cycles: 80478866 heartbeat IPC: 2.0103 cumulative IPC: 1.77498 (Simulation time: 0 hr 7 min 49 sec) 
Heartbeat CPU 0 instructions: 144000000 cycles: 80979370 heartbeat IPC: 1.99799 cumulative IPC: 1.77646 (Simulation time: 0 hr 7 min 53 sec) 
Heartbeat CPU 0 instructions: 145000003 cycles: 81552294 heartbeat IPC: 1.74544 cumulative IPC: 1.77622 (Simulation time: 0 hr 7 min 56 sec) 
Heartbeat CPU 0 instructions: 146000003 cycles: 82128793 heartbeat IPC: 1.73461 cumulative IPC: 1.77591 (Simulation time: 0 hr 7 min 59 sec) 
Heartbeat CPU 0 instructions: 147000001 cycles: 82706426 heartbeat IPC: 1.7312 cumulative IPC: 1.77557 (Simulation time: 0 hr 8 min 2 sec) 
Heartbeat CPU 0 instructions: 148000001 cycles: 83273611 heartbeat IPC: 1.76309 cumulative IPC: 1.77548 (Simulation time: 0 hr 8 min 5 sec) 
Heartbeat CPU 0 instructions: 149000000 cycles: 83848137 heartbeat IPC: 1.74056 cumulative IPC: 1.77523 (Simulation time: 0 hr 8 min 8 sec) 
Heartbeat CPU 0 instructions: 150000000 cycles: 84426216 heartbeat IPC: 1.72987 cumulative IPC: 1.77489 (Simulation time: 0 hr 8 min 12 sec) 
Heartbeat CPU 0 instructions: 151000003 cycles: 85003570 heartbeat IPC: 1.73204 cumulative IPC: 1.77458 (Simulation time: 0 hr 8 min 14 sec) 
Heartbeat CPU 0 instructions: 152000000 cycles: 85564410 heartbeat IPC: 1.78303 cumulative IPC: 1.77464 (Simulation time: 0 hr 8 min 18 sec) 
Heartbeat CPU 0 instructions: 153000003 cycles: 86142755 heartbeat IPC: 1.72908 cumulative IPC: 1.77432 (Simulation time: 0 hr 8 min 21 sec) 
Heartbeat CPU 0 instructions: 154000000 cycles: 86719355 heartbeat IPC: 1.7343 cumulative IPC: 1.77403 (Simulation time: 0 hr 8 min 24 sec) 
Heartbeat CPU 0 instructions: 155000001 cycles: 87296590 heartbeat IPC: 1.7324 cumulative IPC: 1.77374 (Simulation time: 0 hr 8 min 27 sec) 
Heartbeat CPU 0 instructions: 156000001 cycles: 87852896 heartbeat IPC: 1.79757 cumulative IPC: 1.7739 (Simulation time: 0 hr 8 min 30 sec) 
Heartbeat CPU 0 instructions: 157000000 cycles: 88414210 heartbeat IPC: 1.78153 cumulative IPC: 1.77395 (Simulation time: 0 hr 8 min 33 sec) 
Heartbeat CPU 0 instructions: 158000001 cycles: 88914358 heartbeat IPC: 1.99941 cumulative IPC: 1.7753 (Simulation time: 0 hr 8 min 37 sec) 
Heartbeat CPU 0 instructions: 159000003 cycles: 89414301 heartbeat IPC: 2.00023 cumulative IPC: 1.77664 (Simulation time: 0 hr 8 min 41 sec) 
Heartbeat CPU 0 instructions: 160000000 cycles: 89914812 heartbeat IPC: 1.99795 cumulative IPC: 1.77796 (Simulation time: 0 hr 8 min 45 sec) 
Heartbeat CPU 0 instructions: 161000001 cycles: 90435705 heartbeat IPC: 1.91978 cumulative IPC: 1.77883 (Simulation time: 0 hr 8 min 49 sec) 
Heartbeat CPU 0 instructions: 162000000 cycles: 90991590 heartbeat IPC: 1.79893 cumulative IPC: 1.77896 (Simulation time: 0 hr 8 min 52 sec) 
Heartbeat CPU 0 instructions: 163000001 cycles: 91564372 heartbeat IPC: 1.74587 cumulative IPC: 1.77874 (Simulation time: 0 hr 8 min 55 sec) 
Heartbeat CPU 0 instructions: 164000002 cycles: 92142467 heartbeat IPC: 1.72982 cumulative IPC: 1.77841 (Simulation time: 0 hr 8 min 58 sec) 
Heartbeat CPU 0 instructions: 165000000 cycles: 92717124 heartbeat IPC: 1.74016 cumulative IPC: 1.77816 (Simulation time: 0 hr 9 min 1 sec) 
Heartbeat CPU 0 instructions: 166000003 cycles: 93289338 heartbeat IPC: 1.7476 cumulative IPC: 1.77796 (Simulation time: 0 hr 9 min 4 sec) 
Heartbeat CPU 0 instructions: 167000002 cycles: 93867708 heartbeat IPC: 1.729 cumulative IPC: 1.77764 (Simulation time: 0 hr 9 min 7 sec) 
Heartbeat CPU 0 instructions: 168000000 cycles: 94441679 heartbeat IPC: 1.74224 cumulative IPC: 1.77741 (Simulation time: 0 hr 9 min 10 sec) 
Heartbeat CPU 0 instructions: 169000000 cycles: 95015943 heartbeat IPC: 1.74136 cumulative IPC: 1.77718 (Simulation time: 0 hr 9 min 13 sec) 
Heartbeat CPU 0 instructions: 170000003 cycles: 95592894 heartbeat IPC: 1.73325 cumulative IPC: 1.7769 (Simulation time: 0 hr 9 min 17 sec) 
Heartbeat CPU 0 instructions: 171000000 cycles: 96170955 heartbeat IPC: 1.72992 cumulative IPC: 1.7766 (Simulation time: 0 hr 9 min 20 sec) 
Heartbeat CPU 0 instructions: 172000000 cycles: 96745468 heartbeat IPC: 1.7406 cumulative IPC: 1.77637 (Simulation time: 0 hr 9 min 23 sec) 
Heartbeat CPU 0 instructions: 173000001 cycles: 97319121 heartbeat IPC: 1.74322 cumulative IPC: 1.77616 (Simulation time: 0 hr 9 min 26 sec) 
Heartbeat CPU 0 instructions: 174000003 cycles: 97848995 heartbeat IPC: 1.88724 cumulative IPC: 1.7768 (Simulation time: 0 hr 9 min 30 sec) 
Heartbeat CPU 0 instructions: 175000001 cycles: 98405538 heartbeat IPC: 1.7968 cumulative IPC: 1.77692 (Simulation time: 0 hr 9 min 34 sec) 
Heartbeat CPU 0 instructions: 176000000 cycles: 98979825 heartbeat IPC: 1.74129 cumulative IPC: 1.7767 (Simulation time: 0 hr 9 min 37 sec) 
Heartbeat CPU 0 instructions: 177000003 cycles: 99556923 heartbeat IPC: 1.73281 cumulative IPC: 1.77643 (Simulation time: 0 hr 9 min 40 sec) 
Heartbeat CPU 0 instructions: 178000003 cycles: 100128953 heartbeat IPC: 1.74816 cumulative IPC: 1.77626 (Simulation time: 0 hr 9 min 43 sec) 
Heartbeat CPU 0 instructions: 179000003 cycles: 100703316 heartbeat IPC: 1.74106 cumulative IPC: 1.77605 (Simulation time: 0 hr 9 min 46 sec) 
Heartbeat CPU 0 instructions: 180000001 cycles: 101267354 heartbeat IPC: 1.77293 cumulative IPC: 1.77603 (Simulation time: 0 hr 9 min 49 sec) 
Heartbeat CPU 0 instructions: 181000001 cycles: 101790533 heartbeat IPC: 1.91139 cumulative IPC: 1.77677 (Simulation time: 0 hr 9 min 53 sec) 
Heartbeat CPU 0 instructions: 182000003 cycles: 102287092 heartbeat IPC: 2.01386 cumulative IPC: 1.77798 (Simulation time: 0 hr 9 min 57 sec) 
Heartbeat CPU 0 instructions: 183000002 cycles: 102783120 heartbeat IPC: 2.01601 cumulative IPC: 1.7792 (Simulation time: 0 hr 10 min 1 sec) 
Heartbeat CPU 0 instructions: 184000001 cycles: 103283162 heartbeat IPC: 1.99983 cumulative IPC: 1.78033 (Simulation time: 0 hr 10 min 5 sec) 
Heartbeat CPU 0 instructions: 185000000 cycles: 103843309 heartbeat IPC: 1.78524 cumulative IPC: 1.78035 (Simulation time: 0 hr 10 min 9 sec) 
Heartbeat CPU 0 instructions: 186000002 cycles: 104420652 heartbeat IPC: 1.73208 cumulative IPC: 1.78007 (Simulation time: 0 hr 10 min 12 sec) 
Heartbeat CPU 0 instructions: 187000000 cycles: 104998262 heartbeat IPC: 1.73127 cumulative IPC: 1.77979 (Simulation time: 0 hr 10 min 15 sec) 
Heartbeat CPU 0 instructions: 188000000 cycles: 105565432 heartbeat IPC: 1.76314 cumulative IPC: 1.7797 (Simulation time: 0 hr 10 min 18 sec) 
Heartbeat CPU 0 instructions: 189000003 cycles: 106139280 heartbeat IPC: 1.74263 cumulative IPC: 1.77948 (Simulation time: 0 hr 10 min 22 sec) 
Heartbeat CPU 0 instructions: 190000000 cycles: 106701796 heartbeat IPC: 1.77772 cumulative IPC: 1.77947 (Simulation time: 0 hr 10 min 25 sec) 
Heartbeat CPU 0 instructions: 191000002 cycles: 107231974 heartbeat IPC: 1.88616 cumulative IPC: 1.78003 (Simulation time: 0 hr 10 min 29 sec) 
Heartbeat CPU 0 instructions: 192000000 cycles: 107725692 heartbeat IPC: 2.02544 cumulative IPC: 1.78122 (Simulation time: 0 hr 10 min 33 sec) 
Heartbeat CPU 0 instructions: 193000000 cycles: 108221992 heartbeat IPC: 2.01491 cumulative IPC: 1.78235 (Simulation time: 0 hr 10 min 37 sec) 
Heartbeat CPU 0 instructions: 194000001 cycles: 108758141 heartbeat IPC: 1.86515 cumulative IPC: 1.78278 (Simulation time: 0 hr 10 min 41 sec) 
Heartbeat CPU 0 instructions: 195000000 cycles: 109317704 heartbeat IPC: 1.78711 cumulative IPC: 1.7828 (Simulation time: 0 hr 10 min 44 sec) 
Heartbeat CPU 0 instructions: 196000000 cycles: 109890811 heartbeat IPC: 1.74487 cumulative IPC: 1.78259 (Simulation time: 0 hr 10 min 47 sec) 
Heartbeat CPU 0 instructions: 197000002 cycles: 110456822 heartbeat IPC: 1.76675 cumulative IPC: 1.78251 (Simulation time: 0 hr 10 min 51 sec) 
Heartbeat CPU 0 instructions: 198000000 cycles: 111034458 heartbeat IPC: 1.73119 cumulative IPC: 1.78222 (Simulation time: 0 hr 10 min 54 sec) 
Heartbeat CPU 0 instructions: 199000000 cycles: 111610039 heartbeat IPC: 1.73737 cumulative IPC: 1.78198 (Simulation time: 0 hr 10 min 57 sec) 
Heartbeat CPU 0 instructions: 200000000 cycles: 112163224 heartbeat IPC: 1.80771 cumulative IPC: 1.78211 (Simulation time: 0 hr 11 min 0 sec) 
Heartbeat CPU 0 instructions: 201000002 cycles: 112661132 heartbeat IPC: 2.00841 cumulative IPC: 1.78317 (Simulation time: 0 hr 11 min 5 sec) 
Heartbeat CPU 0 instructions: 202000002 cycles: 113157212 heartbeat IPC: 2.0158 cumulative IPC: 1.78424 (Simulation time: 0 hr 11 min 9 sec) 
Heartbeat CPU 0 instructions: 203000001 cycles: 113689200 heartbeat IPC: 1.87974 cumulative IPC: 1.78471 (Simulation time: 0 hr 11 min 12 sec) 
Heartbeat CPU 0 instructions: 204000000 cycles: 114251741 heartbeat IPC: 1.77765 cumulative IPC: 1.78467 (Simulation time: 0 hr 11 min 15 sec) 
Heartbeat CPU 0 instructions: 205000000 cycles: 114822846 heartbeat IPC: 1.75099 cumulative IPC: 1.7845 (Simulation time: 0 hr 11 min 18 sec) 
Heartbeat CPU 0 instructions: 206000002 cycles: 115397733 heartbeat IPC: 1.73948 cumulative IPC: 1.78426 (Simulation time: 0 hr 11 min 22 sec) 
Heartbeat CPU 0 instructions: 207000002 cycles: 115975050 heartbeat IPC: 1.73215 cumulative IPC: 1.78399 (Simulation time: 0 hr 11 min 25 sec) 
Heartbeat CPU 0 instructions: 208000003 cycles: 116546032 heartbeat IPC: 1.75137 cumulative IPC: 1.78382 (Simulation time: 0 hr 11 min 28 sec) 
Heartbeat CPU 0 instructions: 209000000 cycles: 117096861 heartbeat IPC: 1.81544 cumulative IPC: 1.78398 (Simulation time: 0 hr 11 min 31 sec) 
Heartbeat CPU 0 instructions: 210000000 cycles: 117632152 heartbeat IPC: 1.86814 cumulative IPC: 1.78438 (Simulation time: 0 hr 11 min 35 sec) 
Heartbeat CPU 0 instructions: 211000000 cycles: 118210215 heartbeat IPC: 1.72992 cumulative IPC: 1.7841 (Simulation time: 0 hr 11 min 38 sec) 
Heartbeat CPU 0 instructions: 212000002 cycles: 118785582 heartbeat IPC: 1.73802 cumulative IPC: 1.78386 (Simulation time: 0 hr 11 min 41 sec) 
Heartbeat CPU 0 instructions: 213000000 cycles: 119364000 heartbeat IPC: 1.72885 cumulative IPC: 1.78359 (Simulation time: 0 hr 11 min 44 sec) 
Heartbeat CPU 0 instructions: 214000000 cycles: 119941150 heartbeat IPC: 1.73265 cumulative IPC: 1.78333 (Simulation time: 0 hr 11 min 47 sec) 
Heartbeat CPU 0 instructions: 215000001 cycles: 120517885 heartbeat IPC: 1.7339 cumulative IPC: 1.78308 (Simulation time: 0 hr 11 min 51 sec) 
Heartbeat CPU 0 instructions: 216000002 cycles: 121092126 heartbeat IPC: 1.74143 cumulative IPC: 1.78287 (Simulation time: 0 hr 11 min 54 sec) 
Heartbeat CPU 0 instructions: 217000001 cycles: 121666463 heartbeat IPC: 1.74114 cumulative IPC: 1.78267 (Simulation time: 0 hr 11 min 57 sec) 
Heartbeat CPU 0 instructions: 218000000 cycles: 122240936 heartbeat IPC: 1.74072 cumulative IPC: 1.78246 (Simulation time: 0 hr 12 min 0 sec) 
Heartbeat CPU 0 instructions: 219000001 cycles: 122818240 heartbeat IPC: 1.73219 cumulative IPC: 1.78221 (Simulation time: 0 hr 12 min 3 sec) 
Heartbeat CPU 0 instructions: 220000000 cycles: 123392070 heartbeat IPC: 1.74267 cumulative IPC: 1.78202 (Simulation time: 0 hr 12 min 6 sec) 
Heartbeat CPU 0 instructions: 221000000 cycles: 123969852 heartbeat IPC: 1.73076 cumulative IPC: 1.78177 (Simulation time: 0 hr 12 min 9 sec) 
Heartbeat CPU 0 instructions: 222000000 cycles: 124546371 heartbeat IPC: 1.73455 cumulative IPC: 1.78154 (Simulation time: 0 hr 12 min 12 sec) 
Heartbeat CPU 0 instructions: 223000001 cycles: 125122836 heartbeat IPC: 1.73471 cumulative IPC: 1.78132 (Simulation time: 0 hr 12 min 15 sec) 
Heartbeat CPU 0 instructions: 224000002 cycles: 125682633 heartbeat IPC: 1.78636 cumulative IPC: 1.78134 (Simulation time: 0 hr 12 min 18 sec) 
Heartbeat CPU 0 instructions: 225000001 cycles: 126203434 heartbeat IPC: 1.92012 cumulative IPC: 1.78194 (Simulation time: 0 hr 12 min 22 sec) 
Heartbeat CPU 0 instructions: 226000003 cycles: 126760112 heartbeat IPC: 1.79637 cumulative IPC: 1.782 (Simulation time: 0 hr 12 min 25 sec) 
Heartbeat CPU 0 instructions: 227000002 cycles: 127334815 heartbeat IPC: 1.74003 cumulative IPC: 1.78181 (Simulation time: 0 hr 12 min 28 sec) 
Heartbeat CPU 0 instructions: 228000002 cycles: 127906567 heartbeat IPC: 1.74901 cumulative IPC: 1.78165 (Simulation time: 0 hr 12 min 31 sec) 
Heartbeat CPU 0 instructions: 229000001 cycles: 128424234 heartbeat IPC: 1.93174 cumulative IPC: 1.78229 (Simulation time: 0 hr 12 min 35 sec) 
Heartbeat CPU 0 instructions: 230000000 cycles: 128975159 heartbeat IPC: 1.81513 cumulative IPC: 1.78243 (Simulation time: 0 hr 12 min 39 sec) 
Heartbeat CPU 0 instructions: 231000000 cycles: 129538573 heartbeat IPC: 1.77489 cumulative IPC: 1.7824 (Simulation time: 0 hr 12 min 43 sec) 
Heartbeat CPU 0 instructions: 232000000 cycles: 130107082 heartbeat IPC: 1.75899 cumulative IPC: 1.78229 (Simulation time: 0 hr 12 min 46 sec) 
Heartbeat CPU 0 instructions: 233000003 cycles: 130667980 heartbeat IPC: 1.78286 cumulative IPC: 1.78229 (Simulation time: 0 hr 12 min 49 sec) 
Heartbeat CPU 0 instructions: 234000000 cycles: 131215455 heartbeat IPC: 1.82656 cumulative IPC: 1.78249 (Simulation time: 0 hr 12 min 53 sec) 
Heartbeat CPU 0 instructions: 235000002 cycles: 131770047 heartbeat IPC: 1.80313 cumulative IPC: 1.78258 (Simulation time: 0 hr 12 min 56 sec) 
Heartbeat CPU 0 instructions: 236000003 cycles: 132344011 heartbeat IPC: 1.74227 cumulative IPC: 1.78239 (Simulation time: 0 hr 12 min 59 sec) 
Heartbeat CPU 0 instructions: 237000001 cycles: 132902741 heartbeat IPC: 1.78977 cumulative IPC: 1.78243 (Simulation time: 0 hr 13 min 2 sec) 
Heartbeat CPU 0 instructions: 238000001 cycles: 133424677 heartbeat IPC: 1.91594 cumulative IPC: 1.78297 (Simulation time: 0 hr 13 min 6 sec) 
Heartbeat CPU 0 instructions: 239000001 cycles: 133997837 heartbeat IPC: 1.74471 cumulative IPC: 1.7828 (Simulation time: 0 hr 13 min 10 sec) 
Heartbeat CPU 0 instructions: 240000000 cycles: 134574571 heartbeat IPC: 1.7339 cumulative IPC: 1.78258 (Simulation time: 0 hr 13 min 13 sec) 
Heartbeat CPU 0 instructions: 241000003 cycles: 135147310 heartbeat IPC: 1.746 cumulative IPC: 1.78242 (Simulation time: 0 hr 13 min 16 sec) 
Heartbeat CPU 0 instructions: 242000000 cycles: 135720078 heartbeat IPC: 1.7459 cumulative IPC: 1.78226 (Simulation time: 0 hr 13 min 19 sec) 
Heartbeat CPU 0 instructions: 243000002 cycles: 136296889 heartbeat IPC: 1.73367 cumulative IPC: 1.78205 (Simulation time: 0 hr 13 min 22 sec) 
Heartbeat CPU 0 instructions: 244000002 cycles: 136874007 heartbeat IPC: 1.73275 cumulative IPC: 1.78183 (Simulation time: 0 hr 13 min 25 sec) 
Heartbeat CPU 0 instructions: 245000001 cycles: 137445436 heartbeat IPC: 1.75 cumulative IPC: 1.78169 (Simulation time: 0 hr 13 min 28 sec) 
Heartbeat CPU 0 instructions: 246000001 cycles: 138018177 heartbeat IPC: 1.74599 cumulative IPC: 1.78154 (Simulation time: 0 hr 13 min 31 sec) 
Heartbeat CPU 0 instructions: 247000000 cycles: 138595828 heartbeat IPC: 1.73115 cumulative IPC: 1.78132 (Simulation time: 0 hr 13 min 34 sec) 
Heartbeat CPU 0 instructions: 248000001 cycles: 139161447 heartbeat IPC: 1.76798 cumulative IPC: 1.78126 (Simulation time: 0 hr 13 min 37 sec) 
Heartbeat CPU 0 instructions: 249000000 cycles: 139738528 heartbeat IPC: 1.73286 cumulative IPC: 1.78105 (Simulation time: 0 hr 13 min 40 sec) 
Heartbeat CPU 0 instructions: 250000003 cycles: 140314134 heartbeat IPC: 1.7373 cumulative IPC: 1.78087 (Simulation time: 0 hr 13 min 43 sec) 
Heartbeat CPU 0 instructions: 251000003 cycles: 140880287 heartbeat IPC: 1.76631 cumulative IPC: 1.78081 (Simulation time: 0 hr 13 min 47 sec) 
Heartbeat CPU 0 instructions: 252000003 cycles: 141452824 heartbeat IPC: 1.74661 cumulative IPC: 1.78066 (Simulation time: 0 hr 13 min 50 sec) 
Heartbeat CPU 0 instructions: 253000000 cycles: 142029274 heartbeat IPC: 1.73475 cumulative IPC: 1.78047 (Simulation time: 0 hr 13 min 53 sec) 
Heartbeat CPU 0 instructions: 254000000 cycles: 142606591 heartbeat IPC: 1.73215 cumulative IPC: 1.78026 (Simulation time: 0 hr 13 min 56 sec) 
Heartbeat CPU 0 instructions: 255000002 cycles: 143178138 heartbeat IPC: 1.74964 cumulative IPC: 1.78014 (Simulation time: 0 hr 13 min 59 sec) 
Heartbeat CPU 0 instructions: 256000002 cycles: 143750707 heartbeat IPC: 1.74651 cumulative IPC: 1.78 (Simulation time: 0 hr 14 min 2 sec) 
Heartbeat CPU 0 instructions: 257000000 cycles: 144328320 heartbeat IPC: 1.73126 cumulative IPC: 1.7798 (Simulation time: 0 hr 14 min 5 sec) 
Heartbeat CPU 0 instructions: 258000000 cycles: 144900025 heartbeat IPC: 1.74915 cumulative IPC: 1.77967 (Simulation time: 0 hr 14 min 8 sec) 
Heartbeat CPU 0 instructions: 259000000 cycles: 145477254 heartbeat IPC: 1.73241 cumulative IPC: 1.77947 (Simulation time: 0 hr 14 min 12 sec) 
Heartbeat CPU 0 instructions: 260000001 cycles: 146052722 heartbeat IPC: 1.73772 cumulative IPC: 1.7793 (Simulation time: 0 hr 14 min 15 sec) 
Heartbeat CPU 0 instructions: 261000000 cycles: 146611118 heartbeat IPC: 1.79084 cumulative IPC: 1.77935 (Simulation time: 0 hr 14 min 18 sec) 
Heartbeat CPU 0 instructions: 262000000 cycles: 147117522 heartbeat IPC: 1.97471 cumulative IPC: 1.78005 (Simulation time: 0 hr 14 min 23 sec) 
Heartbeat CPU 0 instructions: 263000002 cycles: 147677976 heartbeat IPC: 1.78427 cumulative IPC: 1.78006 (Simulation time: 0 hr 14 min 26 sec) 
Heartbeat CPU 0 instructions: 264000000 cycles: 148254369 heartbeat IPC: 1.73492 cumulative IPC: 1.77988 (Simulation time: 0 hr 14 min 29 sec) 
Heartbeat CPU 0 instructions: 265000003 cycles: 148819032 heartbeat IPC: 1.77097 cumulative IPC: 1.77985 (Simulation time: 0 hr 14 min 32 sec) 
Heartbeat CPU 0 instructions: 266000001 cycles: 149375968 heartbeat IPC: 1.79553 cumulative IPC: 1.77991 (Simulation time: 0 hr 14 min 36 sec) 
Heartbeat CPU 0 instructions: 267000003 cycles: 149930825 heartbeat IPC: 1.80227 cumulative IPC: 1.77999 (Simulation time: 0 hr 14 min 39 sec) 
Heartbeat CPU 0 instructions: 268000000 cycles: 150505972 heartbeat IPC: 1.73868 cumulative IPC: 1.77983 (Simulation time: 0 hr 14 min 42 sec) 
Heartbeat CPU 0 instructions: 269000003 cycles: 151053586 heartbeat IPC: 1.82611 cumulative IPC: 1.78 (Simulation time: 0 hr 14 min 45 sec) 
Heartbeat CPU 0 instructions: 270000001 cycles: 151571678 heartbeat IPC: 1.93016 cumulative IPC: 1.78054 (Simulation time: 0 hr 14 min 49 sec) 
Heartbeat CPU 0 instructions: 271000000 cycles: 152088497 heartbeat IPC: 1.93491 cumulative IPC: 1.78108 (Simulation time: 0 hr 14 min 53 sec) 
Heartbeat CPU 0 instructions: 272000003 cycles: 152638699 heartbeat IPC: 1.81752 cumulative IPC: 1.78122 (Simulation time: 0 hr 14 min 56 sec) 
Heartbeat CPU 0 instructions: 273000000 cycles: 153212325 heartbeat IPC: 1.74329 cumulative IPC: 1.78107 (Simulation time: 0 hr 15 min 0 sec) 
Heartbeat CPU 0 instructions: 274000000 cycles: 153750853 heartbeat IPC: 1.85691 cumulative IPC: 1.78135 (Simulation time: 0 hr 15 min 3 sec) 
Heartbeat CPU 0 instructions: 275000000 cycles: 154311311 heartbeat IPC: 1.78426 cumulative IPC: 1.78136 (Simulation time: 0 hr 15 min 6 sec) 
Heartbeat CPU 0 instructions: 276000002 cycles: 154842751 heartbeat IPC: 1.88168 cumulative IPC: 1.78171 (Simulation time: 0 hr 15 min 10 sec) 
Heartbeat CPU 0 instructions: 277000002 cycles: 155417016 heartbeat IPC: 1.74136 cumulative IPC: 1.78156 (Simulation time: 0 hr 15 min 13 sec) 
Heartbeat CPU 0 instructions: 278000000 cycles: 155991326 heartbeat IPC: 1.74122 cumulative IPC: 1.78141 (Simulation time: 0 hr 15 min 17 sec) 
Heartbeat CPU 0 instructions: 279000000 cycles: 156568937 heartbeat IPC: 1.73127 cumulative IPC: 1.78121 (Simulation time: 0 hr 15 min 20 sec) 
Heartbeat CPU 0 instructions: 280000000 cycles: 157146492 heartbeat IPC: 1.73144 cumulative IPC: 1.78102 (Simulation time: 0 hr 15 min 23 sec) 
Heartbeat CPU 0 instructions: 281000003 cycles: 157723745 heartbeat IPC: 1.73235 cumulative IPC: 1.78084 (Simulation time: 0 hr 15 min 26 sec) 
Heartbeat CPU 0 instructions: 282000002 cycles: 158297319 heartbeat IPC: 1.74345 cumulative IPC: 1.7807 (Simulation time: 0 hr 15 min 29 sec) 
Heartbeat CPU 0 instructions: 283000001 cycles: 158868219 heartbeat IPC: 1.75162 cumulative IPC: 1.78059 (Simulation time: 0 hr 15 min 33 sec) 
Heartbeat CPU 0 instructions: 284000002 cycles: 159445720 heartbeat IPC: 1.7316 cumulative IPC: 1.78041 (Simulation time: 0 hr 15 min 36 sec) 
Heartbeat CPU 0 instructions: 285000000 cycles: 160023886 heartbeat IPC: 1.7296 cumulative IPC: 1.78022 (Simulation time: 0 hr 15 min 39 sec) 
Heartbeat CPU 0 instructions: 286000000 cycles: 160597695 heartbeat IPC: 1.74274 cumulative IPC: 1.78008 (Simulation time: 0 hr 15 min 42 sec) 
Heartbeat CPU 0 instructions: 287000002 cycles: 161175273 heartbeat IPC: 1.73137 cumulative IPC: 1.7799 (Simulation time: 0 hr 15 min 46 sec) 
Heartbeat CPU 0 instructions: 288000003 cycles: 161753109 heartbeat IPC: 1.7306 cumulative IPC: 1.77971 (Simulation time: 0 hr 15 min 49 sec) 
Heartbeat CPU 0 instructions: 289000001 cycles: 162330510 heartbeat IPC: 1.7319 cumulative IPC: 1.77954 (Simulation time: 0 hr 15 min 52 sec) 
Heartbeat CPU 0 instructions: 290000002 cycles: 162901209 heartbeat IPC: 1.75224 cumulative IPC: 1.77944 (Simulation time: 0 hr 15 min 55 sec) 
Heartbeat CPU 0 instructions: 291000001 cycles: 163414634 heartbeat IPC: 1.9477 cumulative IPC: 1.77999 (Simulation time: 0 hr 16 min 0 sec) 
Heartbeat CPU 0 instructions: 292000003 cycles: 163990343 heartbeat IPC: 1.73699 cumulative IPC: 1.77983 (Simulation time: 0 hr 16 min 3 sec) 
Heartbeat CPU 0 instructions: 293000000 cycles: 164561694 heartbeat IPC: 1.75023 cumulative IPC: 1.77972 (Simulation time: 0 hr 16 min 7 sec) 
Heartbeat CPU 0 instructions: 294000001 cycles: 165139783 heartbeat IPC: 1.72984 cumulative IPC: 1.77954 (Simulation time: 0 hr 16 min 10 sec) 
Heartbeat CPU 0 instructions: 295000001 cycles: 165718030 heartbeat IPC: 1.72936 cumulative IPC: 1.77936 (Simulation time: 0 hr 16 min 13 sec) 
Heartbeat CPU 0 instructions: 296000002 cycles: 166295523 heartbeat IPC: 1.73162 cumulative IPC: 1.77919 (Simulation time: 0 hr 16 min 16 sec) 
Heartbeat CPU 0 instructions: 297000000 cycles: 166870353 heartbeat IPC: 1.73964 cumulative IPC: 1.77905 (Simulation time: 0 hr 16 min 20 sec) 
Heartbeat CPU 0 instructions: 298000000 cycles: 167448340 heartbeat IPC: 1.73014 cumulative IPC: 1.77888 (Simulation time: 0 hr 16 min 23 sec) 
Heartbeat CPU 0 instructions: 299000001 cycles: 168022906 heartbeat IPC: 1.74045 cumulative IPC: 1.77874 (Simulation time: 0 hr 16 min 26 sec) 
Heartbeat CPU 0 instructions: 300000002 cycles: 168598133 heartbeat IPC: 1.73845 cumulative IPC: 1.7786 (Simulation time: 0 hr 16 min 29 sec) 
Heartbeat CPU 0 instructions: 301000002 cycles: 169173488 heartbeat IPC: 1.73806 cumulative IPC: 1.77845 (Simulation time: 0 hr 16 min 32 sec) 
Heartbeat CPU 0 instructions: 302000003 cycles: 169728224 heartbeat IPC: 1.80266 cumulative IPC: 1.77854 (Simulation time: 0 hr 16 min 36 sec) 
Heartbeat CPU 0 instructions: 303000000 cycles: 170302150 heartbeat IPC: 1.74238 cumulative IPC: 1.77841 (Simulation time: 0 hr 16 min 39 sec) 
Heartbeat CPU 0 instructions: 304000000 cycles: 170879963 heartbeat IPC: 1.73066 cumulative IPC: 1.77824 (Simulation time: 0 hr 16 min 42 sec) 
Heartbeat CPU 0 instructions: 305000000 cycles: 171452386 heartbeat IPC: 1.74696 cumulative IPC: 1.77814 (Simulation time: 0 hr 16 min 45 sec) 
Heartbeat CPU 0 instructions: 306000001 cycles: 172031315 heartbeat IPC: 1.72733 cumulative IPC: 1.77796 (Simulation time: 0 hr 16 min 49 sec) 
Heartbeat CPU 0 instructions: 307000003 cycles: 172560920 heartbeat IPC: 1.8882 cumulative IPC: 1.77831 (Simulation time: 0 hr 16 min 52 sec) 
Heartbeat CPU 0 instructions: 308000000 cycles: 173135272 heartbeat IPC: 1.74109 cumulative IPC: 1.77818 (Simulation time: 0 hr 16 min 55 sec) 
Heartbeat CPU 0 instructions: 309000001 cycles: 173710719 heartbeat IPC: 1.73778 cumulative IPC: 1.77804 (Simulation time: 0 hr 16 min 59 sec) 
Heartbeat CPU 0 instructions: 310000000 cycles: 174288024 heartbeat IPC: 1.73218 cumulative IPC: 1.77789 (Simulation time: 0 hr 17 min 2 sec) 
Heartbeat CPU 0 instructions: 311000000 cycles: 174847104 heartbeat IPC: 1.78865 cumulative IPC: 1.77792 (Simulation time: 0 hr 17 min 5 sec) 
Heartbeat CPU 0 instructions: 312000001 cycles: 175414733 heartbeat IPC: 1.76172 cumulative IPC: 1.77787 (Simulation time: 0 hr 17 min 9 sec) 
Heartbeat CPU 0 instructions: 313000000 cycles: 175993094 heartbeat IPC: 1.72902 cumulative IPC: 1.7777 (Simulation time: 0 hr 17 min 12 sec) 
Heartbeat CPU 0 instructions: 314000000 cycles: 176567950 heartbeat IPC: 1.73957 cumulative IPC: 1.77757 (Simulation time: 0 hr 17 min 15 sec) 
Heartbeat CPU 0 instructions: 315000003 cycles: 177143359 heartbeat IPC: 1.7379 cumulative IPC: 1.77744 (Simulation time: 0 hr 17 min 18 sec) 
Heartbeat CPU 0 instructions: 316000002 cycles: 177720323 heartbeat IPC: 1.73321 cumulative IPC: 1.77729 (Simulation time: 0 hr 17 min 21 sec) 
Heartbeat CPU 0 instructions: 317000001 cycles: 178299259 heartbeat IPC: 1.7273 cumulative IPC: 1.77712 (Simulation time: 0 hr 17 min 24 sec) 
Heartbeat CPU 0 instructions: 318000003 cycles: 178854664 heartbeat IPC: 1.80049 cumulative IPC: 1.7772 (Simulation time: 0 hr 17 min 27 sec) 
Heartbeat CPU 0 instructions: 319000000 cycles: 179430198 heartbeat IPC: 1.73751 cumulative IPC: 1.77707 (Simulation time: 0 hr 17 min 30 sec) 
Heartbeat CPU 0 instructions: 320000002 cycles: 180008428 heartbeat IPC: 1.72942 cumulative IPC: 1.77691 (Simulation time: 0 hr 17 min 33 sec) 
Heartbeat CPU 0 instructions: 321000001 cycles: 180586280 heartbeat IPC: 1.73055 cumulative IPC: 1.77676 (Simulation time: 0 hr 17 min 36 sec) 
Heartbeat CPU 0 instructions: 322000003 cycles: 181158058 heartbeat IPC: 1.74893 cumulative IPC: 1.77667 (Simulation time: 0 hr 17 min 39 sec) 
Heartbeat CPU 0 instructions: 323000000 cycles: 181736110 heartbeat IPC: 1.72994 cumulative IPC: 1.77651 (Simulation time: 0 hr 17 min 42 sec) 
Heartbeat CPU 0 instructions: 324000000 cycles: 182311512 heartbeat IPC: 1.73792 cumulative IPC: 1.77639 (Simulation time: 0 hr 17 min 45 sec) 
Heartbeat CPU 0 instructions: 325000002 cycles: 182866451 heartbeat IPC: 1.802 cumulative IPC: 1.77647 (Simulation time: 0 hr 17 min 48 sec) 
Heartbeat CPU 0 instructions: 326000001 cycles: 183444325 heartbeat IPC: 1.73048 cumulative IPC: 1.77632 (Simulation time: 0 hr 17 min 51 sec) 
Heartbeat CPU 0 instructions: 327000003 cycles: 184015724 heartbeat IPC: 1.75009 cumulative IPC: 1.77623 (Simulation time: 0 hr 17 min 54 sec) 
Heartbeat CPU 0 instructions: 328000002 cycles: 184591480 heartbeat IPC: 1.73685 cumulative IPC: 1.77611 (Simulation time: 0 hr 17 min 57 sec) 
Heartbeat CPU 0 instructions: 329000001 cycles: 185147090 heartbeat IPC: 1.79982 cumulative IPC: 1.77618 (Simulation time: 0 hr 18 min 1 sec) 
Heartbeat CPU 0 instructions: 330000000 cycles: 185690778 heartbeat IPC: 1.83929 cumulative IPC: 1.77637 (Simulation time: 0 hr 18 min 4 sec) 
Heartbeat CPU 0 instructions: 331000001 cycles: 186269115 heartbeat IPC: 1.7291 cumulative IPC: 1.77622 (Simulation time: 0 hr 18 min 7 sec) 
Heartbeat CPU 0 instructions: 332000001 cycles: 186835480 heartbeat IPC: 1.76565 cumulative IPC: 1.77619 (Simulation time: 0 hr 18 min 10 sec) 
Heartbeat CPU 0 instructions: 333000001 cycles: 187413008 heartbeat IPC: 1.73152 cumulative IPC: 1.77605 (Simulation time: 0 hr 18 min 13 sec) 
Heartbeat CPU 0 instructions: 334000000 cycles: 187986018 heartbeat IPC: 1.74517 cumulative IPC: 1.77595 (Simulation time: 0 hr 18 min 16 sec) 
Heartbeat CPU 0 instructions: 335000001 cycles: 188564647 heartbeat IPC: 1.72822 cumulative IPC: 1.7758 (Simulation time: 0 hr 18 min 19 sec) 
Heartbeat CPU 0 instructions: 336000001 cycles: 189141343 heartbeat IPC: 1.73402 cumulative IPC: 1.77567 (Simulation time: 0 hr 18 min 22 sec) 
Heartbeat CPU 0 instructions: 337000002 cycles: 189705652 heartbeat IPC: 1.77208 cumulative IPC: 1.77566 (Simulation time: 0 hr 18 min 26 sec) 
Heartbeat CPU 0 instructions: 338000001 cycles: 190284937 heartbeat IPC: 1.72626 cumulative IPC: 1.7755 (Simulation time: 0 hr 18 min 29 sec) 
Heartbeat CPU 0 instructions: 339000001 cycles: 190862606 heartbeat IPC: 1.7311 cumulative IPC: 1.77536 (Simulation time: 0 hr 18 min 32 sec) 
Heartbeat CPU 0 instructions: 340000001 cycles: 191434877 heartbeat IPC: 1.74742 cumulative IPC: 1.77528 (Simulation time: 0 hr 18 min 35 sec) 
Heartbeat CPU 0 instructions: 341000000 cycles: 192013455 heartbeat IPC: 1.72837 cumulative IPC: 1.77513 (Simulation time: 0 hr 18 min 38 sec) 
Heartbeat CPU 0 instructions: 342000002 cycles: 192591551 heartbeat IPC: 1.72982 cumulative IPC: 1.77499 (Simulation time: 0 hr 18 min 41 sec) 
Heartbeat CPU 0 instructions: 343000002 cycles: 193157087 heartbeat IPC: 1.76823 cumulative IPC: 1.77497 (Simulation time: 0 hr 18 min 44 sec) 
Heartbeat CPU 0 instructions: 344000001 cycles: 193731374 heartbeat IPC: 1.74129 cumulative IPC: 1.77487 (Simulation time: 0 hr 18 min 47 sec) 
Heartbeat CPU 0 instructions: 345000001 cycles: 194310185 heartbeat IPC: 1.72768 cumulative IPC: 1.77472 (Simulation time: 0 hr 18 min 50 sec) 
Heartbeat CPU 0 instructions: 346000003 cycles: 194885941 heartbeat IPC: 1.73685 cumulative IPC: 1.77461 (Simulation time: 0 hr 18 min 53 sec) 
Heartbeat CPU 0 instructions: 347000001 cycles: 195460754 heartbeat IPC: 1.73969 cumulative IPC: 1.7745 (Simulation time: 0 hr 18 min 56 sec) 
Heartbeat CPU 0 instructions: 348000000 cycles: 196031550 heartbeat IPC: 1.75194 cumulative IPC: 1.77443 (Simulation time: 0 hr 18 min 59 sec) 
Heartbeat CPU 0 instructions: 349000001 cycles: 196610429 heartbeat IPC: 1.72748 cumulative IPC: 1.77429 (Simulation time: 0 hr 19 min 2 sec) 
Heartbeat CPU 0 instructions: 350000001 cycles: 197187962 heartbeat IPC: 1.7315 cumulative IPC: 1.77416 (Simulation time: 0 hr 19 min 5 sec) 
Heartbeat CPU 0 instructions: 351000001 cycles: 197758912 heartbeat IPC: 1.75147 cumulative IPC: 1.7741 (Simulation time: 0 hr 19 min 8 sec) 
Heartbeat CPU 0 instructions: 352000000 cycles: 198333012 heartbeat IPC: 1.74186 cumulative IPC: 1.774 (Simulation time: 0 hr 19 min 11 sec) 
Heartbeat CPU 0 instructions: 353000001 cycles: 198911361 heartbeat IPC: 1.72906 cumulative IPC: 1.77387 (Simulation time: 0 hr 19 min 14 sec) 
Heartbeat CPU 0 instructions: 354000001 cycles: 199485589 heartbeat IPC: 1.74147 cumulative IPC: 1.77377 (Simulation time: 0 hr 19 min 17 sec) 
Heartbeat CPU 0 instructions: 355000001 cycles: 200059383 heartbeat IPC: 1.74279 cumulative IPC: 1.77368 (Simulation time: 0 hr 19 min 20 sec) 
Heartbeat CPU 0 instructions: 356000000 cycles: 200637375 heartbeat IPC: 1.73013 cumulative IPC: 1.77355 (Simulation time: 0 hr 19 min 23 sec) 
Heartbeat CPU 0 instructions: 357000002 cycles: 201206299 heartbeat IPC: 1.75771 cumulative IPC: 1.7735 (Simulation time: 0 hr 19 min 27 sec) 
Heartbeat CPU 0 instructions: 358000001 cycles: 201779552 heartbeat IPC: 1.74443 cumulative IPC: 1.77342 (Simulation time: 0 hr 19 min 30 sec) 
Heartbeat CPU 0 instructions: 359000003 cycles: 202348192 heartbeat IPC: 1.75859 cumulative IPC: 1.77337 (Simulation time: 0 hr 19 min 33 sec) 
Heartbeat CPU 0 instructions: 360000000 cycles: 202924636 heartbeat IPC: 1.73477 cumulative IPC: 1.77326 (Simulation time: 0 hr 19 min 36 sec) 
Heartbeat CPU 0 instructions: 361000002 cycles: 203498014 heartbeat IPC: 1.74405 cumulative IPC: 1.77318 (Simulation time: 0 hr 19 min 39 sec) 
Heartbeat CPU 0 instructions: 362000000 cycles: 204072640 heartbeat IPC: 1.74026 cumulative IPC: 1.77308 (Simulation time: 0 hr 19 min 42 sec) 
Heartbeat CPU 0 instructions: 363000000 cycles: 204643861 heartbeat IPC: 1.75064 cumulative IPC: 1.77302 (Simulation time: 0 hr 19 min 45 sec) 
Heartbeat CPU 0 instructions: 364000000 cycles: 205210339 heartbeat IPC: 1.76529 cumulative IPC: 1.773 (Simulation time: 0 hr 19 min 48 sec) 
Heartbeat CPU 0 instructions: 365000000 cycles: 205786466 heartbeat IPC: 1.73573 cumulative IPC: 1.77289 (Simulation time: 0 hr 19 min 51 sec) 
Heartbeat CPU 0 instructions: 366000001 cycles: 206351548 heartbeat IPC: 1.76966 cumulative IPC: 1.77288 (Simulation time: 0 hr 19 min 54 sec) 
Heartbeat CPU 0 instructions: 367000000 cycles: 206927485 heartbeat IPC: 1.7363 cumulative IPC: 1.77278 (Simulation time: 0 hr 19 min 57 sec) 
Heartbeat CPU 0 instructions: 368000003 cycles: 207487892 heartbeat IPC: 1.78442 cumulative IPC: 1.77281 (Simulation time: 0 hr 20 min 1 sec) 
Heartbeat CPU 0 instructions: 369000003 cycles: 207981730 heartbeat IPC: 2.02496 cumulative IPC: 1.77342 (Simulation time: 0 hr 20 min 5 sec) 
Heartbeat CPU 0 instructions: 370000000 cycles: 208473615 heartbeat IPC: 2.03299 cumulative IPC: 1.77405 (Simulation time: 0 hr 20 min 8 sec) 
Heartbeat CPU 0 instructions: 371000002 cycles: 209033403 heartbeat IPC: 1.78639 cumulative IPC: 1.77409 (Simulation time: 0 hr 20 min 12 sec) 
Heartbeat CPU 0 instructions: 372000000 cycles: 209607978 heartbeat IPC: 1.74041 cumulative IPC: 1.77399 (Simulation time: 0 hr 20 min 15 sec) 
Heartbeat CPU 0 instructions: 373000003 cycles: 210172357 heartbeat IPC: 1.77186 cumulative IPC: 1.77398 (Simulation time: 0 hr 20 min 18 sec) 
Heartbeat CPU 0 instructions: 374000000 cycles: 210749324 heartbeat IPC: 1.7332 cumulative IPC: 1.77387 (Simulation time: 0 hr 20 min 21 sec) 
Heartbeat CPU 0 instructions: 375000002 cycles: 211305822 heartbeat IPC: 1.79696 cumulative IPC: 1.77393 (Simulation time: 0 hr 20 min 25 sec) 
Heartbeat CPU 0 instructions: 376000001 cycles: 211881684 heartbeat IPC: 1.73653 cumulative IPC: 1.77383 (Simulation time: 0 hr 20 min 28 sec) 
Heartbeat CPU 0 instructions: 377000002 cycles: 212440072 heartbeat IPC: 1.79087 cumulative IPC: 1.77387 (Simulation time: 0 hr 20 min 32 sec) 
Heartbeat CPU 0 instructions: 378000000 cycles: 213001732 heartbeat IPC: 1.78043 cumulative IPC: 1.77389 (Simulation time: 0 hr 20 min 35 sec) 
Heartbeat CPU 0 instructions: 379000001 cycles: 213577821 heartbeat IPC: 1.73584 cumulative IPC: 1.77379 (Simulation time: 0 hr 20 min 38 sec) 
Heartbeat CPU 0 instructions: 380000001 cycles: 214149796 heartbeat IPC: 1.74833 cumulative IPC: 1.77372 (Simulation time: 0 hr 20 min 42 sec) 
Heartbeat CPU 0 instructions: 381000000 cycles: 214725965 heartbeat IPC: 1.7356 cumulative IPC: 1.77361 (Simulation time: 0 hr 20 min 45 sec) 
Heartbeat CPU 0 instructions: 382000003 cycles: 215291834 heartbeat IPC: 1.7672 cumulative IPC: 1.77359 (Simulation time: 0 hr 20 min 49 sec) 
Heartbeat CPU 0 instructions: 383000000 cycles: 215868584 heartbeat IPC: 1.73385 cumulative IPC: 1.77349 (Simulation time: 0 hr 20 min 52 sec) 
Heartbeat CPU 0 instructions: 384000000 cycles: 216445314 heartbeat IPC: 1.73391 cumulative IPC: 1.77338 (Simulation time: 0 hr 20 min 55 sec) 
Heartbeat CPU 0 instructions: 385000000 cycles: 217019913 heartbeat IPC: 1.74034 cumulative IPC: 1.77329 (Simulation time: 0 hr 20 min 58 sec) 
Heartbeat CPU 0 instructions: 386000000 cycles: 217578966 heartbeat IPC: 1.78874 cumulative IPC: 1.77333 (Simulation time: 0 hr 21 min 2 sec) 
Heartbeat CPU 0 instructions: 387000000 cycles: 218156538 heartbeat IPC: 1.73139 cumulative IPC: 1.77321 (Simulation time: 0 hr 21 min 5 sec) 
Heartbeat CPU 0 instructions: 388000002 cycles: 218716247 heartbeat IPC: 1.78665 cumulative IPC: 1.77325 (Simulation time: 0 hr 21 min 9 sec) 
Heartbeat CPU 0 instructions: 389000003 cycles: 219292540 heartbeat IPC: 1.73523 cumulative IPC: 1.77315 (Simulation time: 0 hr 21 min 12 sec) 
Heartbeat CPU 0 instructions: 390000002 cycles: 219867150 heartbeat IPC: 1.74031 cumulative IPC: 1.77306 (Simulation time: 0 hr 21 min 15 sec) 
Heartbeat CPU 0 instructions: 391000000 cycles: 220428255 heartbeat IPC: 1.78219 cumulative IPC: 1.77308 (Simulation time: 0 hr 21 min 19 sec) 
Heartbeat CPU 0 instructions: 392000000 cycles: 221007243 heartbeat IPC: 1.72715 cumulative IPC: 1.77296 (Simulation time: 0 hr 21 min 22 sec) 
Heartbeat CPU 0 instructions: 393000000 cycles: 221584583 heartbeat IPC: 1.73208 cumulative IPC: 1.77285 (Simulation time: 0 hr 21 min 25 sec) 
Heartbeat CPU 0 instructions: 394000000 cycles: 222160523 heartbeat IPC: 1.73629 cumulative IPC: 1.77275 (Simulation time: 0 hr 21 min 29 sec) 
Heartbeat CPU 0 instructions: 395000001 cycles: 222735785 heartbeat IPC: 1.73834 cumulative IPC: 1.77266 (Simulation time: 0 hr 21 min 32 sec) 
Heartbeat CPU 0 instructions: 396000000 cycles: 223314168 heartbeat IPC: 1.72896 cumulative IPC: 1.77255 (Simulation time: 0 hr 21 min 35 sec) 
Heartbeat CPU 0 instructions: 397000002 cycles: 223869965 heartbeat IPC: 1.79922 cumulative IPC: 1.77261 (Simulation time: 0 hr 21 min 39 sec) 
Heartbeat CPU 0 instructions: 398000000 cycles: 224447610 heartbeat IPC: 1.73116 cumulative IPC: 1.7725 (Simulation time: 0 hr 21 min 42 sec) 
Heartbeat CPU 0 instructions: 399000000 cycles: 225019386 heartbeat IPC: 1.74894 cumulative IPC: 1.77244 (Simulation time: 0 hr 21 min 45 sec) 
Heartbeat CPU 0 instructions: 400000003 cycles: 225598081 heartbeat IPC: 1.72803 cumulative IPC: 1.77233 (Simulation time: 0 hr 21 min 48 sec) 
Heartbeat CPU 0 instructions: 401000000 cycles: 226176176 heartbeat IPC: 1.72981 cumulative IPC: 1.77221 (Simulation time: 0 hr 21 min 52 sec) 
Heartbeat CPU 0 instructions: 402000001 cycles: 226744380 heartbeat IPC: 1.75993 cumulative IPC: 1.77218 (Simulation time: 0 hr 21 min 55 sec) 
Heartbeat CPU 0 instructions: 403000003 cycles: 227307132 heartbeat IPC: 1.77699 cumulative IPC: 1.7722 (Simulation time: 0 hr 21 min 59 sec) 
Heartbeat CPU 0 instructions: 404000001 cycles: 227885921 heartbeat IPC: 1.72774 cumulative IPC: 1.77208 (Simulation time: 0 hr 22 min 2 sec) 
Heartbeat CPU 0 instructions: 405000001 cycles: 228461172 heartbeat IPC: 1.73837 cumulative IPC: 1.77199 (Simulation time: 0 hr 22 min 5 sec) 
Heartbeat CPU 0 instructions: 406000001 cycles: 229032407 heartbeat IPC: 1.75059 cumulative IPC: 1.77194 (Simulation time: 0 hr 22 min 9 sec) 
Heartbeat CPU 0 instructions: 407000000 cycles: 229596686 heartbeat IPC: 1.77217 cumulative IPC: 1.77194 (Simulation time: 0 hr 22 min 12 sec) 
Heartbeat CPU 0 instructions: 408000003 cycles: 230145373 heartbeat IPC: 1.82254 cumulative IPC: 1.77206 (Simulation time: 0 hr 22 min 16 sec) 
Heartbeat CPU 0 instructions: 409000001 cycles: 230703564 heartbeat IPC: 1.7915 cumulative IPC: 1.77211 (Simulation time: 0 hr 22 min 19 sec) 
Heartbeat CPU 0 instructions: 410000001 cycles: 231261590 heartbeat IPC: 1.79203 cumulative IPC: 1.77216 (Simulation time: 0 hr 22 min 23 sec) 
Heartbeat CPU 0 instructions: 411000001 cycles: 231835971 heartbeat IPC: 1.741 cumulative IPC: 1.77208 (Simulation time: 0 hr 22 min 26 sec) 
Heartbeat CPU 0 instructions: 412000000 cycles: 232411722 heartbeat IPC: 1.73686 cumulative IPC: 1.77199 (Simulation time: 0 hr 22 min 29 sec) 
Heartbeat CPU 0 instructions: 413000000 cycles: 232989658 heartbeat IPC: 1.7303 cumulative IPC: 1.77189 (Simulation time: 0 hr 22 min 32 sec) 
Heartbeat CPU 0 instructions: 414000001 cycles: 233555356 heartbeat IPC: 1.76773 cumulative IPC: 1.77187 (Simulation time: 0 hr 22 min 36 sec) 
Heartbeat CPU 0 instructions: 415000003 cycles: 234127387 heartbeat IPC: 1.74816 cumulative IPC: 1.77182 (Simulation time: 0 hr 22 min 39 sec) 
Heartbeat CPU 0 instructions: 416000003 cycles: 234705704 heartbeat IPC: 1.72916 cumulative IPC: 1.77171 (Simulation time: 0 hr 22 min 42 sec) 
Heartbeat CPU 0 instructions: 417000002 cycles: 235280615 heartbeat IPC: 1.7394 cumulative IPC: 1.77163 (Simulation time: 0 hr 22 min 45 sec) 
Heartbeat CPU 0 instructions: 418000000 cycles: 235854859 heartbeat IPC: 1.74142 cumulative IPC: 1.77155 (Simulation time: 0 hr 22 min 48 sec) 
Heartbeat CPU 0 instructions: 419000001 cycles: 236433186 heartbeat IPC: 1.72913 cumulative IPC: 1.77145 (Simulation time: 0 hr 22 min 51 sec) 
Heartbeat CPU 0 instructions: 420000001 cycles: 237011068 heartbeat IPC: 1.73046 cumulative IPC: 1.77134 (Simulation time: 0 hr 22 min 54 sec) 
Heartbeat CPU 0 instructions: 421000001 cycles: 237569774 heartbeat IPC: 1.78985 cumulative IPC: 1.77139 (Simulation time: 0 hr 22 min 57 sec) 
Heartbeat CPU 0 instructions: 422000000 cycles: 238144809 heartbeat IPC: 1.73902 cumulative IPC: 1.77131 (Simulation time: 0 hr 23 min 0 sec) 
Heartbeat CPU 0 instructions: 423000003 cycles: 238723128 heartbeat IPC: 1.72915 cumulative IPC: 1.7712 (Simulation time: 0 hr 23 min 3 sec) 
Heartbeat CPU 0 instructions: 424000001 cycles: 239298352 heartbeat IPC: 1.73845 cumulative IPC: 1.77112 (Simulation time: 0 hr 23 min 6 sec) 
Heartbeat CPU 0 instructions: 425000001 cycles: 239873043 heartbeat IPC: 1.74007 cumulative IPC: 1.77105 (Simulation time: 0 hr 23 min 9 sec) 
Heartbeat CPU 0 instructions: 426000001 cycles: 240429873 heartbeat IPC: 1.79588 cumulative IPC: 1.77111 (Simulation time: 0 hr 23 min 12 sec) 
Heartbeat CPU 0 instructions: 427000002 cycles: 240985733 heartbeat IPC: 1.79902 cumulative IPC: 1.77117 (Simulation time: 0 hr 23 min 16 sec) 
Heartbeat CPU 0 instructions: 428000002 cycles: 241557818 heartbeat IPC: 1.74799 cumulative IPC: 1.77111 (Simulation time: 0 hr 23 min 19 sec) 
Heartbeat CPU 0 instructions: 429000000 cycles: 242135607 heartbeat IPC: 1.73073 cumulative IPC: 1.77102 (Simulation time: 0 hr 23 min 22 sec) 
Heartbeat CPU 0 instructions: 430000003 cycles: 242656178 heartbeat IPC: 1.92097 cumulative IPC: 1.77135 (Simulation time: 0 hr 23 min 25 sec) 
Heartbeat CPU 0 instructions: 431000001 cycles: 243227467 heartbeat IPC: 1.75042 cumulative IPC: 1.7713 (Simulation time: 0 hr 23 min 29 sec) 
Heartbeat CPU 0 instructions: 432000002 cycles: 243800654 heartbeat IPC: 1.74463 cumulative IPC: 1.77123 (Simulation time: 0 hr 23 min 32 sec) 
Heartbeat CPU 0 instructions: 433000001 cycles: 244379108 heartbeat IPC: 1.72874 cumulative IPC: 1.77113 (Simulation time: 0 hr 23 min 35 sec) 
Heartbeat CPU 0 instructions: 434000001 cycles: 244950599 heartbeat IPC: 1.74981 cumulative IPC: 1.77108 (Simulation time: 0 hr 23 min 38 sec) 
Heartbeat CPU 0 instructions: 435000002 cycles: 245505626 heartbeat IPC: 1.80172 cumulative IPC: 1.77115 (Simulation time: 0 hr 23 min 42 sec) 
Heartbeat CPU 0 instructions: 436000003 cycles: 246080097 heartbeat IPC: 1.74073 cumulative IPC: 1.77108 (Simulation time: 0 hr 23 min 45 sec) 
Heartbeat CPU 0 instructions: 437000001 cycles: 246658250 heartbeat IPC: 1.72964 cumulative IPC: 1.77098 (Simulation time: 0 hr 23 min 48 sec) 
Heartbeat CPU 0 instructions: 438000000 cycles: 247236139 heartbeat IPC: 1.73043 cumulative IPC: 1.77088 (Simulation time: 0 hr 23 min 52 sec) 
Heartbeat CPU 0 instructions: 439000001 cycles: 247808013 heartbeat IPC: 1.74864 cumulative IPC: 1.77083 (Simulation time: 0 hr 23 min 55 sec) 
Heartbeat CPU 0 instructions: 440000000 cycles: 248385518 heartbeat IPC: 1.73159 cumulative IPC: 1.77073 (Simulation time: 0 hr 23 min 58 sec) 
Heartbeat CPU 0 instructions: 441000000 cycles: 248962875 heartbeat IPC: 1.73203 cumulative IPC: 1.77064 (Simulation time: 0 hr 24 min 1 sec) 
Heartbeat CPU 0 instructions: 442000000 cycles: 249535958 heartbeat IPC: 1.74495 cumulative IPC: 1.77058 (Simulation time: 0 hr 24 min 4 sec) 
Heartbeat CPU 0 instructions: 443000001 cycles: 250114463 heartbeat IPC: 1.7286 cumulative IPC: 1.77048 (Simulation time: 0 hr 24 min 8 sec) 
Heartbeat CPU 0 instructions: 444000002 cycles: 250692050 heartbeat IPC: 1.73134 cumulative IPC: 1.77039 (Simulation time: 0 hr 24 min 11 sec) 
Heartbeat CPU 0 instructions: 445000001 cycles: 251265092 heartbeat IPC: 1.74507 cumulative IPC: 1.77033 (Simulation time: 0 hr 24 min 14 sec) 
Heartbeat CPU 0 instructions: 446000003 cycles: 251821436 heartbeat IPC: 1.79745 cumulative IPC: 1.77039 (Simulation time: 0 hr 24 min 17 sec) 
Heartbeat CPU 0 instructions: 447000000 cycles: 252355535 heartbeat IPC: 1.87231 cumulative IPC: 1.77061 (Simulation time: 0 hr 24 min 21 sec) 
Heartbeat CPU 0 instructions: 448000001 cycles: 252934001 heartbeat IPC: 1.72871 cumulative IPC: 1.77051 (Simulation time: 0 hr 24 min 25 sec) 
Heartbeat CPU 0 instructions: 449000001 cycles: 253508685 heartbeat IPC: 1.74009 cumulative IPC: 1.77044 (Simulation time: 0 hr 24 min 28 sec) 
Heartbeat CPU 0 instructions: 450000000 cycles: 254086746 heartbeat IPC: 1.72992 cumulative IPC: 1.77035 (Simulation time: 0 hr 24 min 31 sec) 
Heartbeat CPU 0 instructions: 451000000 cycles: 254664328 heartbeat IPC: 1.73136 cumulative IPC: 1.77026 (Simulation time: 0 hr 24 min 34 sec) 
Heartbeat CPU 0 instructions: 452000003 cycles: 255241404 heartbeat IPC: 1.73288 cumulative IPC: 1.77017 (Simulation time: 0 hr 24 min 37 sec) 
Heartbeat CPU 0 instructions: 453000001 cycles: 255815326 heartbeat IPC: 1.74239 cumulative IPC: 1.77011 (Simulation time: 0 hr 24 min 40 sec) 
Heartbeat CPU 0 instructions: 454000001 cycles: 256393205 heartbeat IPC: 1.73047 cumulative IPC: 1.77002 (Simulation time: 0 hr 24 min 43 sec) 
Heartbeat CPU 0 instructions: 455000002 cycles: 256970296 heartbeat IPC: 1.73283 cumulative IPC: 1.76993 (Simulation time: 0 hr 24 min 46 sec) 
Heartbeat CPU 0 instructions: 456000001 cycles: 257546957 heartbeat IPC: 1.73412 cumulative IPC: 1.76985 (Simulation time: 0 hr 24 min 49 sec) 
Heartbeat CPU 0 instructions: 457000003 cycles: 258118017 heartbeat IPC: 1.75113 cumulative IPC: 1.76981 (Simulation time: 0 hr 24 min 52 sec) 
Heartbeat CPU 0 instructions: 458000001 cycles: 258696670 heartbeat IPC: 1.72815 cumulative IPC: 1.76971 (Simulation time: 0 hr 24 min 55 sec) 
Heartbeat CPU 0 instructions: 459000003 cycles: 259274625 heartbeat IPC: 1.73024 cumulative IPC: 1.76962 (Simulation time: 0 hr 24 min 58 sec) 
Heartbeat CPU 0 instructions: 460000000 cycles: 259846649 heartbeat IPC: 1.74817 cumulative IPC: 1.76957 (Simulation time: 0 hr 25 min 2 sec) 
Heartbeat CPU 0 instructions: 461000002 cycles: 260424519 heartbeat IPC: 1.7305 cumulative IPC: 1.76949 (Simulation time: 0 hr 25 min 5 sec) 
Heartbeat CPU 0 instructions: 462000000 cycles: 260999578 heartbeat IPC: 1.73895 cumulative IPC: 1.76942 (Simulation time: 0 hr 25 min 8 sec) 
Heartbeat CPU 0 instructions: 463000001 cycles: 261573616 heartbeat IPC: 1.74205 cumulative IPC: 1.76936 (Simulation time: 0 hr 25 min 11 sec) 
Heartbeat CPU 0 instructions: 464000001 cycles: 262147223 heartbeat IPC: 1.74335 cumulative IPC: 1.7693 (Simulation time: 0 hr 25 min 14 sec) 
Heartbeat CPU 0 instructions: 465000003 cycles: 262715168 heartbeat IPC: 1.76074 cumulative IPC: 1.76928 (Simulation time: 0 hr 25 min 17 sec) 
Heartbeat CPU 0 instructions: 466000000 cycles: 263289734 heartbeat IPC: 1.74044 cumulative IPC: 1.76921 (Simulation time: 0 hr 25 min 20 sec) 
Heartbeat CPU 0 instructions: 467000001 cycles: 263864317 heartbeat IPC: 1.74039 cumulative IPC: 1.76915 (Simulation time: 0 hr 25 min 23 sec) 
Heartbeat CPU 0 instructions: 468000003 cycles: 264441542 heartbeat IPC: 1.73243 cumulative IPC: 1.76907 (Simulation time: 0 hr 25 min 26 sec) 
Heartbeat CPU 0 instructions: 469000000 cycles: 265013215 heartbeat IPC: 1.74925 cumulative IPC: 1.76903 (Simulation time: 0 hr 25 min 29 sec) 
Heartbeat CPU 0 instructions: 470000003 cycles: 265592238 heartbeat IPC: 1.72705 cumulative IPC: 1.76893 (Simulation time: 0 hr 25 min 32 sec) 
Heartbeat CPU 0 instructions: 471000000 cycles: 266167393 heartbeat IPC: 1.73866 cumulative IPC: 1.76886 (Simulation time: 0 hr 25 min 35 sec) 
Heartbeat CPU 0 instructions: 472000002 cycles: 266742672 heartbeat IPC: 1.73829 cumulative IPC: 1.7688 (Simulation time: 0 hr 25 min 38 sec) 
Heartbeat CPU 0 instructions: 473000000 cycles: 267273528 heartbeat IPC: 1.88375 cumulative IPC: 1.76903 (Simulation time: 0 hr 25 min 42 sec) 
Heartbeat CPU 0 instructions: 474000001 cycles: 267850730 heartbeat IPC: 1.7325 cumulative IPC: 1.76895 (Simulation time: 0 hr 25 min 45 sec) 
Heartbeat CPU 0 instructions: 475000002 cycles: 268353900 heartbeat IPC: 1.9874 cumulative IPC: 1.76937 (Simulation time: 0 hr 25 min 49 sec) 
Heartbeat CPU 0 instructions: 476000001 cycles: 268912521 heartbeat IPC: 1.79012 cumulative IPC: 1.76941 (Simulation time: 0 hr 25 min 52 sec) 
Heartbeat CPU 0 instructions: 477000001 cycles: 269468589 heartbeat IPC: 1.79834 cumulative IPC: 1.76947 (Simulation time: 0 hr 25 min 56 sec) 
Heartbeat CPU 0 instructions: 478000003 cycles: 270029094 heartbeat IPC: 1.78411 cumulative IPC: 1.7695 (Simulation time: 0 hr 25 min 59 sec) 
Heartbeat CPU 0 instructions: 479000002 cycles: 270605311 heartbeat IPC: 1.73546 cumulative IPC: 1.76943 (Simulation time: 0 hr 26 min 2 sec) 
Heartbeat CPU 0 instructions: 480000001 cycles: 271182857 heartbeat IPC: 1.73146 cumulative IPC: 1.76935 (Simulation time: 0 hr 26 min 5 sec) 
Heartbeat CPU 0 instructions: 481000003 cycles: 271752627 heartbeat IPC: 1.7551 cumulative IPC: 1.76932 (Simulation time: 0 hr 26 min 8 sec) 
Heartbeat CPU 0 instructions: 482000002 cycles: 272324561 heartbeat IPC: 1.74845 cumulative IPC: 1.76927 (Simulation time: 0 hr 26 min 12 sec) 
Heartbeat CPU 0 instructions: 483000001 cycles: 272902564 heartbeat IPC: 1.73009 cumulative IPC: 1.76919 (Simulation time: 0 hr 26 min 15 sec) 
Heartbeat CPU 0 instructions: 484000000 cycles: 273476682 heartbeat IPC: 1.7418 cumulative IPC: 1.76913 (Simulation time: 0 hr 26 min 18 sec) 
Heartbeat CPU 0 instructions: 485000001 cycles: 274045370 heartbeat IPC: 1.75844 cumulative IPC: 1.76911 (Simulation time: 0 hr 26 min 21 sec) 
Heartbeat CPU 0 instructions: 486000003 cycles: 274623084 heartbeat IPC: 1.73096 cumulative IPC: 1.76902 (Simulation time: 0 hr 26 min 24 sec) 
Heartbeat CPU 0 instructions: 487000000 cycles: 275197279 heartbeat IPC: 1.74156 cumulative IPC: 1.76897 (Simulation time: 0 hr 26 min 27 sec) 
Heartbeat CPU 0 instructions: 488000001 cycles: 275760541 heartbeat IPC: 1.77537 cumulative IPC: 1.76898 (Simulation time: 0 hr 26 min 31 sec) 
Heartbeat CPU 0 instructions: 489000002 cycles: 276338169 heartbeat IPC: 1.73122 cumulative IPC: 1.7689 (Simulation time: 0 hr 26 min 34 sec) 
Heartbeat CPU 0 instructions: 490000000 cycles: 276913093 heartbeat IPC: 1.73936 cumulative IPC: 1.76884 (Simulation time: 0 hr 26 min 37 sec) 
Heartbeat CPU 0 instructions: 491000000 cycles: 277475602 heartbeat IPC: 1.77775 cumulative IPC: 1.76886 (Simulation time: 0 hr 26 min 40 sec) 
Heartbeat CPU 0 instructions: 492000000 cycles: 278047796 heartbeat IPC: 1.74766 cumulative IPC: 1.76881 (Simulation time: 0 hr 26 min 43 sec) 
Heartbeat CPU 0 instructions: 493000001 cycles: 278623534 heartbeat IPC: 1.7369 cumulative IPC: 1.76874 (Simulation time: 0 hr 26 min 46 sec) 
Heartbeat CPU 0 instructions: 494000001 cycles: 279179488 heartbeat IPC: 1.79871 cumulative IPC: 1.7688 (Simulation time: 0 hr 26 min 50 sec) 
Heartbeat CPU 0 instructions: 495000000 cycles: 279702680 heartbeat IPC: 1.91134 cumulative IPC: 1.76908 (Simulation time: 0 hr 26 min 53 sec) 
Heartbeat CPU 0 instructions: 496000001 cycles: 280259072 heartbeat IPC: 1.7973 cumulative IPC: 1.76913 (Simulation time: 0 hr 26 min 57 sec) 
Heartbeat CPU 0 instructions: 497000002 cycles: 280827192 heartbeat IPC: 1.76019 cumulative IPC: 1.76911 (Simulation time: 0 hr 27 min 0 sec) 
Heartbeat CPU 0 instructions: 498000001 cycles: 281397274 heartbeat IPC: 1.75413 cumulative IPC: 1.76908 (Simulation time: 0 hr 27 min 3 sec) 
Heartbeat CPU 0 instructions: 499000003 cycles: 281974149 heartbeat IPC: 1.73348 cumulative IPC: 1.76901 (Simulation time: 0 hr 27 min 6 sec) 
Heartbeat CPU 0 instructions: 500000001 cycles: 282541062 heartbeat IPC: 1.76394 cumulative IPC: 1.769 (Simulation time: 0 hr 27 min 9 sec) 
Heartbeat CPU 0 instructions: 501000000 cycles: 283114631 heartbeat IPC: 1.74347 cumulative IPC: 1.76895 (Simulation time: 0 hr 27 min 13 sec) 
Heartbeat CPU 0 instructions: 502000002 cycles: 283682262 heartbeat IPC: 1.76171 cumulative IPC: 1.76893 (Simulation time: 0 hr 27 min 16 sec) 
Heartbeat CPU 0 instructions: 503000002 cycles: 284260056 heartbeat IPC: 1.73072 cumulative IPC: 1.76885 (Simulation time: 0 hr 27 min 19 sec) 
Heartbeat CPU 0 instructions: 504000002 cycles: 284836116 heartbeat IPC: 1.73593 cumulative IPC: 1.76878 (Simulation time: 0 hr 27 min 22 sec) 
Heartbeat CPU 0 instructions: 505000000 cycles: 285403058 heartbeat IPC: 1.76385 cumulative IPC: 1.76877 (Simulation time: 0 hr 27 min 25 sec) 
Heartbeat CPU 0 instructions: 506000000 cycles: 285948887 heartbeat IPC: 1.83208 cumulative IPC: 1.7689 (Simulation time: 0 hr 27 min 29 sec) 
Heartbeat CPU 0 instructions: 507000002 cycles: 286511589 heartbeat IPC: 1.77714 cumulative IPC: 1.76891 (Simulation time: 0 hr 27 min 32 sec) 
Heartbeat CPU 0 instructions: 508000001 cycles: 287087149 heartbeat IPC: 1.73744 cumulative IPC: 1.76885 (Simulation time: 0 hr 27 min 35 sec) 
Heartbeat CPU 0 instructions: 509000002 cycles: 287646553 heartbeat IPC: 1.78762 cumulative IPC: 1.76889 (Simulation time: 0 hr 27 min 38 sec) 
Heartbeat CPU 0 instructions: 510000002 cycles: 288223106 heartbeat IPC: 1.73445 cumulative IPC: 1.76882 (Simulation time: 0 hr 27 min 41 sec) 
Finished CPU 0 instructions: 500000000 cycles: 282674812 cumulative IPC: 1.76882 (Simulation time: 0 hr 27 min 41 sec) 

ChampSim completed all CPUs

Region of Interest Statistics

CPU 0 cumulative IPC: 1.76882 instructions: 500000000 cycles: 282674812
L1D TOTAL     ACCESS:  110505393  HIT:  110323521  MISS:     181872
L1D LOAD      ACCESS:   90638477  HIT:   90618079  MISS:      20398
L1D RFO       ACCESS:   19866916  HIT:   19705442  MISS:     161474
L1D PREFETCH  ACCESS:          0  HIT:          0  MISS:          0
L1D WRITEBACK ACCESS:          0  HIT:          0  MISS:          0
L1D PREFETCH  REQUESTED:          0  ISSUED:          0  USEFUL:          0  USELESS:          0  UAC CORRECT:          0
L1D AVERAGE MISS LATENCY: 163.571 cycles
L1I TOTAL     ACCESS:   90003964  HIT:   90003961  MISS:          3
L1I LOAD      ACCESS:   90003964  HIT:   90003961  MISS:          3
L1I RFO       ACCESS:          0  HIT:          0  MISS:          0
L1I PREFETCH  ACCESS:          0  HIT:          0  MISS:          0
L1I WRITEBACK ACCESS:          0  HIT:          0  MISS:          0
L1I PREFETCH  REQUESTED:          0  ISSUED:          0  USEFUL:          0  USELESS:          0  UAC CORRECT:          0
L1I AVERAGE MISS LATENCY: 312.667 cycles
L2C TOTAL     ACCESS:     343332  HIT:     165048  MISS:     178284
L2C LOAD      ACCESS:      20401  HIT:       2777  MISS:      17624
L2C RFO       ACCESS:     161474  HIT:       1222  MISS:     160252
L2C PREFETCH  ACCESS:          0  HIT:          0  MISS:          0
L2C WRITEBACK ACCESS:     161457  HIT:     161049  MISS:        408
L2C PREFETCH  REQUESTED:          0  ISSUED:          0  USEFUL:          0  USELESS:          0  UAC CORRECT:          0
L2C AVERAGE MISS LATENCY: 152.105 cycles
LLC TOTAL     ACCESS:     348396  HIT:     171601  MISS:     176795
LLC LOAD      ACCESS:      17624  HIT:      15218  MISS:       2406
LLC RFO       ACCESS:     160252  HIT:        279  MISS:     159973
LLC PREFETCH  ACCESS:      16239  HIT:       2049  MISS:      14190
LLC WRITEBACK ACCESS:     154281  HIT:     154055  MISS:        226
LLC PREFETCH  REQUESTED:      16273  ISSUED:      16273  USEFUL:      14062  USELESS:         75  UAC CORRECT:       2231
LLC AVERAGE MISS LATENCY: 135.069 cycles
Major fault: 0 Minor fault: 2806
performance stats:
mapping cache size: 16571
divergence: 851

DRAM Statistics
 CHANNEL 0
 RQ ROW_BUFFER_HIT:      74663  ROW_BUFFER_MISS:      13607
 DBUS_CONGESTED:     124500
 WQ ROW_BUFFER_HIT:      63972  ROW_BUFFER_MISS:       1880  FULL:          0

 CHANNEL 1
 RQ ROW_BUFFER_HIT:      74407  ROW_BUFFER_MISS:      13892
 DBUS_CONGESTED:     124500
 WQ ROW_BUFFER_HIT:      64002  ROW_BUFFER_MISS:       1862  FULL:          0

 AVG_CONGESTED_CYCLE: 18

CPU 0 Branch Prediction Accuracy: 99.9191% MPKI: 0.116 Average ROB Occupancy at Mispredict: 94.3674

Branch types
NOT_BRANCH: 428281422 85.6563%
BRANCH_DIRECT_JUMP: 5390258 1.07805%
BRANCH_INDIRECT: 185197 0.0370394%
BRANCH_CONDITIONAL: 64457148 12.8914%
BRANCH_DIRECT_CALL: 842993 0.168599%
BRANCH_INDIRECT_CALL: 0 0%
BRANCH_RETURN: 842992 0.168598%
BRANCH_OTHER: 0 0%


gzip: stdout: Broken pipe
