
*** ChampSim Multicore Out-of-Order Simulator ***

Warmup Instructions: 1000000
Prefetch Warmup Instructions: 10000000
Simulation Instructions: 500000000
Stat Printing Period: 1000000
Number of CPUs: 1
LLC sets: 2048
LLC ways: 16
Off-chip DRAM Size: 32768 MB Channels: 2 Width: 64-bit Data Rate: 1024 MT/s

CPU 0 runs /scratch/cluster/cmolder/ML-DPC/ChampSimTraces/spec06/410.bwaves-s1.trace.gz
Read seed: 1017
Heartbeat CPU 0 instructions: 1000002 cycles: 567978 heartbeat IPC: 1.76064 cumulative IPC: 1.76064 (Simulation time: 0 hr 0 min 17 sec) 

Warmup complete CPU 0 instructions: 1000002 cycles: 567978 (Simulation time: 0 hr 0 min 17 sec) 

Heartbeat CPU 0 instructions: 2000003 cycles: 2165806 heartbeat IPC: 0.62585 cumulative IPC: 0.62585 (Simulation time: 0 hr 0 min 35 sec) 
Heartbeat CPU 0 instructions: 3000001 cycles: 3728867 heartbeat IPC: 0.639769 cumulative IPC: 0.632733 (Simulation time: 0 hr 0 min 53 sec) 
Heartbeat CPU 0 instructions: 4000001 cycles: 5320943 heartbeat IPC: 0.628111 cumulative IPC: 0.631185 (Simulation time: 0 hr 1 min 12 sec) 
Heartbeat CPU 0 instructions: 5000000 cycles: 6951124 heartbeat IPC: 0.613428 cumulative IPC: 0.62665 (Simulation time: 0 hr 1 min 30 sec) 
Heartbeat CPU 0 instructions: 6000001 cycles: 8579428 heartbeat IPC: 0.614137 cumulative IPC: 0.624107 (Simulation time: 0 hr 1 min 45 sec) 
Heartbeat CPU 0 instructions: 7000001 cycles: 10148392 heartbeat IPC: 0.637363 cumulative IPC: 0.626278 (Simulation time: 0 hr 2 min 4 sec) 
Heartbeat CPU 0 instructions: 8000001 cycles: 11768113 heartbeat IPC: 0.61739 cumulative IPC: 0.624992 (Simulation time: 0 hr 2 min 21 sec) 
Heartbeat CPU 0 instructions: 9000001 cycles: 13360158 heartbeat IPC: 0.628123 cumulative IPC: 0.625382 (Simulation time: 0 hr 2 min 40 sec) 
Heartbeat CPU 0 instructions: 10000001 cycles: 15035077 heartbeat IPC: 0.597044 cumulative IPC: 0.622101 (Simulation time: 0 hr 3 min 0 sec) 

Warmup complete CPU 0 instructions: 10000001 cycles: 15035077 (Simulation time: 0 hr 3 min 0 sec) 

Heartbeat CPU 0 instructions: 11000000 cycles: 16152741 heartbeat IPC: 0.894722 cumulative IPC: 0.894722 (Simulation time: 0 hr 3 min 19 sec) 
Heartbeat CPU 0 instructions: 12000001 cycles: 17277462 heartbeat IPC: 0.88911 cumulative IPC: 0.891908 (Simulation time: 0 hr 3 min 35 sec) 
Heartbeat CPU 0 instructions: 13000000 cycles: 18380965 heartbeat IPC: 0.906204 cumulative IPC: 0.896623 (Simulation time: 0 hr 3 min 53 sec) 
Heartbeat CPU 0 instructions: 14000001 cycles: 19431344 heartbeat IPC: 0.952038 cumulative IPC: 0.909863 (Simulation time: 0 hr 4 min 11 sec) 
Heartbeat CPU 0 instructions: 15000001 cycles: 20580357 heartbeat IPC: 0.870312 cumulative IPC: 0.901668 (Simulation time: 0 hr 4 min 27 sec) 
Heartbeat CPU 0 instructions: 16000000 cycles: 21654474 heartbeat IPC: 0.930996 cumulative IPC: 0.906427 (Simulation time: 0 hr 4 min 45 sec) 
Heartbeat CPU 0 instructions: 17000001 cycles: 22752427 heartbeat IPC: 0.910787 cumulative IPC: 0.907047 (Simulation time: 0 hr 5 min 0 sec) 
Heartbeat CPU 0 instructions: 18000000 cycles: 23872296 heartbeat IPC: 0.892961 cumulative IPC: 0.905262 (Simulation time: 0 hr 5 min 18 sec) 
Heartbeat CPU 0 instructions: 19000000 cycles: 25010801 heartbeat IPC: 0.878345 cumulative IPC: 0.90219 (Simulation time: 0 hr 5 min 32 sec) 
Heartbeat CPU 0 instructions: 20000000 cycles: 26191349 heartbeat IPC: 0.847064 cumulative IPC: 0.896357 (Simulation time: 0 hr 5 min 47 sec) 
Heartbeat CPU 0 instructions: 21000002 cycles: 27301111 heartbeat IPC: 0.901096 cumulative IPC: 0.896785 (Simulation time: 0 hr 6 min 5 sec) 
Heartbeat CPU 0 instructions: 22000000 cycles: 28422604 heartbeat IPC: 0.891667 cumulative IPC: 0.896357 (Simulation time: 0 hr 6 min 23 sec) 
Heartbeat CPU 0 instructions: 23000003 cycles: 29533008 heartbeat IPC: 0.900576 cumulative IPC: 0.89668 (Simulation time: 0 hr 6 min 40 sec) 
Heartbeat CPU 0 instructions: 24000003 cycles: 30643161 heartbeat IPC: 0.900777 cumulative IPC: 0.896971 (Simulation time: 0 hr 6 min 57 sec) 
Heartbeat CPU 0 instructions: 25000003 cycles: 31796373 heartbeat IPC: 0.867143 cumulative IPC: 0.894919 (Simulation time: 0 hr 7 min 8 sec) 
Heartbeat CPU 0 instructions: 26000003 cycles: 32925416 heartbeat IPC: 0.885706 cumulative IPC: 0.894338 (Simulation time: 0 hr 7 min 23 sec) 
Heartbeat CPU 0 instructions: 27000002 cycles: 34049536 heartbeat IPC: 0.889584 cumulative IPC: 0.894056 (Simulation time: 0 hr 7 min 38 sec) 
Heartbeat CPU 0 instructions: 28000000 cycles: 35141393 heartbeat IPC: 0.915869 cumulative IPC: 0.895241 (Simulation time: 0 hr 7 min 56 sec) 
Heartbeat CPU 0 instructions: 29000002 cycles: 36269088 heartbeat IPC: 0.886766 cumulative IPC: 0.894791 (Simulation time: 0 hr 8 min 15 sec) 
Heartbeat CPU 0 instructions: 30000000 cycles: 37406866 heartbeat IPC: 0.878904 cumulative IPC: 0.893983 (Simulation time: 0 hr 8 min 32 sec) 
Heartbeat CPU 0 instructions: 31000002 cycles: 38528493 heartbeat IPC: 0.891564 cumulative IPC: 0.893867 (Simulation time: 0 hr 8 min 49 sec) 
Heartbeat CPU 0 instructions: 32000002 cycles: 39674093 heartbeat IPC: 0.872905 cumulative IPC: 0.892893 (Simulation time: 0 hr 9 min 8 sec) 
Heartbeat CPU 0 instructions: 33000000 cycles: 40795101 heartbeat IPC: 0.892053 cumulative IPC: 0.892856 (Simulation time: 0 hr 9 min 26 sec) 
Heartbeat CPU 0 instructions: 34000003 cycles: 41894608 heartbeat IPC: 0.909501 cumulative IPC: 0.893538 (Simulation time: 0 hr 9 min 44 sec) 
Heartbeat CPU 0 instructions: 35000003 cycles: 43034660 heartbeat IPC: 0.877153 cumulative IPC: 0.89287 (Simulation time: 0 hr 10 min 0 sec) 
Heartbeat CPU 0 instructions: 36000002 cycles: 44138526 heartbeat IPC: 0.905906 cumulative IPC: 0.893365 (Simulation time: 0 hr 10 min 16 sec) 
Heartbeat CPU 0 instructions: 37000001 cycles: 45281929 heartbeat IPC: 0.874581 cumulative IPC: 0.892655 (Simulation time: 0 hr 10 min 31 sec) 
Heartbeat CPU 0 instructions: 38000002 cycles: 46401958 heartbeat IPC: 0.892835 cumulative IPC: 0.892661 (Simulation time: 0 hr 10 min 50 sec) 
Heartbeat CPU 0 instructions: 39000000 cycles: 47525930 heartbeat IPC: 0.8897 cumulative IPC: 0.892559 (Simulation time: 0 hr 11 min 8 sec) 
Heartbeat CPU 0 instructions: 40000001 cycles: 48648718 heartbeat IPC: 0.890641 cumulative IPC: 0.892495 (Simulation time: 0 hr 11 min 21 sec) 
Heartbeat CPU 0 instructions: 41000003 cycles: 49743516 heartbeat IPC: 0.913412 cumulative IPC: 0.893155 (Simulation time: 0 hr 11 min 37 sec) 
Heartbeat CPU 0 instructions: 42000001 cycles: 50879573 heartbeat IPC: 0.880236 cumulative IPC: 0.892745 (Simulation time: 0 hr 11 min 55 sec) 
Heartbeat CPU 0 instructions: 43000001 cycles: 52017122 heartbeat IPC: 0.879083 cumulative IPC: 0.892325 (Simulation time: 0 hr 12 min 14 sec) 
Heartbeat CPU 0 instructions: 44000000 cycles: 53137331 heartbeat IPC: 0.89269 cumulative IPC: 0.892336 (Simulation time: 0 hr 12 min 32 sec) 
Heartbeat CPU 0 instructions: 45000001 cycles: 54232838 heartbeat IPC: 0.91282 cumulative IPC: 0.892908 (Simulation time: 0 hr 12 min 48 sec) 
Heartbeat CPU 0 instructions: 46000001 cycles: 55288007 heartbeat IPC: 0.947715 cumulative IPC: 0.894345 (Simulation time: 0 hr 13 min 6 sec) 
Heartbeat CPU 0 instructions: 47000000 cycles: 56416744 heartbeat IPC: 0.885945 cumulative IPC: 0.894116 (Simulation time: 0 hr 13 min 22 sec) 
Heartbeat CPU 0 instructions: 48000002 cycles: 57493622 heartbeat IPC: 0.928612 cumulative IPC: 0.894991 (Simulation time: 0 hr 13 min 41 sec) 
Heartbeat CPU 0 instructions: 49000002 cycles: 58609692 heartbeat IPC: 0.896001 cumulative IPC: 0.895017 (Simulation time: 0 hr 13 min 59 sec) 
Heartbeat CPU 0 instructions: 50000000 cycles: 59744684 heartbeat IPC: 0.881062 cumulative IPC: 0.894662 (Simulation time: 0 hr 14 min 14 sec) 
Heartbeat CPU 0 instructions: 51000001 cycles: 60848483 heartbeat IPC: 0.905963 cumulative IPC: 0.894935 (Simulation time: 0 hr 14 min 29 sec) 
Heartbeat CPU 0 instructions: 52000003 cycles: 61993140 heartbeat IPC: 0.873626 cumulative IPC: 0.894415 (Simulation time: 0 hr 14 min 45 sec) 
Heartbeat CPU 0 instructions: 53000002 cycles: 63117034 heartbeat IPC: 0.889763 cumulative IPC: 0.894306 (Simulation time: 0 hr 14 min 59 sec) 
Heartbeat CPU 0 instructions: 54000000 cycles: 64261045 heartbeat IPC: 0.874116 cumulative IPC: 0.893837 (Simulation time: 0 hr 15 min 15 sec) 
Heartbeat CPU 0 instructions: 55000000 cycles: 65339451 heartbeat IPC: 0.927295 cumulative IPC: 0.894554 (Simulation time: 0 hr 15 min 29 sec) 
Heartbeat CPU 0 instructions: 56000003 cycles: 66424115 heartbeat IPC: 0.921947 cumulative IPC: 0.895133 (Simulation time: 0 hr 15 min 47 sec) 
Heartbeat CPU 0 instructions: 57000000 cycles: 67545591 heartbeat IPC: 0.891679 cumulative IPC: 0.895059 (Simulation time: 0 hr 16 min 2 sec) 
Heartbeat CPU 0 instructions: 58000002 cycles: 68688740 heartbeat IPC: 0.874778 cumulative IPC: 0.894627 (Simulation time: 0 hr 16 min 17 sec) 
Heartbeat CPU 0 instructions: 59000002 cycles: 69822966 heartbeat IPC: 0.881658 cumulative IPC: 0.894358 (Simulation time: 0 hr 16 min 32 sec) 
Heartbeat CPU 0 instructions: 60000000 cycles: 70968965 heartbeat IPC: 0.872599 cumulative IPC: 0.893912 (Simulation time: 0 hr 16 min 48 sec) 
Heartbeat CPU 0 instructions: 61000003 cycles: 72085664 heartbeat IPC: 0.895499 cumulative IPC: 0.893943 (Simulation time: 0 hr 17 min 6 sec) 
Heartbeat CPU 0 instructions: 62000000 cycles: 73236839 heartbeat IPC: 0.868675 cumulative IPC: 0.893444 (Simulation time: 0 hr 17 min 25 sec) 
Heartbeat CPU 0 instructions: 63000003 cycles: 74361368 heartbeat IPC: 0.889264 cumulative IPC: 0.893364 (Simulation time: 0 hr 17 min 44 sec) 
Heartbeat CPU 0 instructions: 64000003 cycles: 75489441 heartbeat IPC: 0.886467 cumulative IPC: 0.893236 (Simulation time: 0 hr 18 min 2 sec) 
Heartbeat CPU 0 instructions: 65000003 cycles: 76603986 heartbeat IPC: 0.897227 cumulative IPC: 0.893308 (Simulation time: 0 hr 18 min 17 sec) 
Heartbeat CPU 0 instructions: 66000000 cycles: 77740449 heartbeat IPC: 0.87992 cumulative IPC: 0.893065 (Simulation time: 0 hr 18 min 34 sec) 
Heartbeat CPU 0 instructions: 67000002 cycles: 78847330 heartbeat IPC: 0.903441 cumulative IPC: 0.893245 (Simulation time: 0 hr 18 min 52 sec) 
Heartbeat CPU 0 instructions: 68000003 cycles: 80004430 heartbeat IPC: 0.86423 cumulative IPC: 0.892729 (Simulation time: 0 hr 19 min 11 sec) 
Heartbeat CPU 0 instructions: 69000003 cycles: 81103966 heartbeat IPC: 0.909475 cumulative IPC: 0.893007 (Simulation time: 0 hr 19 min 28 sec) 
Heartbeat CPU 0 instructions: 70000000 cycles: 82222927 heartbeat IPC: 0.893683 cumulative IPC: 0.893019 (Simulation time: 0 hr 19 min 41 sec) 
Heartbeat CPU 0 instructions: 71000002 cycles: 83342531 heartbeat IPC: 0.893175 cumulative IPC: 0.893021 (Simulation time: 0 hr 19 min 58 sec) 
Heartbeat CPU 0 instructions: 72000003 cycles: 84493427 heartbeat IPC: 0.868889 cumulative IPC: 0.892621 (Simulation time: 0 hr 20 min 8 sec) 
Heartbeat CPU 0 instructions: 73000002 cycles: 85585580 heartbeat IPC: 0.915622 cumulative IPC: 0.892977 (Simulation time: 0 hr 20 min 26 sec) 
Heartbeat CPU 0 instructions: 74000000 cycles: 86734213 heartbeat IPC: 0.870598 cumulative IPC: 0.892619 (Simulation time: 0 hr 20 min 45 sec) 
Heartbeat CPU 0 instructions: 75000000 cycles: 87871365 heartbeat IPC: 0.87939 cumulative IPC: 0.892412 (Simulation time: 0 hr 20 min 59 sec) 
Heartbeat CPU 0 instructions: 76000001 cycles: 88974903 heartbeat IPC: 0.906177 cumulative IPC: 0.892618 (Simulation time: 0 hr 21 min 17 sec) 
Heartbeat CPU 0 instructions: 77000000 cycles: 90111333 heartbeat IPC: 0.879948 cumulative IPC: 0.892426 (Simulation time: 0 hr 21 min 34 sec) 
Heartbeat CPU 0 instructions: 78000003 cycles: 91250456 heartbeat IPC: 0.877871 cumulative IPC: 0.892208 (Simulation time: 0 hr 21 min 52 sec) 
Heartbeat CPU 0 instructions: 79000000 cycles: 92334996 heartbeat IPC: 0.922047 cumulative IPC: 0.892627 (Simulation time: 0 hr 22 min 9 sec) 
Heartbeat CPU 0 instructions: 80000002 cycles: 93496312 heartbeat IPC: 0.861094 cumulative IPC: 0.89216 (Simulation time: 0 hr 22 min 23 sec) 
Heartbeat CPU 0 instructions: 81000001 cycles: 94628980 heartbeat IPC: 0.88287 cumulative IPC: 0.892028 (Simulation time: 0 hr 22 min 38 sec) 
Heartbeat CPU 0 instructions: 82000001 cycles: 95731085 heartbeat IPC: 0.907355 cumulative IPC: 0.892237 (Simulation time: 0 hr 22 min 52 sec) 
Heartbeat CPU 0 instructions: 83000002 cycles: 96882000 heartbeat IPC: 0.868875 cumulative IPC: 0.891909 (Simulation time: 0 hr 23 min 7 sec) 
Heartbeat CPU 0 instructions: 84000000 cycles: 98016112 heartbeat IPC: 0.881745 cumulative IPC: 0.89177 (Simulation time: 0 hr 23 min 22 sec) 
Heartbeat CPU 0 instructions: 85000000 cycles: 99104205 heartbeat IPC: 0.919039 cumulative IPC: 0.892123 (Simulation time: 0 hr 23 min 36 sec) 
Heartbeat CPU 0 instructions: 86000001 cycles: 100232997 heartbeat IPC: 0.885904 cumulative IPC: 0.892041 (Simulation time: 0 hr 23 min 52 sec) 
Heartbeat CPU 0 instructions: 87000000 cycles: 101378818 heartbeat IPC: 0.872736 cumulative IPC: 0.891784 (Simulation time: 0 hr 24 min 6 sec) 
Heartbeat CPU 0 instructions: 88000000 cycles: 102441332 heartbeat IPC: 0.941164 cumulative IPC: 0.892385 (Simulation time: 0 hr 24 min 16 sec) 
Heartbeat CPU 0 instructions: 89000002 cycles: 103427135 heartbeat IPC: 1.0144 cumulative IPC: 0.893745 (Simulation time: 0 hr 24 min 27 sec) 
Heartbeat CPU 0 instructions: 90000002 cycles: 104391134 heartbeat IPC: 1.03735 cumulative IPC: 0.895295 (Simulation time: 0 hr 24 min 39 sec) 
Heartbeat CPU 0 instructions: 91000002 cycles: 105357655 heartbeat IPC: 1.03464 cumulative IPC: 0.896786 (Simulation time: 0 hr 24 min 47 sec) 
Heartbeat CPU 0 instructions: 92000002 cycles: 106323645 heartbeat IPC: 1.03521 cumulative IPC: 0.898251 (Simulation time: 0 hr 24 min 58 sec) 
Heartbeat CPU 0 instructions: 93000000 cycles: 107310923 heartbeat IPC: 1.01288 cumulative IPC: 0.899477 (Simulation time: 0 hr 25 min 6 sec) 
Heartbeat CPU 0 instructions: 94000002 cycles: 108278835 heartbeat IPC: 1.03315 cumulative IPC: 0.900865 (Simulation time: 0 hr 25 min 13 sec) 
Heartbeat CPU 0 instructions: 95000001 cycles: 109320216 heartbeat IPC: 0.960262 cumulative IPC: 0.901521 (Simulation time: 0 hr 25 min 21 sec) 
Heartbeat CPU 0 instructions: 96000003 cycles: 110455486 heartbeat IPC: 0.880849 cumulative IPC: 0.901275 (Simulation time: 0 hr 25 min 30 sec) 
Heartbeat CPU 0 instructions: 97000003 cycles: 111545519 heartbeat IPC: 0.917403 cumulative IPC: 0.901457 (Simulation time: 0 hr 25 min 40 sec) 
Heartbeat CPU 0 instructions: 98000003 cycles: 112535235 heartbeat IPC: 1.01039 cumulative IPC: 0.902563 (Simulation time: 0 hr 25 min 49 sec) 
Heartbeat CPU 0 instructions: 99000000 cycles: 113202596 heartbeat IPC: 1.49843 cumulative IPC: 0.906614 (Simulation time: 0 hr 25 min 59 sec) 
Heartbeat CPU 0 instructions: 100000000 cycles: 114005114 heartbeat IPC: 1.24608 cumulative IPC: 0.909366 (Simulation time: 0 hr 26 min 9 sec) 
Heartbeat CPU 0 instructions: 101000003 cycles: 114861103 heartbeat IPC: 1.16824 cumulative IPC: 0.911586 (Simulation time: 0 hr 26 min 18 sec) 
Heartbeat CPU 0 instructions: 102000003 cycles: 115809023 heartbeat IPC: 1.05494 cumulative IPC: 0.912934 (Simulation time: 0 hr 26 min 29 sec) 
Heartbeat CPU 0 instructions: 103000002 cycles: 116914084 heartbeat IPC: 0.904927 cumulative IPC: 0.912848 (Simulation time: 0 hr 26 min 37 sec) 
Heartbeat CPU 0 instructions: 104000001 cycles: 118042092 heartbeat IPC: 0.886518 cumulative IPC: 0.912559 (Simulation time: 0 hr 26 min 48 sec) 
Heartbeat CPU 0 instructions: 105000001 cycles: 119037141 heartbeat IPC: 1.00498 cumulative IPC: 0.913443 (Simulation time: 0 hr 26 min 57 sec) 
Heartbeat CPU 0 instructions: 106000000 cycles: 120020317 heartbeat IPC: 1.01711 cumulative IPC: 0.914414 (Simulation time: 0 hr 27 min 7 sec) 
Heartbeat CPU 0 instructions: 107000002 cycles: 120882297 heartbeat IPC: 1.16012 cumulative IPC: 0.916415 (Simulation time: 0 hr 27 min 16 sec) 
Heartbeat CPU 0 instructions: 108000000 cycles: 121956618 heartbeat IPC: 0.930819 cumulative IPC: 0.91656 (Simulation time: 0 hr 27 min 27 sec) 
Heartbeat CPU 0 instructions: 109000000 cycles: 123000654 heartbeat IPC: 0.957821 cumulative IPC: 0.916959 (Simulation time: 0 hr 27 min 38 sec) 
Heartbeat CPU 0 instructions: 110000000 cycles: 123971564 heartbeat IPC: 1.02996 cumulative IPC: 0.917966 (Simulation time: 0 hr 27 min 49 sec) 
Heartbeat CPU 0 instructions: 111000002 cycles: 124935933 heartbeat IPC: 1.03695 cumulative IPC: 0.91901 (Simulation time: 0 hr 28 min 1 sec) 
Heartbeat CPU 0 instructions: 112000003 cycles: 125955846 heartbeat IPC: 0.980477 cumulative IPC: 0.919575 (Simulation time: 0 hr 28 min 9 sec) 
Heartbeat CPU 0 instructions: 113000001 cycles: 127023682 heartbeat IPC: 0.936472 cumulative IPC: 0.919736 (Simulation time: 0 hr 28 min 20 sec) 
Heartbeat CPU 0 instructions: 114000002 cycles: 128071203 heartbeat IPC: 0.954636 cumulative IPC: 0.92006 (Simulation time: 0 hr 28 min 32 sec) 
Heartbeat CPU 0 instructions: 115000003 cycles: 129147167 heartbeat IPC: 0.9294 cumulative IPC: 0.920148 (Simulation time: 0 hr 28 min 42 sec) 
Heartbeat CPU 0 instructions: 116000002 cycles: 130208780 heartbeat IPC: 0.941962 cumulative IPC: 0.920349 (Simulation time: 0 hr 28 min 56 sec) 
Heartbeat CPU 0 instructions: 117000003 cycles: 131342853 heartbeat IPC: 0.881778 cumulative IPC: 0.919973 (Simulation time: 0 hr 29 min 9 sec) 
Heartbeat CPU 0 instructions: 118000001 cycles: 132428214 heartbeat IPC: 0.921351 cumulative IPC: 0.919986 (Simulation time: 0 hr 29 min 24 sec) 
Heartbeat CPU 0 instructions: 119000000 cycles: 133559907 heartbeat IPC: 0.883631 cumulative IPC: 0.919639 (Simulation time: 0 hr 29 min 42 sec) 
Heartbeat CPU 0 instructions: 120000001 cycles: 134676898 heartbeat IPC: 0.895263 cumulative IPC: 0.919411 (Simulation time: 0 hr 29 min 58 sec) 
Heartbeat CPU 0 instructions: 121000000 cycles: 135806636 heartbeat IPC: 0.88516 cumulative IPC: 0.919091 (Simulation time: 0 hr 30 min 16 sec) 
Heartbeat CPU 0 instructions: 122000001 cycles: 136929847 heartbeat IPC: 0.890306 cumulative IPC: 0.918825 (Simulation time: 0 hr 30 min 32 sec) 
Heartbeat CPU 0 instructions: 123000002 cycles: 138036397 heartbeat IPC: 0.903711 cumulative IPC: 0.918689 (Simulation time: 0 hr 30 min 44 sec) 
Heartbeat CPU 0 instructions: 124000002 cycles: 139188792 heartbeat IPC: 0.867758 cumulative IPC: 0.918217 (Simulation time: 0 hr 31 min 2 sec) 
Heartbeat CPU 0 instructions: 125000003 cycles: 140312282 heartbeat IPC: 0.890084 cumulative IPC: 0.917964 (Simulation time: 0 hr 31 min 21 sec) 
Heartbeat CPU 0 instructions: 126000000 cycles: 141448757 heartbeat IPC: 0.879911 cumulative IPC: 0.917622 (Simulation time: 0 hr 31 min 39 sec) 
Heartbeat CPU 0 instructions: 127000001 cycles: 142593650 heartbeat IPC: 0.873445 cumulative IPC: 0.917226 (Simulation time: 0 hr 31 min 49 sec) 
Heartbeat CPU 0 instructions: 128000001 cycles: 143739718 heartbeat IPC: 0.872549 cumulative IPC: 0.916828 (Simulation time: 0 hr 31 min 57 sec) 
Heartbeat CPU 0 instructions: 129000001 cycles: 144883439 heartbeat IPC: 0.874339 cumulative IPC: 0.916454 (Simulation time: 0 hr 32 min 4 sec) 
Heartbeat CPU 0 instructions: 130000001 cycles: 145995508 heartbeat IPC: 0.899225 cumulative IPC: 0.916307 (Simulation time: 0 hr 32 min 20 sec) 
Heartbeat CPU 0 instructions: 131000001 cycles: 147131078 heartbeat IPC: 0.880615 cumulative IPC: 0.916 (Simulation time: 0 hr 32 min 39 sec) 
Heartbeat CPU 0 instructions: 132000000 cycles: 148275566 heartbeat IPC: 0.873752 cumulative IPC: 0.915638 (Simulation time: 0 hr 32 min 57 sec) 
Heartbeat CPU 0 instructions: 133000000 cycles: 149413397 heartbeat IPC: 0.878865 cumulative IPC: 0.915326 (Simulation time: 0 hr 33 min 16 sec) 
Heartbeat CPU 0 instructions: 134000003 cycles: 150532819 heartbeat IPC: 0.893321 cumulative IPC: 0.915144 (Simulation time: 0 hr 33 min 35 sec) 
Heartbeat CPU 0 instructions: 135000001 cycles: 151673369 heartbeat IPC: 0.876768 cumulative IPC: 0.914824 (Simulation time: 0 hr 33 min 53 sec) 
Heartbeat CPU 0 instructions: 136000003 cycles: 152817330 heartbeat IPC: 0.874157 cumulative IPC: 0.914486 (Simulation time: 0 hr 34 min 12 sec) 
Heartbeat CPU 0 instructions: 137000002 cycles: 153965317 heartbeat IPC: 0.871089 cumulative IPC: 0.914128 (Simulation time: 0 hr 34 min 28 sec) 
Heartbeat CPU 0 instructions: 138000003 cycles: 155071871 heartbeat IPC: 0.903707 cumulative IPC: 0.914046 (Simulation time: 0 hr 34 min 43 sec) 
Heartbeat CPU 0 instructions: 139000001 cycles: 156229487 heartbeat IPC: 0.863843 cumulative IPC: 0.913634 (Simulation time: 0 hr 35 min 2 sec) 
Heartbeat CPU 0 instructions: 140000001 cycles: 157371614 heartbeat IPC: 0.875559 cumulative IPC: 0.913328 (Simulation time: 0 hr 35 min 21 sec) 
Heartbeat CPU 0 instructions: 141000002 cycles: 158513069 heartbeat IPC: 0.876076 cumulative IPC: 0.913032 (Simulation time: 0 hr 35 min 40 sec) 
Heartbeat CPU 0 instructions: 142000002 cycles: 159658619 heartbeat IPC: 0.872943 cumulative IPC: 0.912714 (Simulation time: 0 hr 35 min 58 sec) 
Heartbeat CPU 0 instructions: 143000000 cycles: 160764397 heartbeat IPC: 0.904339 cumulative IPC: 0.912651 (Simulation time: 0 hr 36 min 17 sec) 
Heartbeat CPU 0 instructions: 144000001 cycles: 161910623 heartbeat IPC: 0.872429 cumulative IPC: 0.912337 (Simulation time: 0 hr 36 min 35 sec) 
Heartbeat CPU 0 instructions: 145000001 cycles: 163048943 heartbeat IPC: 0.878488 cumulative IPC: 0.912077 (Simulation time: 0 hr 36 min 54 sec) 
Heartbeat CPU 0 instructions: 146000002 cycles: 164152989 heartbeat IPC: 0.90576 cumulative IPC: 0.91203 (Simulation time: 0 hr 37 min 8 sec) 
Heartbeat CPU 0 instructions: 147000002 cycles: 165308428 heartbeat IPC: 0.865472 cumulative IPC: 0.911672 (Simulation time: 0 hr 37 min 27 sec) 
Heartbeat CPU 0 instructions: 148000003 cycles: 166422957 heartbeat IPC: 0.897241 cumulative IPC: 0.911566 (Simulation time: 0 hr 37 min 43 sec) 
Heartbeat CPU 0 instructions: 149000000 cycles: 167538471 heartbeat IPC: 0.896445 cumulative IPC: 0.911455 (Simulation time: 0 hr 38 min 2 sec) 
Heartbeat CPU 0 instructions: 150000003 cycles: 168670771 heartbeat IPC: 0.883161 cumulative IPC: 0.911247 (Simulation time: 0 hr 38 min 18 sec) 
Heartbeat CPU 0 instructions: 151000002 cycles: 169816033 heartbeat IPC: 0.873162 cumulative IPC: 0.910965 (Simulation time: 0 hr 38 min 34 sec) 
Heartbeat CPU 0 instructions: 152000001 cycles: 170966354 heartbeat IPC: 0.869322 cumulative IPC: 0.910658 (Simulation time: 0 hr 38 min 51 sec) 
Heartbeat CPU 0 instructions: 153000000 cycles: 172114061 heartbeat IPC: 0.871302 cumulative IPC: 0.91037 (Simulation time: 0 hr 39 min 8 sec) 
Heartbeat CPU 0 instructions: 154000000 cycles: 173260382 heartbeat IPC: 0.872356 cumulative IPC: 0.910095 (Simulation time: 0 hr 39 min 27 sec) 
Heartbeat CPU 0 instructions: 155000003 cycles: 174292461 heartbeat IPC: 0.968921 cumulative IPC: 0.910476 (Simulation time: 0 hr 39 min 43 sec) 
Heartbeat CPU 0 instructions: 156000003 cycles: 175423278 heartbeat IPC: 0.884316 cumulative IPC: 0.910291 (Simulation time: 0 hr 39 min 58 sec) 
Heartbeat CPU 0 instructions: 157000000 cycles: 176564276 heartbeat IPC: 0.876423 cumulative IPC: 0.910052 (Simulation time: 0 hr 40 min 14 sec) 
Heartbeat CPU 0 instructions: 158000001 cycles: 177705111 heartbeat IPC: 0.876552 cumulative IPC: 0.909817 (Simulation time: 0 hr 40 min 33 sec) 
Heartbeat CPU 0 instructions: 159000001 cycles: 178843153 heartbeat IPC: 0.878702 cumulative IPC: 0.909601 (Simulation time: 0 hr 40 min 51 sec) 
Heartbeat CPU 0 instructions: 160000003 cycles: 180001933 heartbeat IPC: 0.862978 cumulative IPC: 0.909274 (Simulation time: 0 hr 41 min 10 sec) 
Heartbeat CPU 0 instructions: 161000002 cycles: 181137401 heartbeat IPC: 0.880693 cumulative IPC: 0.909078 (Simulation time: 0 hr 41 min 29 sec) 
Heartbeat CPU 0 instructions: 162000000 cycles: 182272296 heartbeat IPC: 0.881137 cumulative IPC: 0.908889 (Simulation time: 0 hr 41 min 48 sec) 
Heartbeat CPU 0 instructions: 163000000 cycles: 183373123 heartbeat IPC: 0.908408 cumulative IPC: 0.908885 (Simulation time: 0 hr 42 min 6 sec) 
Heartbeat CPU 0 instructions: 164000002 cycles: 184494384 heartbeat IPC: 0.891855 cumulative IPC: 0.908773 (Simulation time: 0 hr 42 min 25 sec) 
Heartbeat CPU 0 instructions: 165000000 cycles: 185627898 heartbeat IPC: 0.882211 cumulative IPC: 0.908596 (Simulation time: 0 hr 42 min 41 sec) 
Heartbeat CPU 0 instructions: 166000001 cycles: 186751215 heartbeat IPC: 0.890222 cumulative IPC: 0.908476 (Simulation time: 0 hr 43 min 0 sec) 
Heartbeat CPU 0 instructions: 167000002 cycles: 187879899 heartbeat IPC: 0.885988 cumulative IPC: 0.908329 (Simulation time: 0 hr 43 min 14 sec) 
Heartbeat CPU 0 instructions: 168000000 cycles: 189027509 heartbeat IPC: 0.871374 cumulative IPC: 0.908085 (Simulation time: 0 hr 43 min 33 sec) 
Heartbeat CPU 0 instructions: 169000001 cycles: 190157702 heartbeat IPC: 0.884806 cumulative IPC: 0.907935 (Simulation time: 0 hr 43 min 52 sec) 
Heartbeat CPU 0 instructions: 170000002 cycles: 191297398 heartbeat IPC: 0.877428 cumulative IPC: 0.907738 (Simulation time: 0 hr 44 min 10 sec) 
Heartbeat CPU 0 instructions: 171000001 cycles: 192428148 heartbeat IPC: 0.884368 cumulative IPC: 0.907589 (Simulation time: 0 hr 44 min 29 sec) 
Heartbeat CPU 0 instructions: 172000000 cycles: 193575609 heartbeat IPC: 0.871488 cumulative IPC: 0.907357 (Simulation time: 0 hr 44 min 48 sec) 
Heartbeat CPU 0 instructions: 173000000 cycles: 194708205 heartbeat IPC: 0.882927 cumulative IPC: 0.907203 (Simulation time: 0 hr 45 min 6 sec) 
Heartbeat CPU 0 instructions: 174000003 cycles: 195820616 heartbeat IPC: 0.898951 cumulative IPC: 0.907152 (Simulation time: 0 hr 45 min 25 sec) 
Heartbeat CPU 0 instructions: 175000002 cycles: 196963434 heartbeat IPC: 0.875029 cumulative IPC: 0.90695 (Simulation time: 0 hr 45 min 41 sec) 
Heartbeat CPU 0 instructions: 176000000 cycles: 198041904 heartbeat IPC: 0.927238 cumulative IPC: 0.90707 (Simulation time: 0 hr 45 min 55 sec) 
Heartbeat CPU 0 instructions: 177000001 cycles: 199126245 heartbeat IPC: 0.92222 cumulative IPC: 0.907159 (Simulation time: 0 hr 46 min 13 sec) 
Heartbeat CPU 0 instructions: 178000001 cycles: 200281760 heartbeat IPC: 0.865415 cumulative IPC: 0.906899 (Simulation time: 0 hr 46 min 32 sec) 
Heartbeat CPU 0 instructions: 179000001 cycles: 201424369 heartbeat IPC: 0.87519 cumulative IPC: 0.906704 (Simulation time: 0 hr 46 min 49 sec) 
Heartbeat CPU 0 instructions: 180000002 cycles: 202540308 heartbeat IPC: 0.896107 cumulative IPC: 0.906641 (Simulation time: 0 hr 47 min 7 sec) 
Heartbeat CPU 0 instructions: 181000001 cycles: 203679110 heartbeat IPC: 0.878115 cumulative IPC: 0.906469 (Simulation time: 0 hr 47 min 26 sec) 
Heartbeat CPU 0 instructions: 182000002 cycles: 204800229 heartbeat IPC: 0.891967 cumulative IPC: 0.906384 (Simulation time: 0 hr 47 min 44 sec) 
Heartbeat CPU 0 instructions: 183000003 cycles: 205943825 heartbeat IPC: 0.874436 cumulative IPC: 0.906192 (Simulation time: 0 hr 48 min 1 sec) 
Heartbeat CPU 0 instructions: 184000000 cycles: 207076825 heartbeat IPC: 0.88261 cumulative IPC: 0.906053 (Simulation time: 0 hr 48 min 16 sec) 
Heartbeat CPU 0 instructions: 185000002 cycles: 208195488 heartbeat IPC: 0.893926 cumulative IPC: 0.905983 (Simulation time: 0 hr 48 min 34 sec) 
Heartbeat CPU 0 instructions: 186000002 cycles: 209340616 heartbeat IPC: 0.873265 cumulative IPC: 0.90579 (Simulation time: 0 hr 48 min 50 sec) 
Heartbeat CPU 0 instructions: 187000000 cycles: 210476511 heartbeat IPC: 0.880361 cumulative IPC: 0.905642 (Simulation time: 0 hr 49 min 4 sec) 
Heartbeat CPU 0 instructions: 188000000 cycles: 211618908 heartbeat IPC: 0.875352 cumulative IPC: 0.905466 (Simulation time: 0 hr 49 min 20 sec) 
Heartbeat CPU 0 instructions: 189000000 cycles: 212756120 heartbeat IPC: 0.879344 cumulative IPC: 0.905316 (Simulation time: 0 hr 49 min 37 sec) 
Heartbeat CPU 0 instructions: 190000000 cycles: 213891676 heartbeat IPC: 0.880626 cumulative IPC: 0.905175 (Simulation time: 0 hr 49 min 54 sec) 
Heartbeat CPU 0 instructions: 191000000 cycles: 215018725 heartbeat IPC: 0.887273 cumulative IPC: 0.905074 (Simulation time: 0 hr 50 min 10 sec) 
Heartbeat CPU 0 instructions: 192000000 cycles: 216131118 heartbeat IPC: 0.898963 cumulative IPC: 0.90504 (Simulation time: 0 hr 50 min 26 sec) 
Heartbeat CPU 0 instructions: 193000000 cycles: 217206280 heartbeat IPC: 0.930092 cumulative IPC: 0.905173 (Simulation time: 0 hr 50 min 40 sec) 
Heartbeat CPU 0 instructions: 194000001 cycles: 218363463 heartbeat IPC: 0.864168 cumulative IPC: 0.90494 (Simulation time: 0 hr 50 min 56 sec) 
Heartbeat CPU 0 instructions: 195000000 cycles: 219410485 heartbeat IPC: 0.955089 cumulative IPC: 0.905197 (Simulation time: 0 hr 51 min 14 sec) 
Heartbeat CPU 0 instructions: 196000003 cycles: 220566971 heartbeat IPC: 0.864691 cumulative IPC: 0.904969 (Simulation time: 0 hr 51 min 31 sec) 
Heartbeat CPU 0 instructions: 197000003 cycles: 221702667 heartbeat IPC: 0.880517 cumulative IPC: 0.904835 (Simulation time: 0 hr 51 min 50 sec) 
Heartbeat CPU 0 instructions: 198000000 cycles: 222829861 heartbeat IPC: 0.887156 cumulative IPC: 0.904739 (Simulation time: 0 hr 52 min 8 sec) 
Heartbeat CPU 0 instructions: 199000003 cycles: 224016773 heartbeat IPC: 0.842525 cumulative IPC: 0.904385 (Simulation time: 0 hr 52 min 27 sec) 
Heartbeat CPU 0 instructions: 200000002 cycles: 225099824 heartbeat IPC: 0.923317 cumulative IPC: 0.904483 (Simulation time: 0 hr 52 min 46 sec) 
Heartbeat CPU 0 instructions: 201000002 cycles: 226214908 heartbeat IPC: 0.896793 cumulative IPC: 0.904442 (Simulation time: 0 hr 53 min 5 sec) 
Heartbeat CPU 0 instructions: 202000001 cycles: 227333558 heartbeat IPC: 0.893934 cumulative IPC: 0.904387 (Simulation time: 0 hr 53 min 23 sec) 
Heartbeat CPU 0 instructions: 203000003 cycles: 228481286 heartbeat IPC: 0.871288 cumulative IPC: 0.904209 (Simulation time: 0 hr 53 min 42 sec) 
Heartbeat CPU 0 instructions: 204000001 cycles: 229623024 heartbeat IPC: 0.875856 cumulative IPC: 0.904058 (Simulation time: 0 hr 53 min 58 sec) 
Heartbeat CPU 0 instructions: 205000001 cycles: 230758352 heartbeat IPC: 0.880803 cumulative IPC: 0.903936 (Simulation time: 0 hr 54 min 13 sec) 
Heartbeat CPU 0 instructions: 206000000 cycles: 231867277 heartbeat IPC: 0.901773 cumulative IPC: 0.903925 (Simulation time: 0 hr 54 min 31 sec) 
Heartbeat CPU 0 instructions: 207000002 cycles: 232990108 heartbeat IPC: 0.890608 cumulative IPC: 0.903856 (Simulation time: 0 hr 54 min 50 sec) 
Heartbeat CPU 0 instructions: 208000002 cycles: 234116279 heartbeat IPC: 0.887965 cumulative IPC: 0.903774 (Simulation time: 0 hr 55 min 9 sec) 
Heartbeat CPU 0 instructions: 209000000 cycles: 235221928 heartbeat IPC: 0.904444 cumulative IPC: 0.903778 (Simulation time: 0 hr 55 min 27 sec) 
Heartbeat CPU 0 instructions: 210000002 cycles: 236370601 heartbeat IPC: 0.870571 cumulative IPC: 0.903606 (Simulation time: 0 hr 55 min 46 sec) 
Heartbeat CPU 0 instructions: 211000003 cycles: 237512906 heartbeat IPC: 0.875424 cumulative IPC: 0.903461 (Simulation time: 0 hr 56 min 5 sec) 
Heartbeat CPU 0 instructions: 212000001 cycles: 238633201 heartbeat IPC: 0.89262 cumulative IPC: 0.903407 (Simulation time: 0 hr 56 min 23 sec) 
Heartbeat CPU 0 instructions: 213000000 cycles: 239779855 heartbeat IPC: 0.872102 cumulative IPC: 0.903247 (Simulation time: 0 hr 56 min 40 sec) 
Heartbeat CPU 0 instructions: 214000001 cycles: 240895156 heartbeat IPC: 0.89662 cumulative IPC: 0.903214 (Simulation time: 0 hr 56 min 57 sec) 
Heartbeat CPU 0 instructions: 215000003 cycles: 242047619 heartbeat IPC: 0.867709 cumulative IPC: 0.903034 (Simulation time: 0 hr 57 min 10 sec) 
Heartbeat CPU 0 instructions: 216000002 cycles: 243189239 heartbeat IPC: 0.875947 cumulative IPC: 0.902898 (Simulation time: 0 hr 57 min 28 sec) 
Heartbeat CPU 0 instructions: 217000000 cycles: 244332716 heartbeat IPC: 0.874524 cumulative IPC: 0.902757 (Simulation time: 0 hr 57 min 46 sec) 
Heartbeat CPU 0 instructions: 218000001 cycles: 245488150 heartbeat IPC: 0.865477 cumulative IPC: 0.90257 (Simulation time: 0 hr 58 min 4 sec) 
Heartbeat CPU 0 instructions: 219000001 cycles: 246651410 heartbeat IPC: 0.859653 cumulative IPC: 0.902354 (Simulation time: 0 hr 58 min 23 sec) 
Heartbeat CPU 0 instructions: 220000000 cycles: 247759654 heartbeat IPC: 0.902327 cumulative IPC: 0.902354 (Simulation time: 0 hr 58 min 42 sec) 
Heartbeat CPU 0 instructions: 221000002 cycles: 248847978 heartbeat IPC: 0.918846 cumulative IPC: 0.902431 (Simulation time: 0 hr 59 min 0 sec) 
Heartbeat CPU 0 instructions: 222000001 cycles: 249954970 heartbeat IPC: 0.903348 cumulative IPC: 0.902435 (Simulation time: 0 hr 59 min 19 sec) 
Heartbeat CPU 0 instructions: 223000003 cycles: 251102895 heartbeat IPC: 0.871139 cumulative IPC: 0.902283 (Simulation time: 0 hr 59 min 35 sec) 
Heartbeat CPU 0 instructions: 224000003 cycles: 252173329 heartbeat IPC: 0.934201 cumulative IPC: 0.902427 (Simulation time: 0 hr 59 min 53 sec) 
Heartbeat CPU 0 instructions: 225000003 cycles: 253327240 heartbeat IPC: 0.866618 cumulative IPC: 0.902254 (Simulation time: 1 hr 0 min 10 sec) 
Heartbeat CPU 0 instructions: 226000003 cycles: 254471652 heartbeat IPC: 0.873811 cumulative IPC: 0.902118 (Simulation time: 1 hr 0 min 27 sec) 
Heartbeat CPU 0 instructions: 227000001 cycles: 255517462 heartbeat IPC: 0.956195 cumulative IPC: 0.902353 (Simulation time: 1 hr 0 min 41 sec) 
Heartbeat CPU 0 instructions: 228000001 cycles: 256606438 heartbeat IPC: 0.918294 cumulative IPC: 0.902425 (Simulation time: 1 hr 0 min 57 sec) 
Heartbeat CPU 0 instructions: 229000000 cycles: 257738629 heartbeat IPC: 0.883242 cumulative IPC: 0.902335 (Simulation time: 1 hr 1 min 11 sec) 
Heartbeat CPU 0 instructions: 230000000 cycles: 258894669 heartbeat IPC: 0.865022 cumulative IPC: 0.902158 (Simulation time: 1 hr 1 min 27 sec) 
Heartbeat CPU 0 instructions: 231000000 cycles: 260018037 heartbeat IPC: 0.89018 cumulative IPC: 0.902104 (Simulation time: 1 hr 1 min 41 sec) 
Heartbeat CPU 0 instructions: 232000002 cycles: 261138285 heartbeat IPC: 0.892661 cumulative IPC: 0.902061 (Simulation time: 1 hr 1 min 56 sec) 
Heartbeat CPU 0 instructions: 233000002 cycles: 262240128 heartbeat IPC: 0.90757 cumulative IPC: 0.902085 (Simulation time: 1 hr 2 min 13 sec) 
Heartbeat CPU 0 instructions: 234000000 cycles: 263394820 heartbeat IPC: 0.86603 cumulative IPC: 0.901918 (Simulation time: 1 hr 2 min 29 sec) 
Heartbeat CPU 0 instructions: 235000000 cycles: 264540275 heartbeat IPC: 0.873016 cumulative IPC: 0.901785 (Simulation time: 1 hr 2 min 44 sec) 
Heartbeat CPU 0 instructions: 236000001 cycles: 265674012 heartbeat IPC: 0.88204 cumulative IPC: 0.901695 (Simulation time: 1 hr 3 min 0 sec) 
Heartbeat CPU 0 instructions: 237000002 cycles: 266776206 heartbeat IPC: 0.907282 cumulative IPC: 0.90172 (Simulation time: 1 hr 3 min 16 sec) 
Heartbeat CPU 0 instructions: 238000003 cycles: 267906147 heartbeat IPC: 0.885003 cumulative IPC: 0.901645 (Simulation time: 1 hr 3 min 35 sec) 
Heartbeat CPU 0 instructions: 239000000 cycles: 268974242 heartbeat IPC: 0.936243 cumulative IPC: 0.901791 (Simulation time: 1 hr 3 min 52 sec) 
Heartbeat CPU 0 instructions: 240000001 cycles: 270116968 heartbeat IPC: 0.875101 cumulative IPC: 0.901671 (Simulation time: 1 hr 4 min 10 sec) 
Heartbeat CPU 0 instructions: 241000002 cycles: 271252534 heartbeat IPC: 0.880619 cumulative IPC: 0.901578 (Simulation time: 1 hr 4 min 25 sec) 
Heartbeat CPU 0 instructions: 242000000 cycles: 272365483 heartbeat IPC: 0.898512 cumulative IPC: 0.901565 (Simulation time: 1 hr 4 min 37 sec) 
Heartbeat CPU 0 instructions: 243000000 cycles: 273496583 heartbeat IPC: 0.884095 cumulative IPC: 0.901488 (Simulation time: 1 hr 4 min 56 sec) 
Heartbeat CPU 0 instructions: 244000000 cycles: 274620543 heartbeat IPC: 0.889711 cumulative IPC: 0.901437 (Simulation time: 1 hr 5 min 12 sec) 
Heartbeat CPU 0 instructions: 245000000 cycles: 275717507 heartbeat IPC: 0.911607 cumulative IPC: 0.90148 (Simulation time: 1 hr 5 min 27 sec) 
Heartbeat CPU 0 instructions: 246000002 cycles: 276859243 heartbeat IPC: 0.875861 cumulative IPC: 0.901368 (Simulation time: 1 hr 5 min 45 sec) 
Heartbeat CPU 0 instructions: 247000001 cycles: 278009139 heartbeat IPC: 0.869643 cumulative IPC: 0.90123 (Simulation time: 1 hr 6 min 3 sec) 
Heartbeat CPU 0 instructions: 248000003 cycles: 279152125 heartbeat IPC: 0.874903 cumulative IPC: 0.901116 (Simulation time: 1 hr 6 min 21 sec) 
Heartbeat CPU 0 instructions: 249000002 cycles: 280300649 heartbeat IPC: 0.870682 cumulative IPC: 0.900984 (Simulation time: 1 hr 6 min 40 sec) 
Heartbeat CPU 0 instructions: 250000002 cycles: 281449744 heartbeat IPC: 0.87025 cumulative IPC: 0.900851 (Simulation time: 1 hr 6 min 56 sec) 
Heartbeat CPU 0 instructions: 251000002 cycles: 282596559 heartbeat IPC: 0.87198 cumulative IPC: 0.900728 (Simulation time: 1 hr 7 min 11 sec) 
Heartbeat CPU 0 instructions: 252000000 cycles: 283746600 heartbeat IPC: 0.869532 cumulative IPC: 0.900594 (Simulation time: 1 hr 7 min 23 sec) 
Heartbeat CPU 0 instructions: 253000000 cycles: 284867965 heartbeat IPC: 0.89177 cumulative IPC: 0.900557 (Simulation time: 1 hr 7 min 41 sec) 
Heartbeat CPU 0 instructions: 254000003 cycles: 285991568 heartbeat IPC: 0.889997 cumulative IPC: 0.900514 (Simulation time: 1 hr 7 min 57 sec) 
Heartbeat CPU 0 instructions: 255000001 cycles: 287109633 heartbeat IPC: 0.894401 cumulative IPC: 0.900488 (Simulation time: 1 hr 8 min 16 sec) 
Heartbeat CPU 0 instructions: 256000003 cycles: 288264538 heartbeat IPC: 0.865874 cumulative IPC: 0.900342 (Simulation time: 1 hr 8 min 35 sec) 
Heartbeat CPU 0 instructions: 257000000 cycles: 289349689 heartbeat IPC: 0.921528 cumulative IPC: 0.900426 (Simulation time: 1 hr 8 min 53 sec) 
Heartbeat CPU 0 instructions: 258000002 cycles: 290482405 heartbeat IPC: 0.882836 cumulative IPC: 0.900354 (Simulation time: 1 hr 9 min 12 sec) 
Heartbeat CPU 0 instructions: 259000002 cycles: 291612871 heartbeat IPC: 0.884591 cumulative IPC: 0.900289 (Simulation time: 1 hr 9 min 31 sec) 
Heartbeat CPU 0 instructions: 260000001 cycles: 292765651 heartbeat IPC: 0.867467 cumulative IPC: 0.900153 (Simulation time: 1 hr 9 min 49 sec) 
Heartbeat CPU 0 instructions: 261000001 cycles: 293885921 heartbeat IPC: 0.892642 cumulative IPC: 0.900123 (Simulation time: 1 hr 10 min 8 sec) 
Heartbeat CPU 0 instructions: 262000003 cycles: 295035566 heartbeat IPC: 0.869835 cumulative IPC: 0.899998 (Simulation time: 1 hr 10 min 23 sec) 
Heartbeat CPU 0 instructions: 263000002 cycles: 296158542 heartbeat IPC: 0.89049 cumulative IPC: 0.89996 (Simulation time: 1 hr 10 min 38 sec) 
Heartbeat CPU 0 instructions: 264000000 cycles: 297294280 heartbeat IPC: 0.880483 cumulative IPC: 0.899882 (Simulation time: 1 hr 10 min 53 sec) 
Heartbeat CPU 0 instructions: 265000000 cycles: 298448448 heartbeat IPC: 0.866425 cumulative IPC: 0.899746 (Simulation time: 1 hr 11 min 12 sec) 
Heartbeat CPU 0 instructions: 266000002 cycles: 299503767 heartbeat IPC: 0.947583 cumulative IPC: 0.899923 (Simulation time: 1 hr 11 min 30 sec) 
Heartbeat CPU 0 instructions: 267000002 cycles: 300654287 heartbeat IPC: 0.869172 cumulative IPC: 0.899799 (Simulation time: 1 hr 11 min 47 sec) 
Heartbeat CPU 0 instructions: 268000001 cycles: 301772388 heartbeat IPC: 0.894373 cumulative IPC: 0.899778 (Simulation time: 1 hr 12 min 6 sec) 
Heartbeat CPU 0 instructions: 269000000 cycles: 302865510 heartbeat IPC: 0.91481 cumulative IPC: 0.899835 (Simulation time: 1 hr 12 min 24 sec) 
Heartbeat CPU 0 instructions: 270000000 cycles: 304001188 heartbeat IPC: 0.880531 cumulative IPC: 0.899759 (Simulation time: 1 hr 12 min 43 sec) 
Heartbeat CPU 0 instructions: 271000002 cycles: 305124778 heartbeat IPC: 0.890006 cumulative IPC: 0.899722 (Simulation time: 1 hr 13 min 0 sec) 
Heartbeat CPU 0 instructions: 272000002 cycles: 306246165 heartbeat IPC: 0.891753 cumulative IPC: 0.899691 (Simulation time: 1 hr 13 min 18 sec) 
Heartbeat CPU 0 instructions: 273000001 cycles: 307374383 heartbeat IPC: 0.886353 cumulative IPC: 0.89964 (Simulation time: 1 hr 13 min 34 sec) 
Heartbeat CPU 0 instructions: 274000000 cycles: 308502939 heartbeat IPC: 0.886087 cumulative IPC: 0.899587 (Simulation time: 1 hr 13 min 51 sec) 
Heartbeat CPU 0 instructions: 275000000 cycles: 309655630 heartbeat IPC: 0.867535 cumulative IPC: 0.899462 (Simulation time: 1 hr 14 min 6 sec) 
Heartbeat CPU 0 instructions: 276000002 cycles: 310771892 heartbeat IPC: 0.895849 cumulative IPC: 0.899448 (Simulation time: 1 hr 14 min 21 sec) 
Heartbeat CPU 0 instructions: 277000001 cycles: 311924132 heartbeat IPC: 0.867874 cumulative IPC: 0.899326 (Simulation time: 1 hr 14 min 37 sec) 
Heartbeat CPU 0 instructions: 278000001 cycles: 313092126 heartbeat IPC: 0.856169 cumulative IPC: 0.899157 (Simulation time: 1 hr 14 min 52 sec) 
Heartbeat CPU 0 instructions: 279000003 cycles: 314251791 heartbeat IPC: 0.86232 cumulative IPC: 0.899014 (Simulation time: 1 hr 15 min 8 sec) 
Heartbeat CPU 0 instructions: 280000000 cycles: 315370013 heartbeat IPC: 0.894274 cumulative IPC: 0.898996 (Simulation time: 1 hr 15 min 24 sec) 
Heartbeat CPU 0 instructions: 281000003 cycles: 316486043 heartbeat IPC: 0.896036 cumulative IPC: 0.898985 (Simulation time: 1 hr 15 min 39 sec) 
Heartbeat CPU 0 instructions: 282000000 cycles: 317539774 heartbeat IPC: 0.949006 cumulative IPC: 0.89916 (Simulation time: 1 hr 15 min 57 sec) 
Heartbeat CPU 0 instructions: 283000000 cycles: 318673050 heartbeat IPC: 0.882398 cumulative IPC: 0.899097 (Simulation time: 1 hr 16 min 13 sec) 
Heartbeat CPU 0 instructions: 284000001 cycles: 319761729 heartbeat IPC: 0.918545 cumulative IPC: 0.899167 (Simulation time: 1 hr 16 min 32 sec) 
Heartbeat CPU 0 instructions: 285000002 cycles: 320889798 heartbeat IPC: 0.886472 cumulative IPC: 0.89912 (Simulation time: 1 hr 16 min 51 sec) 
Heartbeat CPU 0 instructions: 286000000 cycles: 322022384 heartbeat IPC: 0.882933 cumulative IPC: 0.89906 (Simulation time: 1 hr 17 min 9 sec) 
Heartbeat CPU 0 instructions: 287000002 cycles: 323151432 heartbeat IPC: 0.885704 cumulative IPC: 0.899011 (Simulation time: 1 hr 17 min 28 sec) 
Heartbeat CPU 0 instructions: 288000003 cycles: 324293346 heartbeat IPC: 0.875724 cumulative IPC: 0.898925 (Simulation time: 1 hr 17 min 47 sec) 
Heartbeat CPU 0 instructions: 289000003 cycles: 325431192 heartbeat IPC: 0.878854 cumulative IPC: 0.898851 (Simulation time: 1 hr 18 min 5 sec) 
Heartbeat CPU 0 instructions: 290000003 cycles: 326578289 heartbeat IPC: 0.871766 cumulative IPC: 0.898752 (Simulation time: 1 hr 18 min 24 sec) 
Heartbeat CPU 0 instructions: 291000000 cycles: 327713687 heartbeat IPC: 0.880746 cumulative IPC: 0.898686 (Simulation time: 1 hr 18 min 40 sec) 
Heartbeat CPU 0 instructions: 292000000 cycles: 328850384 heartbeat IPC: 0.879742 cumulative IPC: 0.898618 (Simulation time: 1 hr 18 min 59 sec) 
Heartbeat CPU 0 instructions: 293000002 cycles: 329967580 heartbeat IPC: 0.8951 cumulative IPC: 0.898605 (Simulation time: 1 hr 19 min 15 sec) 
Heartbeat CPU 0 instructions: 294000002 cycles: 331100897 heartbeat IPC: 0.882366 cumulative IPC: 0.898547 (Simulation time: 1 hr 19 min 33 sec) 
Heartbeat CPU 0 instructions: 295000000 cycles: 332251996 heartbeat IPC: 0.868733 cumulative IPC: 0.898439 (Simulation time: 1 hr 19 min 52 sec) 
Heartbeat CPU 0 instructions: 296000002 cycles: 333336195 heartbeat IPC: 0.922342 cumulative IPC: 0.89852 (Simulation time: 1 hr 20 min 9 sec) 
Heartbeat CPU 0 instructions: 297000000 cycles: 334458150 heartbeat IPC: 0.8913 cumulative IPC: 0.898495 (Simulation time: 1 hr 20 min 28 sec) 
Heartbeat CPU 0 instructions: 298000002 cycles: 335590270 heartbeat IPC: 0.8833 cumulative IPC: 0.898441 (Simulation time: 1 hr 20 min 47 sec) 
Heartbeat CPU 0 instructions: 299000000 cycles: 336701750 heartbeat IPC: 0.8997 cumulative IPC: 0.898446 (Simulation time: 1 hr 21 min 3 sec) 
Heartbeat CPU 0 instructions: 300000001 cycles: 337824127 heartbeat IPC: 0.890967 cumulative IPC: 0.89842 (Simulation time: 1 hr 21 min 18 sec) 
Heartbeat CPU 0 instructions: 301000002 cycles: 338943003 heartbeat IPC: 0.893755 cumulative IPC: 0.898403 (Simulation time: 1 hr 21 min 36 sec) 
Heartbeat CPU 0 instructions: 302000000 cycles: 340076703 heartbeat IPC: 0.882066 cumulative IPC: 0.898346 (Simulation time: 1 hr 21 min 51 sec) 
Heartbeat CPU 0 instructions: 303000000 cycles: 341210862 heartbeat IPC: 0.881711 cumulative IPC: 0.898289 (Simulation time: 1 hr 22 min 5 sec) 
Heartbeat CPU 0 instructions: 304000002 cycles: 342389142 heartbeat IPC: 0.848696 cumulative IPC: 0.89811 (Simulation time: 1 hr 22 min 20 sec) 
Heartbeat CPU 0 instructions: 305000003 cycles: 343542214 heartbeat IPC: 0.867249 cumulative IPC: 0.898002 (Simulation time: 1 hr 22 min 35 sec) 
Heartbeat CPU 0 instructions: 306000002 cycles: 344697987 heartbeat IPC: 0.865221 cumulative IPC: 0.897887 (Simulation time: 1 hr 22 min 49 sec) 
Heartbeat CPU 0 instructions: 307000001 cycles: 345843042 heartbeat IPC: 0.87332 cumulative IPC: 0.897802 (Simulation time: 1 hr 23 min 4 sec) 
Heartbeat CPU 0 instructions: 308000000 cycles: 346986030 heartbeat IPC: 0.874899 cumulative IPC: 0.897723 (Simulation time: 1 hr 23 min 18 sec) 
Heartbeat CPU 0 instructions: 309000002 cycles: 348134818 heartbeat IPC: 0.870484 cumulative IPC: 0.897629 (Simulation time: 1 hr 23 min 33 sec) 
Heartbeat CPU 0 instructions: 310000000 cycles: 349260208 heartbeat IPC: 0.888579 cumulative IPC: 0.897599 (Simulation time: 1 hr 23 min 47 sec) 
Heartbeat CPU 0 instructions: 311000003 cycles: 350367225 heartbeat IPC: 0.903331 cumulative IPC: 0.897618 (Simulation time: 1 hr 24 min 4 sec) 
Heartbeat CPU 0 instructions: 312000000 cycles: 351531472 heartbeat IPC: 0.858922 cumulative IPC: 0.897484 (Simulation time: 1 hr 24 min 20 sec) 
Heartbeat CPU 0 instructions: 313000001 cycles: 352672308 heartbeat IPC: 0.876551 cumulative IPC: 0.897413 (Simulation time: 1 hr 24 min 39 sec) 
Heartbeat CPU 0 instructions: 314000000 cycles: 353807824 heartbeat IPC: 0.880656 cumulative IPC: 0.897357 (Simulation time: 1 hr 24 min 57 sec) 
Heartbeat CPU 0 instructions: 315000002 cycles: 354866901 heartbeat IPC: 0.94422 cumulative IPC: 0.897503 (Simulation time: 1 hr 25 min 16 sec) 
Heartbeat CPU 0 instructions: 316000003 cycles: 356006723 heartbeat IPC: 0.877331 cumulative IPC: 0.897435 (Simulation time: 1 hr 25 min 33 sec) 
Heartbeat CPU 0 instructions: 317000001 cycles: 357144092 heartbeat IPC: 0.87922 cumulative IPC: 0.897375 (Simulation time: 1 hr 25 min 50 sec) 
Heartbeat CPU 0 instructions: 318000000 cycles: 358244827 heartbeat IPC: 0.908483 cumulative IPC: 0.89741 (Simulation time: 1 hr 26 min 9 sec) 
Heartbeat CPU 0 instructions: 319000000 cycles: 359355620 heartbeat IPC: 0.900258 cumulative IPC: 0.89742 (Simulation time: 1 hr 26 min 28 sec) 
Heartbeat CPU 0 instructions: 320000000 cycles: 360525511 heartbeat IPC: 0.85478 cumulative IPC: 0.897275 (Simulation time: 1 hr 26 min 44 sec) 
Heartbeat CPU 0 instructions: 321000000 cycles: 361659533 heartbeat IPC: 0.881817 cumulative IPC: 0.897225 (Simulation time: 1 hr 27 min 3 sec) 
Heartbeat CPU 0 instructions: 322000001 cycles: 362820711 heartbeat IPC: 0.861195 cumulative IPC: 0.897104 (Simulation time: 1 hr 27 min 18 sec) 
Heartbeat CPU 0 instructions: 323000002 cycles: 363981467 heartbeat IPC: 0.861508 cumulative IPC: 0.896986 (Simulation time: 1 hr 27 min 37 sec) 
Heartbeat CPU 0 instructions: 324000001 cycles: 365089608 heartbeat IPC: 0.902411 cumulative IPC: 0.897003 (Simulation time: 1 hr 27 min 56 sec) 
Heartbeat CPU 0 instructions: 325000002 cycles: 366210204 heartbeat IPC: 0.892383 cumulative IPC: 0.896988 (Simulation time: 1 hr 28 min 14 sec) 
Heartbeat CPU 0 instructions: 326000003 cycles: 367337850 heartbeat IPC: 0.886804 cumulative IPC: 0.896956 (Simulation time: 1 hr 28 min 33 sec) 
Heartbeat CPU 0 instructions: 327000001 cycles: 368441949 heartbeat IPC: 0.905714 cumulative IPC: 0.896983 (Simulation time: 1 hr 28 min 51 sec) 
Heartbeat CPU 0 instructions: 328000000 cycles: 369556269 heartbeat IPC: 0.897407 cumulative IPC: 0.896984 (Simulation time: 1 hr 29 min 9 sec) 
Heartbeat CPU 0 instructions: 329000003 cycles: 370686893 heartbeat IPC: 0.88447 cumulative IPC: 0.896945 (Simulation time: 1 hr 29 min 27 sec) 
Heartbeat CPU 0 instructions: 330000000 cycles: 371767353 heartbeat IPC: 0.925529 cumulative IPC: 0.897031 (Simulation time: 1 hr 29 min 40 sec) 
Heartbeat CPU 0 instructions: 331000002 cycles: 372887694 heartbeat IPC: 0.892587 cumulative IPC: 0.897017 (Simulation time: 1 hr 29 min 54 sec) 
Heartbeat CPU 0 instructions: 332000002 cycles: 373981668 heartbeat IPC: 0.914099 cumulative IPC: 0.897069 (Simulation time: 1 hr 30 min 9 sec) 
Heartbeat CPU 0 instructions: 333000003 cycles: 375131280 heartbeat IPC: 0.86986 cumulative IPC: 0.896983 (Simulation time: 1 hr 30 min 28 sec) 
Heartbeat CPU 0 instructions: 334000001 cycles: 376250962 heartbeat IPC: 0.893109 cumulative IPC: 0.896971 (Simulation time: 1 hr 30 min 47 sec) 
Heartbeat CPU 0 instructions: 335000000 cycles: 377378210 heartbeat IPC: 0.887115 cumulative IPC: 0.89694 (Simulation time: 1 hr 31 min 6 sec) 
Heartbeat CPU 0 instructions: 336000002 cycles: 378484952 heartbeat IPC: 0.903555 cumulative IPC: 0.89696 (Simulation time: 1 hr 31 min 24 sec) 
Heartbeat CPU 0 instructions: 337000002 cycles: 379612957 heartbeat IPC: 0.886521 cumulative IPC: 0.896928 (Simulation time: 1 hr 31 min 43 sec) 
Heartbeat CPU 0 instructions: 338000003 cycles: 380780351 heartbeat IPC: 0.85661 cumulative IPC: 0.896799 (Simulation time: 1 hr 32 min 2 sec) 
Heartbeat CPU 0 instructions: 339000002 cycles: 381931818 heartbeat IPC: 0.868456 cumulative IPC: 0.89671 (Simulation time: 1 hr 32 min 19 sec) 
Heartbeat CPU 0 instructions: 340000002 cycles: 383028935 heartbeat IPC: 0.91148 cumulative IPC: 0.896754 (Simulation time: 1 hr 32 min 33 sec) 
Heartbeat CPU 0 instructions: 341000000 cycles: 384188924 heartbeat IPC: 0.862075 cumulative IPC: 0.896645 (Simulation time: 1 hr 32 min 48 sec) 
Heartbeat CPU 0 instructions: 342000001 cycles: 385287343 heartbeat IPC: 0.9104 cumulative IPC: 0.896686 (Simulation time: 1 hr 33 min 6 sec) 
Heartbeat CPU 0 instructions: 343000001 cycles: 386443080 heartbeat IPC: 0.865249 cumulative IPC: 0.896588 (Simulation time: 1 hr 33 min 24 sec) 
Heartbeat CPU 0 instructions: 344000003 cycles: 387523097 heartbeat IPC: 0.925913 cumulative IPC: 0.896673 (Simulation time: 1 hr 33 min 43 sec) 
Heartbeat CPU 0 instructions: 345000001 cycles: 388662033 heartbeat IPC: 0.878011 cumulative IPC: 0.896616 (Simulation time: 1 hr 34 min 2 sec) 
Heartbeat CPU 0 instructions: 346000001 cycles: 389769090 heartbeat IPC: 0.903296 cumulative IPC: 0.896636 (Simulation time: 1 hr 34 min 20 sec) 
Heartbeat CPU 0 instructions: 347000003 cycles: 390925377 heartbeat IPC: 0.864839 cumulative IPC: 0.896538 (Simulation time: 1 hr 34 min 39 sec) 
Heartbeat CPU 0 instructions: 348000001 cycles: 392070356 heartbeat IPC: 0.873377 cumulative IPC: 0.896468 (Simulation time: 1 hr 34 min 58 sec) 
Heartbeat CPU 0 instructions: 349000001 cycles: 393169983 heartbeat IPC: 0.909399 cumulative IPC: 0.896505 (Simulation time: 1 hr 35 min 15 sec) 
Heartbeat CPU 0 instructions: 350000001 cycles: 394334956 heartbeat IPC: 0.858389 cumulative IPC: 0.896388 (Simulation time: 1 hr 35 min 29 sec) 
Heartbeat CPU 0 instructions: 351000000 cycles: 395458578 heartbeat IPC: 0.889978 cumulative IPC: 0.896369 (Simulation time: 1 hr 35 min 41 sec) 
Heartbeat CPU 0 instructions: 352000000 cycles: 396592844 heartbeat IPC: 0.881627 cumulative IPC: 0.896326 (Simulation time: 1 hr 35 min 58 sec) 
Heartbeat CPU 0 instructions: 353000002 cycles: 397733070 heartbeat IPC: 0.877021 cumulative IPC: 0.896268 (Simulation time: 1 hr 36 min 17 sec) 
Heartbeat CPU 0 instructions: 354000001 cycles: 398873529 heartbeat IPC: 0.876839 cumulative IPC: 0.89621 (Simulation time: 1 hr 36 min 36 sec) 
Heartbeat CPU 0 instructions: 355000002 cycles: 400008224 heartbeat IPC: 0.881295 cumulative IPC: 0.896166 (Simulation time: 1 hr 36 min 55 sec) 
Heartbeat CPU 0 instructions: 356000002 cycles: 401134412 heartbeat IPC: 0.887951 cumulative IPC: 0.896142 (Simulation time: 1 hr 37 min 14 sec) 
Heartbeat CPU 0 instructions: 357000002 cycles: 402206852 heartbeat IPC: 0.932453 cumulative IPC: 0.896243 (Simulation time: 1 hr 37 min 32 sec) 
Heartbeat CPU 0 instructions: 358000001 cycles: 403338860 heartbeat IPC: 0.883385 cumulative IPC: 0.896206 (Simulation time: 1 hr 37 min 51 sec) 
Heartbeat CPU 0 instructions: 359000003 cycles: 404404599 heartbeat IPC: 0.938318 cumulative IPC: 0.896321 (Simulation time: 1 hr 38 min 7 sec) 
Heartbeat CPU 0 instructions: 360000000 cycles: 405567612 heartbeat IPC: 0.859833 cumulative IPC: 0.896212 (Simulation time: 1 hr 38 min 26 sec) 
Heartbeat CPU 0 instructions: 361000001 cycles: 406677006 heartbeat IPC: 0.901394 cumulative IPC: 0.896227 (Simulation time: 1 hr 38 min 41 sec) 
Heartbeat CPU 0 instructions: 362000003 cycles: 407823195 heartbeat IPC: 0.872458 cumulative IPC: 0.896157 (Simulation time: 1 hr 39 min 0 sec) 
Heartbeat CPU 0 instructions: 363000000 cycles: 408976573 heartbeat IPC: 0.867016 cumulative IPC: 0.896072 (Simulation time: 1 hr 39 min 19 sec) 
Heartbeat CPU 0 instructions: 364000000 cycles: 410086348 heartbeat IPC: 0.901084 cumulative IPC: 0.896086 (Simulation time: 1 hr 39 min 37 sec) 
Heartbeat CPU 0 instructions: 365000001 cycles: 411234972 heartbeat IPC: 0.870608 cumulative IPC: 0.896012 (Simulation time: 1 hr 39 min 56 sec) 
Heartbeat CPU 0 instructions: 366000003 cycles: 412394706 heartbeat IPC: 0.862268 cumulative IPC: 0.895914 (Simulation time: 1 hr 40 min 15 sec) 
Heartbeat CPU 0 instructions: 367000001 cycles: 413484806 heartbeat IPC: 0.917345 cumulative IPC: 0.895972 (Simulation time: 1 hr 40 min 34 sec) 
Heartbeat CPU 0 instructions: 368000000 cycles: 414635881 heartbeat IPC: 0.868752 cumulative IPC: 0.895894 (Simulation time: 1 hr 40 min 53 sec) 
Heartbeat CPU 0 instructions: 369000000 cycles: 415792082 heartbeat IPC: 0.864902 cumulative IPC: 0.895805 (Simulation time: 1 hr 41 min 8 sec) 
Heartbeat CPU 0 instructions: 370000002 cycles: 416949731 heartbeat IPC: 0.863821 cumulative IPC: 0.895713 (Simulation time: 1 hr 41 min 27 sec) 
Heartbeat CPU 0 instructions: 371000000 cycles: 418091330 heartbeat IPC: 0.875963 cumulative IPC: 0.895657 (Simulation time: 1 hr 41 min 43 sec) 
Heartbeat CPU 0 instructions: 372000001 cycles: 419251890 heartbeat IPC: 0.861654 cumulative IPC: 0.895559 (Simulation time: 1 hr 42 min 2 sec) 
Heartbeat CPU 0 instructions: 373000002 cycles: 420349355 heartbeat IPC: 0.911192 cumulative IPC: 0.895601 (Simulation time: 1 hr 42 min 21 sec) 
Heartbeat CPU 0 instructions: 374000000 cycles: 421477591 heartbeat IPC: 0.886338 cumulative IPC: 0.895576 (Simulation time: 1 hr 42 min 39 sec) 
Heartbeat CPU 0 instructions: 375000001 cycles: 422591806 heartbeat IPC: 0.897494 cumulative IPC: 0.895581 (Simulation time: 1 hr 42 min 53 sec) 
Heartbeat CPU 0 instructions: 376000001 cycles: 423654411 heartbeat IPC: 0.941083 cumulative IPC: 0.895699 (Simulation time: 1 hr 43 min 9 sec) 
Heartbeat CPU 0 instructions: 377000003 cycles: 424815482 heartbeat IPC: 0.861275 cumulative IPC: 0.895602 (Simulation time: 1 hr 43 min 27 sec) 
Heartbeat CPU 0 instructions: 378000002 cycles: 425953576 heartbeat IPC: 0.878661 cumulative IPC: 0.895555 (Simulation time: 1 hr 43 min 46 sec) 
Heartbeat CPU 0 instructions: 379000002 cycles: 427031164 heartbeat IPC: 0.927998 cumulative IPC: 0.89564 (Simulation time: 1 hr 44 min 1 sec) 
Heartbeat CPU 0 instructions: 380000000 cycles: 428154306 heartbeat IPC: 0.890358 cumulative IPC: 0.895625 (Simulation time: 1 hr 44 min 20 sec) 
Heartbeat CPU 0 instructions: 381000001 cycles: 429243162 heartbeat IPC: 0.918396 cumulative IPC: 0.895685 (Simulation time: 1 hr 44 min 37 sec) 
Heartbeat CPU 0 instructions: 382000003 cycles: 430353919 heartbeat IPC: 0.900289 cumulative IPC: 0.895697 (Simulation time: 1 hr 44 min 55 sec) 
Heartbeat CPU 0 instructions: 383000003 cycles: 431515091 heartbeat IPC: 0.861199 cumulative IPC: 0.895601 (Simulation time: 1 hr 45 min 14 sec) 
Heartbeat CPU 0 instructions: 384000001 cycles: 432655923 heartbeat IPC: 0.876552 cumulative IPC: 0.895549 (Simulation time: 1 hr 45 min 33 sec) 
Heartbeat CPU 0 instructions: 385000000 cycles: 433796109 heartbeat IPC: 0.877049 cumulative IPC: 0.895499 (Simulation time: 1 hr 45 min 52 sec) 
Heartbeat CPU 0 instructions: 386000001 cycles: 434964573 heartbeat IPC: 0.855825 cumulative IPC: 0.895388 (Simulation time: 1 hr 46 min 11 sec) 
Heartbeat CPU 0 instructions: 387000001 cycles: 436042632 heartbeat IPC: 0.927593 cumulative IPC: 0.895471 (Simulation time: 1 hr 46 min 30 sec) 
Heartbeat CPU 0 instructions: 388000001 cycles: 437176547 heartbeat IPC: 0.8819 cumulative IPC: 0.895434 (Simulation time: 1 hr 46 min 45 sec) 
Heartbeat CPU 0 instructions: 389000002 cycles: 438324976 heartbeat IPC: 0.870756 cumulative IPC: 0.895367 (Simulation time: 1 hr 47 min 1 sec) 
Heartbeat CPU 0 instructions: 390000003 cycles: 439477180 heartbeat IPC: 0.867903 cumulative IPC: 0.895293 (Simulation time: 1 hr 47 min 18 sec) 
Heartbeat CPU 0 instructions: 391000001 cycles: 440637222 heartbeat IPC: 0.862036 cumulative IPC: 0.895202 (Simulation time: 1 hr 47 min 37 sec) 
Heartbeat CPU 0 instructions: 392000002 cycles: 441768581 heartbeat IPC: 0.883894 cumulative IPC: 0.895172 (Simulation time: 1 hr 47 min 55 sec) 
Heartbeat CPU 0 instructions: 393000001 cycles: 442900117 heartbeat IPC: 0.883754 cumulative IPC: 0.895142 (Simulation time: 1 hr 48 min 14 sec) 
Heartbeat CPU 0 instructions: 394000001 cycles: 444032267 heartbeat IPC: 0.883275 cumulative IPC: 0.895111 (Simulation time: 1 hr 48 min 33 sec) 
Heartbeat CPU 0 instructions: 395000001 cycles: 445176369 heartbeat IPC: 0.874048 cumulative IPC: 0.895055 (Simulation time: 1 hr 48 min 52 sec) 
Heartbeat CPU 0 instructions: 396000000 cycles: 446316813 heartbeat IPC: 0.876851 cumulative IPC: 0.895007 (Simulation time: 1 hr 49 min 11 sec) 
Heartbeat CPU 0 instructions: 397000001 cycles: 447485072 heartbeat IPC: 0.855975 cumulative IPC: 0.894901 (Simulation time: 1 hr 49 min 30 sec) 
Heartbeat CPU 0 instructions: 398000001 cycles: 448625114 heartbeat IPC: 0.877161 cumulative IPC: 0.894854 (Simulation time: 1 hr 49 min 46 sec) 
Heartbeat CPU 0 instructions: 399000001 cycles: 449759955 heartbeat IPC: 0.881181 cumulative IPC: 0.894819 (Simulation time: 1 hr 50 min 5 sec) 
Heartbeat CPU 0 instructions: 400000002 cycles: 450906660 heartbeat IPC: 0.872065 cumulative IPC: 0.894759 (Simulation time: 1 hr 50 min 22 sec) 
Heartbeat CPU 0 instructions: 401000002 cycles: 452079258 heartbeat IPC: 0.852807 cumulative IPC: 0.894646 (Simulation time: 1 hr 50 min 40 sec) 
Heartbeat CPU 0 instructions: 402000003 cycles: 453198601 heartbeat IPC: 0.893382 cumulative IPC: 0.894643 (Simulation time: 1 hr 50 min 59 sec) 
Heartbeat CPU 0 instructions: 403000001 cycles: 454326795 heartbeat IPC: 0.886371 cumulative IPC: 0.894622 (Simulation time: 1 hr 51 min 18 sec) 
Heartbeat CPU 0 instructions: 404000000 cycles: 455424831 heartbeat IPC: 0.910716 cumulative IPC: 0.894662 (Simulation time: 1 hr 51 min 37 sec) 
Heartbeat CPU 0 instructions: 405000002 cycles: 456573247 heartbeat IPC: 0.870766 cumulative IPC: 0.8946 (Simulation time: 1 hr 51 min 56 sec) 
Heartbeat CPU 0 instructions: 406000001 cycles: 457574673 heartbeat IPC: 0.998575 cumulative IPC: 0.894835 (Simulation time: 1 hr 52 min 9 sec) 
Heartbeat CPU 0 instructions: 407000000 cycles: 458539796 heartbeat IPC: 1.03614 cumulative IPC: 0.895143 (Simulation time: 1 hr 52 min 20 sec) 
Heartbeat CPU 0 instructions: 408000001 cycles: 459431593 heartbeat IPC: 1.12133 cumulative IPC: 0.895597 (Simulation time: 1 hr 52 min 31 sec) 
Heartbeat CPU 0 instructions: 409000000 cycles: 460355171 heartbeat IPC: 1.08274 cumulative IPC: 0.895985 (Simulation time: 1 hr 52 min 38 sec) 
Heartbeat CPU 0 instructions: 410000000 cycles: 461231799 heartbeat IPC: 1.14073 cumulative IPC: 0.896466 (Simulation time: 1 hr 52 min 46 sec) 
Heartbeat CPU 0 instructions: 411000002 cycles: 462116252 heartbeat IPC: 1.13064 cumulative IPC: 0.896929 (Simulation time: 1 hr 52 min 57 sec) 
Heartbeat CPU 0 instructions: 412000002 cycles: 463025162 heartbeat IPC: 1.10022 cumulative IPC: 0.897341 (Simulation time: 1 hr 53 min 5 sec) 
Heartbeat CPU 0 instructions: 413000001 cycles: 463890811 heartbeat IPC: 1.1552 cumulative IPC: 0.897839 (Simulation time: 1 hr 53 min 15 sec) 
Heartbeat CPU 0 instructions: 414000001 cycles: 464758451 heartbeat IPC: 1.15255 cumulative IPC: 0.89833 (Simulation time: 1 hr 53 min 26 sec) 
Heartbeat CPU 0 instructions: 415000003 cycles: 465656358 heartbeat IPC: 1.1137 cumulative IPC: 0.898759 (Simulation time: 1 hr 53 min 36 sec) 
Heartbeat CPU 0 instructions: 416000002 cycles: 466502728 heartbeat IPC: 1.18152 cumulative IPC: 0.899289 (Simulation time: 1 hr 53 min 47 sec) 
Heartbeat CPU 0 instructions: 417000002 cycles: 467198273 heartbeat IPC: 1.43772 cumulative IPC: 0.900118 (Simulation time: 1 hr 53 min 57 sec) 
Heartbeat CPU 0 instructions: 418000000 cycles: 467911921 heartbeat IPC: 1.40125 cumulative IPC: 0.900907 (Simulation time: 1 hr 54 min 7 sec) 
Heartbeat CPU 0 instructions: 419000000 cycles: 468584735 heartbeat IPC: 1.48629 cumulative IPC: 0.901776 (Simulation time: 1 hr 54 min 15 sec) 
Heartbeat CPU 0 instructions: 420000003 cycles: 469253756 heartbeat IPC: 1.49473 cumulative IPC: 0.902649 (Simulation time: 1 hr 54 min 24 sec) 
Heartbeat CPU 0 instructions: 421000002 cycles: 470213229 heartbeat IPC: 1.04224 cumulative IPC: 0.902943 (Simulation time: 1 hr 54 min 37 sec) 
Heartbeat CPU 0 instructions: 422000002 cycles: 471253667 heartbeat IPC: 0.961134 cumulative IPC: 0.903076 (Simulation time: 1 hr 54 min 52 sec) 
Heartbeat CPU 0 instructions: 423000001 cycles: 472396078 heartbeat IPC: 0.875341 cumulative IPC: 0.903007 (Simulation time: 1 hr 55 min 8 sec) 
Heartbeat CPU 0 instructions: 424000000 cycles: 473615468 heartbeat IPC: 0.820081 cumulative IPC: 0.902786 (Simulation time: 1 hr 55 min 22 sec) 
Heartbeat CPU 0 instructions: 425000003 cycles: 474716979 heartbeat IPC: 0.907847 cumulative IPC: 0.902798 (Simulation time: 1 hr 55 min 36 sec) 
Heartbeat CPU 0 instructions: 426000002 cycles: 475889441 heartbeat IPC: 0.852905 cumulative IPC: 0.902671 (Simulation time: 1 hr 55 min 53 sec) 
Heartbeat CPU 0 instructions: 427000003 cycles: 477084436 heartbeat IPC: 0.836824 cumulative IPC: 0.902501 (Simulation time: 1 hr 56 min 6 sec) 
Heartbeat CPU 0 instructions: 428000002 cycles: 478278986 heartbeat IPC: 0.837134 cumulative IPC: 0.902332 (Simulation time: 1 hr 56 min 22 sec) 
Heartbeat CPU 0 instructions: 429000000 cycles: 479361805 heartbeat IPC: 0.923514 cumulative IPC: 0.902382 (Simulation time: 1 hr 56 min 38 sec) 
Heartbeat CPU 0 instructions: 430000003 cycles: 480564849 heartbeat IPC: 0.831227 cumulative IPC: 0.902198 (Simulation time: 1 hr 56 min 54 sec) 
Heartbeat CPU 0 instructions: 431000000 cycles: 481750101 heartbeat IPC: 0.8437 cumulative IPC: 0.902049 (Simulation time: 1 hr 57 min 10 sec) 
Heartbeat CPU 0 instructions: 432000000 cycles: 482922262 heartbeat IPC: 0.853125 cumulative IPC: 0.901927 (Simulation time: 1 hr 57 min 25 sec) 
Heartbeat CPU 0 instructions: 433000002 cycles: 484065312 heartbeat IPC: 0.874854 cumulative IPC: 0.901861 (Simulation time: 1 hr 57 min 41 sec) 
Heartbeat CPU 0 instructions: 434000001 cycles: 485300643 heartbeat IPC: 0.809499 cumulative IPC: 0.901618 (Simulation time: 1 hr 57 min 57 sec) 
Heartbeat CPU 0 instructions: 435000002 cycles: 486448551 heartbeat IPC: 0.871151 cumulative IPC: 0.901544 (Simulation time: 1 hr 58 min 13 sec) 
Heartbeat CPU 0 instructions: 436000000 cycles: 487549745 heartbeat IPC: 0.908103 cumulative IPC: 0.901559 (Simulation time: 1 hr 58 min 25 sec) 
Heartbeat CPU 0 instructions: 437000003 cycles: 488635007 heartbeat IPC: 0.921439 cumulative IPC: 0.901605 (Simulation time: 1 hr 58 min 37 sec) 
Heartbeat CPU 0 instructions: 438000002 cycles: 489696631 heartbeat IPC: 0.941952 cumulative IPC: 0.901695 (Simulation time: 1 hr 58 min 48 sec) 
Heartbeat CPU 0 instructions: 439000001 cycles: 490814933 heartbeat IPC: 0.894212 cumulative IPC: 0.901677 (Simulation time: 1 hr 59 min 3 sec) 
Heartbeat CPU 0 instructions: 440000000 cycles: 492089847 heartbeat IPC: 0.784366 cumulative IPC: 0.901364 (Simulation time: 1 hr 59 min 19 sec) 
Heartbeat CPU 0 instructions: 441000001 cycles: 493203860 heartbeat IPC: 0.897657 cumulative IPC: 0.901355 (Simulation time: 1 hr 59 min 35 sec) 
Heartbeat CPU 0 instructions: 442000002 cycles: 494337491 heartbeat IPC: 0.882122 cumulative IPC: 0.90131 (Simulation time: 1 hr 59 min 51 sec) 
Heartbeat CPU 0 instructions: 443000002 cycles: 495495914 heartbeat IPC: 0.863243 cumulative IPC: 0.901218 (Simulation time: 2 hr 0 min 6 sec) 
Heartbeat CPU 0 instructions: 444000003 cycles: 496685667 heartbeat IPC: 0.840511 cumulative IPC: 0.901068 (Simulation time: 2 hr 0 min 22 sec) 
Heartbeat CPU 0 instructions: 445000002 cycles: 497919267 heartbeat IPC: 0.810635 cumulative IPC: 0.900837 (Simulation time: 2 hr 0 min 38 sec) 
Heartbeat CPU 0 instructions: 446000000 cycles: 499104723 heartbeat IPC: 0.843556 cumulative IPC: 0.900697 (Simulation time: 2 hr 0 min 54 sec) 
Heartbeat CPU 0 instructions: 447000002 cycles: 500209700 heartbeat IPC: 0.904998 cumulative IPC: 0.900707 (Simulation time: 2 hr 1 min 8 sec) 
Heartbeat CPU 0 instructions: 448000003 cycles: 501424997 heartbeat IPC: 0.822845 cumulative IPC: 0.900512 (Simulation time: 2 hr 1 min 22 sec) 
Heartbeat CPU 0 instructions: 449000002 cycles: 502483887 heartbeat IPC: 0.944384 cumulative IPC: 0.900607 (Simulation time: 2 hr 1 min 35 sec) 
Heartbeat CPU 0 instructions: 450000002 cycles: 503428241 heartbeat IPC: 1.05892 cumulative IPC: 0.900914 (Simulation time: 2 hr 1 min 44 sec) 
Heartbeat CPU 0 instructions: 451000000 cycles: 504210424 heartbeat IPC: 1.27847 cumulative IPC: 0.901517 (Simulation time: 2 hr 1 min 52 sec) 
Heartbeat CPU 0 instructions: 452000002 cycles: 504937305 heartbeat IPC: 1.37574 cumulative IPC: 0.902221 (Simulation time: 2 hr 2 min 1 sec) 
Heartbeat CPU 0 instructions: 453000001 cycles: 505631582 heartbeat IPC: 1.44035 cumulative IPC: 0.902982 (Simulation time: 2 hr 2 min 9 sec) 
Heartbeat CPU 0 instructions: 454000002 cycles: 506327987 heartbeat IPC: 1.43595 cumulative IPC: 0.903738 (Simulation time: 2 hr 2 min 16 sec) 
Heartbeat CPU 0 instructions: 455000000 cycles: 507031664 heartbeat IPC: 1.4211 cumulative IPC: 0.904478 (Simulation time: 2 hr 2 min 25 sec) 
Heartbeat CPU 0 instructions: 456000003 cycles: 507730836 heartbeat IPC: 1.43027 cumulative IPC: 0.905224 (Simulation time: 2 hr 2 min 32 sec) 
Heartbeat CPU 0 instructions: 457000001 cycles: 508436299 heartbeat IPC: 1.41751 cumulative IPC: 0.905956 (Simulation time: 2 hr 2 min 41 sec) 
Heartbeat CPU 0 instructions: 458000001 cycles: 509132235 heartbeat IPC: 1.43691 cumulative IPC: 0.906704 (Simulation time: 2 hr 2 min 49 sec) 
Heartbeat CPU 0 instructions: 459000003 cycles: 509832946 heartbeat IPC: 1.42712 cumulative IPC: 0.907441 (Simulation time: 2 hr 2 min 57 sec) 
Heartbeat CPU 0 instructions: 460000000 cycles: 510540034 heartbeat IPC: 1.41425 cumulative IPC: 0.908165 (Simulation time: 2 hr 3 min 5 sec) 
Heartbeat CPU 0 instructions: 461000003 cycles: 511384393 heartbeat IPC: 1.18433 cumulative IPC: 0.908634 (Simulation time: 2 hr 3 min 15 sec) 
Heartbeat CPU 0 instructions: 462000000 cycles: 512317852 heartbeat IPC: 1.07128 cumulative IPC: 0.90894 (Simulation time: 2 hr 3 min 25 sec) 
Heartbeat CPU 0 instructions: 463000001 cycles: 513252166 heartbeat IPC: 1.07031 cumulative IPC: 0.909242 (Simulation time: 2 hr 3 min 36 sec) 
Heartbeat CPU 0 instructions: 464000001 cycles: 514187725 heartbeat IPC: 1.06888 cumulative IPC: 0.909541 (Simulation time: 2 hr 3 min 47 sec) 
Heartbeat CPU 0 instructions: 465000003 cycles: 515086884 heartbeat IPC: 1.11215 cumulative IPC: 0.909906 (Simulation time: 2 hr 3 min 57 sec) 
Heartbeat CPU 0 instructions: 466000003 cycles: 516075157 heartbeat IPC: 1.01187 cumulative IPC: 0.910107 (Simulation time: 2 hr 4 min 6 sec) 
Heartbeat CPU 0 instructions: 467000003 cycles: 516968852 heartbeat IPC: 1.11895 cumulative IPC: 0.910479 (Simulation time: 2 hr 4 min 14 sec) 
Heartbeat CPU 0 instructions: 468000001 cycles: 517920720 heartbeat IPC: 1.05056 cumulative IPC: 0.910744 (Simulation time: 2 hr 4 min 23 sec) 
Heartbeat CPU 0 instructions: 469000002 cycles: 518790259 heartbeat IPC: 1.15004 cumulative IPC: 0.911157 (Simulation time: 2 hr 4 min 33 sec) 
Heartbeat CPU 0 instructions: 470000002 cycles: 519664874 heartbeat IPC: 1.14336 cumulative IPC: 0.911559 (Simulation time: 2 hr 4 min 41 sec) 
Heartbeat CPU 0 instructions: 471000002 cycles: 520520358 heartbeat IPC: 1.16893 cumulative IPC: 0.911995 (Simulation time: 2 hr 4 min 52 sec) 
Heartbeat CPU 0 instructions: 472000000 cycles: 521364860 heartbeat IPC: 1.18413 cumulative IPC: 0.912449 (Simulation time: 2 hr 5 min 3 sec) 
Heartbeat CPU 0 instructions: 473000000 cycles: 522247851 heartbeat IPC: 1.13251 cumulative IPC: 0.912832 (Simulation time: 2 hr 5 min 15 sec) 
Heartbeat CPU 0 instructions: 474000002 cycles: 523129234 heartbeat IPC: 1.13458 cumulative IPC: 0.913217 (Simulation time: 2 hr 5 min 27 sec) 
Heartbeat CPU 0 instructions: 475000000 cycles: 524048097 heartbeat IPC: 1.0883 cumulative IPC: 0.913533 (Simulation time: 2 hr 5 min 39 sec) 
Heartbeat CPU 0 instructions: 476000001 cycles: 525034743 heartbeat IPC: 1.01354 cumulative IPC: 0.913726 (Simulation time: 2 hr 5 min 52 sec) 
Heartbeat CPU 0 instructions: 477000003 cycles: 525981981 heartbeat IPC: 1.0557 cumulative IPC: 0.913989 (Simulation time: 2 hr 6 min 2 sec) 
Heartbeat CPU 0 instructions: 478000002 cycles: 526887727 heartbeat IPC: 1.10406 cumulative IPC: 0.914326 (Simulation time: 2 hr 6 min 14 sec) 
Heartbeat CPU 0 instructions: 479000002 cycles: 527851224 heartbeat IPC: 1.03789 cumulative IPC: 0.914558 (Simulation time: 2 hr 6 min 25 sec) 
Heartbeat CPU 0 instructions: 480000001 cycles: 528808357 heartbeat IPC: 1.04479 cumulative IPC: 0.9148 (Simulation time: 2 hr 6 min 36 sec) 
Heartbeat CPU 0 instructions: 481000001 cycles: 529800580 heartbeat IPC: 1.00784 cumulative IPC: 0.91498 (Simulation time: 2 hr 6 min 46 sec) 
Heartbeat CPU 0 instructions: 482000002 cycles: 530758128 heartbeat IPC: 1.04434 cumulative IPC: 0.91522 (Simulation time: 2 hr 6 min 57 sec) 
Heartbeat CPU 0 instructions: 483000001 cycles: 531671747 heartbeat IPC: 1.09455 cumulative IPC: 0.915537 (Simulation time: 2 hr 7 min 9 sec) 
Heartbeat CPU 0 instructions: 484000000 cycles: 532530254 heartbeat IPC: 1.16481 cumulative IPC: 0.915951 (Simulation time: 2 hr 7 min 22 sec) 
Heartbeat CPU 0 instructions: 485000002 cycles: 533530072 heartbeat IPC: 1.00018 cumulative IPC: 0.916113 (Simulation time: 2 hr 7 min 30 sec) 
Heartbeat CPU 0 instructions: 486000001 cycles: 534380190 heartbeat IPC: 1.17631 cumulative IPC: 0.916539 (Simulation time: 2 hr 7 min 41 sec) 
Heartbeat CPU 0 instructions: 487000001 cycles: 535347993 heartbeat IPC: 1.03327 cumulative IPC: 0.916756 (Simulation time: 2 hr 7 min 51 sec) 
Heartbeat CPU 0 instructions: 488000001 cycles: 536360095 heartbeat IPC: 0.988043 cumulative IPC: 0.916894 (Simulation time: 2 hr 8 min 3 sec) 
Heartbeat CPU 0 instructions: 489000000 cycles: 537402315 heartbeat IPC: 0.959489 cumulative IPC: 0.916979 (Simulation time: 2 hr 8 min 13 sec) 
Heartbeat CPU 0 instructions: 490000000 cycles: 538478119 heartbeat IPC: 0.929537 cumulative IPC: 0.917005 (Simulation time: 2 hr 8 min 23 sec) 
Heartbeat CPU 0 instructions: 491000003 cycles: 539506791 heartbeat IPC: 0.97213 cumulative IPC: 0.917113 (Simulation time: 2 hr 8 min 34 sec) 
Heartbeat CPU 0 instructions: 492000002 cycles: 540525869 heartbeat IPC: 0.981278 cumulative IPC: 0.917238 (Simulation time: 2 hr 8 min 47 sec) 
Heartbeat CPU 0 instructions: 493000001 cycles: 541599940 heartbeat IPC: 0.931036 cumulative IPC: 0.917266 (Simulation time: 2 hr 9 min 0 sec) 
Heartbeat CPU 0 instructions: 494000003 cycles: 542692898 heartbeat IPC: 0.91495 cumulative IPC: 0.917261 (Simulation time: 2 hr 9 min 15 sec) 
Heartbeat CPU 0 instructions: 495000000 cycles: 543884134 heartbeat IPC: 0.839462 cumulative IPC: 0.917086 (Simulation time: 2 hr 9 min 34 sec) 
Heartbeat CPU 0 instructions: 496000003 cycles: 545018323 heartbeat IPC: 0.88169 cumulative IPC: 0.91701 (Simulation time: 2 hr 9 min 51 sec) 
Heartbeat CPU 0 instructions: 497000001 cycles: 546125636 heartbeat IPC: 0.903085 cumulative IPC: 0.916981 (Simulation time: 2 hr 10 min 10 sec) 
Heartbeat CPU 0 instructions: 498000003 cycles: 547226923 heartbeat IPC: 0.90803 cumulative IPC: 0.916963 (Simulation time: 2 hr 10 min 26 sec) 
Heartbeat CPU 0 instructions: 499000000 cycles: 548383536 heartbeat IPC: 0.864591 cumulative IPC: 0.916849 (Simulation time: 2 hr 10 min 45 sec) 
Heartbeat CPU 0 instructions: 500000000 cycles: 549518804 heartbeat IPC: 0.880849 cumulative IPC: 0.916773 (Simulation time: 2 hr 11 min 4 sec) 
Heartbeat CPU 0 instructions: 501000000 cycles: 550679511 heartbeat IPC: 0.861544 cumulative IPC: 0.916653 (Simulation time: 2 hr 11 min 23 sec) 
Heartbeat CPU 0 instructions: 502000002 cycles: 551832266 heartbeat IPC: 0.867489 cumulative IPC: 0.916547 (Simulation time: 2 hr 11 min 42 sec) 
Heartbeat CPU 0 instructions: 503000002 cycles: 552960176 heartbeat IPC: 0.886596 cumulative IPC: 0.916484 (Simulation time: 2 hr 12 min 1 sec) 
Heartbeat CPU 0 instructions: 504000001 cycles: 554081640 heartbeat IPC: 0.891691 cumulative IPC: 0.916433 (Simulation time: 2 hr 12 min 19 sec) 
Heartbeat CPU 0 instructions: 505000002 cycles: 555227890 heartbeat IPC: 0.872411 cumulative IPC: 0.916339 (Simulation time: 2 hr 12 min 36 sec) 
Heartbeat CPU 0 instructions: 506000000 cycles: 556379549 heartbeat IPC: 0.868311 cumulative IPC: 0.916237 (Simulation time: 2 hr 12 min 55 sec) 
Heartbeat CPU 0 instructions: 507000002 cycles: 557521776 heartbeat IPC: 0.875484 cumulative IPC: 0.916152 (Simulation time: 2 hr 13 min 9 sec) 
Heartbeat CPU 0 instructions: 508000001 cycles: 558670579 heartbeat IPC: 0.87047 cumulative IPC: 0.916055 (Simulation time: 2 hr 13 min 28 sec) 
Heartbeat CPU 0 instructions: 509000002 cycles: 559835632 heartbeat IPC: 0.858331 cumulative IPC: 0.915932 (Simulation time: 2 hr 13 min 47 sec) 
Heartbeat CPU 0 instructions: 510000000 cycles: 560975891 heartbeat IPC: 0.876992 cumulative IPC: 0.91585 (Simulation time: 2 hr 14 min 6 sec) 
Finished CPU 0 instructions: 500000003 cycles: 545940815 cumulative IPC: 0.91585 (Simulation time: 2 hr 14 min 6 sec) 

ChampSim completed all CPUs

Region of Interest Statistics

CPU 0 cumulative IPC: 0.91585 instructions: 500000003 cycles: 545940815
L1D TOTAL     ACCESS:  167419444  HIT:  155542895  MISS:   11876549
L1D LOAD      ACCESS:  151964392  HIT:  140311369  MISS:   11653023
L1D RFO       ACCESS:   15455052  HIT:   15231526  MISS:     223526
L1D PREFETCH  ACCESS:          0  HIT:          0  MISS:          0
L1D WRITEBACK ACCESS:          0  HIT:          0  MISS:          0
L1D PREFETCH  REQUESTED:          0  ISSUED:          0  USEFUL:          0  USELESS:          0  UAC CORRECT:          0
L1D AVERAGE MISS LATENCY: 142.429 cycles
L1I TOTAL     ACCESS:   85141814  HIT:   85141750  MISS:         64
L1I LOAD      ACCESS:   85141814  HIT:   85141750  MISS:         64
L1I RFO       ACCESS:          0  HIT:          0  MISS:          0
L1I PREFETCH  ACCESS:          0  HIT:          0  MISS:          0
L1I WRITEBACK ACCESS:          0  HIT:          0  MISS:          0
L1I PREFETCH  REQUESTED:          0  ISSUED:          0  USEFUL:          0  USELESS:          0  UAC CORRECT:          0
L1I AVERAGE MISS LATENCY: 211.875 cycles
L2C TOTAL     ACCESS:   12782076  HIT:    1363415  MISS:   11418661
L2C LOAD      ACCESS:   11653085  HIT:     457919  MISS:   11195166
L2C RFO       ACCESS:     223520  HIT:         60  MISS:     223460
L2C PREFETCH  ACCESS:          0  HIT:          0  MISS:          0
L2C WRITEBACK ACCESS:     905471  HIT:     905436  MISS:         35
L2C PREFETCH  REQUESTED:          0  ISSUED:          0  USEFUL:          0  USELESS:          0  UAC CORRECT:          0
L2C AVERAGE MISS LATENCY: 131.805 cycles
LLC TOTAL     ACCESS:   19474345  HIT:    8004162  MISS:   11470183
LLC LOAD      ACCESS:   11195166  HIT:    6912309  MISS:    4282857
LLC RFO       ACCESS:     223460  HIT:          1  MISS:     223459
LLC PREFETCH  ACCESS:    7156134  HIT:     192404  MISS:    6963730
LLC WRITEBACK ACCESS:     899585  HIT:     899448  MISS:        137
LLC PREFETCH  REQUESTED:   11195102  ISSUED:   11171230  USEFUL:    6909904  USELESS:      53740  UAC CORRECT:    2381089
LLC AVERAGE MISS LATENCY: 259.989 cycles
Major fault: 0 Minor fault: 108279

DRAM Statistics
 CHANNEL 0
 RQ ROW_BUFFER_HIT:    4997660  ROW_BUFFER_MISS:     741838
 DBUS_CONGESTED:    2560056
 WQ ROW_BUFFER_HIT:     395823  ROW_BUFFER_MISS:      53862  FULL:          0

 CHANNEL 1
 RQ ROW_BUFFER_HIT:    4996594  ROW_BUFFER_MISS:     733954
 DBUS_CONGESTED:    2560056
 WQ ROW_BUFFER_HIT:     395840  ROW_BUFFER_MISS:      53860  FULL:          0

 AVG_CONGESTED_CYCLE: 17

CPU 0 Branch Prediction Accuracy: 99.8696% MPKI: 0.070904 Average ROB Occupancy at Mispredict: 306.37

Branch types
NOT_BRANCH: 472806423 94.5613%
BRANCH_DIRECT_JUMP: 811201 0.16224%
BRANCH_INDIRECT: 0 0%
BRANCH_CONDITIONAL: 26382347 5.27647%
BRANCH_DIRECT_CALL: 2 4e-07%
BRANCH_INDIRECT_CALL: 0 0%
BRANCH_RETURN: 2 4e-07%
BRANCH_OTHER: 0 0%


gzip: stdout: Broken pipe
