
*** ChampSim Multicore Out-of-Order Simulator ***

Warmup Instructions: 1000000
Prefetch Warmup Instructions: 10000000
Simulation Instructions: 500000000
Stat Printing Period: 1000000
Number of CPUs: 1
LLC sets: 2048
LLC ways: 16
Off-chip DRAM Size: 32768 MB Channels: 2 Width: 64-bit Data Rate: 1024 MT/s

CPU 0 runs /scratch/cluster/cmolder/ML-DPC/ChampSimTraces/spec06/410.bwaves-s0.trace.gz
Read seed: 1017
Heartbeat CPU 0 instructions: 1000000 cycles: 568073 heartbeat IPC: 1.76034 cumulative IPC: 1.76034 (Simulation time: 0 hr 0 min 19 sec) 

Warmup complete CPU 0 instructions: 1000004 cycles: 568074 (Simulation time: 0 hr 0 min 19 sec) 

Heartbeat CPU 0 instructions: 2000001 cycles: 2155318 heartbeat IPC: 0.630023 cumulative IPC: 0.630021 (Simulation time: 0 hr 0 min 41 sec) 
Heartbeat CPU 0 instructions: 3000001 cycles: 3738250 heartbeat IPC: 0.631739 cumulative IPC: 0.630879 (Simulation time: 0 hr 1 min 4 sec) 
Heartbeat CPU 0 instructions: 4000002 cycles: 5333512 heartbeat IPC: 0.626857 cumulative IPC: 0.629532 (Simulation time: 0 hr 1 min 28 sec) 
Heartbeat CPU 0 instructions: 5000002 cycles: 6929846 heartbeat IPC: 0.626435 cumulative IPC: 0.628755 (Simulation time: 0 hr 1 min 51 sec) 
Heartbeat CPU 0 instructions: 6000003 cycles: 8559990 heartbeat IPC: 0.613443 cumulative IPC: 0.625632 (Simulation time: 0 hr 2 min 15 sec) 
Heartbeat CPU 0 instructions: 7000001 cycles: 10133096 heartbeat IPC: 0.635684 cumulative IPC: 0.627285 (Simulation time: 0 hr 2 min 38 sec) 
Heartbeat CPU 0 instructions: 8000001 cycles: 11737377 heartbeat IPC: 0.623332 cumulative IPC: 0.626717 (Simulation time: 0 hr 3 min 1 sec) 
Heartbeat CPU 0 instructions: 9000001 cycles: 13318162 heartbeat IPC: 0.632597 cumulative IPC: 0.627446 (Simulation time: 0 hr 3 min 24 sec) 
Heartbeat CPU 0 instructions: 10000000 cycles: 15012210 heartbeat IPC: 0.590301 cumulative IPC: 0.62309 (Simulation time: 0 hr 3 min 47 sec) 

Warmup complete CPU 0 instructions: 10000004 cycles: 15012211 (Simulation time: 0 hr 3 min 47 sec) 

Heartbeat CPU 0 instructions: 11000000 cycles: 16661760 heartbeat IPC: 0.606226 cumulative IPC: 0.606224 (Simulation time: 0 hr 4 min 11 sec) 
Heartbeat CPU 0 instructions: 12000000 cycles: 18280349 heartbeat IPC: 0.617822 cumulative IPC: 0.611968 (Simulation time: 0 hr 4 min 34 sec) 
Heartbeat CPU 0 instructions: 13000002 cycles: 19881562 heartbeat IPC: 0.624528 cumulative IPC: 0.616098 (Simulation time: 0 hr 4 min 58 sec) 
Heartbeat CPU 0 instructions: 14000001 cycles: 21522818 heartbeat IPC: 0.609289 cumulative IPC: 0.614382 (Simulation time: 0 hr 5 min 21 sec) 
Heartbeat CPU 0 instructions: 15000000 cycles: 23155668 heartbeat IPC: 0.612426 cumulative IPC: 0.613989 (Simulation time: 0 hr 5 min 45 sec) 
Heartbeat CPU 0 instructions: 16000002 cycles: 24793149 heartbeat IPC: 0.610695 cumulative IPC: 0.613438 (Simulation time: 0 hr 6 min 9 sec) 
Heartbeat CPU 0 instructions: 17000002 cycles: 26429826 heartbeat IPC: 0.610994 cumulative IPC: 0.613088 (Simulation time: 0 hr 6 min 32 sec) 
Heartbeat CPU 0 instructions: 18000000 cycles: 28066040 heartbeat IPC: 0.611166 cumulative IPC: 0.612847 (Simulation time: 0 hr 6 min 57 sec) 
Heartbeat CPU 0 instructions: 19000000 cycles: 29688515 heartbeat IPC: 0.616342 cumulative IPC: 0.613233 (Simulation time: 0 hr 7 min 20 sec) 
Heartbeat CPU 0 instructions: 20000002 cycles: 31376946 heartbeat IPC: 0.592267 cumulative IPC: 0.61107 (Simulation time: 0 hr 7 min 44 sec) 
Heartbeat CPU 0 instructions: 21000000 cycles: 32955830 heartbeat IPC: 0.633357 cumulative IPC: 0.613031 (Simulation time: 0 hr 8 min 7 sec) 
Heartbeat CPU 0 instructions: 22000000 cycles: 34584146 heartbeat IPC: 0.614131 cumulative IPC: 0.613123 (Simulation time: 0 hr 8 min 30 sec) 
Heartbeat CPU 0 instructions: 23000000 cycles: 36193684 heartbeat IPC: 0.621296 cumulative IPC: 0.613744 (Simulation time: 0 hr 8 min 54 sec) 
Heartbeat CPU 0 instructions: 24000000 cycles: 37796954 heartbeat IPC: 0.623725 cumulative IPC: 0.614446 (Simulation time: 0 hr 9 min 16 sec) 
Heartbeat CPU 0 instructions: 25000000 cycles: 39445330 heartbeat IPC: 0.606658 cumulative IPC: 0.613921 (Simulation time: 0 hr 9 min 40 sec) 
Heartbeat CPU 0 instructions: 26000000 cycles: 41056897 heartbeat IPC: 0.620514 cumulative IPC: 0.614329 (Simulation time: 0 hr 10 min 3 sec) 
Heartbeat CPU 0 instructions: 27000003 cycles: 42676809 heartbeat IPC: 0.617319 cumulative IPC: 0.614504 (Simulation time: 0 hr 10 min 27 sec) 
Heartbeat CPU 0 instructions: 28000000 cycles: 44296528 heartbeat IPC: 0.617389 cumulative IPC: 0.614663 (Simulation time: 0 hr 10 min 50 sec) 
Heartbeat CPU 0 instructions: 29000000 cycles: 45897857 heartbeat IPC: 0.624481 cumulative IPC: 0.615172 (Simulation time: 0 hr 11 min 14 sec) 
Heartbeat CPU 0 instructions: 30000001 cycles: 47508800 heartbeat IPC: 0.620755 cumulative IPC: 0.615449 (Simulation time: 0 hr 11 min 37 sec) 
Heartbeat CPU 0 instructions: 31000002 cycles: 49164841 heartbeat IPC: 0.60385 cumulative IPC: 0.614887 (Simulation time: 0 hr 12 min 0 sec) 
Heartbeat CPU 0 instructions: 32000003 cycles: 50852572 heartbeat IPC: 0.592512 cumulative IPC: 0.613833 (Simulation time: 0 hr 12 min 23 sec) 
Heartbeat CPU 0 instructions: 33000000 cycles: 52456231 heartbeat IPC: 0.623572 cumulative IPC: 0.61425 (Simulation time: 0 hr 12 min 46 sec) 
Heartbeat CPU 0 instructions: 34000002 cycles: 54081324 heartbeat IPC: 0.615351 cumulative IPC: 0.614296 (Simulation time: 0 hr 13 min 10 sec) 
Heartbeat CPU 0 instructions: 35000002 cycles: 55710846 heartbeat IPC: 0.613677 cumulative IPC: 0.614271 (Simulation time: 0 hr 13 min 33 sec) 
Heartbeat CPU 0 instructions: 36000001 cycles: 57315729 heartbeat IPC: 0.623098 cumulative IPC: 0.614606 (Simulation time: 0 hr 13 min 56 sec) 
Heartbeat CPU 0 instructions: 37000001 cycles: 58933042 heartbeat IPC: 0.618309 cumulative IPC: 0.614742 (Simulation time: 0 hr 14 min 19 sec) 
Heartbeat CPU 0 instructions: 38000002 cycles: 60545546 heartbeat IPC: 0.620154 cumulative IPC: 0.614934 (Simulation time: 0 hr 14 min 42 sec) 
Heartbeat CPU 0 instructions: 39000002 cycles: 62174554 heartbeat IPC: 0.613871 cumulative IPC: 0.614897 (Simulation time: 0 hr 15 min 5 sec) 
Heartbeat CPU 0 instructions: 40000003 cycles: 63796189 heartbeat IPC: 0.616662 cumulative IPC: 0.614956 (Simulation time: 0 hr 15 min 28 sec) 
Heartbeat CPU 0 instructions: 41000000 cycles: 65439860 heartbeat IPC: 0.608392 cumulative IPC: 0.614742 (Simulation time: 0 hr 15 min 52 sec) 
Heartbeat CPU 0 instructions: 42000003 cycles: 67045750 heartbeat IPC: 0.62271 cumulative IPC: 0.614988 (Simulation time: 0 hr 16 min 16 sec) 
Heartbeat CPU 0 instructions: 43000001 cycles: 68673567 heartbeat IPC: 0.614318 cumulative IPC: 0.614968 (Simulation time: 0 hr 16 min 40 sec) 
Heartbeat CPU 0 instructions: 44000000 cycles: 70256070 heartbeat IPC: 0.63191 cumulative IPC: 0.615453 (Simulation time: 0 hr 17 min 4 sec) 
Heartbeat CPU 0 instructions: 45000001 cycles: 71883189 heartbeat IPC: 0.614584 cumulative IPC: 0.615428 (Simulation time: 0 hr 17 min 28 sec) 
Heartbeat CPU 0 instructions: 46000001 cycles: 73472464 heartbeat IPC: 0.629218 cumulative IPC: 0.615803 (Simulation time: 0 hr 17 min 52 sec) 
Heartbeat CPU 0 instructions: 47000000 cycles: 75097617 heartbeat IPC: 0.615326 cumulative IPC: 0.61579 (Simulation time: 0 hr 18 min 15 sec) 
Heartbeat CPU 0 instructions: 48000001 cycles: 76707381 heartbeat IPC: 0.62121 cumulative IPC: 0.615931 (Simulation time: 0 hr 18 min 39 sec) 
Heartbeat CPU 0 instructions: 49000001 cycles: 78384970 heartbeat IPC: 0.596094 cumulative IPC: 0.615406 (Simulation time: 0 hr 19 min 3 sec) 
Heartbeat CPU 0 instructions: 50000000 cycles: 79999565 heartbeat IPC: 0.61935 cumulative IPC: 0.615504 (Simulation time: 0 hr 19 min 27 sec) 
Heartbeat CPU 0 instructions: 51000003 cycles: 81625682 heartbeat IPC: 0.614964 cumulative IPC: 0.615491 (Simulation time: 0 hr 19 min 51 sec) 
Heartbeat CPU 0 instructions: 52000001 cycles: 83264059 heartbeat IPC: 0.610359 cumulative IPC: 0.615368 (Simulation time: 0 hr 20 min 15 sec) 
Heartbeat CPU 0 instructions: 53000000 cycles: 84879907 heartbeat IPC: 0.618869 cumulative IPC: 0.615449 (Simulation time: 0 hr 20 min 39 sec) 
Heartbeat CPU 0 instructions: 54000000 cycles: 86482671 heartbeat IPC: 0.623922 cumulative IPC: 0.615639 (Simulation time: 0 hr 21 min 3 sec) 
Heartbeat CPU 0 instructions: 55000000 cycles: 88103702 heartbeat IPC: 0.616891 cumulative IPC: 0.615667 (Simulation time: 0 hr 21 min 26 sec) 
Heartbeat CPU 0 instructions: 56000002 cycles: 89728411 heartbeat IPC: 0.615496 cumulative IPC: 0.615663 (Simulation time: 0 hr 21 min 50 sec) 
Heartbeat CPU 0 instructions: 57000000 cycles: 91344913 heartbeat IPC: 0.618618 cumulative IPC: 0.615726 (Simulation time: 0 hr 22 min 14 sec) 
Heartbeat CPU 0 instructions: 58000000 cycles: 92962997 heartbeat IPC: 0.618015 cumulative IPC: 0.615773 (Simulation time: 0 hr 22 min 38 sec) 
Heartbeat CPU 0 instructions: 59000001 cycles: 94624087 heartbeat IPC: 0.602015 cumulative IPC: 0.615486 (Simulation time: 0 hr 23 min 2 sec) 
Heartbeat CPU 0 instructions: 60000002 cycles: 96263119 heartbeat IPC: 0.610117 cumulative IPC: 0.615378 (Simulation time: 0 hr 23 min 26 sec) 
Heartbeat CPU 0 instructions: 61000000 cycles: 97871633 heartbeat IPC: 0.621691 cumulative IPC: 0.6155 (Simulation time: 0 hr 23 min 50 sec) 
Heartbeat CPU 0 instructions: 62000003 cycles: 99484377 heartbeat IPC: 0.620063 cumulative IPC: 0.615587 (Simulation time: 0 hr 24 min 15 sec) 
Heartbeat CPU 0 instructions: 63000001 cycles: 101105563 heartbeat IPC: 0.616831 cumulative IPC: 0.615611 (Simulation time: 0 hr 24 min 39 sec) 
Heartbeat CPU 0 instructions: 64000000 cycles: 102721557 heartbeat IPC: 0.618814 cumulative IPC: 0.61567 (Simulation time: 0 hr 25 min 3 sec) 
Heartbeat CPU 0 instructions: 65000003 cycles: 104353856 heartbeat IPC: 0.612635 cumulative IPC: 0.615614 (Simulation time: 0 hr 25 min 27 sec) 
Heartbeat CPU 0 instructions: 66000000 cycles: 105994739 heartbeat IPC: 0.609426 cumulative IPC: 0.615503 (Simulation time: 0 hr 25 min 51 sec) 
Heartbeat CPU 0 instructions: 67000000 cycles: 107627637 heartbeat IPC: 0.612408 cumulative IPC: 0.615448 (Simulation time: 0 hr 26 min 15 sec) 
Heartbeat CPU 0 instructions: 68000001 cycles: 109289810 heartbeat IPC: 0.601623 cumulative IPC: 0.615204 (Simulation time: 0 hr 26 min 39 sec) 
Heartbeat CPU 0 instructions: 69000003 cycles: 110895598 heartbeat IPC: 0.622748 cumulative IPC: 0.615331 (Simulation time: 0 hr 27 min 3 sec) 
Heartbeat CPU 0 instructions: 70000000 cycles: 112517601 heartbeat IPC: 0.61652 cumulative IPC: 0.615351 (Simulation time: 0 hr 27 min 27 sec) 
Heartbeat CPU 0 instructions: 71000003 cycles: 114163787 heartbeat IPC: 0.607467 cumulative IPC: 0.61522 (Simulation time: 0 hr 27 min 51 sec) 
Heartbeat CPU 0 instructions: 72000000 cycles: 115847122 heartbeat IPC: 0.594057 cumulative IPC: 0.614866 (Simulation time: 0 hr 28 min 15 sec) 
Heartbeat CPU 0 instructions: 73000001 cycles: 117447643 heartbeat IPC: 0.624797 cumulative IPC: 0.615022 (Simulation time: 0 hr 28 min 39 sec) 
Heartbeat CPU 0 instructions: 74000000 cycles: 119085593 heartbeat IPC: 0.610519 cumulative IPC: 0.614951 (Simulation time: 0 hr 29 min 3 sec) 
Heartbeat CPU 0 instructions: 75000000 cycles: 120717996 heartbeat IPC: 0.612594 cumulative IPC: 0.614914 (Simulation time: 0 hr 29 min 27 sec) 
Heartbeat CPU 0 instructions: 76000003 cycles: 122310396 heartbeat IPC: 0.627985 cumulative IPC: 0.615108 (Simulation time: 0 hr 29 min 51 sec) 
Heartbeat CPU 0 instructions: 77000000 cycles: 123921051 heartbeat IPC: 0.620864 cumulative IPC: 0.615193 (Simulation time: 0 hr 30 min 15 sec) 
Heartbeat CPU 0 instructions: 78000002 cycles: 125560069 heartbeat IPC: 0.610123 cumulative IPC: 0.615118 (Simulation time: 0 hr 30 min 39 sec) 
Heartbeat CPU 0 instructions: 79000001 cycles: 127179937 heartbeat IPC: 0.617334 cumulative IPC: 0.61515 (Simulation time: 0 hr 31 min 3 sec) 
Heartbeat CPU 0 instructions: 80000001 cycles: 128842490 heartbeat IPC: 0.601485 cumulative IPC: 0.614951 (Simulation time: 0 hr 31 min 26 sec) 
Heartbeat CPU 0 instructions: 81000000 cycles: 130424094 heartbeat IPC: 0.632269 cumulative IPC: 0.615188 (Simulation time: 0 hr 31 min 50 sec) 
Heartbeat CPU 0 instructions: 82000003 cycles: 132036321 heartbeat IPC: 0.620262 cumulative IPC: 0.615258 (Simulation time: 0 hr 32 min 13 sec) 
Heartbeat CPU 0 instructions: 83000002 cycles: 133711482 heartbeat IPC: 0.596957 cumulative IPC: 0.615 (Simulation time: 0 hr 32 min 38 sec) 
Heartbeat CPU 0 instructions: 84000002 cycles: 135343420 heartbeat IPC: 0.612768 cumulative IPC: 0.614969 (Simulation time: 0 hr 33 min 2 sec) 
Heartbeat CPU 0 instructions: 85000002 cycles: 136951685 heartbeat IPC: 0.621788 cumulative IPC: 0.615059 (Simulation time: 0 hr 33 min 26 sec) 
Heartbeat CPU 0 instructions: 86000001 cycles: 138568426 heartbeat IPC: 0.618528 cumulative IPC: 0.615105 (Simulation time: 0 hr 33 min 50 sec) 
Heartbeat CPU 0 instructions: 87000001 cycles: 140183719 heartbeat IPC: 0.619083 cumulative IPC: 0.615156 (Simulation time: 0 hr 34 min 14 sec) 
Heartbeat CPU 0 instructions: 88000000 cycles: 141842328 heartbeat IPC: 0.602914 cumulative IPC: 0.614996 (Simulation time: 0 hr 34 min 38 sec) 
Heartbeat CPU 0 instructions: 89000001 cycles: 143459930 heartbeat IPC: 0.6182 cumulative IPC: 0.615036 (Simulation time: 0 hr 35 min 2 sec) 
Heartbeat CPU 0 instructions: 90000002 cycles: 145079701 heartbeat IPC: 0.617372 cumulative IPC: 0.615065 (Simulation time: 0 hr 35 min 26 sec) 
Heartbeat CPU 0 instructions: 91000001 cycles: 146680786 heartbeat IPC: 0.624576 cumulative IPC: 0.615181 (Simulation time: 0 hr 35 min 50 sec) 
Heartbeat CPU 0 instructions: 92000002 cycles: 148292634 heartbeat IPC: 0.620407 cumulative IPC: 0.615244 (Simulation time: 0 hr 36 min 14 sec) 
Heartbeat CPU 0 instructions: 93000001 cycles: 149902899 heartbeat IPC: 0.621015 cumulative IPC: 0.615313 (Simulation time: 0 hr 36 min 38 sec) 
Heartbeat CPU 0 instructions: 94000002 cycles: 151525616 heartbeat IPC: 0.616251 cumulative IPC: 0.615324 (Simulation time: 0 hr 37 min 2 sec) 
Heartbeat CPU 0 instructions: 95000003 cycles: 153163446 heartbeat IPC: 0.610565 cumulative IPC: 0.615268 (Simulation time: 0 hr 37 min 26 sec) 
Heartbeat CPU 0 instructions: 96000002 cycles: 154779261 heartbeat IPC: 0.618882 cumulative IPC: 0.61531 (Simulation time: 0 hr 37 min 50 sec) 
Heartbeat CPU 0 instructions: 97000002 cycles: 156444484 heartbeat IPC: 0.60052 cumulative IPC: 0.615135 (Simulation time: 0 hr 38 min 15 sec) 
Heartbeat CPU 0 instructions: 98000001 cycles: 158061921 heartbeat IPC: 0.618261 cumulative IPC: 0.615171 (Simulation time: 0 hr 38 min 39 sec) 
Heartbeat CPU 0 instructions: 99000000 cycles: 159666910 heartbeat IPC: 0.623057 cumulative IPC: 0.615258 (Simulation time: 0 hr 39 min 3 sec) 
Heartbeat CPU 0 instructions: 100000003 cycles: 161298949 heartbeat IPC: 0.612732 cumulative IPC: 0.61523 (Simulation time: 0 hr 39 min 27 sec) 
Heartbeat CPU 0 instructions: 101000003 cycles: 162957969 heartbeat IPC: 0.602766 cumulative IPC: 0.61509 (Simulation time: 0 hr 39 min 51 sec) 
Heartbeat CPU 0 instructions: 102000003 cycles: 164546625 heartbeat IPC: 0.629463 cumulative IPC: 0.615243 (Simulation time: 0 hr 40 min 14 sec) 
Heartbeat CPU 0 instructions: 103000000 cycles: 166172122 heartbeat IPC: 0.615195 cumulative IPC: 0.615242 (Simulation time: 0 hr 40 min 38 sec) 
Heartbeat CPU 0 instructions: 104000000 cycles: 167806103 heartbeat IPC: 0.612002 cumulative IPC: 0.615208 (Simulation time: 0 hr 41 min 3 sec) 
Heartbeat CPU 0 instructions: 105000000 cycles: 169437011 heartbeat IPC: 0.613155 cumulative IPC: 0.615186 (Simulation time: 0 hr 41 min 27 sec) 
Heartbeat CPU 0 instructions: 106000003 cycles: 171013680 heartbeat IPC: 0.63425 cumulative IPC: 0.615379 (Simulation time: 0 hr 41 min 50 sec) 
Heartbeat CPU 0 instructions: 107000003 cycles: 172631915 heartbeat IPC: 0.617957 cumulative IPC: 0.615405 (Simulation time: 0 hr 42 min 14 sec) 
Heartbeat CPU 0 instructions: 108000001 cycles: 174293705 heartbeat IPC: 0.60176 cumulative IPC: 0.615263 (Simulation time: 0 hr 42 min 38 sec) 
Heartbeat CPU 0 instructions: 109000000 cycles: 175887406 heartbeat IPC: 0.62747 cumulative IPC: 0.615384 (Simulation time: 0 hr 43 min 2 sec) 
Heartbeat CPU 0 instructions: 110000000 cycles: 177502809 heartbeat IPC: 0.619041 cumulative IPC: 0.61542 (Simulation time: 0 hr 43 min 26 sec) 
Heartbeat CPU 0 instructions: 111000001 cycles: 179110561 heartbeat IPC: 0.621987 cumulative IPC: 0.615485 (Simulation time: 0 hr 43 min 50 sec) 
Heartbeat CPU 0 instructions: 112000001 cycles: 180725899 heartbeat IPC: 0.619065 cumulative IPC: 0.615519 (Simulation time: 0 hr 44 min 14 sec) 
Heartbeat CPU 0 instructions: 113000003 cycles: 182349425 heartbeat IPC: 0.615945 cumulative IPC: 0.615524 (Simulation time: 0 hr 44 min 38 sec) 
Heartbeat CPU 0 instructions: 114000003 cycles: 183981727 heartbeat IPC: 0.612632 cumulative IPC: 0.615496 (Simulation time: 0 hr 45 min 2 sec) 
Heartbeat CPU 0 instructions: 115000002 cycles: 185633049 heartbeat IPC: 0.605575 cumulative IPC: 0.6154 (Simulation time: 0 hr 45 min 26 sec) 
Heartbeat CPU 0 instructions: 116000001 cycles: 187242166 heartbeat IPC: 0.621458 cumulative IPC: 0.615456 (Simulation time: 0 hr 45 min 50 sec) 
Heartbeat CPU 0 instructions: 117000003 cycles: 188863665 heartbeat IPC: 0.616715 cumulative IPC: 0.615468 (Simulation time: 0 hr 46 min 14 sec) 
Heartbeat CPU 0 instructions: 118000003 cycles: 190451296 heartbeat IPC: 0.629869 cumulative IPC: 0.615598 (Simulation time: 0 hr 46 min 37 sec) 
Heartbeat CPU 0 instructions: 119000000 cycles: 192078017 heartbeat IPC: 0.614732 cumulative IPC: 0.61559 (Simulation time: 0 hr 47 min 1 sec) 
Heartbeat CPU 0 instructions: 120000002 cycles: 193689252 heartbeat IPC: 0.620643 cumulative IPC: 0.615636 (Simulation time: 0 hr 47 min 25 sec) 
Heartbeat CPU 0 instructions: 121000000 cycles: 195308186 heartbeat IPC: 0.617689 cumulative IPC: 0.615654 (Simulation time: 0 hr 47 min 49 sec) 
Heartbeat CPU 0 instructions: 122000003 cycles: 196936282 heartbeat IPC: 0.614216 cumulative IPC: 0.615641 (Simulation time: 0 hr 48 min 13 sec) 
Heartbeat CPU 0 instructions: 123000002 cycles: 198595506 heartbeat IPC: 0.602691 cumulative IPC: 0.615524 (Simulation time: 0 hr 48 min 37 sec) 
Heartbeat CPU 0 instructions: 124000000 cycles: 200198948 heartbeat IPC: 0.623657 cumulative IPC: 0.615595 (Simulation time: 0 hr 49 min 0 sec) 
Heartbeat CPU 0 instructions: 125000000 cycles: 201828721 heartbeat IPC: 0.613582 cumulative IPC: 0.615577 (Simulation time: 0 hr 49 min 24 sec) 
Heartbeat CPU 0 instructions: 126000003 cycles: 203410126 heartbeat IPC: 0.632351 cumulative IPC: 0.615718 (Simulation time: 0 hr 49 min 48 sec) 
Heartbeat CPU 0 instructions: 127000003 cycles: 205029321 heartbeat IPC: 0.617591 cumulative IPC: 0.615734 (Simulation time: 0 hr 50 min 13 sec) 
Heartbeat CPU 0 instructions: 128000001 cycles: 206649262 heartbeat IPC: 0.617305 cumulative IPC: 0.615747 (Simulation time: 0 hr 50 min 37 sec) 
Heartbeat CPU 0 instructions: 129000003 cycles: 208321059 heartbeat IPC: 0.59816 cumulative IPC: 0.615595 (Simulation time: 0 hr 51 min 1 sec) 
Heartbeat CPU 0 instructions: 130000001 cycles: 209955101 heartbeat IPC: 0.611978 cumulative IPC: 0.615565 (Simulation time: 0 hr 51 min 25 sec) 
Heartbeat CPU 0 instructions: 131000002 cycles: 211584914 heartbeat IPC: 0.613568 cumulative IPC: 0.615548 (Simulation time: 0 hr 51 min 49 sec) 
Heartbeat CPU 0 instructions: 132000000 cycles: 213194945 heartbeat IPC: 0.621105 cumulative IPC: 0.615593 (Simulation time: 0 hr 52 min 13 sec) 
Heartbeat CPU 0 instructions: 133000003 cycles: 214821079 heartbeat IPC: 0.614957 cumulative IPC: 0.615588 (Simulation time: 0 hr 52 min 37 sec) 
Heartbeat CPU 0 instructions: 134000003 cycles: 216410697 heartbeat IPC: 0.629082 cumulative IPC: 0.615695 (Simulation time: 0 hr 53 min 1 sec) 
Heartbeat CPU 0 instructions: 135000002 cycles: 218034793 heartbeat IPC: 0.615727 cumulative IPC: 0.615695 (Simulation time: 0 hr 53 min 25 sec) 
Heartbeat CPU 0 instructions: 136000002 cycles: 219632345 heartbeat IPC: 0.625958 cumulative IPC: 0.615775 (Simulation time: 0 hr 53 min 49 sec) 
Heartbeat CPU 0 instructions: 137000000 cycles: 221260648 heartbeat IPC: 0.614135 cumulative IPC: 0.615762 (Simulation time: 0 hr 54 min 13 sec) 
Heartbeat CPU 0 instructions: 138000001 cycles: 222901471 heartbeat IPC: 0.609451 cumulative IPC: 0.615712 (Simulation time: 0 hr 54 min 37 sec) 
Heartbeat CPU 0 instructions: 139000003 cycles: 224504409 heartbeat IPC: 0.623856 cumulative IPC: 0.615775 (Simulation time: 0 hr 55 min 1 sec) 
Heartbeat CPU 0 instructions: 140000003 cycles: 226126131 heartbeat IPC: 0.616628 cumulative IPC: 0.615781 (Simulation time: 0 hr 55 min 25 sec) 
Heartbeat CPU 0 instructions: 141000002 cycles: 227757258 heartbeat IPC: 0.613072 cumulative IPC: 0.615761 (Simulation time: 0 hr 55 min 49 sec) 
Heartbeat CPU 0 instructions: 142000001 cycles: 229356578 heartbeat IPC: 0.625265 cumulative IPC: 0.615831 (Simulation time: 0 hr 56 min 13 sec) 
Heartbeat CPU 0 instructions: 143000000 cycles: 231014835 heartbeat IPC: 0.603042 cumulative IPC: 0.615733 (Simulation time: 0 hr 56 min 37 sec) 
Heartbeat CPU 0 instructions: 144000000 cycles: 232665249 heartbeat IPC: 0.605909 cumulative IPC: 0.615659 (Simulation time: 0 hr 57 min 1 sec) 
Heartbeat CPU 0 instructions: 145000000 cycles: 234319059 heartbeat IPC: 0.604664 cumulative IPC: 0.615576 (Simulation time: 0 hr 57 min 25 sec) 
Heartbeat CPU 0 instructions: 146000001 cycles: 235935000 heartbeat IPC: 0.618835 cumulative IPC: 0.6156 (Simulation time: 0 hr 57 min 49 sec) 
Heartbeat CPU 0 instructions: 147000002 cycles: 237533560 heartbeat IPC: 0.625564 cumulative IPC: 0.615671 (Simulation time: 0 hr 58 min 13 sec) 
Heartbeat CPU 0 instructions: 148000000 cycles: 239168070 heartbeat IPC: 0.611803 cumulative IPC: 0.615643 (Simulation time: 0 hr 58 min 37 sec) 
Heartbeat CPU 0 instructions: 149000002 cycles: 240796562 heartbeat IPC: 0.614066 cumulative IPC: 0.615632 (Simulation time: 0 hr 59 min 1 sec) 
Heartbeat CPU 0 instructions: 150000000 cycles: 242449622 heartbeat IPC: 0.604937 cumulative IPC: 0.615554 (Simulation time: 0 hr 59 min 25 sec) 
Heartbeat CPU 0 instructions: 151000002 cycles: 244083906 heartbeat IPC: 0.61189 cumulative IPC: 0.615528 (Simulation time: 0 hr 59 min 49 sec) 
Heartbeat CPU 0 instructions: 152000000 cycles: 245718771 heartbeat IPC: 0.61167 cumulative IPC: 0.6155 (Simulation time: 1 hr 0 min 12 sec) 
Heartbeat CPU 0 instructions: 153000000 cycles: 247339609 heartbeat IPC: 0.616965 cumulative IPC: 0.615511 (Simulation time: 1 hr 0 min 36 sec) 
Heartbeat CPU 0 instructions: 154000000 cycles: 248968303 heartbeat IPC: 0.613989 cumulative IPC: 0.6155 (Simulation time: 1 hr 1 min 0 sec) 
Heartbeat CPU 0 instructions: 155000001 cycles: 250608012 heartbeat IPC: 0.609865 cumulative IPC: 0.615461 (Simulation time: 1 hr 1 min 24 sec) 
Heartbeat CPU 0 instructions: 156000003 cycles: 252224766 heartbeat IPC: 0.618525 cumulative IPC: 0.615482 (Simulation time: 1 hr 1 min 48 sec) 
Heartbeat CPU 0 instructions: 157000003 cycles: 253852297 heartbeat IPC: 0.614428 cumulative IPC: 0.615475 (Simulation time: 1 hr 2 min 12 sec) 
Heartbeat CPU 0 instructions: 158000002 cycles: 255488337 heartbeat IPC: 0.611231 cumulative IPC: 0.615446 (Simulation time: 1 hr 2 min 36 sec) 
Heartbeat CPU 0 instructions: 159000000 cycles: 257086197 heartbeat IPC: 0.625836 cumulative IPC: 0.615514 (Simulation time: 1 hr 3 min 0 sec) 
Heartbeat CPU 0 instructions: 160000000 cycles: 258716662 heartbeat IPC: 0.613322 cumulative IPC: 0.6155 (Simulation time: 1 hr 3 min 24 sec) 
Heartbeat CPU 0 instructions: 161000001 cycles: 260321650 heartbeat IPC: 0.623058 cumulative IPC: 0.615549 (Simulation time: 1 hr 3 min 48 sec) 
Heartbeat CPU 0 instructions: 162000003 cycles: 261948958 heartbeat IPC: 0.614513 cumulative IPC: 0.615542 (Simulation time: 1 hr 4 min 12 sec) 
Heartbeat CPU 0 instructions: 163000002 cycles: 263590241 heartbeat IPC: 0.609279 cumulative IPC: 0.615501 (Simulation time: 1 hr 4 min 36 sec) 
Heartbeat CPU 0 instructions: 164000002 cycles: 265205006 heartbeat IPC: 0.619285 cumulative IPC: 0.615525 (Simulation time: 1 hr 5 min 0 sec) 
Heartbeat CPU 0 instructions: 165000000 cycles: 266817684 heartbeat IPC: 0.620085 cumulative IPC: 0.615555 (Simulation time: 1 hr 5 min 24 sec) 
Heartbeat CPU 0 instructions: 166000003 cycles: 268437466 heartbeat IPC: 0.617369 cumulative IPC: 0.615566 (Simulation time: 1 hr 5 min 48 sec) 
Heartbeat CPU 0 instructions: 167000002 cycles: 270074010 heartbeat IPC: 0.611043 cumulative IPC: 0.615537 (Simulation time: 1 hr 6 min 11 sec) 
Heartbeat CPU 0 instructions: 168000002 cycles: 271709562 heartbeat IPC: 0.611414 cumulative IPC: 0.615511 (Simulation time: 1 hr 6 min 35 sec) 
Heartbeat CPU 0 instructions: 169000002 cycles: 273354002 heartbeat IPC: 0.60811 cumulative IPC: 0.615464 (Simulation time: 1 hr 6 min 59 sec) 
Heartbeat CPU 0 instructions: 170000002 cycles: 275004315 heartbeat IPC: 0.605946 cumulative IPC: 0.615403 (Simulation time: 1 hr 7 min 24 sec) 
Heartbeat CPU 0 instructions: 171000003 cycles: 276617177 heartbeat IPC: 0.620016 cumulative IPC: 0.615432 (Simulation time: 1 hr 7 min 48 sec) 
Heartbeat CPU 0 instructions: 172000001 cycles: 278247317 heartbeat IPC: 0.613443 cumulative IPC: 0.615419 (Simulation time: 1 hr 8 min 12 sec) 
Heartbeat CPU 0 instructions: 173000002 cycles: 279863446 heartbeat IPC: 0.618763 cumulative IPC: 0.61544 (Simulation time: 1 hr 8 min 36 sec) 
Heartbeat CPU 0 instructions: 174000002 cycles: 281470704 heartbeat IPC: 0.622178 cumulative IPC: 0.61548 (Simulation time: 1 hr 9 min 0 sec) 
Heartbeat CPU 0 instructions: 175000001 cycles: 283080836 heartbeat IPC: 0.621066 cumulative IPC: 0.615514 (Simulation time: 1 hr 9 min 23 sec) 
Heartbeat CPU 0 instructions: 176000000 cycles: 284718681 heartbeat IPC: 0.610558 cumulative IPC: 0.615484 (Simulation time: 1 hr 9 min 47 sec) 
Heartbeat CPU 0 instructions: 177000003 cycles: 286359969 heartbeat IPC: 0.609279 cumulative IPC: 0.615446 (Simulation time: 1 hr 10 min 11 sec) 
Heartbeat CPU 0 instructions: 178000002 cycles: 287973446 heartbeat IPC: 0.619779 cumulative IPC: 0.615472 (Simulation time: 1 hr 10 min 35 sec) 
Heartbeat CPU 0 instructions: 179000000 cycles: 289596565 heartbeat IPC: 0.616097 cumulative IPC: 0.615476 (Simulation time: 1 hr 10 min 59 sec) 
Heartbeat CPU 0 instructions: 180000002 cycles: 291215815 heartbeat IPC: 0.617571 cumulative IPC: 0.615488 (Simulation time: 1 hr 11 min 23 sec) 
Heartbeat CPU 0 instructions: 181000002 cycles: 292814615 heartbeat IPC: 0.625469 cumulative IPC: 0.615545 (Simulation time: 1 hr 11 min 47 sec) 
Heartbeat CPU 0 instructions: 182000000 cycles: 294421339 heartbeat IPC: 0.622383 cumulative IPC: 0.615585 (Simulation time: 1 hr 12 min 10 sec) 
Heartbeat CPU 0 instructions: 183000000 cycles: 296029680 heartbeat IPC: 0.621759 cumulative IPC: 0.61562 (Simulation time: 1 hr 12 min 34 sec) 
Heartbeat CPU 0 instructions: 184000001 cycles: 297613691 heartbeat IPC: 0.631309 cumulative IPC: 0.615708 (Simulation time: 1 hr 12 min 58 sec) 
Heartbeat CPU 0 instructions: 185000000 cycles: 299245099 heartbeat IPC: 0.612967 cumulative IPC: 0.615692 (Simulation time: 1 hr 13 min 22 sec) 
Heartbeat CPU 0 instructions: 186000001 cycles: 300842454 heartbeat IPC: 0.626036 cumulative IPC: 0.61575 (Simulation time: 1 hr 13 min 45 sec) 
Heartbeat CPU 0 instructions: 187000000 cycles: 302449157 heartbeat IPC: 0.622392 cumulative IPC: 0.615787 (Simulation time: 1 hr 14 min 9 sec) 
Heartbeat CPU 0 instructions: 188000001 cycles: 304088777 heartbeat IPC: 0.609898 cumulative IPC: 0.615754 (Simulation time: 1 hr 14 min 33 sec) 
Heartbeat CPU 0 instructions: 189000000 cycles: 305724816 heartbeat IPC: 0.611232 cumulative IPC: 0.615728 (Simulation time: 1 hr 14 min 57 sec) 
Heartbeat CPU 0 instructions: 190000000 cycles: 307310047 heartbeat IPC: 0.630823 cumulative IPC: 0.61581 (Simulation time: 1 hr 15 min 21 sec) 
Heartbeat CPU 0 instructions: 191000000 cycles: 308960679 heartbeat IPC: 0.605829 cumulative IPC: 0.615754 (Simulation time: 1 hr 15 min 45 sec) 
Heartbeat CPU 0 instructions: 192000003 cycles: 310600519 heartbeat IPC: 0.609817 cumulative IPC: 0.615721 (Simulation time: 1 hr 16 min 9 sec) 
Heartbeat CPU 0 instructions: 193000001 cycles: 312210898 heartbeat IPC: 0.620971 cumulative IPC: 0.61575 (Simulation time: 1 hr 16 min 33 sec) 
Heartbeat CPU 0 instructions: 194000001 cycles: 313811803 heartbeat IPC: 0.624647 cumulative IPC: 0.615797 (Simulation time: 1 hr 16 min 56 sec) 
Heartbeat CPU 0 instructions: 195000002 cycles: 315422455 heartbeat IPC: 0.620867 cumulative IPC: 0.615825 (Simulation time: 1 hr 17 min 21 sec) 
Heartbeat CPU 0 instructions: 196000001 cycles: 317060294 heartbeat IPC: 0.61056 cumulative IPC: 0.615796 (Simulation time: 1 hr 17 min 45 sec) 
Heartbeat CPU 0 instructions: 197000000 cycles: 318698963 heartbeat IPC: 0.610251 cumulative IPC: 0.615766 (Simulation time: 1 hr 18 min 8 sec) 
Heartbeat CPU 0 instructions: 198000000 cycles: 320329894 heartbeat IPC: 0.613147 cumulative IPC: 0.615752 (Simulation time: 1 hr 18 min 32 sec) 
Heartbeat CPU 0 instructions: 199000001 cycles: 321968225 heartbeat IPC: 0.610378 cumulative IPC: 0.615723 (Simulation time: 1 hr 18 min 56 sec) 
Heartbeat CPU 0 instructions: 200000002 cycles: 323593188 heartbeat IPC: 0.615399 cumulative IPC: 0.615722 (Simulation time: 1 hr 19 min 20 sec) 
Heartbeat CPU 0 instructions: 201000000 cycles: 325232768 heartbeat IPC: 0.609911 cumulative IPC: 0.615691 (Simulation time: 1 hr 19 min 45 sec) 
Heartbeat CPU 0 instructions: 202000003 cycles: 326841686 heartbeat IPC: 0.621538 cumulative IPC: 0.615721 (Simulation time: 1 hr 20 min 9 sec) 
Heartbeat CPU 0 instructions: 203000003 cycles: 328479269 heartbeat IPC: 0.610656 cumulative IPC: 0.615695 (Simulation time: 1 hr 20 min 33 sec) 
Heartbeat CPU 0 instructions: 204000002 cycles: 330072959 heartbeat IPC: 0.627474 cumulative IPC: 0.615754 (Simulation time: 1 hr 20 min 57 sec) 
Heartbeat CPU 0 instructions: 205000002 cycles: 331696849 heartbeat IPC: 0.615805 cumulative IPC: 0.615755 (Simulation time: 1 hr 21 min 21 sec) 
Heartbeat CPU 0 instructions: 206000002 cycles: 333322827 heartbeat IPC: 0.615014 cumulative IPC: 0.615751 (Simulation time: 1 hr 21 min 45 sec) 
Heartbeat CPU 0 instructions: 207000002 cycles: 334994249 heartbeat IPC: 0.598293 cumulative IPC: 0.61566 (Simulation time: 1 hr 22 min 10 sec) 
Heartbeat CPU 0 instructions: 208000003 cycles: 336824415 heartbeat IPC: 0.546399 cumulative IPC: 0.615266 (Simulation time: 1 hr 22 min 32 sec) 
Heartbeat CPU 0 instructions: 209000000 cycles: 338906904 heartbeat IPC: 0.480193 cumulative IPC: 0.614397 (Simulation time: 1 hr 22 min 49 sec) 
Heartbeat CPU 0 instructions: 210000000 cycles: 340976671 heartbeat IPC: 0.483146 cumulative IPC: 0.613564 (Simulation time: 1 hr 23 min 7 sec) 
Heartbeat CPU 0 instructions: 211000000 cycles: 343149948 heartbeat IPC: 0.460135 cumulative IPC: 0.612548 (Simulation time: 1 hr 23 min 25 sec) 
Heartbeat CPU 0 instructions: 212000000 cycles: 345564749 heartbeat IPC: 0.414113 cumulative IPC: 0.611098 (Simulation time: 1 hr 23 min 43 sec) 
Heartbeat CPU 0 instructions: 213000000 cycles: 347973014 heartbeat IPC: 0.415237 cumulative IPC: 0.609681 (Simulation time: 1 hr 24 min 1 sec) 
Heartbeat CPU 0 instructions: 214000002 cycles: 350449518 heartbeat IPC: 0.403796 cumulative IPC: 0.608161 (Simulation time: 1 hr 24 min 19 sec) 
Heartbeat CPU 0 instructions: 215000000 cycles: 352870976 heartbeat IPC: 0.412973 cumulative IPC: 0.606762 (Simulation time: 1 hr 24 min 38 sec) 
Heartbeat CPU 0 instructions: 216000000 cycles: 355271054 heartbeat IPC: 0.416653 cumulative IPC: 0.605421 (Simulation time: 1 hr 24 min 56 sec) 
Heartbeat CPU 0 instructions: 217000000 cycles: 357695086 heartbeat IPC: 0.412536 cumulative IPC: 0.604057 (Simulation time: 1 hr 25 min 14 sec) 
Heartbeat CPU 0 instructions: 218000001 cycles: 360141195 heartbeat IPC: 0.408813 cumulative IPC: 0.602673 (Simulation time: 1 hr 25 min 32 sec) 
Heartbeat CPU 0 instructions: 219000003 cycles: 362117171 heartbeat IPC: 0.50608 cumulative IPC: 0.602123 (Simulation time: 1 hr 25 min 49 sec) 
Heartbeat CPU 0 instructions: 220000000 cycles: 363461374 heartbeat IPC: 0.743933 cumulative IPC: 0.60267 (Simulation time: 1 hr 26 min 3 sec) 
Heartbeat CPU 0 instructions: 221000003 cycles: 365137336 heartbeat IPC: 0.596674 cumulative IPC: 0.602642 (Simulation time: 1 hr 26 min 18 sec) 
Heartbeat CPU 0 instructions: 222000002 cycles: 366604423 heartbeat IPC: 0.681622 cumulative IPC: 0.602971 (Simulation time: 1 hr 26 min 34 sec) 
Heartbeat CPU 0 instructions: 223000003 cycles: 368070358 heartbeat IPC: 0.682159 cumulative IPC: 0.6033 (Simulation time: 1 hr 26 min 49 sec) 
Heartbeat CPU 0 instructions: 224000001 cycles: 369652755 heartbeat IPC: 0.631951 cumulative IPC: 0.603428 (Simulation time: 1 hr 27 min 4 sec) 
Heartbeat CPU 0 instructions: 225000000 cycles: 371436807 heartbeat IPC: 0.560521 cumulative IPC: 0.603213 (Simulation time: 1 hr 27 min 20 sec) 
Heartbeat CPU 0 instructions: 226000000 cycles: 373182212 heartbeat IPC: 0.572933 cumulative IPC: 0.603066 (Simulation time: 1 hr 27 min 36 sec) 
Heartbeat CPU 0 instructions: 227000001 cycles: 374988150 heartbeat IPC: 0.553729 cumulative IPC: 0.602818 (Simulation time: 1 hr 27 min 52 sec) 
Heartbeat CPU 0 instructions: 228000002 cycles: 376772361 heartbeat IPC: 0.560472 cumulative IPC: 0.602609 (Simulation time: 1 hr 28 min 7 sec) 
Heartbeat CPU 0 instructions: 229000002 cycles: 378555138 heartbeat IPC: 0.560923 cumulative IPC: 0.602405 (Simulation time: 1 hr 28 min 23 sec) 
Heartbeat CPU 0 instructions: 230000003 cycles: 380339562 heartbeat IPC: 0.560405 cumulative IPC: 0.6022 (Simulation time: 1 hr 28 min 39 sec) 
Heartbeat CPU 0 instructions: 231000000 cycles: 382036358 heartbeat IPC: 0.589344 cumulative IPC: 0.60214 (Simulation time: 1 hr 28 min 54 sec) 
Heartbeat CPU 0 instructions: 232000000 cycles: 383760946 heartbeat IPC: 0.579849 cumulative IPC: 0.602036 (Simulation time: 1 hr 29 min 10 sec) 
Heartbeat CPU 0 instructions: 233000003 cycles: 385532964 heartbeat IPC: 0.56433 cumulative IPC: 0.601856 (Simulation time: 1 hr 29 min 26 sec) 
Heartbeat CPU 0 instructions: 234000002 cycles: 387449287 heartbeat IPC: 0.521832 cumulative IPC: 0.601444 (Simulation time: 1 hr 29 min 42 sec) 
Heartbeat CPU 0 instructions: 235000002 cycles: 389232430 heartbeat IPC: 0.560808 cumulative IPC: 0.60125 (Simulation time: 1 hr 29 min 58 sec) 
Heartbeat CPU 0 instructions: 236000001 cycles: 390877147 heartbeat IPC: 0.608007 cumulative IPC: 0.60128 (Simulation time: 1 hr 30 min 13 sec) 
Heartbeat CPU 0 instructions: 237000003 cycles: 392575419 heartbeat IPC: 0.588835 cumulative IPC: 0.601224 (Simulation time: 1 hr 30 min 33 sec) 
Heartbeat CPU 0 instructions: 238000000 cycles: 394183604 heartbeat IPC: 0.621817 cumulative IPC: 0.601311 (Simulation time: 1 hr 30 min 57 sec) 
Heartbeat CPU 0 instructions: 239000001 cycles: 395816464 heartbeat IPC: 0.612423 cumulative IPC: 0.601359 (Simulation time: 1 hr 31 min 22 sec) 
Heartbeat CPU 0 instructions: 240000001 cycles: 397505484 heartbeat IPC: 0.592059 cumulative IPC: 0.601318 (Simulation time: 1 hr 31 min 46 sec) 
Heartbeat CPU 0 instructions: 241000002 cycles: 399244294 heartbeat IPC: 0.575107 cumulative IPC: 0.601199 (Simulation time: 1 hr 32 min 11 sec) 
Heartbeat CPU 0 instructions: 242000000 cycles: 400902238 heartbeat IPC: 0.603155 cumulative IPC: 0.601208 (Simulation time: 1 hr 32 min 35 sec) 
Heartbeat CPU 0 instructions: 243000000 cycles: 402607743 heartbeat IPC: 0.586337 cumulative IPC: 0.601142 (Simulation time: 1 hr 33 min 0 sec) 
Heartbeat CPU 0 instructions: 244000003 cycles: 404302949 heartbeat IPC: 0.589901 cumulative IPC: 0.601093 (Simulation time: 1 hr 33 min 24 sec) 
Heartbeat CPU 0 instructions: 245000001 cycles: 405959655 heartbeat IPC: 0.603606 cumulative IPC: 0.601104 (Simulation time: 1 hr 33 min 48 sec) 
Heartbeat CPU 0 instructions: 246000002 cycles: 407641564 heartbeat IPC: 0.594563 cumulative IPC: 0.601076 (Simulation time: 1 hr 34 min 12 sec) 
Heartbeat CPU 0 instructions: 247000001 cycles: 409327506 heartbeat IPC: 0.59314 cumulative IPC: 0.601042 (Simulation time: 1 hr 34 min 36 sec) 
Heartbeat CPU 0 instructions: 248000000 cycles: 411015945 heartbeat IPC: 0.592262 cumulative IPC: 0.601004 (Simulation time: 1 hr 35 min 0 sec) 
Heartbeat CPU 0 instructions: 249000002 cycles: 412685851 heartbeat IPC: 0.598837 cumulative IPC: 0.600995 (Simulation time: 1 hr 35 min 24 sec) 
Heartbeat CPU 0 instructions: 250000003 cycles: 414372206 heartbeat IPC: 0.592996 cumulative IPC: 0.600962 (Simulation time: 1 hr 35 min 48 sec) 
Heartbeat CPU 0 instructions: 251000003 cycles: 416052646 heartbeat IPC: 0.595082 cumulative IPC: 0.600937 (Simulation time: 1 hr 36 min 13 sec) 
Heartbeat CPU 0 instructions: 252000000 cycles: 417702444 heartbeat IPC: 0.606133 cumulative IPC: 0.600958 (Simulation time: 1 hr 36 min 37 sec) 
Heartbeat CPU 0 instructions: 253000000 cycles: 419325171 heartbeat IPC: 0.616247 cumulative IPC: 0.60102 (Simulation time: 1 hr 37 min 1 sec) 
Heartbeat CPU 0 instructions: 254000002 cycles: 420980433 heartbeat IPC: 0.604135 cumulative IPC: 0.601032 (Simulation time: 1 hr 37 min 26 sec) 
Heartbeat CPU 0 instructions: 255000002 cycles: 422601189 heartbeat IPC: 0.616996 cumulative IPC: 0.601096 (Simulation time: 1 hr 37 min 49 sec) 
Heartbeat CPU 0 instructions: 256000002 cycles: 424268633 heartbeat IPC: 0.59972 cumulative IPC: 0.60109 (Simulation time: 1 hr 38 min 14 sec) 
Heartbeat CPU 0 instructions: 257000002 cycles: 425911450 heartbeat IPC: 0.608711 cumulative IPC: 0.601121 (Simulation time: 1 hr 38 min 38 sec) 
Heartbeat CPU 0 instructions: 258000002 cycles: 427557710 heartbeat IPC: 0.607437 cumulative IPC: 0.601146 (Simulation time: 1 hr 39 min 2 sec) 
Heartbeat CPU 0 instructions: 259000003 cycles: 429173510 heartbeat IPC: 0.618889 cumulative IPC: 0.601215 (Simulation time: 1 hr 39 min 26 sec) 
Heartbeat CPU 0 instructions: 260000003 cycles: 430847871 heartbeat IPC: 0.597243 cumulative IPC: 0.601199 (Simulation time: 1 hr 39 min 51 sec) 
Heartbeat CPU 0 instructions: 261000000 cycles: 432483052 heartbeat IPC: 0.611551 cumulative IPC: 0.60124 (Simulation time: 1 hr 40 min 15 sec) 
Heartbeat CPU 0 instructions: 262000001 cycles: 434172807 heartbeat IPC: 0.591802 cumulative IPC: 0.601202 (Simulation time: 1 hr 40 min 39 sec) 
Heartbeat CPU 0 instructions: 263000002 cycles: 435805588 heartbeat IPC: 0.612453 cumulative IPC: 0.601245 (Simulation time: 1 hr 41 min 3 sec) 
Heartbeat CPU 0 instructions: 264000000 cycles: 437453534 heartbeat IPC: 0.606815 cumulative IPC: 0.601267 (Simulation time: 1 hr 41 min 27 sec) 
Heartbeat CPU 0 instructions: 265000001 cycles: 439127289 heartbeat IPC: 0.59746 cumulative IPC: 0.601252 (Simulation time: 1 hr 41 min 51 sec) 
Heartbeat CPU 0 instructions: 266000000 cycles: 440803920 heartbeat IPC: 0.596434 cumulative IPC: 0.601233 (Simulation time: 1 hr 42 min 16 sec) 
Heartbeat CPU 0 instructions: 267000000 cycles: 442490474 heartbeat IPC: 0.592925 cumulative IPC: 0.6012 (Simulation time: 1 hr 42 min 41 sec) 
Heartbeat CPU 0 instructions: 268000001 cycles: 444155681 heartbeat IPC: 0.600527 cumulative IPC: 0.601198 (Simulation time: 1 hr 43 min 5 sec) 
Heartbeat CPU 0 instructions: 269000001 cycles: 445787595 heartbeat IPC: 0.612777 cumulative IPC: 0.601241 (Simulation time: 1 hr 43 min 30 sec) 
Heartbeat CPU 0 instructions: 270000001 cycles: 447446019 heartbeat IPC: 0.602982 cumulative IPC: 0.601248 (Simulation time: 1 hr 43 min 53 sec) 
Heartbeat CPU 0 instructions: 271000002 cycles: 449073995 heartbeat IPC: 0.61426 cumulative IPC: 0.601297 (Simulation time: 1 hr 44 min 18 sec) 
Heartbeat CPU 0 instructions: 272000002 cycles: 450714467 heartbeat IPC: 0.609581 cumulative IPC: 0.601328 (Simulation time: 1 hr 44 min 42 sec) 
Heartbeat CPU 0 instructions: 273000002 cycles: 452335579 heartbeat IPC: 0.616861 cumulative IPC: 0.601386 (Simulation time: 1 hr 45 min 6 sec) 
Heartbeat CPU 0 instructions: 274000001 cycles: 453973175 heartbeat IPC: 0.610651 cumulative IPC: 0.60142 (Simulation time: 1 hr 45 min 30 sec) 
Heartbeat CPU 0 instructions: 275000000 cycles: 455616469 heartbeat IPC: 0.608533 cumulative IPC: 0.601447 (Simulation time: 1 hr 45 min 54 sec) 
Heartbeat CPU 0 instructions: 276000003 cycles: 457258994 heartbeat IPC: 0.608821 cumulative IPC: 0.601474 (Simulation time: 1 hr 46 min 18 sec) 
Heartbeat CPU 0 instructions: 277000002 cycles: 458906460 heartbeat IPC: 0.606992 cumulative IPC: 0.601495 (Simulation time: 1 hr 46 min 42 sec) 
Heartbeat CPU 0 instructions: 278000000 cycles: 460570415 heartbeat IPC: 0.600977 cumulative IPC: 0.601493 (Simulation time: 1 hr 47 min 6 sec) 
Heartbeat CPU 0 instructions: 279000002 cycles: 462209135 heartbeat IPC: 0.610234 cumulative IPC: 0.601525 (Simulation time: 1 hr 47 min 30 sec) 
Heartbeat CPU 0 instructions: 280000001 cycles: 463833294 heartbeat IPC: 0.615703 cumulative IPC: 0.601576 (Simulation time: 1 hr 47 min 54 sec) 
Heartbeat CPU 0 instructions: 281000001 cycles: 465473882 heartbeat IPC: 0.609538 cumulative IPC: 0.601605 (Simulation time: 1 hr 48 min 18 sec) 
Heartbeat CPU 0 instructions: 282000000 cycles: 467103878 heartbeat IPC: 0.613498 cumulative IPC: 0.601648 (Simulation time: 1 hr 48 min 42 sec) 
Heartbeat CPU 0 instructions: 283000002 cycles: 468747710 heartbeat IPC: 0.608336 cumulative IPC: 0.601672 (Simulation time: 1 hr 49 min 6 sec) 
Heartbeat CPU 0 instructions: 284000000 cycles: 470386204 heartbeat IPC: 0.610315 cumulative IPC: 0.601703 (Simulation time: 1 hr 49 min 30 sec) 
Heartbeat CPU 0 instructions: 285000003 cycles: 472044290 heartbeat IPC: 0.603107 cumulative IPC: 0.601708 (Simulation time: 1 hr 49 min 54 sec) 
Heartbeat CPU 0 instructions: 286000000 cycles: 473673692 heartbeat IPC: 0.61372 cumulative IPC: 0.601751 (Simulation time: 1 hr 50 min 18 sec) 
Heartbeat CPU 0 instructions: 287000003 cycles: 475298436 heartbeat IPC: 0.615483 cumulative IPC: 0.601799 (Simulation time: 1 hr 50 min 36 sec) 
Heartbeat CPU 0 instructions: 288000003 cycles: 476940567 heartbeat IPC: 0.608965 cumulative IPC: 0.601825 (Simulation time: 1 hr 50 min 47 sec) 
Heartbeat CPU 0 instructions: 289000003 cycles: 478575278 heartbeat IPC: 0.611729 cumulative IPC: 0.60186 (Simulation time: 1 hr 50 min 59 sec) 
Heartbeat CPU 0 instructions: 290000002 cycles: 480199387 heartbeat IPC: 0.615722 cumulative IPC: 0.601908 (Simulation time: 1 hr 51 min 10 sec) 
Heartbeat CPU 0 instructions: 291000000 cycles: 481837265 heartbeat IPC: 0.610545 cumulative IPC: 0.601939 (Simulation time: 1 hr 51 min 21 sec) 
Heartbeat CPU 0 instructions: 292000003 cycles: 483485737 heartbeat IPC: 0.606624 cumulative IPC: 0.601955 (Simulation time: 1 hr 51 min 34 sec) 
Heartbeat CPU 0 instructions: 293000002 cycles: 485132929 heartbeat IPC: 0.607093 cumulative IPC: 0.601973 (Simulation time: 1 hr 51 min 49 sec) 
Heartbeat CPU 0 instructions: 294000000 cycles: 486781020 heartbeat IPC: 0.606761 cumulative IPC: 0.60199 (Simulation time: 1 hr 52 min 6 sec) 
Heartbeat CPU 0 instructions: 295000002 cycles: 488423569 heartbeat IPC: 0.608811 cumulative IPC: 0.602013 (Simulation time: 1 hr 52 min 27 sec) 
Heartbeat CPU 0 instructions: 296000003 cycles: 490066795 heartbeat IPC: 0.60856 cumulative IPC: 0.602036 (Simulation time: 1 hr 52 min 48 sec) 
Heartbeat CPU 0 instructions: 297000000 cycles: 491686209 heartbeat IPC: 0.617505 cumulative IPC: 0.602089 (Simulation time: 1 hr 53 min 11 sec) 
Heartbeat CPU 0 instructions: 298000002 cycles: 493315365 heartbeat IPC: 0.613816 cumulative IPC: 0.602129 (Simulation time: 1 hr 53 min 36 sec) 
Heartbeat CPU 0 instructions: 299000002 cycles: 494962765 heartbeat IPC: 0.607017 cumulative IPC: 0.602145 (Simulation time: 1 hr 54 min 1 sec) 
Heartbeat CPU 0 instructions: 300000000 cycles: 496619494 heartbeat IPC: 0.603598 cumulative IPC: 0.60215 (Simulation time: 1 hr 54 min 25 sec) 
Heartbeat CPU 0 instructions: 301000002 cycles: 498241680 heartbeat IPC: 0.616453 cumulative IPC: 0.602198 (Simulation time: 1 hr 54 min 49 sec) 
Heartbeat CPU 0 instructions: 302000001 cycles: 499885937 heartbeat IPC: 0.608177 cumulative IPC: 0.602219 (Simulation time: 1 hr 55 min 14 sec) 
Heartbeat CPU 0 instructions: 303000001 cycles: 501558110 heartbeat IPC: 0.598024 cumulative IPC: 0.602204 (Simulation time: 1 hr 55 min 38 sec) 
Heartbeat CPU 0 instructions: 304000000 cycles: 503162859 heartbeat IPC: 0.62315 cumulative IPC: 0.602273 (Simulation time: 1 hr 56 min 2 sec) 
Heartbeat CPU 0 instructions: 305000000 cycles: 504807645 heartbeat IPC: 0.607982 cumulative IPC: 0.602292 (Simulation time: 1 hr 56 min 27 sec) 
Heartbeat CPU 0 instructions: 306000001 cycles: 506452850 heartbeat IPC: 0.607828 cumulative IPC: 0.602311 (Simulation time: 1 hr 56 min 51 sec) 
Heartbeat CPU 0 instructions: 307000002 cycles: 508119586 heartbeat IPC: 0.599976 cumulative IPC: 0.602303 (Simulation time: 1 hr 57 min 16 sec) 
Heartbeat CPU 0 instructions: 308000000 cycles: 509778738 heartbeat IPC: 0.602716 cumulative IPC: 0.602304 (Simulation time: 1 hr 57 min 40 sec) 
Heartbeat CPU 0 instructions: 309000001 cycles: 511413018 heartbeat IPC: 0.611891 cumulative IPC: 0.602336 (Simulation time: 1 hr 58 min 4 sec) 
Heartbeat CPU 0 instructions: 310000002 cycles: 513050580 heartbeat IPC: 0.610664 cumulative IPC: 0.602363 (Simulation time: 1 hr 58 min 28 sec) 
Heartbeat CPU 0 instructions: 311000003 cycles: 514682526 heartbeat IPC: 0.612766 cumulative IPC: 0.602397 (Simulation time: 1 hr 58 min 52 sec) 
Heartbeat CPU 0 instructions: 312000003 cycles: 516334390 heartbeat IPC: 0.605377 cumulative IPC: 0.602407 (Simulation time: 1 hr 59 min 16 sec) 
Heartbeat CPU 0 instructions: 313000000 cycles: 517979963 heartbeat IPC: 0.607689 cumulative IPC: 0.602424 (Simulation time: 1 hr 59 min 40 sec) 
Heartbeat CPU 0 instructions: 314000000 cycles: 519606650 heartbeat IPC: 0.614746 cumulative IPC: 0.602464 (Simulation time: 2 hr 0 min 5 sec) 
Heartbeat CPU 0 instructions: 315000001 cycles: 521284269 heartbeat IPC: 0.596084 cumulative IPC: 0.602443 (Simulation time: 2 hr 0 min 29 sec) 
Heartbeat CPU 0 instructions: 316000001 cycles: 522910839 heartbeat IPC: 0.614791 cumulative IPC: 0.602482 (Simulation time: 2 hr 0 min 53 sec) 
Heartbeat CPU 0 instructions: 317000001 cycles: 524556518 heartbeat IPC: 0.607652 cumulative IPC: 0.602499 (Simulation time: 2 hr 1 min 17 sec) 
Heartbeat CPU 0 instructions: 318000000 cycles: 526234047 heartbeat IPC: 0.596114 cumulative IPC: 0.602478 (Simulation time: 2 hr 1 min 42 sec) 
Heartbeat CPU 0 instructions: 319000000 cycles: 527889706 heartbeat IPC: 0.603989 cumulative IPC: 0.602483 (Simulation time: 2 hr 2 min 6 sec) 
Heartbeat CPU 0 instructions: 320000003 cycles: 529558598 heartbeat IPC: 0.599202 cumulative IPC: 0.602472 (Simulation time: 2 hr 2 min 30 sec) 
Heartbeat CPU 0 instructions: 321000003 cycles: 531251825 heartbeat IPC: 0.590588 cumulative IPC: 0.602433 (Simulation time: 2 hr 2 min 54 sec) 
Heartbeat CPU 0 instructions: 322000000 cycles: 532961904 heartbeat IPC: 0.584767 cumulative IPC: 0.602375 (Simulation time: 2 hr 3 min 19 sec) 
Heartbeat CPU 0 instructions: 323000003 cycles: 534630901 heartbeat IPC: 0.599164 cumulative IPC: 0.602365 (Simulation time: 2 hr 3 min 43 sec) 
Heartbeat CPU 0 instructions: 324000003 cycles: 536329570 heartbeat IPC: 0.588696 cumulative IPC: 0.60232 (Simulation time: 2 hr 4 min 7 sec) 
Heartbeat CPU 0 instructions: 325000001 cycles: 538032732 heartbeat IPC: 0.587142 cumulative IPC: 0.602271 (Simulation time: 2 hr 4 min 31 sec) 
Heartbeat CPU 0 instructions: 326000002 cycles: 539721144 heartbeat IPC: 0.592273 cumulative IPC: 0.602239 (Simulation time: 2 hr 4 min 56 sec) 
Heartbeat CPU 0 instructions: 327000001 cycles: 541368909 heartbeat IPC: 0.606882 cumulative IPC: 0.602253 (Simulation time: 2 hr 5 min 21 sec) 
Heartbeat CPU 0 instructions: 328000003 cycles: 543081235 heartbeat IPC: 0.584002 cumulative IPC: 0.602194 (Simulation time: 2 hr 5 min 45 sec) 
Heartbeat CPU 0 instructions: 329000000 cycles: 544750824 heartbeat IPC: 0.598948 cumulative IPC: 0.602184 (Simulation time: 2 hr 6 min 9 sec) 
Heartbeat CPU 0 instructions: 330000000 cycles: 546433504 heartbeat IPC: 0.59429 cumulative IPC: 0.602159 (Simulation time: 2 hr 6 min 34 sec) 
Heartbeat CPU 0 instructions: 331000001 cycles: 548078745 heartbeat IPC: 0.607814 cumulative IPC: 0.602176 (Simulation time: 2 hr 6 min 57 sec) 
Heartbeat CPU 0 instructions: 332000003 cycles: 549693216 heartbeat IPC: 0.619399 cumulative IPC: 0.602228 (Simulation time: 2 hr 7 min 21 sec) 
Heartbeat CPU 0 instructions: 333000000 cycles: 551349564 heartbeat IPC: 0.603736 cumulative IPC: 0.602233 (Simulation time: 2 hr 7 min 46 sec) 
Heartbeat CPU 0 instructions: 334000001 cycles: 552984523 heartbeat IPC: 0.611637 cumulative IPC: 0.602261 (Simulation time: 2 hr 8 min 10 sec) 
Heartbeat CPU 0 instructions: 335000001 cycles: 554609513 heartbeat IPC: 0.615388 cumulative IPC: 0.602301 (Simulation time: 2 hr 8 min 34 sec) 
Heartbeat CPU 0 instructions: 336000001 cycles: 556282711 heartbeat IPC: 0.597658 cumulative IPC: 0.602287 (Simulation time: 2 hr 8 min 58 sec) 
Heartbeat CPU 0 instructions: 337000002 cycles: 557921179 heartbeat IPC: 0.610327 cumulative IPC: 0.602311 (Simulation time: 2 hr 9 min 22 sec) 
Heartbeat CPU 0 instructions: 338000003 cycles: 559572768 heartbeat IPC: 0.605478 cumulative IPC: 0.602321 (Simulation time: 2 hr 9 min 46 sec) 
Heartbeat CPU 0 instructions: 339000001 cycles: 561228454 heartbeat IPC: 0.603978 cumulative IPC: 0.602326 (Simulation time: 2 hr 10 min 11 sec) 
Heartbeat CPU 0 instructions: 340000002 cycles: 562888074 heartbeat IPC: 0.602548 cumulative IPC: 0.602326 (Simulation time: 2 hr 10 min 35 sec) 
Heartbeat CPU 0 instructions: 341000000 cycles: 564521198 heartbeat IPC: 0.612322 cumulative IPC: 0.602356 (Simulation time: 2 hr 10 min 59 sec) 
Heartbeat CPU 0 instructions: 342000003 cycles: 566158772 heartbeat IPC: 0.610661 cumulative IPC: 0.602381 (Simulation time: 2 hr 11 min 24 sec) 
Heartbeat CPU 0 instructions: 343000000 cycles: 567805086 heartbeat IPC: 0.607416 cumulative IPC: 0.602396 (Simulation time: 2 hr 11 min 47 sec) 
Heartbeat CPU 0 instructions: 344000000 cycles: 569452433 heartbeat IPC: 0.607037 cumulative IPC: 0.602409 (Simulation time: 2 hr 12 min 11 sec) 
Heartbeat CPU 0 instructions: 345000003 cycles: 571094093 heartbeat IPC: 0.609141 cumulative IPC: 0.602429 (Simulation time: 2 hr 12 min 35 sec) 
Heartbeat CPU 0 instructions: 346000001 cycles: 572699287 heartbeat IPC: 0.622976 cumulative IPC: 0.602488 (Simulation time: 2 hr 12 min 59 sec) 
Heartbeat CPU 0 instructions: 347000001 cycles: 574370977 heartbeat IPC: 0.598197 cumulative IPC: 0.602476 (Simulation time: 2 hr 13 min 23 sec) 
Heartbeat CPU 0 instructions: 348000001 cycles: 576024870 heartbeat IPC: 0.604634 cumulative IPC: 0.602482 (Simulation time: 2 hr 13 min 47 sec) 
Heartbeat CPU 0 instructions: 349000002 cycles: 577668039 heartbeat IPC: 0.608581 cumulative IPC: 0.6025 (Simulation time: 2 hr 14 min 10 sec) 
Heartbeat CPU 0 instructions: 350000001 cycles: 579356706 heartbeat IPC: 0.592182 cumulative IPC: 0.602469 (Simulation time: 2 hr 14 min 35 sec) 
Heartbeat CPU 0 instructions: 351000001 cycles: 581025942 heartbeat IPC: 0.599076 cumulative IPC: 0.602459 (Simulation time: 2 hr 14 min 59 sec) 
Heartbeat CPU 0 instructions: 352000000 cycles: 582698515 heartbeat IPC: 0.597881 cumulative IPC: 0.602445 (Simulation time: 2 hr 15 min 23 sec) 
Heartbeat CPU 0 instructions: 353000003 cycles: 584396459 heartbeat IPC: 0.588949 cumulative IPC: 0.602405 (Simulation time: 2 hr 15 min 48 sec) 
Heartbeat CPU 0 instructions: 354000001 cycles: 586065699 heartbeat IPC: 0.599074 cumulative IPC: 0.602395 (Simulation time: 2 hr 16 min 12 sec) 
Heartbeat CPU 0 instructions: 355000002 cycles: 587741280 heartbeat IPC: 0.596808 cumulative IPC: 0.602379 (Simulation time: 2 hr 16 min 37 sec) 
Heartbeat CPU 0 instructions: 356000003 cycles: 589367924 heartbeat IPC: 0.614763 cumulative IPC: 0.602414 (Simulation time: 2 hr 17 min 1 sec) 
Heartbeat CPU 0 instructions: 357000001 cycles: 591076556 heartbeat IPC: 0.585262 cumulative IPC: 0.602363 (Simulation time: 2 hr 17 min 26 sec) 
Heartbeat CPU 0 instructions: 358000002 cycles: 592722057 heartbeat IPC: 0.607718 cumulative IPC: 0.602378 (Simulation time: 2 hr 17 min 50 sec) 
Heartbeat CPU 0 instructions: 359000002 cycles: 594367887 heartbeat IPC: 0.607596 cumulative IPC: 0.602393 (Simulation time: 2 hr 18 min 14 sec) 
Heartbeat CPU 0 instructions: 360000001 cycles: 596056571 heartbeat IPC: 0.592176 cumulative IPC: 0.602364 (Simulation time: 2 hr 18 min 39 sec) 
Heartbeat CPU 0 instructions: 361000001 cycles: 597750381 heartbeat IPC: 0.590385 cumulative IPC: 0.602329 (Simulation time: 2 hr 19 min 3 sec) 
Heartbeat CPU 0 instructions: 362000001 cycles: 599430439 heartbeat IPC: 0.595218 cumulative IPC: 0.602308 (Simulation time: 2 hr 19 min 27 sec) 
Heartbeat CPU 0 instructions: 363000000 cycles: 601068955 heartbeat IPC: 0.610308 cumulative IPC: 0.602331 (Simulation time: 2 hr 19 min 51 sec) 
Heartbeat CPU 0 instructions: 364000002 cycles: 602726175 heartbeat IPC: 0.603421 cumulative IPC: 0.602334 (Simulation time: 2 hr 20 min 16 sec) 
Heartbeat CPU 0 instructions: 365000002 cycles: 604400238 heartbeat IPC: 0.597349 cumulative IPC: 0.60232 (Simulation time: 2 hr 20 min 40 sec) 
Heartbeat CPU 0 instructions: 366000003 cycles: 606071572 heartbeat IPC: 0.598325 cumulative IPC: 0.602308 (Simulation time: 2 hr 21 min 5 sec) 
Heartbeat CPU 0 instructions: 367000001 cycles: 607745222 heartbeat IPC: 0.597495 cumulative IPC: 0.602295 (Simulation time: 2 hr 21 min 29 sec) 
Heartbeat CPU 0 instructions: 368000001 cycles: 609408128 heartbeat IPC: 0.601357 cumulative IPC: 0.602292 (Simulation time: 2 hr 21 min 53 sec) 
Heartbeat CPU 0 instructions: 369000001 cycles: 611068446 heartbeat IPC: 0.602294 cumulative IPC: 0.602292 (Simulation time: 2 hr 22 min 17 sec) 
Heartbeat CPU 0 instructions: 370000002 cycles: 612686006 heartbeat IPC: 0.618216 cumulative IPC: 0.602335 (Simulation time: 2 hr 22 min 41 sec) 
Heartbeat CPU 0 instructions: 371000003 cycles: 614382153 heartbeat IPC: 0.589572 cumulative IPC: 0.602299 (Simulation time: 2 hr 23 min 6 sec) 
Heartbeat CPU 0 instructions: 372000001 cycles: 616034952 heartbeat IPC: 0.605033 cumulative IPC: 0.602307 (Simulation time: 2 hr 23 min 29 sec) 
Heartbeat CPU 0 instructions: 373000003 cycles: 617711372 heartbeat IPC: 0.59651 cumulative IPC: 0.602291 (Simulation time: 2 hr 23 min 54 sec) 
Heartbeat CPU 0 instructions: 374000000 cycles: 619366264 heartbeat IPC: 0.604267 cumulative IPC: 0.602296 (Simulation time: 2 hr 24 min 18 sec) 
Heartbeat CPU 0 instructions: 375000000 cycles: 621042333 heartbeat IPC: 0.596634 cumulative IPC: 0.60228 (Simulation time: 2 hr 24 min 42 sec) 
Heartbeat CPU 0 instructions: 376000002 cycles: 622720064 heartbeat IPC: 0.596044 cumulative IPC: 0.602263 (Simulation time: 2 hr 25 min 6 sec) 
Heartbeat CPU 0 instructions: 377000000 cycles: 624404614 heartbeat IPC: 0.593629 cumulative IPC: 0.602239 (Simulation time: 2 hr 25 min 31 sec) 
Heartbeat CPU 0 instructions: 378000003 cycles: 626137050 heartbeat IPC: 0.577224 cumulative IPC: 0.602168 (Simulation time: 2 hr 25 min 55 sec) 
Heartbeat CPU 0 instructions: 379000001 cycles: 627853180 heartbeat IPC: 0.582705 cumulative IPC: 0.602114 (Simulation time: 2 hr 26 min 19 sec) 
Heartbeat CPU 0 instructions: 380000001 cycles: 629522676 heartbeat IPC: 0.598983 cumulative IPC: 0.602105 (Simulation time: 2 hr 26 min 43 sec) 
Heartbeat CPU 0 instructions: 381000002 cycles: 631218778 heartbeat IPC: 0.589588 cumulative IPC: 0.602071 (Simulation time: 2 hr 27 min 8 sec) 
Heartbeat CPU 0 instructions: 382000000 cycles: 632888419 heartbeat IPC: 0.59893 cumulative IPC: 0.602062 (Simulation time: 2 hr 27 min 32 sec) 
Heartbeat CPU 0 instructions: 383000000 cycles: 634587502 heartbeat IPC: 0.588553 cumulative IPC: 0.602025 (Simulation time: 2 hr 27 min 57 sec) 
Heartbeat CPU 0 instructions: 384000003 cycles: 636296191 heartbeat IPC: 0.585246 cumulative IPC: 0.601979 (Simulation time: 2 hr 28 min 21 sec) 
Heartbeat CPU 0 instructions: 385000000 cycles: 637975161 heartbeat IPC: 0.595601 cumulative IPC: 0.601962 (Simulation time: 2 hr 28 min 46 sec) 
Heartbeat CPU 0 instructions: 386000000 cycles: 639614488 heartbeat IPC: 0.610006 cumulative IPC: 0.601983 (Simulation time: 2 hr 29 min 10 sec) 
Heartbeat CPU 0 instructions: 387000003 cycles: 641257921 heartbeat IPC: 0.608484 cumulative IPC: 0.602 (Simulation time: 2 hr 29 min 34 sec) 
Heartbeat CPU 0 instructions: 388000002 cycles: 642917177 heartbeat IPC: 0.602679 cumulative IPC: 0.602002 (Simulation time: 2 hr 29 min 58 sec) 
Heartbeat CPU 0 instructions: 389000002 cycles: 644583943 heartbeat IPC: 0.599964 cumulative IPC: 0.601997 (Simulation time: 2 hr 30 min 22 sec) 
Heartbeat CPU 0 instructions: 390000001 cycles: 646307441 heartbeat IPC: 0.580215 cumulative IPC: 0.601937 (Simulation time: 2 hr 30 min 47 sec) 
Heartbeat CPU 0 instructions: 391000000 cycles: 647945083 heartbeat IPC: 0.610633 cumulative IPC: 0.60196 (Simulation time: 2 hr 31 min 11 sec) 
Heartbeat CPU 0 instructions: 392000003 cycles: 649651823 heartbeat IPC: 0.585914 cumulative IPC: 0.601916 (Simulation time: 2 hr 31 min 36 sec) 
Heartbeat CPU 0 instructions: 393000000 cycles: 651347116 heartbeat IPC: 0.589867 cumulative IPC: 0.601884 (Simulation time: 2 hr 32 min 0 sec) 
Heartbeat CPU 0 instructions: 394000001 cycles: 653062178 heartbeat IPC: 0.58307 cumulative IPC: 0.601834 (Simulation time: 2 hr 32 min 25 sec) 
Heartbeat CPU 0 instructions: 395000000 cycles: 654736029 heartbeat IPC: 0.597424 cumulative IPC: 0.601822 (Simulation time: 2 hr 32 min 49 sec) 
Heartbeat CPU 0 instructions: 396000000 cycles: 656428599 heartbeat IPC: 0.590818 cumulative IPC: 0.601793 (Simulation time: 2 hr 33 min 13 sec) 
Heartbeat CPU 0 instructions: 397000001 cycles: 658064798 heartbeat IPC: 0.611173 cumulative IPC: 0.601817 (Simulation time: 2 hr 33 min 37 sec) 
Heartbeat CPU 0 instructions: 398000003 cycles: 659710186 heartbeat IPC: 0.607761 cumulative IPC: 0.601832 (Simulation time: 2 hr 34 min 2 sec) 
Heartbeat CPU 0 instructions: 399000001 cycles: 661334834 heartbeat IPC: 0.615517 cumulative IPC: 0.601867 (Simulation time: 2 hr 34 min 26 sec) 
Heartbeat CPU 0 instructions: 400000000 cycles: 662969818 heartbeat IPC: 0.611626 cumulative IPC: 0.601891 (Simulation time: 2 hr 34 min 50 sec) 
Heartbeat CPU 0 instructions: 401000003 cycles: 664623985 heartbeat IPC: 0.604536 cumulative IPC: 0.601898 (Simulation time: 2 hr 35 min 14 sec) 
Heartbeat CPU 0 instructions: 402000002 cycles: 666257800 heartbeat IPC: 0.612064 cumulative IPC: 0.601923 (Simulation time: 2 hr 35 min 38 sec) 
Heartbeat CPU 0 instructions: 403000000 cycles: 667861755 heartbeat IPC: 0.623458 cumulative IPC: 0.601976 (Simulation time: 2 hr 36 min 2 sec) 
Heartbeat CPU 0 instructions: 404000001 cycles: 669514051 heartbeat IPC: 0.605219 cumulative IPC: 0.601985 (Simulation time: 2 hr 36 min 26 sec) 
Heartbeat CPU 0 instructions: 405000000 cycles: 671168379 heartbeat IPC: 0.604474 cumulative IPC: 0.601991 (Simulation time: 2 hr 36 min 51 sec) 
Heartbeat CPU 0 instructions: 406000000 cycles: 672846874 heartbeat IPC: 0.595772 cumulative IPC: 0.601975 (Simulation time: 2 hr 37 min 15 sec) 
Heartbeat CPU 0 instructions: 407000000 cycles: 674507116 heartbeat IPC: 0.602322 cumulative IPC: 0.601976 (Simulation time: 2 hr 37 min 39 sec) 
Heartbeat CPU 0 instructions: 408000001 cycles: 676154844 heartbeat IPC: 0.606897 cumulative IPC: 0.601988 (Simulation time: 2 hr 38 min 3 sec) 
Heartbeat CPU 0 instructions: 409000001 cycles: 677824366 heartbeat IPC: 0.598974 cumulative IPC: 0.601981 (Simulation time: 2 hr 38 min 27 sec) 
Heartbeat CPU 0 instructions: 410000000 cycles: 679476104 heartbeat IPC: 0.605422 cumulative IPC: 0.601989 (Simulation time: 2 hr 38 min 52 sec) 
Heartbeat CPU 0 instructions: 411000003 cycles: 681142664 heartbeat IPC: 0.60004 cumulative IPC: 0.601984 (Simulation time: 2 hr 39 min 16 sec) 
Heartbeat CPU 0 instructions: 412000000 cycles: 682797380 heartbeat IPC: 0.604331 cumulative IPC: 0.60199 (Simulation time: 2 hr 39 min 41 sec) 
Heartbeat CPU 0 instructions: 413000000 cycles: 684483366 heartbeat IPC: 0.593125 cumulative IPC: 0.601968 (Simulation time: 2 hr 40 min 5 sec) 
Heartbeat CPU 0 instructions: 414000002 cycles: 686144354 heartbeat IPC: 0.602053 cumulative IPC: 0.601968 (Simulation time: 2 hr 40 min 29 sec) 
Heartbeat CPU 0 instructions: 415000000 cycles: 687803103 heartbeat IPC: 0.602863 cumulative IPC: 0.60197 (Simulation time: 2 hr 40 min 54 sec) 
Heartbeat CPU 0 instructions: 416000000 cycles: 689442169 heartbeat IPC: 0.610104 cumulative IPC: 0.60199 (Simulation time: 2 hr 41 min 18 sec) 
Heartbeat CPU 0 instructions: 417000003 cycles: 691058102 heartbeat IPC: 0.618839 cumulative IPC: 0.60203 (Simulation time: 2 hr 41 min 42 sec) 
Heartbeat CPU 0 instructions: 418000000 cycles: 692702413 heartbeat IPC: 0.608156 cumulative IPC: 0.602045 (Simulation time: 2 hr 42 min 6 sec) 
Heartbeat CPU 0 instructions: 419000000 cycles: 694360911 heartbeat IPC: 0.602955 cumulative IPC: 0.602047 (Simulation time: 2 hr 42 min 31 sec) 
Heartbeat CPU 0 instructions: 420000001 cycles: 695995299 heartbeat IPC: 0.61185 cumulative IPC: 0.602071 (Simulation time: 2 hr 42 min 55 sec) 
Heartbeat CPU 0 instructions: 421000003 cycles: 697643972 heartbeat IPC: 0.60655 cumulative IPC: 0.602082 (Simulation time: 2 hr 43 min 19 sec) 
Heartbeat CPU 0 instructions: 422000001 cycles: 699282940 heartbeat IPC: 0.610139 cumulative IPC: 0.602101 (Simulation time: 2 hr 43 min 43 sec) 
Heartbeat CPU 0 instructions: 423000001 cycles: 700923330 heartbeat IPC: 0.609611 cumulative IPC: 0.602119 (Simulation time: 2 hr 44 min 8 sec) 
Heartbeat CPU 0 instructions: 424000000 cycles: 702562368 heartbeat IPC: 0.610113 cumulative IPC: 0.602138 (Simulation time: 2 hr 44 min 32 sec) 
Heartbeat CPU 0 instructions: 425000000 cycles: 704187914 heartbeat IPC: 0.615178 cumulative IPC: 0.602169 (Simulation time: 2 hr 44 min 56 sec) 
Heartbeat CPU 0 instructions: 426000000 cycles: 705828919 heartbeat IPC: 0.609383 cumulative IPC: 0.602186 (Simulation time: 2 hr 45 min 20 sec) 
Heartbeat CPU 0 instructions: 427000002 cycles: 707461804 heartbeat IPC: 0.612414 cumulative IPC: 0.60221 (Simulation time: 2 hr 45 min 44 sec) 
Heartbeat CPU 0 instructions: 428000001 cycles: 709082935 heartbeat IPC: 0.616853 cumulative IPC: 0.602244 (Simulation time: 2 hr 46 min 8 sec) 
Heartbeat CPU 0 instructions: 429000000 cycles: 710732788 heartbeat IPC: 0.606114 cumulative IPC: 0.602253 (Simulation time: 2 hr 46 min 31 sec) 
Heartbeat CPU 0 instructions: 430000001 cycles: 712356994 heartbeat IPC: 0.615686 cumulative IPC: 0.602285 (Simulation time: 2 hr 46 min 55 sec) 
Heartbeat CPU 0 instructions: 431000001 cycles: 714000191 heartbeat IPC: 0.60857 cumulative IPC: 0.602299 (Simulation time: 2 hr 47 min 19 sec) 
Heartbeat CPU 0 instructions: 432000002 cycles: 715651337 heartbeat IPC: 0.605641 cumulative IPC: 0.602307 (Simulation time: 2 hr 47 min 43 sec) 
Heartbeat CPU 0 instructions: 433000003 cycles: 717343671 heartbeat IPC: 0.5909 cumulative IPC: 0.60228 (Simulation time: 2 hr 48 min 8 sec) 
Heartbeat CPU 0 instructions: 434000001 cycles: 719047976 heartbeat IPC: 0.586748 cumulative IPC: 0.602242 (Simulation time: 2 hr 48 min 32 sec) 
Heartbeat CPU 0 instructions: 435000001 cycles: 720708565 heartbeat IPC: 0.602196 cumulative IPC: 0.602242 (Simulation time: 2 hr 48 min 57 sec) 
Heartbeat CPU 0 instructions: 436000002 cycles: 722364828 heartbeat IPC: 0.603769 cumulative IPC: 0.602246 (Simulation time: 2 hr 49 min 21 sec) 
Heartbeat CPU 0 instructions: 437000001 cycles: 724074300 heartbeat IPC: 0.584975 cumulative IPC: 0.602204 (Simulation time: 2 hr 49 min 45 sec) 
Heartbeat CPU 0 instructions: 438000001 cycles: 725772147 heartbeat IPC: 0.588981 cumulative IPC: 0.602172 (Simulation time: 2 hr 50 min 10 sec) 
Heartbeat CPU 0 instructions: 439000001 cycles: 727449523 heartbeat IPC: 0.596169 cumulative IPC: 0.602158 (Simulation time: 2 hr 50 min 35 sec) 
Heartbeat CPU 0 instructions: 440000000 cycles: 729170057 heartbeat IPC: 0.581214 cumulative IPC: 0.602108 (Simulation time: 2 hr 50 min 59 sec) 
Heartbeat CPU 0 instructions: 441000002 cycles: 730858721 heartbeat IPC: 0.592185 cumulative IPC: 0.602084 (Simulation time: 2 hr 51 min 24 sec) 
Heartbeat CPU 0 instructions: 442000003 cycles: 732513145 heartbeat IPC: 0.604441 cumulative IPC: 0.60209 (Simulation time: 2 hr 51 min 49 sec) 
Heartbeat CPU 0 instructions: 443000001 cycles: 734147467 heartbeat IPC: 0.611873 cumulative IPC: 0.602112 (Simulation time: 2 hr 52 min 13 sec) 
Heartbeat CPU 0 instructions: 444000003 cycles: 735797237 heartbeat IPC: 0.606146 cumulative IPC: 0.602121 (Simulation time: 2 hr 52 min 38 sec) 
Heartbeat CPU 0 instructions: 445000000 cycles: 737404411 heartbeat IPC: 0.622208 cumulative IPC: 0.602166 (Simulation time: 2 hr 53 min 2 sec) 
Heartbeat CPU 0 instructions: 446000000 cycles: 739059270 heartbeat IPC: 0.604281 cumulative IPC: 0.602171 (Simulation time: 2 hr 53 min 26 sec) 
Heartbeat CPU 0 instructions: 447000000 cycles: 740689784 heartbeat IPC: 0.613304 cumulative IPC: 0.602196 (Simulation time: 2 hr 53 min 50 sec) 
Heartbeat CPU 0 instructions: 448000000 cycles: 742336855 heartbeat IPC: 0.607138 cumulative IPC: 0.602207 (Simulation time: 2 hr 54 min 15 sec) 
Heartbeat CPU 0 instructions: 449000003 cycles: 743975193 heartbeat IPC: 0.610376 cumulative IPC: 0.602225 (Simulation time: 2 hr 54 min 39 sec) 
Heartbeat CPU 0 instructions: 450000000 cycles: 745629244 heartbeat IPC: 0.604574 cumulative IPC: 0.602231 (Simulation time: 2 hr 55 min 3 sec) 
Heartbeat CPU 0 instructions: 451000000 cycles: 747255114 heartbeat IPC: 0.615055 cumulative IPC: 0.602259 (Simulation time: 2 hr 55 min 27 sec) 
Heartbeat CPU 0 instructions: 452000002 cycles: 748901401 heartbeat IPC: 0.607429 cumulative IPC: 0.602271 (Simulation time: 2 hr 55 min 52 sec) 
Heartbeat CPU 0 instructions: 453000003 cycles: 750550472 heartbeat IPC: 0.606403 cumulative IPC: 0.60228 (Simulation time: 2 hr 56 min 16 sec) 
Heartbeat CPU 0 instructions: 454000001 cycles: 752187008 heartbeat IPC: 0.611046 cumulative IPC: 0.602299 (Simulation time: 2 hr 56 min 40 sec) 
Heartbeat CPU 0 instructions: 455000003 cycles: 753824357 heartbeat IPC: 0.610745 cumulative IPC: 0.602318 (Simulation time: 2 hr 57 min 4 sec) 
Heartbeat CPU 0 instructions: 456000003 cycles: 755491181 heartbeat IPC: 0.599943 cumulative IPC: 0.602313 (Simulation time: 2 hr 57 min 29 sec) 
Heartbeat CPU 0 instructions: 457000000 cycles: 757129423 heartbeat IPC: 0.610409 cumulative IPC: 0.602331 (Simulation time: 2 hr 57 min 53 sec) 
Heartbeat CPU 0 instructions: 458000001 cycles: 758762977 heartbeat IPC: 0.612163 cumulative IPC: 0.602352 (Simulation time: 2 hr 58 min 17 sec) 
Heartbeat CPU 0 instructions: 459000000 cycles: 760432827 heartbeat IPC: 0.598856 cumulative IPC: 0.602345 (Simulation time: 2 hr 58 min 41 sec) 
Heartbeat CPU 0 instructions: 460000003 cycles: 762097516 heartbeat IPC: 0.600715 cumulative IPC: 0.602341 (Simulation time: 2 hr 59 min 6 sec) 
Heartbeat CPU 0 instructions: 461000003 cycles: 763733109 heartbeat IPC: 0.611399 cumulative IPC: 0.602361 (Simulation time: 2 hr 59 min 30 sec) 
Heartbeat CPU 0 instructions: 462000000 cycles: 765415007 heartbeat IPC: 0.594565 cumulative IPC: 0.602343 (Simulation time: 2 hr 59 min 54 sec) 
Heartbeat CPU 0 instructions: 463000000 cycles: 767047732 heartbeat IPC: 0.612473 cumulative IPC: 0.602365 (Simulation time: 3 hr 0 min 18 sec) 
Heartbeat CPU 0 instructions: 464000003 cycles: 768669636 heartbeat IPC: 0.616561 cumulative IPC: 0.602396 (Simulation time: 3 hr 0 min 43 sec) 
Heartbeat CPU 0 instructions: 465000002 cycles: 770315062 heartbeat IPC: 0.607745 cumulative IPC: 0.602407 (Simulation time: 3 hr 1 min 7 sec) 
Heartbeat CPU 0 instructions: 466000002 cycles: 771993567 heartbeat IPC: 0.595768 cumulative IPC: 0.602393 (Simulation time: 3 hr 1 min 32 sec) 
Heartbeat CPU 0 instructions: 467000002 cycles: 773640557 heartbeat IPC: 0.607168 cumulative IPC: 0.602403 (Simulation time: 3 hr 1 min 56 sec) 
Heartbeat CPU 0 instructions: 468000003 cycles: 775292788 heartbeat IPC: 0.605243 cumulative IPC: 0.602409 (Simulation time: 3 hr 2 min 21 sec) 
Heartbeat CPU 0 instructions: 469000003 cycles: 776927156 heartbeat IPC: 0.611857 cumulative IPC: 0.602429 (Simulation time: 3 hr 2 min 45 sec) 
Heartbeat CPU 0 instructions: 470000000 cycles: 778574119 heartbeat IPC: 0.607176 cumulative IPC: 0.60244 (Simulation time: 3 hr 3 min 9 sec) 
Heartbeat CPU 0 instructions: 471000000 cycles: 780214527 heartbeat IPC: 0.609604 cumulative IPC: 0.602455 (Simulation time: 3 hr 3 min 34 sec) 
Heartbeat CPU 0 instructions: 472000003 cycles: 781872582 heartbeat IPC: 0.603118 cumulative IPC: 0.602456 (Simulation time: 3 hr 3 min 58 sec) 
Heartbeat CPU 0 instructions: 473000000 cycles: 783508070 heartbeat IPC: 0.611436 cumulative IPC: 0.602476 (Simulation time: 3 hr 4 min 23 sec) 
Heartbeat CPU 0 instructions: 474000003 cycles: 785158970 heartbeat IPC: 0.605732 cumulative IPC: 0.602483 (Simulation time: 3 hr 4 min 47 sec) 
Heartbeat CPU 0 instructions: 475000002 cycles: 786776432 heartbeat IPC: 0.618252 cumulative IPC: 0.602516 (Simulation time: 3 hr 5 min 11 sec) 
Heartbeat CPU 0 instructions: 476000003 cycles: 788431310 heartbeat IPC: 0.604275 cumulative IPC: 0.602519 (Simulation time: 3 hr 5 min 36 sec) 
Heartbeat CPU 0 instructions: 477000002 cycles: 790051777 heartbeat IPC: 0.617105 cumulative IPC: 0.60255 (Simulation time: 3 hr 6 min 0 sec) 
Heartbeat CPU 0 instructions: 478000000 cycles: 791664195 heartbeat IPC: 0.620185 cumulative IPC: 0.602587 (Simulation time: 3 hr 6 min 24 sec) 
Heartbeat CPU 0 instructions: 479000001 cycles: 793310965 heartbeat IPC: 0.60725 cumulative IPC: 0.602596 (Simulation time: 3 hr 6 min 48 sec) 
Heartbeat CPU 0 instructions: 480000001 cycles: 794977657 heartbeat IPC: 0.599991 cumulative IPC: 0.602591 (Simulation time: 3 hr 7 min 13 sec) 
Heartbeat CPU 0 instructions: 481000002 cycles: 796624282 heartbeat IPC: 0.607303 cumulative IPC: 0.602601 (Simulation time: 3 hr 7 min 37 sec) 
Heartbeat CPU 0 instructions: 482000001 cycles: 798257203 heartbeat IPC: 0.612399 cumulative IPC: 0.602621 (Simulation time: 3 hr 8 min 1 sec) 
Heartbeat CPU 0 instructions: 483000002 cycles: 799913578 heartbeat IPC: 0.603729 cumulative IPC: 0.602623 (Simulation time: 3 hr 8 min 26 sec) 
Heartbeat CPU 0 instructions: 484000000 cycles: 801565193 heartbeat IPC: 0.605467 cumulative IPC: 0.602629 (Simulation time: 3 hr 8 min 50 sec) 
Heartbeat CPU 0 instructions: 485000000 cycles: 803216350 heartbeat IPC: 0.605636 cumulative IPC: 0.602636 (Simulation time: 3 hr 9 min 15 sec) 
Heartbeat CPU 0 instructions: 486000000 cycles: 804854868 heartbeat IPC: 0.610308 cumulative IPC: 0.602652 (Simulation time: 3 hr 9 min 40 sec) 
Heartbeat CPU 0 instructions: 487000001 cycles: 806509055 heartbeat IPC: 0.604527 cumulative IPC: 0.602656 (Simulation time: 3 hr 10 min 4 sec) 
Heartbeat CPU 0 instructions: 488000001 cycles: 808154675 heartbeat IPC: 0.607674 cumulative IPC: 0.602666 (Simulation time: 3 hr 10 min 28 sec) 
Heartbeat CPU 0 instructions: 489000000 cycles: 809807073 heartbeat IPC: 0.60518 cumulative IPC: 0.602671 (Simulation time: 3 hr 10 min 53 sec) 
Heartbeat CPU 0 instructions: 490000002 cycles: 811439651 heartbeat IPC: 0.612529 cumulative IPC: 0.602691 (Simulation time: 3 hr 11 min 17 sec) 
Heartbeat CPU 0 instructions: 491000000 cycles: 813068689 heartbeat IPC: 0.613858 cumulative IPC: 0.602714 (Simulation time: 3 hr 11 min 41 sec) 
Heartbeat CPU 0 instructions: 492000001 cycles: 814744865 heartbeat IPC: 0.596597 cumulative IPC: 0.602701 (Simulation time: 3 hr 12 min 5 sec) 
Heartbeat CPU 0 instructions: 493000001 cycles: 816374970 heartbeat IPC: 0.613457 cumulative IPC: 0.602723 (Simulation time: 3 hr 12 min 30 sec) 
Heartbeat CPU 0 instructions: 494000001 cycles: 818015187 heartbeat IPC: 0.609675 cumulative IPC: 0.602737 (Simulation time: 3 hr 12 min 54 sec) 
Heartbeat CPU 0 instructions: 495000000 cycles: 819667989 heartbeat IPC: 0.605033 cumulative IPC: 0.602742 (Simulation time: 3 hr 13 min 18 sec) 
Heartbeat CPU 0 instructions: 496000000 cycles: 821274135 heartbeat IPC: 0.622608 cumulative IPC: 0.602782 (Simulation time: 3 hr 13 min 43 sec) 
Heartbeat CPU 0 instructions: 497000001 cycles: 822931514 heartbeat IPC: 0.603363 cumulative IPC: 0.602783 (Simulation time: 3 hr 14 min 7 sec) 
Heartbeat CPU 0 instructions: 498000002 cycles: 824600727 heartbeat IPC: 0.599085 cumulative IPC: 0.602775 (Simulation time: 3 hr 14 min 31 sec) 
Heartbeat CPU 0 instructions: 499000001 cycles: 826292362 heartbeat IPC: 0.591143 cumulative IPC: 0.602751 (Simulation time: 3 hr 14 min 56 sec) 
Heartbeat CPU 0 instructions: 500000002 cycles: 827950264 heartbeat IPC: 0.603173 cumulative IPC: 0.602752 (Simulation time: 3 hr 15 min 20 sec) 
Heartbeat CPU 0 instructions: 501000002 cycles: 829570680 heartbeat IPC: 0.617125 cumulative IPC: 0.602781 (Simulation time: 3 hr 15 min 44 sec) 
Heartbeat CPU 0 instructions: 502000001 cycles: 831199158 heartbeat IPC: 0.61407 cumulative IPC: 0.602803 (Simulation time: 3 hr 16 min 9 sec) 
Heartbeat CPU 0 instructions: 503000001 cycles: 832823652 heartbeat IPC: 0.615576 cumulative IPC: 0.602828 (Simulation time: 3 hr 16 min 33 sec) 
Heartbeat CPU 0 instructions: 504000003 cycles: 834465182 heartbeat IPC: 0.609189 cumulative IPC: 0.602841 (Simulation time: 3 hr 16 min 58 sec) 
Heartbeat CPU 0 instructions: 505000002 cycles: 836095617 heartbeat IPC: 0.613333 cumulative IPC: 0.602862 (Simulation time: 3 hr 17 min 21 sec) 
Heartbeat CPU 0 instructions: 506000000 cycles: 837726331 heartbeat IPC: 0.613227 cumulative IPC: 0.602883 (Simulation time: 3 hr 17 min 45 sec) 
Heartbeat CPU 0 instructions: 507000000 cycles: 839368325 heartbeat IPC: 0.609016 cumulative IPC: 0.602895 (Simulation time: 3 hr 18 min 10 sec) 
Heartbeat CPU 0 instructions: 508000000 cycles: 840993327 heartbeat IPC: 0.615384 cumulative IPC: 0.602919 (Simulation time: 3 hr 18 min 34 sec) 
Heartbeat CPU 0 instructions: 509000002 cycles: 842638451 heartbeat IPC: 0.607858 cumulative IPC: 0.602929 (Simulation time: 3 hr 18 min 58 sec) 
Heartbeat CPU 0 instructions: 510000001 cycles: 844272276 heartbeat IPC: 0.61206 cumulative IPC: 0.602947 (Simulation time: 3 hr 19 min 22 sec) 
Finished CPU 0 instructions: 500000001 cycles: 829260066 cumulative IPC: 0.602947 (Simulation time: 3 hr 19 min 22 sec) 

ChampSim completed all CPUs

Region of Interest Statistics

CPU 0 cumulative IPC: 0.602947 instructions: 500000001 cycles: 829260066
L1D TOTAL     ACCESS:  197625540  HIT:  185670417  MISS:   11955123
L1D LOAD      ACCESS:  183787197  HIT:  172107304  MISS:   11679893
L1D RFO       ACCESS:   13838343  HIT:   13563113  MISS:     275230
L1D PREFETCH  ACCESS:          0  HIT:          0  MISS:          0
L1D WRITEBACK ACCESS:          0  HIT:          0  MISS:          0
L1D PREFETCH  REQUESTED:          0  ISSUED:          0  USEFUL:          0  USELESS:          0  UAC CORRECT:          0
L1D AVERAGE MISS LATENCY: 322.247 cycles
L1I TOTAL     ACCESS:   84599418  HIT:   84599392  MISS:         26
L1I LOAD      ACCESS:   84599418  HIT:   84599392  MISS:         26
L1I RFO       ACCESS:          0  HIT:          0  MISS:          0
L1I PREFETCH  ACCESS:          0  HIT:          0  MISS:          0
L1I WRITEBACK ACCESS:          0  HIT:          0  MISS:          0
L1I PREFETCH  REQUESTED:          0  ISSUED:          0  USEFUL:          0  USELESS:          0  UAC CORRECT:          0
L1I AVERAGE MISS LATENCY: 239.654 cycles
L2C TOTAL     ACCESS:   12399525  HIT:     997921  MISS:   11401604
L2C LOAD      ACCESS:   11679907  HIT:     553376  MISS:   11126531
L2C RFO       ACCESS:     275200  HIT:        180  MISS:     275020
L2C PREFETCH  ACCESS:          0  HIT:          0  MISS:          0
L2C WRITEBACK ACCESS:     444418  HIT:     444365  MISS:         53
L2C PREFETCH  REQUESTED:          0  ISSUED:          0  USEFUL:          0  USELESS:          0  UAC CORRECT:          0
L2C AVERAGE MISS LATENCY: 321.305 cycles
LLC TOTAL     ACCESS:   11845635  HIT:     444785  MISS:   11400850
LLC LOAD      ACCESS:   11126531  HIT:        754  MISS:   11125777
LLC RFO       ACCESS:     275020  HIT:          0  MISS:     275020
LLC PREFETCH  ACCESS:          0  HIT:          0  MISS:          0
LLC WRITEBACK ACCESS:     444084  HIT:     444031  MISS:         53
LLC PREFETCH  REQUESTED:          0  ISSUED:          0  USEFUL:          0  USELESS:          0  UAC CORRECT:          0
LLC AVERAGE MISS LATENCY: 289.745 cycles
Major fault: 0 Minor fault: 104830

DRAM Statistics
 CHANNEL 0
 RQ ROW_BUFFER_HIT:    5299377  ROW_BUFFER_MISS:     401036
 DBUS_CONGESTED:    1206587
 WQ ROW_BUFFER_HIT:     169892  ROW_BUFFER_MISS:      52195  FULL:          0

 CHANNEL 1
 RQ ROW_BUFFER_HIT:    5299299  ROW_BUFFER_MISS:     401085
 DBUS_CONGESTED:    1206587
 WQ ROW_BUFFER_HIT:     169073  ROW_BUFFER_MISS:      53012  FULL:          0

 AVG_CONGESTED_CYCLE: 15

CPU 0 Branch Prediction Accuracy: 99.9174% MPKI: 0.030914 Average ROB Occupancy at Mispredict: 331.095

Branch types
NOT_BRANCH: 481292034 96.2584%
BRANCH_DIRECT_JUMP: 270400 0.05408%
BRANCH_INDIRECT: 0 0%
BRANCH_CONDITIONAL: 18437558 3.68751%
BRANCH_DIRECT_CALL: 1 2e-07%
BRANCH_INDIRECT_CALL: 0 0%
BRANCH_RETURN: 1 2e-07%
BRANCH_OTHER: 0 0%


gzip: stdout: Broken pipe
