
*** ChampSim Multicore Out-of-Order Simulator ***

Warmup Instructions: 1000000
Prefetch Warmup Instructions: 10000000
Simulation Instructions: 500000000
Stat Printing Period: 1000000
Number of CPUs: 1
LLC sets: 2048
LLC ways: 16
Off-chip DRAM Size: 32768 MB Channels: 2 Width: 64-bit Data Rate: 1024 MT/s

CPU 0 runs /scratch/cluster/cmolder/ML-DPC/ChampSimTraces/spec06/410.bwaves-s1.trace.gz
Read seed: 1017
Heartbeat CPU 0 instructions: 1000002 cycles: 567978 heartbeat IPC: 1.76064 cumulative IPC: 1.76064 (Simulation time: 0 hr 0 min 14 sec) 

Warmup complete CPU 0 instructions: 1000002 cycles: 567978 (Simulation time: 0 hr 0 min 14 sec) 

Heartbeat CPU 0 instructions: 2000003 cycles: 2165806 heartbeat IPC: 0.62585 cumulative IPC: 0.62585 (Simulation time: 0 hr 0 min 34 sec) 
Heartbeat CPU 0 instructions: 3000001 cycles: 3728867 heartbeat IPC: 0.639769 cumulative IPC: 0.632733 (Simulation time: 0 hr 0 min 52 sec) 
Heartbeat CPU 0 instructions: 4000001 cycles: 5320943 heartbeat IPC: 0.628111 cumulative IPC: 0.631185 (Simulation time: 0 hr 1 min 12 sec) 
Heartbeat CPU 0 instructions: 5000000 cycles: 6951124 heartbeat IPC: 0.613428 cumulative IPC: 0.62665 (Simulation time: 0 hr 1 min 30 sec) 
Heartbeat CPU 0 instructions: 6000001 cycles: 8579428 heartbeat IPC: 0.614137 cumulative IPC: 0.624107 (Simulation time: 0 hr 1 min 49 sec) 
Heartbeat CPU 0 instructions: 7000001 cycles: 10148392 heartbeat IPC: 0.637363 cumulative IPC: 0.626278 (Simulation time: 0 hr 2 min 7 sec) 
Heartbeat CPU 0 instructions: 8000001 cycles: 11768113 heartbeat IPC: 0.61739 cumulative IPC: 0.624992 (Simulation time: 0 hr 2 min 27 sec) 
Heartbeat CPU 0 instructions: 9000001 cycles: 13360158 heartbeat IPC: 0.628123 cumulative IPC: 0.625382 (Simulation time: 0 hr 2 min 46 sec) 
Heartbeat CPU 0 instructions: 10000001 cycles: 15035077 heartbeat IPC: 0.597044 cumulative IPC: 0.622101 (Simulation time: 0 hr 3 min 6 sec) 

Warmup complete CPU 0 instructions: 10000001 cycles: 15035077 (Simulation time: 0 hr 3 min 6 sec) 

Heartbeat CPU 0 instructions: 11000000 cycles: 16694435 heartbeat IPC: 0.602642 cumulative IPC: 0.602642 (Simulation time: 0 hr 3 min 24 sec) 
Heartbeat CPU 0 instructions: 12000001 cycles: 18311435 heartbeat IPC: 0.61843 cumulative IPC: 0.610434 (Simulation time: 0 hr 3 min 44 sec) 
Heartbeat CPU 0 instructions: 13000000 cycles: 19929462 heartbeat IPC: 0.618036 cumulative IPC: 0.612947 (Simulation time: 0 hr 4 min 3 sec) 
Heartbeat CPU 0 instructions: 14000001 cycles: 21555776 heartbeat IPC: 0.614888 cumulative IPC: 0.613431 (Simulation time: 0 hr 4 min 22 sec) 
Heartbeat CPU 0 instructions: 15000001 cycles: 23194050 heartbeat IPC: 0.610399 cumulative IPC: 0.612822 (Simulation time: 0 hr 4 min 40 sec) 
Heartbeat CPU 0 instructions: 16000000 cycles: 24809538 heartbeat IPC: 0.619007 cumulative IPC: 0.613845 (Simulation time: 0 hr 4 min 59 sec) 
Heartbeat CPU 0 instructions: 17000001 cycles: 26459587 heartbeat IPC: 0.606043 cumulative IPC: 0.612718 (Simulation time: 0 hr 5 min 19 sec) 
Heartbeat CPU 0 instructions: 18000000 cycles: 28083633 heartbeat IPC: 0.615745 cumulative IPC: 0.613095 (Simulation time: 0 hr 5 min 39 sec) 
Heartbeat CPU 0 instructions: 19000000 cycles: 29701487 heartbeat IPC: 0.618103 cumulative IPC: 0.613647 (Simulation time: 0 hr 5 min 58 sec) 
Heartbeat CPU 0 instructions: 20000000 cycles: 31367112 heartbeat IPC: 0.600375 cumulative IPC: 0.612293 (Simulation time: 0 hr 6 min 18 sec) 
Heartbeat CPU 0 instructions: 21000002 cycles: 32957579 heartbeat IPC: 0.628747 cumulative IPC: 0.613754 (Simulation time: 0 hr 6 min 33 sec) 
Heartbeat CPU 0 instructions: 22000000 cycles: 34562394 heartbeat IPC: 0.623124 cumulative IPC: 0.614524 (Simulation time: 0 hr 6 min 51 sec) 
Heartbeat CPU 0 instructions: 23000003 cycles: 36183341 heartbeat IPC: 0.616925 cumulative IPC: 0.614708 (Simulation time: 0 hr 7 min 11 sec) 
Heartbeat CPU 0 instructions: 24000001 cycles: 37763406 heartbeat IPC: 0.632884 cumulative IPC: 0.615971 (Simulation time: 0 hr 7 min 26 sec) 
Heartbeat CPU 0 instructions: 25000003 cycles: 39435883 heartbeat IPC: 0.597917 cumulative IPC: 0.614734 (Simulation time: 0 hr 7 min 34 sec) 
Heartbeat CPU 0 instructions: 26000000 cycles: 41041786 heartbeat IPC: 0.622701 cumulative IPC: 0.615226 (Simulation time: 0 hr 7 min 42 sec) 
Heartbeat CPU 0 instructions: 27000000 cycles: 42671794 heartbeat IPC: 0.613494 cumulative IPC: 0.615124 (Simulation time: 0 hr 7 min 57 sec) 
Heartbeat CPU 0 instructions: 28000001 cycles: 44281352 heartbeat IPC: 0.621289 cumulative IPC: 0.615463 (Simulation time: 0 hr 8 min 16 sec) 
Heartbeat CPU 0 instructions: 29000002 cycles: 45879897 heartbeat IPC: 0.62557 cumulative IPC: 0.615987 (Simulation time: 0 hr 8 min 36 sec) 
Heartbeat CPU 0 instructions: 30000003 cycles: 47492764 heartbeat IPC: 0.620015 cumulative IPC: 0.616187 (Simulation time: 0 hr 8 min 56 sec) 
Heartbeat CPU 0 instructions: 31000002 cycles: 49174525 heartbeat IPC: 0.594614 cumulative IPC: 0.615124 (Simulation time: 0 hr 9 min 15 sec) 
Heartbeat CPU 0 instructions: 32000002 cycles: 50847791 heartbeat IPC: 0.597634 cumulative IPC: 0.614307 (Simulation time: 0 hr 9 min 34 sec) 
Heartbeat CPU 0 instructions: 33000000 cycles: 52443443 heartbeat IPC: 0.626702 cumulative IPC: 0.614836 (Simulation time: 0 hr 9 min 53 sec) 
Heartbeat CPU 0 instructions: 34000000 cycles: 54044880 heartbeat IPC: 0.624439 cumulative IPC: 0.61523 (Simulation time: 0 hr 10 min 9 sec) 
Heartbeat CPU 0 instructions: 35000003 cycles: 55686374 heartbeat IPC: 0.609203 cumulative IPC: 0.614987 (Simulation time: 0 hr 10 min 29 sec) 
Heartbeat CPU 0 instructions: 36000002 cycles: 57299363 heartbeat IPC: 0.619966 cumulative IPC: 0.615177 (Simulation time: 0 hr 10 min 49 sec) 
Heartbeat CPU 0 instructions: 37000001 cycles: 58926427 heartbeat IPC: 0.614603 cumulative IPC: 0.615155 (Simulation time: 0 hr 11 min 8 sec) 
Heartbeat CPU 0 instructions: 38000002 cycles: 60535072 heartbeat IPC: 0.621642 cumulative IPC: 0.615385 (Simulation time: 0 hr 11 min 28 sec) 
Heartbeat CPU 0 instructions: 39000001 cycles: 62157538 heartbeat IPC: 0.616345 cumulative IPC: 0.615418 (Simulation time: 0 hr 11 min 47 sec) 
Heartbeat CPU 0 instructions: 40000001 cycles: 63765022 heartbeat IPC: 0.62209 cumulative IPC: 0.615638 (Simulation time: 0 hr 12 min 7 sec) 
Heartbeat CPU 0 instructions: 41000003 cycles: 65400406 heartbeat IPC: 0.611478 cumulative IPC: 0.615503 (Simulation time: 0 hr 12 min 26 sec) 
Heartbeat CPU 0 instructions: 42000001 cycles: 66999829 heartbeat IPC: 0.625224 cumulative IPC: 0.615802 (Simulation time: 0 hr 12 min 43 sec) 
Heartbeat CPU 0 instructions: 43000001 cycles: 68631125 heartbeat IPC: 0.61301 cumulative IPC: 0.615717 (Simulation time: 0 hr 13 min 0 sec) 
Heartbeat CPU 0 instructions: 44000000 cycles: 70220696 heartbeat IPC: 0.6291 cumulative IPC: 0.616103 (Simulation time: 0 hr 13 min 19 sec) 
Heartbeat CPU 0 instructions: 45000001 cycles: 71836876 heartbeat IPC: 0.618744 cumulative IPC: 0.616178 (Simulation time: 0 hr 13 min 39 sec) 
Heartbeat CPU 0 instructions: 46000001 cycles: 73436433 heartbeat IPC: 0.625173 cumulative IPC: 0.616424 (Simulation time: 0 hr 13 min 59 sec) 
Heartbeat CPU 0 instructions: 47000003 cycles: 75048982 heartbeat IPC: 0.620137 cumulative IPC: 0.616524 (Simulation time: 0 hr 14 min 17 sec) 
Heartbeat CPU 0 instructions: 48000002 cycles: 76661390 heartbeat IPC: 0.62019 cumulative IPC: 0.61662 (Simulation time: 0 hr 14 min 37 sec) 
Heartbeat CPU 0 instructions: 49000002 cycles: 78326605 heartbeat IPC: 0.600523 cumulative IPC: 0.616196 (Simulation time: 0 hr 14 min 55 sec) 
Heartbeat CPU 0 instructions: 50000000 cycles: 79946094 heartbeat IPC: 0.617477 cumulative IPC: 0.616228 (Simulation time: 0 hr 15 min 15 sec) 
Heartbeat CPU 0 instructions: 51000001 cycles: 81574333 heartbeat IPC: 0.614161 cumulative IPC: 0.616178 (Simulation time: 0 hr 15 min 34 sec) 
Heartbeat CPU 0 instructions: 52000003 cycles: 83225509 heartbeat IPC: 0.60563 cumulative IPC: 0.615922 (Simulation time: 0 hr 15 min 51 sec) 
Heartbeat CPU 0 instructions: 53000002 cycles: 84819065 heartbeat IPC: 0.627527 cumulative IPC: 0.616187 (Simulation time: 0 hr 16 min 9 sec) 
Heartbeat CPU 0 instructions: 54000000 cycles: 86438822 heartbeat IPC: 0.617375 cumulative IPC: 0.616214 (Simulation time: 0 hr 16 min 29 sec) 
Heartbeat CPU 0 instructions: 55000000 cycles: 88051888 heartbeat IPC: 0.619937 cumulative IPC: 0.616296 (Simulation time: 0 hr 16 min 47 sec) 
Heartbeat CPU 0 instructions: 56000003 cycles: 89700437 heartbeat IPC: 0.606596 cumulative IPC: 0.616082 (Simulation time: 0 hr 17 min 7 sec) 
Heartbeat CPU 0 instructions: 57000000 cycles: 91299259 heartbeat IPC: 0.625459 cumulative IPC: 0.616279 (Simulation time: 0 hr 17 min 26 sec) 
Heartbeat CPU 0 instructions: 58000002 cycles: 92934208 heartbeat IPC: 0.611641 cumulative IPC: 0.616181 (Simulation time: 0 hr 17 min 46 sec) 
Heartbeat CPU 0 instructions: 59000002 cycles: 94596540 heartbeat IPC: 0.601565 cumulative IPC: 0.615876 (Simulation time: 0 hr 18 min 5 sec) 
Heartbeat CPU 0 instructions: 60000000 cycles: 96239262 heartbeat IPC: 0.608745 cumulative IPC: 0.615732 (Simulation time: 0 hr 18 min 25 sec) 
Heartbeat CPU 0 instructions: 61000003 cycles: 97844446 heartbeat IPC: 0.622983 cumulative IPC: 0.615872 (Simulation time: 0 hr 18 min 40 sec) 
Heartbeat CPU 0 instructions: 62000000 cycles: 99467667 heartbeat IPC: 0.616057 cumulative IPC: 0.615876 (Simulation time: 0 hr 18 min 59 sec) 
Heartbeat CPU 0 instructions: 63000003 cycles: 101075687 heartbeat IPC: 0.621885 cumulative IPC: 0.615988 (Simulation time: 0 hr 19 min 17 sec) 
Heartbeat CPU 0 instructions: 64000003 cycles: 102703408 heartbeat IPC: 0.614356 cumulative IPC: 0.615958 (Simulation time: 0 hr 19 min 36 sec) 
Heartbeat CPU 0 instructions: 65000003 cycles: 104326171 heartbeat IPC: 0.616233 cumulative IPC: 0.615963 (Simulation time: 0 hr 19 min 57 sec) 
Heartbeat CPU 0 instructions: 66000000 cycles: 105979365 heartbeat IPC: 0.604888 cumulative IPC: 0.615762 (Simulation time: 0 hr 20 min 17 sec) 
Heartbeat CPU 0 instructions: 67000002 cycles: 107612857 heartbeat IPC: 0.612187 cumulative IPC: 0.615699 (Simulation time: 0 hr 20 min 36 sec) 
Heartbeat CPU 0 instructions: 68000001 cycles: 109289514 heartbeat IPC: 0.596424 cumulative IPC: 0.615356 (Simulation time: 0 hr 20 min 56 sec) 
Heartbeat CPU 0 instructions: 69000002 cycles: 110881515 heartbeat IPC: 0.628141 cumulative IPC: 0.615568 (Simulation time: 0 hr 21 min 15 sec) 
Heartbeat CPU 0 instructions: 70000000 cycles: 112514215 heartbeat IPC: 0.612481 cumulative IPC: 0.615516 (Simulation time: 0 hr 21 min 32 sec) 
Heartbeat CPU 0 instructions: 71000001 cycles: 114143658 heartbeat IPC: 0.613707 cumulative IPC: 0.615487 (Simulation time: 0 hr 21 min 51 sec) 
Heartbeat CPU 0 instructions: 72000003 cycles: 115831982 heartbeat IPC: 0.592305 cumulative IPC: 0.615098 (Simulation time: 0 hr 22 min 11 sec) 
Heartbeat CPU 0 instructions: 73000002 cycles: 117447217 heartbeat IPC: 0.619104 cumulative IPC: 0.615161 (Simulation time: 0 hr 22 min 30 sec) 
Heartbeat CPU 0 instructions: 74000000 cycles: 119071536 heartbeat IPC: 0.615641 cumulative IPC: 0.615169 (Simulation time: 0 hr 22 min 46 sec) 
Heartbeat CPU 0 instructions: 75000000 cycles: 120701867 heartbeat IPC: 0.613372 cumulative IPC: 0.615141 (Simulation time: 0 hr 23 min 6 sec) 
Heartbeat CPU 0 instructions: 76000002 cycles: 122295674 heartbeat IPC: 0.62743 cumulative IPC: 0.615324 (Simulation time: 0 hr 23 min 25 sec) 
Heartbeat CPU 0 instructions: 77000000 cycles: 123894419 heartbeat IPC: 0.625489 cumulative IPC: 0.615473 (Simulation time: 0 hr 23 min 45 sec) 
Heartbeat CPU 0 instructions: 78000003 cycles: 125531529 heartbeat IPC: 0.610834 cumulative IPC: 0.615404 (Simulation time: 0 hr 24 min 4 sec) 
Heartbeat CPU 0 instructions: 79000000 cycles: 127165270 heartbeat IPC: 0.61209 cumulative IPC: 0.615356 (Simulation time: 0 hr 24 min 22 sec) 
Heartbeat CPU 0 instructions: 80000002 cycles: 128811914 heartbeat IPC: 0.607297 cumulative IPC: 0.615239 (Simulation time: 0 hr 24 min 40 sec) 
Heartbeat CPU 0 instructions: 81000001 cycles: 130392098 heartbeat IPC: 0.632837 cumulative IPC: 0.615481 (Simulation time: 0 hr 25 min 0 sec) 
Heartbeat CPU 0 instructions: 82000001 cycles: 132018179 heartbeat IPC: 0.614976 cumulative IPC: 0.615474 (Simulation time: 0 hr 25 min 19 sec) 
Heartbeat CPU 0 instructions: 83000002 cycles: 133689526 heartbeat IPC: 0.59832 cumulative IPC: 0.615232 (Simulation time: 0 hr 25 min 39 sec) 
Heartbeat CPU 0 instructions: 84000003 cycles: 135319459 heartbeat IPC: 0.613523 cumulative IPC: 0.615209 (Simulation time: 0 hr 25 min 56 sec) 
Heartbeat CPU 0 instructions: 85000002 cycles: 136941711 heartbeat IPC: 0.616426 cumulative IPC: 0.615225 (Simulation time: 0 hr 26 min 16 sec) 
Heartbeat CPU 0 instructions: 86000001 cycles: 138553552 heartbeat IPC: 0.620408 cumulative IPC: 0.615293 (Simulation time: 0 hr 26 min 35 sec) 
Heartbeat CPU 0 instructions: 87000000 cycles: 140242279 heartbeat IPC: 0.592161 cumulative IPC: 0.614981 (Simulation time: 0 hr 26 min 54 sec) 
Heartbeat CPU 0 instructions: 88000000 cycles: 142356779 heartbeat IPC: 0.472925 cumulative IPC: 0.612621 (Simulation time: 0 hr 27 min 8 sec) 
Heartbeat CPU 0 instructions: 89000000 cycles: 144440826 heartbeat IPC: 0.479836 cumulative IPC: 0.610483 (Simulation time: 0 hr 27 min 20 sec) 
Heartbeat CPU 0 instructions: 90000002 cycles: 146509694 heartbeat IPC: 0.483357 cumulative IPC: 0.608482 (Simulation time: 0 hr 27 min 33 sec) 
Heartbeat CPU 0 instructions: 91000002 cycles: 148598382 heartbeat IPC: 0.478769 cumulative IPC: 0.606454 (Simulation time: 0 hr 27 min 46 sec) 
Heartbeat CPU 0 instructions: 92000002 cycles: 150670660 heartbeat IPC: 0.482561 cumulative IPC: 0.604561 (Simulation time: 0 hr 28 min 0 sec) 
Heartbeat CPU 0 instructions: 93000002 cycles: 152761972 heartbeat IPC: 0.478169 cumulative IPC: 0.602642 (Simulation time: 0 hr 28 min 15 sec) 
Heartbeat CPU 0 instructions: 94000002 cycles: 154834124 heartbeat IPC: 0.48259 cumulative IPC: 0.600862 (Simulation time: 0 hr 28 min 29 sec) 
Heartbeat CPU 0 instructions: 95000003 cycles: 157126925 heartbeat IPC: 0.436148 cumulative IPC: 0.598205 (Simulation time: 0 hr 28 min 41 sec) 
Heartbeat CPU 0 instructions: 96000003 cycles: 159533812 heartbeat IPC: 0.415474 cumulative IPC: 0.595161 (Simulation time: 0 hr 28 min 56 sec) 
Heartbeat CPU 0 instructions: 97000003 cycles: 161946540 heartbeat IPC: 0.414469 cumulative IPC: 0.592193 (Simulation time: 0 hr 29 min 8 sec) 
Heartbeat CPU 0 instructions: 98000003 cycles: 164097788 heartbeat IPC: 0.464846 cumulative IPC: 0.590356 (Simulation time: 0 hr 29 min 22 sec) 
Heartbeat CPU 0 instructions: 99000000 cycles: 165534896 heartbeat IPC: 0.69584 cumulative IPC: 0.591363 (Simulation time: 0 hr 29 min 33 sec) 
Heartbeat CPU 0 instructions: 100000000 cycles: 167052926 heartbeat IPC: 0.658749 cumulative IPC: 0.592036 (Simulation time: 0 hr 29 min 44 sec) 
Heartbeat CPU 0 instructions: 101000003 cycles: 168467654 heartbeat IPC: 0.706852 cumulative IPC: 0.593094 (Simulation time: 0 hr 29 min 56 sec) 
Heartbeat CPU 0 instructions: 102000003 cycles: 169964940 heartbeat IPC: 0.667875 cumulative IPC: 0.593817 (Simulation time: 0 hr 30 min 8 sec) 
Heartbeat CPU 0 instructions: 103000002 cycles: 171777816 heartbeat IPC: 0.551609 cumulative IPC: 0.593329 (Simulation time: 0 hr 30 min 19 sec) 
Heartbeat CPU 0 instructions: 104000001 cycles: 173599321 heartbeat IPC: 0.548996 cumulative IPC: 0.59282 (Simulation time: 0 hr 30 min 32 sec) 
Heartbeat CPU 0 instructions: 105000001 cycles: 175100550 heartbeat IPC: 0.666121 cumulative IPC: 0.593507 (Simulation time: 0 hr 30 min 43 sec) 
Heartbeat CPU 0 instructions: 106000000 cycles: 176715064 heartbeat IPC: 0.619381 cumulative IPC: 0.593765 (Simulation time: 0 hr 30 min 56 sec) 
Heartbeat CPU 0 instructions: 107000002 cycles: 178206570 heartbeat IPC: 0.670465 cumulative IPC: 0.594467 (Simulation time: 0 hr 31 min 8 sec) 
Heartbeat CPU 0 instructions: 108000000 cycles: 179841646 heartbeat IPC: 0.611591 cumulative IPC: 0.594636 (Simulation time: 0 hr 31 min 20 sec) 
Heartbeat CPU 0 instructions: 109000000 cycles: 181559223 heartbeat IPC: 0.582216 cumulative IPC: 0.594508 (Simulation time: 0 hr 31 min 33 sec) 
Heartbeat CPU 0 instructions: 110000000 cycles: 183097787 heartbeat IPC: 0.649957 cumulative IPC: 0.595016 (Simulation time: 0 hr 31 min 45 sec) 
Heartbeat CPU 0 instructions: 111000002 cycles: 184664384 heartbeat IPC: 0.638328 cumulative IPC: 0.595416 (Simulation time: 0 hr 31 min 57 sec) 
Heartbeat CPU 0 instructions: 112000003 cycles: 186344540 heartbeat IPC: 0.595183 cumulative IPC: 0.595414 (Simulation time: 0 hr 32 min 10 sec) 
Heartbeat CPU 0 instructions: 113000002 cycles: 188154877 heartbeat IPC: 0.552383 cumulative IPC: 0.594964 (Simulation time: 0 hr 32 min 21 sec) 
Heartbeat CPU 0 instructions: 114000002 cycles: 190010938 heartbeat IPC: 0.538775 cumulative IPC: 0.594368 (Simulation time: 0 hr 32 min 33 sec) 
Heartbeat CPU 0 instructions: 115000003 cycles: 191834672 heartbeat IPC: 0.548326 cumulative IPC: 0.593893 (Simulation time: 0 hr 32 min 46 sec) 
Heartbeat CPU 0 instructions: 116000002 cycles: 193535255 heartbeat IPC: 0.588033 cumulative IPC: 0.593837 (Simulation time: 0 hr 33 min 0 sec) 
Heartbeat CPU 0 instructions: 117000003 cycles: 195138371 heartbeat IPC: 0.623786 cumulative IPC: 0.594104 (Simulation time: 0 hr 33 min 16 sec) 
Heartbeat CPU 0 instructions: 118000001 cycles: 196817422 heartbeat IPC: 0.595573 cumulative IPC: 0.594117 (Simulation time: 0 hr 33 min 36 sec) 
Heartbeat CPU 0 instructions: 119000000 cycles: 198495595 heartbeat IPC: 0.595886 cumulative IPC: 0.594133 (Simulation time: 0 hr 33 min 56 sec) 
Heartbeat CPU 0 instructions: 120000001 cycles: 200139400 heartbeat IPC: 0.608345 cumulative IPC: 0.59426 (Simulation time: 0 hr 34 min 14 sec) 
Heartbeat CPU 0 instructions: 121000000 cycles: 201793044 heartbeat IPC: 0.604724 cumulative IPC: 0.594352 (Simulation time: 0 hr 34 min 34 sec) 
Heartbeat CPU 0 instructions: 122000001 cycles: 203466263 heartbeat IPC: 0.597651 cumulative IPC: 0.594381 (Simulation time: 0 hr 34 min 53 sec) 
Heartbeat CPU 0 instructions: 123000002 cycles: 205162556 heartbeat IPC: 0.589521 cumulative IPC: 0.594338 (Simulation time: 0 hr 35 min 13 sec) 
Heartbeat CPU 0 instructions: 124000002 cycles: 206827136 heartbeat IPC: 0.600752 cumulative IPC: 0.594394 (Simulation time: 0 hr 35 min 33 sec) 
Heartbeat CPU 0 instructions: 125000003 cycles: 208511196 heartbeat IPC: 0.593804 cumulative IPC: 0.594389 (Simulation time: 0 hr 35 min 51 sec) 
Heartbeat CPU 0 instructions: 126000000 cycles: 210161029 heartbeat IPC: 0.60612 cumulative IPC: 0.594488 (Simulation time: 0 hr 36 min 7 sec) 
Heartbeat CPU 0 instructions: 127000001 cycles: 211815483 heartbeat IPC: 0.60443 cumulative IPC: 0.594571 (Simulation time: 0 hr 36 min 28 sec) 
Heartbeat CPU 0 instructions: 128000001 cycles: 213469439 heartbeat IPC: 0.604611 cumulative IPC: 0.594655 (Simulation time: 0 hr 36 min 47 sec) 
Heartbeat CPU 0 instructions: 129000001 cycles: 215129212 heartbeat IPC: 0.602492 cumulative IPC: 0.59472 (Simulation time: 0 hr 37 min 7 sec) 
Heartbeat CPU 0 instructions: 130000002 cycles: 216759149 heartbeat IPC: 0.613521 cumulative IPC: 0.594872 (Simulation time: 0 hr 37 min 25 sec) 
Heartbeat CPU 0 instructions: 131000001 cycles: 218394355 heartbeat IPC: 0.611543 cumulative IPC: 0.595006 (Simulation time: 0 hr 37 min 45 sec) 
Heartbeat CPU 0 instructions: 132000000 cycles: 220050085 heartbeat IPC: 0.603963 cumulative IPC: 0.595078 (Simulation time: 0 hr 38 min 4 sec) 
Heartbeat CPU 0 instructions: 133000001 cycles: 221681339 heartbeat IPC: 0.613026 cumulative IPC: 0.59522 (Simulation time: 0 hr 38 min 23 sec) 
Heartbeat CPU 0 instructions: 134000000 cycles: 223304422 heartbeat IPC: 0.616111 cumulative IPC: 0.595383 (Simulation time: 0 hr 38 min 43 sec) 
Heartbeat CPU 0 instructions: 135000001 cycles: 224958828 heartbeat IPC: 0.604447 cumulative IPC: 0.595454 (Simulation time: 0 hr 38 min 59 sec) 
Heartbeat CPU 0 instructions: 136000002 cycles: 226601548 heartbeat IPC: 0.608747 cumulative IPC: 0.595558 (Simulation time: 0 hr 39 min 18 sec) 
Heartbeat CPU 0 instructions: 137000002 cycles: 228238546 heartbeat IPC: 0.610874 cumulative IPC: 0.595675 (Simulation time: 0 hr 39 min 37 sec) 
Heartbeat CPU 0 instructions: 138000003 cycles: 229875816 heartbeat IPC: 0.610773 cumulative IPC: 0.59579 (Simulation time: 0 hr 39 min 57 sec) 
Heartbeat CPU 0 instructions: 139000001 cycles: 231539378 heartbeat IPC: 0.601119 cumulative IPC: 0.595831 (Simulation time: 0 hr 40 min 16 sec) 
Heartbeat CPU 0 instructions: 140000001 cycles: 233180298 heartbeat IPC: 0.609414 cumulative IPC: 0.595933 (Simulation time: 0 hr 40 min 37 sec) 
Heartbeat CPU 0 instructions: 141000002 cycles: 234807706 heartbeat IPC: 0.614475 cumulative IPC: 0.596071 (Simulation time: 0 hr 40 min 54 sec) 
Heartbeat CPU 0 instructions: 142000002 cycles: 236450218 heartbeat IPC: 0.608824 cumulative IPC: 0.596165 (Simulation time: 0 hr 41 min 14 sec) 
Heartbeat CPU 0 instructions: 143000000 cycles: 238093740 heartbeat IPC: 0.608448 cumulative IPC: 0.596256 (Simulation time: 0 hr 41 min 33 sec) 
Heartbeat CPU 0 instructions: 144000001 cycles: 239714656 heartbeat IPC: 0.616936 cumulative IPC: 0.596405 (Simulation time: 0 hr 41 min 53 sec) 
Heartbeat CPU 0 instructions: 145000001 cycles: 241357670 heartbeat IPC: 0.608638 cumulative IPC: 0.596494 (Simulation time: 0 hr 42 min 11 sec) 
Heartbeat CPU 0 instructions: 146000002 cycles: 242986130 heartbeat IPC: 0.614078 cumulative IPC: 0.596619 (Simulation time: 0 hr 42 min 28 sec) 
Heartbeat CPU 0 instructions: 147000002 cycles: 244643058 heartbeat IPC: 0.603527 cumulative IPC: 0.596669 (Simulation time: 0 hr 42 min 49 sec) 
Heartbeat CPU 0 instructions: 148000003 cycles: 246275585 heartbeat IPC: 0.612548 cumulative IPC: 0.596781 (Simulation time: 0 hr 43 min 6 sec) 
Heartbeat CPU 0 instructions: 149000000 cycles: 247896662 heartbeat IPC: 0.616872 cumulative IPC: 0.596921 (Simulation time: 0 hr 43 min 26 sec) 
Heartbeat CPU 0 instructions: 150000001 cycles: 249544986 heartbeat IPC: 0.606677 cumulative IPC: 0.59699 (Simulation time: 0 hr 43 min 45 sec) 
Heartbeat CPU 0 instructions: 151000000 cycles: 251175149 heartbeat IPC: 0.613435 cumulative IPC: 0.597103 (Simulation time: 0 hr 44 min 6 sec) 
Heartbeat CPU 0 instructions: 152000000 cycles: 252819136 heartbeat IPC: 0.608277 cumulative IPC: 0.59718 (Simulation time: 0 hr 44 min 26 sec) 
Heartbeat CPU 0 instructions: 153000000 cycles: 254462052 heartbeat IPC: 0.608674 cumulative IPC: 0.597259 (Simulation time: 0 hr 44 min 46 sec) 
Heartbeat CPU 0 instructions: 154000000 cycles: 256090618 heartbeat IPC: 0.614037 cumulative IPC: 0.597373 (Simulation time: 0 hr 45 min 2 sec) 
Heartbeat CPU 0 instructions: 155000003 cycles: 257734624 heartbeat IPC: 0.608272 cumulative IPC: 0.597447 (Simulation time: 0 hr 45 min 20 sec) 
Heartbeat CPU 0 instructions: 156000003 cycles: 259385186 heartbeat IPC: 0.605854 cumulative IPC: 0.597503 (Simulation time: 0 hr 45 min 28 sec) 
Heartbeat CPU 0 instructions: 157000000 cycles: 261048722 heartbeat IPC: 0.601127 cumulative IPC: 0.597528 (Simulation time: 0 hr 45 min 36 sec) 
Heartbeat CPU 0 instructions: 158000001 cycles: 262663959 heartbeat IPC: 0.619105 cumulative IPC: 0.597669 (Simulation time: 0 hr 45 min 48 sec) 
Heartbeat CPU 0 instructions: 159000001 cycles: 264296821 heartbeat IPC: 0.612422 cumulative IPC: 0.597765 (Simulation time: 0 hr 46 min 9 sec) 
Heartbeat CPU 0 instructions: 160000003 cycles: 265955184 heartbeat IPC: 0.603005 cumulative IPC: 0.5978 (Simulation time: 0 hr 46 min 26 sec) 
Heartbeat CPU 0 instructions: 161000002 cycles: 267606596 heartbeat IPC: 0.605542 cumulative IPC: 0.59785 (Simulation time: 0 hr 46 min 46 sec) 
Heartbeat CPU 0 instructions: 162000000 cycles: 269253958 heartbeat IPC: 0.60703 cumulative IPC: 0.59791 (Simulation time: 0 hr 47 min 7 sec) 
Heartbeat CPU 0 instructions: 163000000 cycles: 270876919 heartbeat IPC: 0.616158 cumulative IPC: 0.598026 (Simulation time: 0 hr 47 min 27 sec) 
Heartbeat CPU 0 instructions: 164000002 cycles: 272534841 heartbeat IPC: 0.603166 cumulative IPC: 0.598059 (Simulation time: 0 hr 47 min 44 sec) 
Heartbeat CPU 0 instructions: 165000000 cycles: 274171707 heartbeat IPC: 0.610922 cumulative IPC: 0.59814 (Simulation time: 0 hr 48 min 2 sec) 
Heartbeat CPU 0 instructions: 166000001 cycles: 275873376 heartbeat IPC: 0.587659 cumulative IPC: 0.598072 (Simulation time: 0 hr 48 min 23 sec) 
Heartbeat CPU 0 instructions: 167000002 cycles: 277516530 heartbeat IPC: 0.608586 cumulative IPC: 0.598137 (Simulation time: 0 hr 48 min 43 sec) 
Heartbeat CPU 0 instructions: 168000000 cycles: 279160597 heartbeat IPC: 0.608247 cumulative IPC: 0.5982 (Simulation time: 0 hr 49 min 0 sec) 
Heartbeat CPU 0 instructions: 169000001 cycles: 280804437 heartbeat IPC: 0.608332 cumulative IPC: 0.598263 (Simulation time: 0 hr 49 min 19 sec) 
Heartbeat CPU 0 instructions: 170000001 cycles: 282459732 heartbeat IPC: 0.604122 cumulative IPC: 0.598299 (Simulation time: 0 hr 49 min 40 sec) 
Heartbeat CPU 0 instructions: 171000001 cycles: 284094687 heartbeat IPC: 0.611638 cumulative IPC: 0.59838 (Simulation time: 0 hr 50 min 0 sec) 
Heartbeat CPU 0 instructions: 172000002 cycles: 285733955 heartbeat IPC: 0.610029 cumulative IPC: 0.598451 (Simulation time: 0 hr 50 min 17 sec) 
Heartbeat CPU 0 instructions: 173000000 cycles: 287378889 heartbeat IPC: 0.607926 cumulative IPC: 0.598508 (Simulation time: 0 hr 50 min 35 sec) 
Heartbeat CPU 0 instructions: 174000003 cycles: 289081004 heartbeat IPC: 0.587506 cumulative IPC: 0.59844 (Simulation time: 0 hr 50 min 55 sec) 
Heartbeat CPU 0 instructions: 175000002 cycles: 290759764 heartbeat IPC: 0.595677 cumulative IPC: 0.598423 (Simulation time: 0 hr 51 min 14 sec) 
Heartbeat CPU 0 instructions: 176000000 cycles: 292468769 heartbeat IPC: 0.585135 cumulative IPC: 0.598341 (Simulation time: 0 hr 51 min 35 sec) 
Heartbeat CPU 0 instructions: 177000001 cycles: 294189363 heartbeat IPC: 0.581195 cumulative IPC: 0.598235 (Simulation time: 0 hr 51 min 55 sec) 
Heartbeat CPU 0 instructions: 178000001 cycles: 295899138 heartbeat IPC: 0.584872 cumulative IPC: 0.598154 (Simulation time: 0 hr 52 min 15 sec) 
Heartbeat CPU 0 instructions: 179000001 cycles: 297599774 heartbeat IPC: 0.588015 cumulative IPC: 0.598093 (Simulation time: 0 hr 52 min 34 sec) 
Heartbeat CPU 0 instructions: 180000002 cycles: 299300856 heartbeat IPC: 0.587862 cumulative IPC: 0.598032 (Simulation time: 0 hr 52 min 55 sec) 
Heartbeat CPU 0 instructions: 181000001 cycles: 300995415 heartbeat IPC: 0.590123 cumulative IPC: 0.597985 (Simulation time: 0 hr 53 min 15 sec) 
Heartbeat CPU 0 instructions: 182000001 cycles: 302675715 heartbeat IPC: 0.595132 cumulative IPC: 0.597968 (Simulation time: 0 hr 53 min 30 sec) 
Heartbeat CPU 0 instructions: 183000003 cycles: 304336026 heartbeat IPC: 0.602298 cumulative IPC: 0.597993 (Simulation time: 0 hr 53 min 51 sec) 
Heartbeat CPU 0 instructions: 184000000 cycles: 306003692 heartbeat IPC: 0.599639 cumulative IPC: 0.598003 (Simulation time: 0 hr 54 min 10 sec) 
Heartbeat CPU 0 instructions: 185000002 cycles: 307631130 heartbeat IPC: 0.614464 cumulative IPC: 0.598094 (Simulation time: 0 hr 54 min 30 sec) 
Heartbeat CPU 0 instructions: 186000002 cycles: 309275595 heartbeat IPC: 0.608101 cumulative IPC: 0.59815 (Simulation time: 0 hr 54 min 49 sec) 
Heartbeat CPU 0 instructions: 187000000 cycles: 310911823 heartbeat IPC: 0.611161 cumulative IPC: 0.598222 (Simulation time: 0 hr 55 min 9 sec) 
Heartbeat CPU 0 instructions: 188000000 cycles: 312569564 heartbeat IPC: 0.603231 cumulative IPC: 0.59825 (Simulation time: 0 hr 55 min 26 sec) 
Heartbeat CPU 0 instructions: 189000000 cycles: 314197150 heartbeat IPC: 0.614407 cumulative IPC: 0.598338 (Simulation time: 0 hr 55 min 46 sec) 
Heartbeat CPU 0 instructions: 190000000 cycles: 315883791 heartbeat IPC: 0.592894 cumulative IPC: 0.598307 (Simulation time: 0 hr 56 min 6 sec) 
Heartbeat CPU 0 instructions: 191000002 cycles: 317543349 heartbeat IPC: 0.602571 cumulative IPC: 0.598331 (Simulation time: 0 hr 56 min 19 sec) 
Heartbeat CPU 0 instructions: 192000002 cycles: 319164280 heartbeat IPC: 0.616929 cumulative IPC: 0.59843 (Simulation time: 0 hr 56 min 39 sec) 
Heartbeat CPU 0 instructions: 193000002 cycles: 320786720 heartbeat IPC: 0.616356 cumulative IPC: 0.598525 (Simulation time: 0 hr 56 min 55 sec) 
Heartbeat CPU 0 instructions: 194000001 cycles: 322414987 heartbeat IPC: 0.614149 cumulative IPC: 0.598608 (Simulation time: 0 hr 57 min 15 sec) 
Heartbeat CPU 0 instructions: 195000000 cycles: 324108241 heartbeat IPC: 0.590578 cumulative IPC: 0.598564 (Simulation time: 0 hr 57 min 35 sec) 
Heartbeat CPU 0 instructions: 196000003 cycles: 325782549 heartbeat IPC: 0.597263 cumulative IPC: 0.598557 (Simulation time: 0 hr 57 min 56 sec) 
Heartbeat CPU 0 instructions: 197000003 cycles: 327409828 heartbeat IPC: 0.614523 cumulative IPC: 0.59864 (Simulation time: 0 hr 58 min 16 sec) 
Heartbeat CPU 0 instructions: 198000000 cycles: 329037714 heartbeat IPC: 0.614292 cumulative IPC: 0.598721 (Simulation time: 0 hr 58 min 36 sec) 
Heartbeat CPU 0 instructions: 199000003 cycles: 330727228 heartbeat IPC: 0.591888 cumulative IPC: 0.598684 (Simulation time: 0 hr 58 min 55 sec) 
Heartbeat CPU 0 instructions: 200000002 cycles: 332345122 heartbeat IPC: 0.618087 cumulative IPC: 0.598783 (Simulation time: 0 hr 59 min 13 sec) 
Heartbeat CPU 0 instructions: 201000002 cycles: 333990171 heartbeat IPC: 0.607885 cumulative IPC: 0.59883 (Simulation time: 0 hr 59 min 32 sec) 
Heartbeat CPU 0 instructions: 202000000 cycles: 335618446 heartbeat IPC: 0.614146 cumulative IPC: 0.598908 (Simulation time: 0 hr 59 min 51 sec) 
Heartbeat CPU 0 instructions: 203000003 cycles: 337260791 heartbeat IPC: 0.608887 cumulative IPC: 0.598959 (Simulation time: 1 hr 0 min 11 sec) 
Heartbeat CPU 0 instructions: 204000001 cycles: 338902549 heartbeat IPC: 0.609102 cumulative IPC: 0.59901 (Simulation time: 1 hr 0 min 31 sec) 
Heartbeat CPU 0 instructions: 205000001 cycles: 340536019 heartbeat IPC: 0.612194 cumulative IPC: 0.599077 (Simulation time: 1 hr 0 min 51 sec) 
Heartbeat CPU 0 instructions: 206000000 cycles: 342177426 heartbeat IPC: 0.609233 cumulative IPC: 0.599128 (Simulation time: 1 hr 1 min 8 sec) 
Heartbeat CPU 0 instructions: 207000002 cycles: 343833692 heartbeat IPC: 0.603769 cumulative IPC: 0.599151 (Simulation time: 1 hr 1 min 28 sec) 
Heartbeat CPU 0 instructions: 208000002 cycles: 345461524 heartbeat IPC: 0.614314 cumulative IPC: 0.599226 (Simulation time: 1 hr 1 min 45 sec) 
Heartbeat CPU 0 instructions: 209000000 cycles: 347104452 heartbeat IPC: 0.608668 cumulative IPC: 0.599272 (Simulation time: 1 hr 2 min 2 sec) 
Heartbeat CPU 0 instructions: 210000002 cycles: 348752369 heartbeat IPC: 0.606828 cumulative IPC: 0.59931 (Simulation time: 1 hr 2 min 18 sec) 
Heartbeat CPU 0 instructions: 211000000 cycles: 350420424 heartbeat IPC: 0.599499 cumulative IPC: 0.599311 (Simulation time: 1 hr 2 min 39 sec) 
Heartbeat CPU 0 instructions: 212000000 cycles: 352044066 heartbeat IPC: 0.615899 cumulative IPC: 0.599391 (Simulation time: 1 hr 2 min 59 sec) 
Heartbeat CPU 0 instructions: 213000000 cycles: 353690060 heartbeat IPC: 0.607536 cumulative IPC: 0.59943 (Simulation time: 1 hr 3 min 19 sec) 
Heartbeat CPU 0 instructions: 214000001 cycles: 355317012 heartbeat IPC: 0.614647 cumulative IPC: 0.599503 (Simulation time: 1 hr 3 min 38 sec) 
Heartbeat CPU 0 instructions: 215000003 cycles: 356968724 heartbeat IPC: 0.605434 cumulative IPC: 0.599532 (Simulation time: 1 hr 3 min 53 sec) 
Heartbeat CPU 0 instructions: 216000002 cycles: 358627429 heartbeat IPC: 0.602879 cumulative IPC: 0.599548 (Simulation time: 1 hr 4 min 8 sec) 
Heartbeat CPU 0 instructions: 217000000 cycles: 360289455 heartbeat IPC: 0.601674 cumulative IPC: 0.599558 (Simulation time: 1 hr 4 min 26 sec) 
Heartbeat CPU 0 instructions: 218000001 cycles: 361919640 heartbeat IPC: 0.613428 cumulative IPC: 0.599623 (Simulation time: 1 hr 4 min 46 sec) 
Heartbeat CPU 0 instructions: 219000001 cycles: 363578034 heartbeat IPC: 0.602993 cumulative IPC: 0.599639 (Simulation time: 1 hr 5 min 2 sec) 
Heartbeat CPU 0 instructions: 220000000 cycles: 365210037 heartbeat IPC: 0.612743 cumulative IPC: 0.5997 (Simulation time: 1 hr 5 min 20 sec) 
Heartbeat CPU 0 instructions: 221000002 cycles: 366847033 heartbeat IPC: 0.610876 cumulative IPC: 0.599752 (Simulation time: 1 hr 5 min 39 sec) 
Heartbeat CPU 0 instructions: 222000001 cycles: 368487168 heartbeat IPC: 0.609705 cumulative IPC: 0.599798 (Simulation time: 1 hr 6 min 0 sec) 
Heartbeat CPU 0 instructions: 223000000 cycles: 370141962 heartbeat IPC: 0.604304 cumulative IPC: 0.599819 (Simulation time: 1 hr 6 min 20 sec) 
Heartbeat CPU 0 instructions: 224000003 cycles: 371761550 heartbeat IPC: 0.617443 cumulative IPC: 0.599899 (Simulation time: 1 hr 6 min 40 sec) 
Heartbeat CPU 0 instructions: 225000003 cycles: 373399589 heartbeat IPC: 0.610486 cumulative IPC: 0.599948 (Simulation time: 1 hr 6 min 56 sec) 
Heartbeat CPU 0 instructions: 226000003 cycles: 375068680 heartbeat IPC: 0.599128 cumulative IPC: 0.599944 (Simulation time: 1 hr 7 min 13 sec) 
Heartbeat CPU 0 instructions: 227000001 cycles: 376716561 heartbeat IPC: 0.606839 cumulative IPC: 0.599975 (Simulation time: 1 hr 7 min 33 sec) 
Heartbeat CPU 0 instructions: 228000001 cycles: 378339662 heartbeat IPC: 0.616105 cumulative IPC: 0.600047 (Simulation time: 1 hr 7 min 51 sec) 
Heartbeat CPU 0 instructions: 229000001 cycles: 379953445 heartbeat IPC: 0.619662 cumulative IPC: 0.600134 (Simulation time: 1 hr 8 min 9 sec) 
Heartbeat CPU 0 instructions: 230000002 cycles: 381619835 heartbeat IPC: 0.6001 cumulative IPC: 0.600134 (Simulation time: 1 hr 8 min 28 sec) 
Heartbeat CPU 0 instructions: 231000000 cycles: 383248606 heartbeat IPC: 0.613959 cumulative IPC: 0.600195 (Simulation time: 1 hr 8 min 45 sec) 
Heartbeat CPU 0 instructions: 232000002 cycles: 384890124 heartbeat IPC: 0.609193 cumulative IPC: 0.600235 (Simulation time: 1 hr 9 min 5 sec) 
Heartbeat CPU 0 instructions: 233000001 cycles: 386508864 heartbeat IPC: 0.617764 cumulative IPC: 0.600312 (Simulation time: 1 hr 9 min 25 sec) 
Heartbeat CPU 0 instructions: 234000001 cycles: 388136489 heartbeat IPC: 0.614392 cumulative IPC: 0.600373 (Simulation time: 1 hr 9 min 45 sec) 
Heartbeat CPU 0 instructions: 235000000 cycles: 389777548 heartbeat IPC: 0.609362 cumulative IPC: 0.600412 (Simulation time: 1 hr 10 min 3 sec) 
Heartbeat CPU 0 instructions: 236000001 cycles: 391396470 heartbeat IPC: 0.617696 cumulative IPC: 0.600487 (Simulation time: 1 hr 10 min 23 sec) 
Heartbeat CPU 0 instructions: 237000002 cycles: 393063508 heartbeat IPC: 0.599867 cumulative IPC: 0.600484 (Simulation time: 1 hr 10 min 43 sec) 
Heartbeat CPU 0 instructions: 238000003 cycles: 394701958 heartbeat IPC: 0.610334 cumulative IPC: 0.600526 (Simulation time: 1 hr 11 min 0 sec) 
Heartbeat CPU 0 instructions: 239000000 cycles: 396371355 heartbeat IPC: 0.599017 cumulative IPC: 0.60052 (Simulation time: 1 hr 11 min 20 sec) 
Heartbeat CPU 0 instructions: 240000001 cycles: 398045630 heartbeat IPC: 0.597274 cumulative IPC: 0.600506 (Simulation time: 1 hr 11 min 38 sec) 
Heartbeat CPU 0 instructions: 241000002 cycles: 399751953 heartbeat IPC: 0.586056 cumulative IPC: 0.600442 (Simulation time: 1 hr 11 min 56 sec) 
Heartbeat CPU 0 instructions: 242000000 cycles: 401463382 heartbeat IPC: 0.584306 cumulative IPC: 0.60037 (Simulation time: 1 hr 12 min 16 sec) 
Heartbeat CPU 0 instructions: 243000000 cycles: 403115711 heartbeat IPC: 0.605206 cumulative IPC: 0.600391 (Simulation time: 1 hr 12 min 37 sec) 
Heartbeat CPU 0 instructions: 244000000 cycles: 404804131 heartbeat IPC: 0.59227 cumulative IPC: 0.600356 (Simulation time: 1 hr 12 min 53 sec) 
Heartbeat CPU 0 instructions: 245000000 cycles: 406485532 heartbeat IPC: 0.594742 cumulative IPC: 0.600331 (Simulation time: 1 hr 13 min 12 sec) 
Heartbeat CPU 0 instructions: 246000002 cycles: 408179719 heartbeat IPC: 0.590255 cumulative IPC: 0.600288 (Simulation time: 1 hr 13 min 32 sec) 
Heartbeat CPU 0 instructions: 247000001 cycles: 409842036 heartbeat IPC: 0.601569 cumulative IPC: 0.600293 (Simulation time: 1 hr 13 min 50 sec) 
Heartbeat CPU 0 instructions: 248000003 cycles: 411500663 heartbeat IPC: 0.60291 cumulative IPC: 0.600304 (Simulation time: 1 hr 14 min 10 sec) 
Heartbeat CPU 0 instructions: 249000000 cycles: 413149578 heartbeat IPC: 0.606458 cumulative IPC: 0.60033 (Simulation time: 1 hr 14 min 31 sec) 
Heartbeat CPU 0 instructions: 250000002 cycles: 414780440 heartbeat IPC: 0.613174 cumulative IPC: 0.600382 (Simulation time: 1 hr 14 min 49 sec) 
Heartbeat CPU 0 instructions: 251000002 cycles: 416429893 heartbeat IPC: 0.606262 cumulative IPC: 0.600406 (Simulation time: 1 hr 15 min 8 sec) 
Heartbeat CPU 0 instructions: 252000000 cycles: 418083494 heartbeat IPC: 0.60474 cumulative IPC: 0.600424 (Simulation time: 1 hr 15 min 28 sec) 
Heartbeat CPU 0 instructions: 253000000 cycles: 419715893 heartbeat IPC: 0.612595 cumulative IPC: 0.600473 (Simulation time: 1 hr 15 min 45 sec) 
Heartbeat CPU 0 instructions: 254000003 cycles: 421368999 heartbeat IPC: 0.604924 cumulative IPC: 0.600491 (Simulation time: 1 hr 16 min 1 sec) 
Heartbeat CPU 0 instructions: 255000000 cycles: 422988486 heartbeat IPC: 0.617478 cumulative IPC: 0.600559 (Simulation time: 1 hr 16 min 21 sec) 
Heartbeat CPU 0 instructions: 256000003 cycles: 424646936 heartbeat IPC: 0.602974 cumulative IPC: 0.600569 (Simulation time: 1 hr 16 min 38 sec) 
Heartbeat CPU 0 instructions: 257000000 cycles: 426271970 heartbeat IPC: 0.61537 cumulative IPC: 0.600627 (Simulation time: 1 hr 16 min 56 sec) 
Heartbeat CPU 0 instructions: 258000002 cycles: 427892389 heartbeat IPC: 0.617126 cumulative IPC: 0.600692 (Simulation time: 1 hr 17 min 16 sec) 
Heartbeat CPU 0 instructions: 259000002 cycles: 429543171 heartbeat IPC: 0.605774 cumulative IPC: 0.600712 (Simulation time: 1 hr 17 min 37 sec) 
Heartbeat CPU 0 instructions: 260000002 cycles: 431192550 heartbeat IPC: 0.606289 cumulative IPC: 0.600734 (Simulation time: 1 hr 17 min 57 sec) 
Heartbeat CPU 0 instructions: 261000001 cycles: 432801354 heartbeat IPC: 0.621579 cumulative IPC: 0.600814 (Simulation time: 1 hr 18 min 16 sec) 
Heartbeat CPU 0 instructions: 262000003 cycles: 434457832 heartbeat IPC: 0.603692 cumulative IPC: 0.600826 (Simulation time: 1 hr 18 min 28 sec) 
Heartbeat CPU 0 instructions: 263000002 cycles: 436087925 heartbeat IPC: 0.613461 cumulative IPC: 0.600875 (Simulation time: 1 hr 18 min 49 sec) 
Heartbeat CPU 0 instructions: 264000000 cycles: 437729017 heartbeat IPC: 0.609349 cumulative IPC: 0.600908 (Simulation time: 1 hr 19 min 9 sec) 
Heartbeat CPU 0 instructions: 265000000 cycles: 439350192 heartbeat IPC: 0.616837 cumulative IPC: 0.600968 (Simulation time: 1 hr 19 min 28 sec) 
Heartbeat CPU 0 instructions: 266000002 cycles: 440980786 heartbeat IPC: 0.613275 cumulative IPC: 0.601016 (Simulation time: 1 hr 19 min 43 sec) 
Heartbeat CPU 0 instructions: 267000002 cycles: 442641422 heartbeat IPC: 0.602179 cumulative IPC: 0.60102 (Simulation time: 1 hr 20 min 1 sec) 
Heartbeat CPU 0 instructions: 268000001 cycles: 444287379 heartbeat IPC: 0.607549 cumulative IPC: 0.601045 (Simulation time: 1 hr 20 min 21 sec) 
Heartbeat CPU 0 instructions: 269000000 cycles: 445936641 heartbeat IPC: 0.606331 cumulative IPC: 0.601065 (Simulation time: 1 hr 20 min 41 sec) 
Heartbeat CPU 0 instructions: 270000003 cycles: 447575815 heartbeat IPC: 0.610065 cumulative IPC: 0.601099 (Simulation time: 1 hr 21 min 2 sec) 
Heartbeat CPU 0 instructions: 271000002 cycles: 449203531 heartbeat IPC: 0.614357 cumulative IPC: 0.601149 (Simulation time: 1 hr 21 min 19 sec) 
Heartbeat CPU 0 instructions: 272000002 cycles: 450837392 heartbeat IPC: 0.612047 cumulative IPC: 0.60119 (Simulation time: 1 hr 21 min 38 sec) 
Heartbeat CPU 0 instructions: 273000001 cycles: 452483835 heartbeat IPC: 0.607369 cumulative IPC: 0.601213 (Simulation time: 1 hr 21 min 58 sec) 
Heartbeat CPU 0 instructions: 274000000 cycles: 454117684 heartbeat IPC: 0.612051 cumulative IPC: 0.601254 (Simulation time: 1 hr 22 min 17 sec) 
Heartbeat CPU 0 instructions: 275000000 cycles: 455766623 heartbeat IPC: 0.606451 cumulative IPC: 0.601273 (Simulation time: 1 hr 22 min 33 sec) 
Heartbeat CPU 0 instructions: 276000002 cycles: 457384052 heartbeat IPC: 0.618266 cumulative IPC: 0.601335 (Simulation time: 1 hr 22 min 53 sec) 
Heartbeat CPU 0 instructions: 277000001 cycles: 459031280 heartbeat IPC: 0.60708 cumulative IPC: 0.601357 (Simulation time: 1 hr 23 min 8 sec) 
Heartbeat CPU 0 instructions: 278000001 cycles: 460701637 heartbeat IPC: 0.598674 cumulative IPC: 0.601346 (Simulation time: 1 hr 23 min 24 sec) 
Heartbeat CPU 0 instructions: 279000003 cycles: 462364099 heartbeat IPC: 0.601519 cumulative IPC: 0.601347 (Simulation time: 1 hr 23 min 43 sec) 
Heartbeat CPU 0 instructions: 280000000 cycles: 464000107 heartbeat IPC: 0.611242 cumulative IPC: 0.601383 (Simulation time: 1 hr 24 min 1 sec) 
Heartbeat CPU 0 instructions: 281000003 cycles: 465636338 heartbeat IPC: 0.611162 cumulative IPC: 0.601419 (Simulation time: 1 hr 24 min 18 sec) 
Heartbeat CPU 0 instructions: 282000000 cycles: 467253470 heartbeat IPC: 0.618377 cumulative IPC: 0.601479 (Simulation time: 1 hr 24 min 38 sec) 
Heartbeat CPU 0 instructions: 283000000 cycles: 468897955 heartbeat IPC: 0.608093 cumulative IPC: 0.601503 (Simulation time: 1 hr 24 min 59 sec) 
Heartbeat CPU 0 instructions: 284000001 cycles: 470530670 heartbeat IPC: 0.612477 cumulative IPC: 0.601543 (Simulation time: 1 hr 25 min 15 sec) 
Heartbeat CPU 0 instructions: 285000002 cycles: 472170049 heartbeat IPC: 0.609988 cumulative IPC: 0.601573 (Simulation time: 1 hr 25 min 35 sec) 
Heartbeat CPU 0 instructions: 286000000 cycles: 473814382 heartbeat IPC: 0.608148 cumulative IPC: 0.601596 (Simulation time: 1 hr 25 min 55 sec) 
Heartbeat CPU 0 instructions: 287000002 cycles: 475449402 heartbeat IPC: 0.611615 cumulative IPC: 0.601632 (Simulation time: 1 hr 26 min 15 sec) 
Heartbeat CPU 0 instructions: 288000003 cycles: 477080173 heartbeat IPC: 0.613208 cumulative IPC: 0.601673 (Simulation time: 1 hr 26 min 31 sec) 
Heartbeat CPU 0 instructions: 289000003 cycles: 478723133 heartbeat IPC: 0.608658 cumulative IPC: 0.601698 (Simulation time: 1 hr 26 min 48 sec) 
Heartbeat CPU 0 instructions: 290000003 cycles: 480348716 heartbeat IPC: 0.615164 cumulative IPC: 0.601745 (Simulation time: 1 hr 27 min 8 sec) 
Heartbeat CPU 0 instructions: 291000000 cycles: 481971257 heartbeat IPC: 0.616315 cumulative IPC: 0.601795 (Simulation time: 1 hr 27 min 28 sec) 
Heartbeat CPU 0 instructions: 292000000 cycles: 483595775 heartbeat IPC: 0.615567 cumulative IPC: 0.601843 (Simulation time: 1 hr 27 min 48 sec) 
Heartbeat CPU 0 instructions: 293000002 cycles: 485231040 heartbeat IPC: 0.611523 cumulative IPC: 0.601877 (Simulation time: 1 hr 28 min 8 sec) 
Heartbeat CPU 0 instructions: 294000002 cycles: 486860378 heartbeat IPC: 0.613746 cumulative IPC: 0.601918 (Simulation time: 1 hr 28 min 27 sec) 
Heartbeat CPU 0 instructions: 295000000 cycles: 488513689 heartbeat IPC: 0.604846 cumulative IPC: 0.601928 (Simulation time: 1 hr 28 min 47 sec) 
Heartbeat CPU 0 instructions: 296000002 cycles: 490148487 heartbeat IPC: 0.611698 cumulative IPC: 0.601962 (Simulation time: 1 hr 29 min 7 sec) 
Heartbeat CPU 0 instructions: 297000000 cycles: 491792089 heartbeat IPC: 0.608419 cumulative IPC: 0.601984 (Simulation time: 1 hr 29 min 26 sec) 
Heartbeat CPU 0 instructions: 298000002 cycles: 493456925 heartbeat IPC: 0.600661 cumulative IPC: 0.601979 (Simulation time: 1 hr 29 min 44 sec) 
Heartbeat CPU 0 instructions: 299000000 cycles: 495114151 heartbeat IPC: 0.603417 cumulative IPC: 0.601984 (Simulation time: 1 hr 30 min 4 sec) 
Heartbeat CPU 0 instructions: 300000001 cycles: 496707853 heartbeat IPC: 0.62747 cumulative IPC: 0.602068 (Simulation time: 1 hr 30 min 24 sec) 
Heartbeat CPU 0 instructions: 301000003 cycles: 498355265 heartbeat IPC: 0.607014 cumulative IPC: 0.602085 (Simulation time: 1 hr 30 min 44 sec) 
Heartbeat CPU 0 instructions: 302000000 cycles: 499998662 heartbeat IPC: 0.608494 cumulative IPC: 0.602107 (Simulation time: 1 hr 31 min 4 sec) 
Heartbeat CPU 0 instructions: 303000000 cycles: 501636320 heartbeat IPC: 0.610628 cumulative IPC: 0.602136 (Simulation time: 1 hr 31 min 22 sec) 
Heartbeat CPU 0 instructions: 304000002 cycles: 503289323 heartbeat IPC: 0.604961 cumulative IPC: 0.602145 (Simulation time: 1 hr 31 min 42 sec) 
Heartbeat CPU 0 instructions: 305000003 cycles: 504942729 heartbeat IPC: 0.604813 cumulative IPC: 0.602154 (Simulation time: 1 hr 32 min 2 sec) 
Heartbeat CPU 0 instructions: 306000002 cycles: 506583833 heartbeat IPC: 0.609345 cumulative IPC: 0.602178 (Simulation time: 1 hr 32 min 20 sec) 
Heartbeat CPU 0 instructions: 307000001 cycles: 508249611 heartbeat IPC: 0.60032 cumulative IPC: 0.602172 (Simulation time: 1 hr 32 min 40 sec) 
Heartbeat CPU 0 instructions: 308000000 cycles: 509897034 heartbeat IPC: 0.607008 cumulative IPC: 0.602188 (Simulation time: 1 hr 33 min 1 sec) 
Heartbeat CPU 0 instructions: 309000002 cycles: 511547789 heartbeat IPC: 0.605785 cumulative IPC: 0.6022 (Simulation time: 1 hr 33 min 21 sec) 
Heartbeat CPU 0 instructions: 310000002 cycles: 513192062 heartbeat IPC: 0.608172 cumulative IPC: 0.60222 (Simulation time: 1 hr 33 min 41 sec) 
Heartbeat CPU 0 instructions: 311000001 cycles: 514851634 heartbeat IPC: 0.602564 cumulative IPC: 0.602221 (Simulation time: 1 hr 34 min 1 sec) 
Heartbeat CPU 0 instructions: 312000000 cycles: 516559136 heartbeat IPC: 0.58565 cumulative IPC: 0.602165 (Simulation time: 1 hr 34 min 17 sec) 
Heartbeat CPU 0 instructions: 313000001 cycles: 518181086 heartbeat IPC: 0.616542 cumulative IPC: 0.602211 (Simulation time: 1 hr 34 min 34 sec) 
Heartbeat CPU 0 instructions: 314000000 cycles: 519812024 heartbeat IPC: 0.613144 cumulative IPC: 0.602246 (Simulation time: 1 hr 34 min 54 sec) 
Heartbeat CPU 0 instructions: 315000002 cycles: 521458152 heartbeat IPC: 0.607487 cumulative IPC: 0.602263 (Simulation time: 1 hr 35 min 12 sec) 
Heartbeat CPU 0 instructions: 316000003 cycles: 523088879 heartbeat IPC: 0.613224 cumulative IPC: 0.602298 (Simulation time: 1 hr 35 min 31 sec) 
Heartbeat CPU 0 instructions: 317000001 cycles: 524742235 heartbeat IPC: 0.604829 cumulative IPC: 0.602307 (Simulation time: 1 hr 35 min 51 sec) 
Heartbeat CPU 0 instructions: 318000000 cycles: 526393725 heartbeat IPC: 0.605513 cumulative IPC: 0.602317 (Simulation time: 1 hr 36 min 11 sec) 
Heartbeat CPU 0 instructions: 319000000 cycles: 528071749 heartbeat IPC: 0.595939 cumulative IPC: 0.602296 (Simulation time: 1 hr 36 min 30 sec) 
Heartbeat CPU 0 instructions: 320000000 cycles: 529745711 heartbeat IPC: 0.597385 cumulative IPC: 0.60228 (Simulation time: 1 hr 36 min 51 sec) 
Heartbeat CPU 0 instructions: 321000000 cycles: 531438026 heartbeat IPC: 0.590907 cumulative IPC: 0.602243 (Simulation time: 1 hr 37 min 7 sec) 
Heartbeat CPU 0 instructions: 322000001 cycles: 533129881 heartbeat IPC: 0.591068 cumulative IPC: 0.602206 (Simulation time: 1 hr 37 min 27 sec) 
Heartbeat CPU 0 instructions: 323000002 cycles: 534844584 heartbeat IPC: 0.583192 cumulative IPC: 0.602144 (Simulation time: 1 hr 37 min 47 sec) 
Heartbeat CPU 0 instructions: 324000001 cycles: 536527989 heartbeat IPC: 0.594034 cumulative IPC: 0.602117 (Simulation time: 1 hr 38 min 3 sec) 
Heartbeat CPU 0 instructions: 325000002 cycles: 538209028 heartbeat IPC: 0.594871 cumulative IPC: 0.602094 (Simulation time: 1 hr 38 min 23 sec) 
Heartbeat CPU 0 instructions: 326000003 cycles: 539852678 heartbeat IPC: 0.608403 cumulative IPC: 0.602114 (Simulation time: 1 hr 38 min 42 sec) 
Heartbeat CPU 0 instructions: 327000001 cycles: 541507546 heartbeat IPC: 0.604277 cumulative IPC: 0.602121 (Simulation time: 1 hr 39 min 2 sec) 
Heartbeat CPU 0 instructions: 328000002 cycles: 543200648 heartbeat IPC: 0.590632 cumulative IPC: 0.602084 (Simulation time: 1 hr 39 min 19 sec) 
Heartbeat CPU 0 instructions: 329000003 cycles: 544881617 heartbeat IPC: 0.594896 cumulative IPC: 0.602061 (Simulation time: 1 hr 39 min 36 sec) 
Heartbeat CPU 0 instructions: 330000000 cycles: 546583803 heartbeat IPC: 0.587478 cumulative IPC: 0.602014 (Simulation time: 1 hr 39 min 53 sec) 
Heartbeat CPU 0 instructions: 331000002 cycles: 548243892 heartbeat IPC: 0.602379 cumulative IPC: 0.602016 (Simulation time: 1 hr 40 min 11 sec) 
Heartbeat CPU 0 instructions: 332000002 cycles: 549873639 heartbeat IPC: 0.613592 cumulative IPC: 0.602051 (Simulation time: 1 hr 40 min 26 sec) 
Heartbeat CPU 0 instructions: 333000003 cycles: 551525795 heartbeat IPC: 0.60527 cumulative IPC: 0.602061 (Simulation time: 1 hr 40 min 43 sec) 
Heartbeat CPU 0 instructions: 334000001 cycles: 553151927 heartbeat IPC: 0.614955 cumulative IPC: 0.6021 (Simulation time: 1 hr 41 min 3 sec) 
Heartbeat CPU 0 instructions: 335000000 cycles: 554778937 heartbeat IPC: 0.614624 cumulative IPC: 0.602137 (Simulation time: 1 hr 41 min 23 sec) 
Heartbeat CPU 0 instructions: 336000002 cycles: 556420698 heartbeat IPC: 0.609103 cumulative IPC: 0.602159 (Simulation time: 1 hr 41 min 43 sec) 
Heartbeat CPU 0 instructions: 337000002 cycles: 558065942 heartbeat IPC: 0.607813 cumulative IPC: 0.602176 (Simulation time: 1 hr 42 min 0 sec) 
Heartbeat CPU 0 instructions: 338000003 cycles: 559709834 heartbeat IPC: 0.608313 cumulative IPC: 0.602194 (Simulation time: 1 hr 42 min 17 sec) 
Heartbeat CPU 0 instructions: 339000002 cycles: 561354678 heartbeat IPC: 0.60796 cumulative IPC: 0.602212 (Simulation time: 1 hr 42 min 35 sec) 
Heartbeat CPU 0 instructions: 340000002 cycles: 562993353 heartbeat IPC: 0.610249 cumulative IPC: 0.602236 (Simulation time: 1 hr 42 min 53 sec) 
Heartbeat CPU 0 instructions: 341000000 cycles: 564646106 heartbeat IPC: 0.60505 cumulative IPC: 0.602244 (Simulation time: 1 hr 43 min 12 sec) 
Heartbeat CPU 0 instructions: 342000001 cycles: 566275833 heartbeat IPC: 0.6136 cumulative IPC: 0.602278 (Simulation time: 1 hr 43 min 28 sec) 
Heartbeat CPU 0 instructions: 343000001 cycles: 567942753 heartbeat IPC: 0.599909 cumulative IPC: 0.602271 (Simulation time: 1 hr 43 min 48 sec) 
Heartbeat CPU 0 instructions: 344000003 cycles: 569599500 heartbeat IPC: 0.603594 cumulative IPC: 0.602274 (Simulation time: 1 hr 44 min 8 sec) 
Heartbeat CPU 0 instructions: 345000001 cycles: 571259724 heartbeat IPC: 0.602327 cumulative IPC: 0.602275 (Simulation time: 1 hr 44 min 27 sec) 
Heartbeat CPU 0 instructions: 346000001 cycles: 572918823 heartbeat IPC: 0.602737 cumulative IPC: 0.602276 (Simulation time: 1 hr 44 min 46 sec) 
Heartbeat CPU 0 instructions: 347000002 cycles: 574569973 heartbeat IPC: 0.605639 cumulative IPC: 0.602286 (Simulation time: 1 hr 45 min 6 sec) 
Heartbeat CPU 0 instructions: 348000002 cycles: 576203097 heartbeat IPC: 0.612323 cumulative IPC: 0.602315 (Simulation time: 1 hr 45 min 24 sec) 
Heartbeat CPU 0 instructions: 349000002 cycles: 577845197 heartbeat IPC: 0.608976 cumulative IPC: 0.602335 (Simulation time: 1 hr 45 min 44 sec) 
Heartbeat CPU 0 instructions: 350000001 cycles: 579505520 heartbeat IPC: 0.602292 cumulative IPC: 0.602334 (Simulation time: 1 hr 46 min 2 sec) 
Heartbeat CPU 0 instructions: 351000000 cycles: 581129851 heartbeat IPC: 0.615637 cumulative IPC: 0.602373 (Simulation time: 1 hr 46 min 18 sec) 
Heartbeat CPU 0 instructions: 352000000 cycles: 582764809 heartbeat IPC: 0.611637 cumulative IPC: 0.602399 (Simulation time: 1 hr 46 min 38 sec) 
Heartbeat CPU 0 instructions: 353000002 cycles: 584413708 heartbeat IPC: 0.606466 cumulative IPC: 0.602411 (Simulation time: 1 hr 46 min 59 sec) 
Heartbeat CPU 0 instructions: 354000001 cycles: 586050977 heartbeat IPC: 0.610773 cumulative IPC: 0.602435 (Simulation time: 1 hr 47 min 18 sec) 
Heartbeat CPU 0 instructions: 355000002 cycles: 587690542 heartbeat IPC: 0.609918 cumulative IPC: 0.602457 (Simulation time: 1 hr 47 min 38 sec) 
Heartbeat CPU 0 instructions: 356000002 cycles: 589313544 heartbeat IPC: 0.616142 cumulative IPC: 0.602495 (Simulation time: 1 hr 47 min 58 sec) 
Heartbeat CPU 0 instructions: 357000002 cycles: 590941948 heartbeat IPC: 0.614098 cumulative IPC: 0.602528 (Simulation time: 1 hr 48 min 14 sec) 
Heartbeat CPU 0 instructions: 358000001 cycles: 592597449 heartbeat IPC: 0.604046 cumulative IPC: 0.602532 (Simulation time: 1 hr 48 min 34 sec) 
Heartbeat CPU 0 instructions: 359000003 cycles: 594254351 heartbeat IPC: 0.603537 cumulative IPC: 0.602535 (Simulation time: 1 hr 48 min 51 sec) 
Heartbeat CPU 0 instructions: 360000000 cycles: 595895991 heartbeat IPC: 0.609145 cumulative IPC: 0.602554 (Simulation time: 1 hr 49 min 11 sec) 
Heartbeat CPU 0 instructions: 361000001 cycles: 597517559 heartbeat IPC: 0.616688 cumulative IPC: 0.602593 (Simulation time: 1 hr 49 min 31 sec) 
Heartbeat CPU 0 instructions: 362000003 cycles: 599173431 heartbeat IPC: 0.603913 cumulative IPC: 0.602597 (Simulation time: 1 hr 49 min 50 sec) 
Heartbeat CPU 0 instructions: 363000000 cycles: 600806372 heartbeat IPC: 0.61239 cumulative IPC: 0.602624 (Simulation time: 1 hr 50 min 9 sec) 
Heartbeat CPU 0 instructions: 364000000 cycles: 602443782 heartbeat IPC: 0.610721 cumulative IPC: 0.602647 (Simulation time: 1 hr 50 min 27 sec) 
Heartbeat CPU 0 instructions: 365000001 cycles: 604094036 heartbeat IPC: 0.605968 cumulative IPC: 0.602656 (Simulation time: 1 hr 50 min 44 sec) 
Heartbeat CPU 0 instructions: 366000000 cycles: 605734216 heartbeat IPC: 0.609689 cumulative IPC: 0.602676 (Simulation time: 1 hr 51 min 3 sec) 
Heartbeat CPU 0 instructions: 367000001 cycles: 607371162 heartbeat IPC: 0.610894 cumulative IPC: 0.602698 (Simulation time: 1 hr 51 min 21 sec) 
Heartbeat CPU 0 instructions: 368000002 cycles: 609019422 heartbeat IPC: 0.606701 cumulative IPC: 0.602709 (Simulation time: 1 hr 51 min 37 sec) 
Heartbeat CPU 0 instructions: 369000001 cycles: 610671818 heartbeat IPC: 0.605181 cumulative IPC: 0.602716 (Simulation time: 1 hr 51 min 57 sec) 
Heartbeat CPU 0 instructions: 370000002 cycles: 612316934 heartbeat IPC: 0.607861 cumulative IPC: 0.602731 (Simulation time: 1 hr 52 min 15 sec) 
Heartbeat CPU 0 instructions: 371000000 cycles: 613943385 heartbeat IPC: 0.614834 cumulative IPC: 0.602763 (Simulation time: 1 hr 52 min 35 sec) 
Heartbeat CPU 0 instructions: 372000001 cycles: 615582425 heartbeat IPC: 0.610114 cumulative IPC: 0.602783 (Simulation time: 1 hr 52 min 55 sec) 
Heartbeat CPU 0 instructions: 373000002 cycles: 617223159 heartbeat IPC: 0.609484 cumulative IPC: 0.602802 (Simulation time: 1 hr 53 min 15 sec) 
Heartbeat CPU 0 instructions: 374000000 cycles: 618867220 heartbeat IPC: 0.608249 cumulative IPC: 0.602817 (Simulation time: 1 hr 53 min 35 sec) 
Heartbeat CPU 0 instructions: 375000001 cycles: 620506218 heartbeat IPC: 0.610129 cumulative IPC: 0.602836 (Simulation time: 1 hr 53 min 54 sec) 
Heartbeat CPU 0 instructions: 376000001 cycles: 622145232 heartbeat IPC: 0.610123 cumulative IPC: 0.602856 (Simulation time: 1 hr 54 min 12 sec) 
Heartbeat CPU 0 instructions: 377000003 cycles: 623784040 heartbeat IPC: 0.610201 cumulative IPC: 0.602876 (Simulation time: 1 hr 54 min 26 sec) 
Heartbeat CPU 0 instructions: 378000002 cycles: 625454645 heartbeat IPC: 0.598585 cumulative IPC: 0.602864 (Simulation time: 1 hr 54 min 42 sec) 
Heartbeat CPU 0 instructions: 379000003 cycles: 627078841 heartbeat IPC: 0.61569 cumulative IPC: 0.602898 (Simulation time: 1 hr 55 min 1 sec) 
Heartbeat CPU 0 instructions: 380000000 cycles: 628732820 heartbeat IPC: 0.604601 cumulative IPC: 0.602903 (Simulation time: 1 hr 55 min 21 sec) 
Heartbeat CPU 0 instructions: 381000001 cycles: 630401614 heartbeat IPC: 0.599236 cumulative IPC: 0.602893 (Simulation time: 1 hr 55 min 41 sec) 
Heartbeat CPU 0 instructions: 382000003 cycles: 632058073 heartbeat IPC: 0.603699 cumulative IPC: 0.602895 (Simulation time: 1 hr 56 min 1 sec) 
Heartbeat CPU 0 instructions: 383000003 cycles: 633756092 heartbeat IPC: 0.588922 cumulative IPC: 0.602857 (Simulation time: 1 hr 56 min 21 sec) 
Heartbeat CPU 0 instructions: 384000001 cycles: 635459720 heartbeat IPC: 0.586981 cumulative IPC: 0.602813 (Simulation time: 1 hr 56 min 40 sec) 
Heartbeat CPU 0 instructions: 385000000 cycles: 637135784 heartbeat IPC: 0.596635 cumulative IPC: 0.602796 (Simulation time: 1 hr 56 min 56 sec) 
Heartbeat CPU 0 instructions: 386000001 cycles: 638845914 heartbeat IPC: 0.584751 cumulative IPC: 0.602747 (Simulation time: 1 hr 57 min 15 sec) 
Heartbeat CPU 0 instructions: 387000001 cycles: 640472767 heartbeat IPC: 0.614684 cumulative IPC: 0.602778 (Simulation time: 1 hr 57 min 34 sec) 
Heartbeat CPU 0 instructions: 388000001 cycles: 642129506 heartbeat IPC: 0.603595 cumulative IPC: 0.60278 (Simulation time: 1 hr 57 min 54 sec) 
Heartbeat CPU 0 instructions: 389000001 cycles: 643760904 heartbeat IPC: 0.612971 cumulative IPC: 0.602806 (Simulation time: 1 hr 58 min 14 sec) 
Heartbeat CPU 0 instructions: 390000000 cycles: 645420580 heartbeat IPC: 0.602527 cumulative IPC: 0.602806 (Simulation time: 1 hr 58 min 34 sec) 
Heartbeat CPU 0 instructions: 391000001 cycles: 647053652 heartbeat IPC: 0.612343 cumulative IPC: 0.60283 (Simulation time: 1 hr 58 min 54 sec) 
Heartbeat CPU 0 instructions: 392000002 cycles: 648693391 heartbeat IPC: 0.609854 cumulative IPC: 0.602849 (Simulation time: 1 hr 59 min 14 sec) 
Heartbeat CPU 0 instructions: 393000001 cycles: 650337806 heartbeat IPC: 0.608118 cumulative IPC: 0.602862 (Simulation time: 1 hr 59 min 29 sec) 
Heartbeat CPU 0 instructions: 394000001 cycles: 651960796 heartbeat IPC: 0.616147 cumulative IPC: 0.602896 (Simulation time: 1 hr 59 min 43 sec) 
Heartbeat CPU 0 instructions: 395000000 cycles: 653661876 heartbeat IPC: 0.587861 cumulative IPC: 0.602856 (Simulation time: 2 hr 0 min 3 sec) 
Heartbeat CPU 0 instructions: 396000000 cycles: 655358467 heartbeat IPC: 0.589417 cumulative IPC: 0.60282 (Simulation time: 2 hr 0 min 23 sec) 
Heartbeat CPU 0 instructions: 397000001 cycles: 657007599 heartbeat IPC: 0.60638 cumulative IPC: 0.60283 (Simulation time: 2 hr 0 min 41 sec) 
Heartbeat CPU 0 instructions: 398000001 cycles: 658694828 heartbeat IPC: 0.592688 cumulative IPC: 0.602803 (Simulation time: 2 hr 1 min 0 sec) 
Heartbeat CPU 0 instructions: 399000001 cycles: 660383608 heartbeat IPC: 0.592143 cumulative IPC: 0.602775 (Simulation time: 2 hr 1 min 20 sec) 
Heartbeat CPU 0 instructions: 400000002 cycles: 662039616 heartbeat IPC: 0.603862 cumulative IPC: 0.602778 (Simulation time: 2 hr 1 min 39 sec) 
Heartbeat CPU 0 instructions: 401000002 cycles: 663704515 heartbeat IPC: 0.600637 cumulative IPC: 0.602772 (Simulation time: 2 hr 1 min 59 sec) 
Heartbeat CPU 0 instructions: 402000003 cycles: 665384411 heartbeat IPC: 0.595276 cumulative IPC: 0.602753 (Simulation time: 2 hr 2 min 17 sec) 
Heartbeat CPU 0 instructions: 403000001 cycles: 667118269 heartbeat IPC: 0.576747 cumulative IPC: 0.602684 (Simulation time: 2 hr 2 min 31 sec) 
Heartbeat CPU 0 instructions: 404000000 cycles: 668847476 heartbeat IPC: 0.578299 cumulative IPC: 0.602619 (Simulation time: 2 hr 2 min 52 sec) 
Heartbeat CPU 0 instructions: 405000002 cycles: 670522225 heartbeat IPC: 0.597106 cumulative IPC: 0.602605 (Simulation time: 2 hr 3 min 11 sec) 
Heartbeat CPU 0 instructions: 406000001 cycles: 672284429 heartbeat IPC: 0.567471 cumulative IPC: 0.602511 (Simulation time: 2 hr 3 min 26 sec) 
Heartbeat CPU 0 instructions: 407000000 cycles: 674091855 heartbeat IPC: 0.553272 cumulative IPC: 0.602376 (Simulation time: 2 hr 3 min 39 sec) 
Heartbeat CPU 0 instructions: 408000001 cycles: 675919100 heartbeat IPC: 0.547273 cumulative IPC: 0.602224 (Simulation time: 2 hr 3 min 52 sec) 
Heartbeat CPU 0 instructions: 409000000 cycles: 677752290 heartbeat IPC: 0.545497 cumulative IPC: 0.602067 (Simulation time: 2 hr 4 min 5 sec) 
Heartbeat CPU 0 instructions: 410000000 cycles: 679576196 heartbeat IPC: 0.548274 cumulative IPC: 0.601919 (Simulation time: 2 hr 4 min 18 sec) 
Heartbeat CPU 0 instructions: 411000002 cycles: 681352983 heartbeat IPC: 0.562815 cumulative IPC: 0.601815 (Simulation time: 2 hr 4 min 29 sec) 
Heartbeat CPU 0 instructions: 412000002 cycles: 683155035 heartbeat IPC: 0.554923 cumulative IPC: 0.601688 (Simulation time: 2 hr 4 min 40 sec) 
Heartbeat CPU 0 instructions: 413000001 cycles: 684925852 heartbeat IPC: 0.56471 cumulative IPC: 0.601591 (Simulation time: 2 hr 4 min 52 sec) 
Heartbeat CPU 0 instructions: 414000003 cycles: 686729877 heartbeat IPC: 0.554317 cumulative IPC: 0.601464 (Simulation time: 2 hr 5 min 5 sec) 
Heartbeat CPU 0 instructions: 415000003 cycles: 688519073 heartbeat IPC: 0.55891 cumulative IPC: 0.601351 (Simulation time: 2 hr 5 min 13 sec) 
Heartbeat CPU 0 instructions: 416000002 cycles: 690232120 heartbeat IPC: 0.583755 cumulative IPC: 0.601306 (Simulation time: 2 hr 5 min 25 sec) 
Heartbeat CPU 0 instructions: 417000002 cycles: 691676600 heartbeat IPC: 0.692291 cumulative IPC: 0.6015 (Simulation time: 2 hr 5 min 37 sec) 
Heartbeat CPU 0 instructions: 418000000 cycles: 693069733 heartbeat IPC: 0.717805 cumulative IPC: 0.601739 (Simulation time: 2 hr 5 min 49 sec) 
Heartbeat CPU 0 instructions: 419000000 cycles: 694458727 heartbeat IPC: 0.719945 cumulative IPC: 0.601981 (Simulation time: 2 hr 6 min 1 sec) 
Heartbeat CPU 0 instructions: 420000003 cycles: 695852940 heartbeat IPC: 0.717253 cumulative IPC: 0.602217 (Simulation time: 2 hr 6 min 13 sec) 
Heartbeat CPU 0 instructions: 421000002 cycles: 697894276 heartbeat IPC: 0.489875 cumulative IPC: 0.601881 (Simulation time: 2 hr 6 min 29 sec) 
Heartbeat CPU 0 instructions: 422000002 cycles: 700092129 heartbeat IPC: 0.454989 cumulative IPC: 0.60141 (Simulation time: 2 hr 6 min 45 sec) 
Heartbeat CPU 0 instructions: 423000001 cycles: 702355307 heartbeat IPC: 0.441856 cumulative IPC: 0.600884 (Simulation time: 2 hr 7 min 0 sec) 
Heartbeat CPU 0 instructions: 424000002 cycles: 704625861 heartbeat IPC: 0.440422 cumulative IPC: 0.600356 (Simulation time: 2 hr 7 min 17 sec) 
Heartbeat CPU 0 instructions: 425000003 cycles: 706958434 heartbeat IPC: 0.428712 cumulative IPC: 0.599777 (Simulation time: 2 hr 7 min 35 sec) 
Heartbeat CPU 0 instructions: 426000002 cycles: 709281270 heartbeat IPC: 0.430508 cumulative IPC: 0.599211 (Simulation time: 2 hr 7 min 51 sec) 
Heartbeat CPU 0 instructions: 427000003 cycles: 711650228 heartbeat IPC: 0.422127 cumulative IPC: 0.598609 (Simulation time: 2 hr 8 min 5 sec) 
Heartbeat CPU 0 instructions: 428000002 cycles: 713979547 heartbeat IPC: 0.42931 cumulative IPC: 0.598045 (Simulation time: 2 hr 8 min 23 sec) 
Heartbeat CPU 0 instructions: 429000000 cycles: 716305185 heartbeat IPC: 0.429989 cumulative IPC: 0.597487 (Simulation time: 2 hr 8 min 40 sec) 
Heartbeat CPU 0 instructions: 430000003 cycles: 718657473 heartbeat IPC: 0.425119 cumulative IPC: 0.596911 (Simulation time: 2 hr 8 min 58 sec) 
Heartbeat CPU 0 instructions: 431000000 cycles: 720952358 heartbeat IPC: 0.43575 cumulative IPC: 0.596387 (Simulation time: 2 hr 9 min 12 sec) 
Heartbeat CPU 0 instructions: 432000000 cycles: 723136767 heartbeat IPC: 0.45779 cumulative IPC: 0.59596 (Simulation time: 2 hr 9 min 26 sec) 
Heartbeat CPU 0 instructions: 433000002 cycles: 725396202 heartbeat IPC: 0.442589 cumulative IPC: 0.595472 (Simulation time: 2 hr 9 min 41 sec) 
Heartbeat CPU 0 instructions: 434000001 cycles: 727845587 heartbeat IPC: 0.408265 cumulative IPC: 0.594828 (Simulation time: 2 hr 9 min 59 sec) 
Heartbeat CPU 0 instructions: 435000002 cycles: 730168421 heartbeat IPC: 0.430509 cumulative IPC: 0.594295 (Simulation time: 2 hr 10 min 17 sec) 
Heartbeat CPU 0 instructions: 436000000 cycles: 732392049 heartbeat IPC: 0.449715 cumulative IPC: 0.593847 (Simulation time: 2 hr 10 min 34 sec) 
Heartbeat CPU 0 instructions: 437000002 cycles: 734539992 heartbeat IPC: 0.465563 cumulative IPC: 0.593464 (Simulation time: 2 hr 10 min 47 sec) 
Heartbeat CPU 0 instructions: 438000002 cycles: 736713954 heartbeat IPC: 0.45999 cumulative IPC: 0.593062 (Simulation time: 2 hr 11 min 2 sec) 
Heartbeat CPU 0 instructions: 439000001 cycles: 738914316 heartbeat IPC: 0.45447 cumulative IPC: 0.59264 (Simulation time: 2 hr 11 min 16 sec) 
Heartbeat CPU 0 instructions: 440000000 cycles: 741352534 heartbeat IPC: 0.410135 cumulative IPC: 0.592028 (Simulation time: 2 hr 11 min 34 sec) 
Heartbeat CPU 0 instructions: 441000001 cycles: 743741488 heartbeat IPC: 0.418594 cumulative IPC: 0.591459 (Simulation time: 2 hr 11 min 53 sec) 
Heartbeat CPU 0 instructions: 442000002 cycles: 746283757 heartbeat IPC: 0.39335 cumulative IPC: 0.59077 (Simulation time: 2 hr 12 min 11 sec) 
Heartbeat CPU 0 instructions: 443000002 cycles: 748691211 heartbeat IPC: 0.415377 cumulative IPC: 0.590195 (Simulation time: 2 hr 12 min 29 sec) 
Heartbeat CPU 0 instructions: 444000003 cycles: 751018734 heartbeat IPC: 0.429642 cumulative IPC: 0.589687 (Simulation time: 2 hr 12 min 47 sec) 
Heartbeat CPU 0 instructions: 445000002 cycles: 753603993 heartbeat IPC: 0.386808 cumulative IPC: 0.588977 (Simulation time: 2 hr 13 min 4 sec) 
Heartbeat CPU 0 instructions: 446000000 cycles: 756079404 heartbeat IPC: 0.403973 cumulative IPC: 0.588359 (Simulation time: 2 hr 13 min 19 sec) 
Heartbeat CPU 0 instructions: 447000002 cycles: 758591957 heartbeat IPC: 0.398002 cumulative IPC: 0.587716 (Simulation time: 2 hr 13 min 34 sec) 
Heartbeat CPU 0 instructions: 448000003 cycles: 761335317 heartbeat IPC: 0.364517 cumulative IPC: 0.586895 (Simulation time: 2 hr 13 min 50 sec) 
Heartbeat CPU 0 instructions: 449000002 cycles: 763644109 heartbeat IPC: 0.433127 cumulative IPC: 0.586421 (Simulation time: 2 hr 14 min 6 sec) 
Heartbeat CPU 0 instructions: 450000002 cycles: 765163349 heartbeat IPC: 0.658224 cumulative IPC: 0.586566 (Simulation time: 2 hr 14 min 17 sec) 
Heartbeat CPU 0 instructions: 451000000 cycles: 766586617 heartbeat IPC: 0.702607 cumulative IPC: 0.586786 (Simulation time: 2 hr 14 min 28 sec) 
Heartbeat CPU 0 instructions: 452000002 cycles: 767981271 heartbeat IPC: 0.717025 cumulative IPC: 0.587027 (Simulation time: 2 hr 14 min 39 sec) 
Heartbeat CPU 0 instructions: 453000001 cycles: 769367291 heartbeat IPC: 0.72149 cumulative IPC: 0.587274 (Simulation time: 2 hr 14 min 50 sec) 
Heartbeat CPU 0 instructions: 454000002 cycles: 770758115 heartbeat IPC: 0.718999 cumulative IPC: 0.587517 (Simulation time: 2 hr 15 min 1 sec) 
Heartbeat CPU 0 instructions: 455000000 cycles: 772144607 heartbeat IPC: 0.721243 cumulative IPC: 0.587762 (Simulation time: 2 hr 15 min 11 sec) 
Heartbeat CPU 0 instructions: 456000003 cycles: 773531277 heartbeat IPC: 0.721154 cumulative IPC: 0.588006 (Simulation time: 2 hr 15 min 21 sec) 
Heartbeat CPU 0 instructions: 457000001 cycles: 774924923 heartbeat IPC: 0.717541 cumulative IPC: 0.588243 (Simulation time: 2 hr 15 min 32 sec) 
Heartbeat CPU 0 instructions: 458000002 cycles: 776316030 heartbeat IPC: 0.718853 cumulative IPC: 0.588482 (Simulation time: 2 hr 15 min 43 sec) 
Heartbeat CPU 0 instructions: 459000003 cycles: 777703125 heartbeat IPC: 0.720932 cumulative IPC: 0.588723 (Simulation time: 2 hr 15 min 54 sec) 
Heartbeat CPU 0 instructions: 460000000 cycles: 779093304 heartbeat IPC: 0.71933 cumulative IPC: 0.58896 (Simulation time: 2 hr 16 min 3 sec) 
Heartbeat CPU 0 instructions: 461000003 cycles: 781071321 heartbeat IPC: 0.505558 cumulative IPC: 0.588745 (Simulation time: 2 hr 16 min 13 sec) 
Heartbeat CPU 0 instructions: 462000000 cycles: 783424607 heartbeat IPC: 0.424936 cumulative IPC: 0.588243 (Simulation time: 2 hr 16 min 26 sec) 
Heartbeat CPU 0 instructions: 463000001 cycles: 785567070 heartbeat IPC: 0.466753 cumulative IPC: 0.587906 (Simulation time: 2 hr 16 min 39 sec) 
Heartbeat CPU 0 instructions: 464000001 cycles: 787993460 heartbeat IPC: 0.412135 cumulative IPC: 0.587354 (Simulation time: 2 hr 16 min 51 sec) 
Heartbeat CPU 0 instructions: 465000003 cycles: 790128037 heartbeat IPC: 0.468478 cumulative IPC: 0.587026 (Simulation time: 2 hr 17 min 2 sec) 
Heartbeat CPU 0 instructions: 466000003 cycles: 792461880 heartbeat IPC: 0.428478 cumulative IPC: 0.58655 (Simulation time: 2 hr 17 min 13 sec) 
Heartbeat CPU 0 instructions: 467000003 cycles: 794513164 heartbeat IPC: 0.4875 cumulative IPC: 0.58629 (Simulation time: 2 hr 17 min 24 sec) 
Heartbeat CPU 0 instructions: 468000001 cycles: 796855399 heartbeat IPC: 0.426942 cumulative IPC: 0.585812 (Simulation time: 2 hr 17 min 37 sec) 
Heartbeat CPU 0 instructions: 469000002 cycles: 799023123 heartbeat IPC: 0.461314 cumulative IPC: 0.585468 (Simulation time: 2 hr 17 min 51 sec) 
Heartbeat CPU 0 instructions: 470000002 cycles: 801313010 heartbeat IPC: 0.436703 cumulative IPC: 0.585035 (Simulation time: 2 hr 18 min 6 sec) 
Heartbeat CPU 0 instructions: 471000002 cycles: 803555906 heartbeat IPC: 0.445852 cumulative IPC: 0.584639 (Simulation time: 2 hr 18 min 20 sec) 
Heartbeat CPU 0 instructions: 472000000 cycles: 805617865 heartbeat IPC: 0.484975 cumulative IPC: 0.584379 (Simulation time: 2 hr 18 min 34 sec) 
Heartbeat CPU 0 instructions: 473000000 cycles: 807331260 heartbeat IPC: 0.583637 cumulative IPC: 0.584377 (Simulation time: 2 hr 18 min 48 sec) 
Heartbeat CPU 0 instructions: 474000002 cycles: 809392639 heartbeat IPC: 0.485113 cumulative IPC: 0.58412 (Simulation time: 2 hr 19 min 0 sec) 
Heartbeat CPU 0 instructions: 475000000 cycles: 811163236 heartbeat IPC: 0.56478 cumulative IPC: 0.584077 (Simulation time: 2 hr 19 min 12 sec) 
Heartbeat CPU 0 instructions: 476000001 cycles: 813047096 heartbeat IPC: 0.530826 cumulative IPC: 0.583951 (Simulation time: 2 hr 19 min 23 sec) 
Heartbeat CPU 0 instructions: 477000003 cycles: 815084762 heartbeat IPC: 0.490759 cumulative IPC: 0.583714 (Simulation time: 2 hr 19 min 38 sec) 
Heartbeat CPU 0 instructions: 478000002 cycles: 817176216 heartbeat IPC: 0.478136 cumulative IPC: 0.583438 (Simulation time: 2 hr 19 min 52 sec) 
Heartbeat CPU 0 instructions: 479000003 cycles: 819201951 heartbeat IPC: 0.493648 cumulative IPC: 0.583212 (Simulation time: 2 hr 20 min 7 sec) 
Heartbeat CPU 0 instructions: 480000001 cycles: 821297736 heartbeat IPC: 0.477147 cumulative IPC: 0.582937 (Simulation time: 2 hr 20 min 21 sec) 
Heartbeat CPU 0 instructions: 481000001 cycles: 823473137 heartbeat IPC: 0.459685 cumulative IPC: 0.582605 (Simulation time: 2 hr 20 min 36 sec) 
Heartbeat CPU 0 instructions: 482000002 cycles: 825598531 heartbeat IPC: 0.470501 cumulative IPC: 0.582311 (Simulation time: 2 hr 20 min 51 sec) 
Heartbeat CPU 0 instructions: 483000001 cycles: 827489671 heartbeat IPC: 0.528781 cumulative IPC: 0.582186 (Simulation time: 2 hr 21 min 5 sec) 
Heartbeat CPU 0 instructions: 484000000 cycles: 829293862 heartbeat IPC: 0.554264 cumulative IPC: 0.582125 (Simulation time: 2 hr 21 min 18 sec) 
Heartbeat CPU 0 instructions: 485000002 cycles: 831350662 heartbeat IPC: 0.486193 cumulative IPC: 0.581883 (Simulation time: 2 hr 21 min 29 sec) 
Heartbeat CPU 0 instructions: 486000001 cycles: 833220356 heartbeat IPC: 0.534846 cumulative IPC: 0.581775 (Simulation time: 2 hr 21 min 39 sec) 
Heartbeat CPU 0 instructions: 487000001 cycles: 835410938 heartbeat IPC: 0.4565 cumulative IPC: 0.581441 (Simulation time: 2 hr 21 min 54 sec) 
Heartbeat CPU 0 instructions: 488000001 cycles: 837605348 heartbeat IPC: 0.455703 cumulative IPC: 0.581105 (Simulation time: 2 hr 22 min 5 sec) 
Heartbeat CPU 0 instructions: 489000001 cycles: 839863719 heartbeat IPC: 0.442797 cumulative IPC: 0.580727 (Simulation time: 2 hr 22 min 20 sec) 
Heartbeat CPU 0 instructions: 490000001 cycles: 842114135 heartbeat IPC: 0.444362 cumulative IPC: 0.580356 (Simulation time: 2 hr 22 min 35 sec) 
Heartbeat CPU 0 instructions: 491000003 cycles: 844316025 heartbeat IPC: 0.454156 cumulative IPC: 0.580021 (Simulation time: 2 hr 22 min 50 sec) 
Heartbeat CPU 0 instructions: 492000002 cycles: 846557828 heartbeat IPC: 0.446069 cumulative IPC: 0.579659 (Simulation time: 2 hr 23 min 5 sec) 
Heartbeat CPU 0 instructions: 493000001 cycles: 848798098 heartbeat IPC: 0.446374 cumulative IPC: 0.579301 (Simulation time: 2 hr 23 min 19 sec) 
Heartbeat CPU 0 instructions: 494000003 cycles: 850818536 heartbeat IPC: 0.494943 cumulative IPC: 0.579097 (Simulation time: 2 hr 23 min 35 sec) 
Heartbeat CPU 0 instructions: 495000000 cycles: 852481404 heartbeat IPC: 0.601369 cumulative IPC: 0.579142 (Simulation time: 2 hr 23 min 55 sec) 
Heartbeat CPU 0 instructions: 496000003 cycles: 854118661 heartbeat IPC: 0.610779 cumulative IPC: 0.579203 (Simulation time: 2 hr 24 min 15 sec) 
Heartbeat CPU 0 instructions: 497000000 cycles: 855778880 heartbeat IPC: 0.602328 cumulative IPC: 0.579249 (Simulation time: 2 hr 24 min 33 sec) 
Heartbeat CPU 0 instructions: 498000003 cycles: 857398211 heartbeat IPC: 0.617541 cumulative IPC: 0.579323 (Simulation time: 2 hr 24 min 51 sec) 
Heartbeat CPU 0 instructions: 499000000 cycles: 859052366 heartbeat IPC: 0.604536 cumulative IPC: 0.579372 (Simulation time: 2 hr 25 min 8 sec) 
Heartbeat CPU 0 instructions: 500000000 cycles: 860663907 heartbeat IPC: 0.620524 cumulative IPC: 0.57945 (Simulation time: 2 hr 25 min 27 sec) 
Heartbeat CPU 0 instructions: 501000000 cycles: 862314467 heartbeat IPC: 0.605855 cumulative IPC: 0.579502 (Simulation time: 2 hr 25 min 47 sec) 
Heartbeat CPU 0 instructions: 502000003 cycles: 863959043 heartbeat IPC: 0.608061 cumulative IPC: 0.579557 (Simulation time: 2 hr 26 min 5 sec) 
Heartbeat CPU 0 instructions: 503000001 cycles: 865620229 heartbeat IPC: 0.601978 cumulative IPC: 0.579601 (Simulation time: 2 hr 26 min 25 sec) 
Heartbeat CPU 0 instructions: 504000001 cycles: 867284519 heartbeat IPC: 0.600857 cumulative IPC: 0.579642 (Simulation time: 2 hr 26 min 45 sec) 
Heartbeat CPU 0 instructions: 505000002 cycles: 868960809 heartbeat IPC: 0.596556 cumulative IPC: 0.579676 (Simulation time: 2 hr 27 min 5 sec) 
Heartbeat CPU 0 instructions: 506000000 cycles: 870615552 heartbeat IPC: 0.604322 cumulative IPC: 0.579723 (Simulation time: 2 hr 27 min 22 sec) 
Heartbeat CPU 0 instructions: 507000000 cycles: 872239428 heartbeat IPC: 0.615811 cumulative IPC: 0.579792 (Simulation time: 2 hr 27 min 37 sec) 
Heartbeat CPU 0 instructions: 508000003 cycles: 873880350 heartbeat IPC: 0.609415 cumulative IPC: 0.579848 (Simulation time: 2 hr 27 min 47 sec) 
Heartbeat CPU 0 instructions: 509000002 cycles: 875532419 heartbeat IPC: 0.605301 cumulative IPC: 0.579897 (Simulation time: 2 hr 27 min 55 sec) 
Heartbeat CPU 0 instructions: 510000000 cycles: 877205164 heartbeat IPC: 0.597819 cumulative IPC: 0.579932 (Simulation time: 2 hr 28 min 3 sec) 
Finished CPU 0 instructions: 500000003 cycles: 862170088 cumulative IPC: 0.579932 (Simulation time: 2 hr 28 min 3 sec) 

ChampSim completed all CPUs

Region of Interest Statistics

CPU 0 cumulative IPC: 0.579932 instructions: 500000003 cycles: 862170088
L1D TOTAL     ACCESS:  167221045  HIT:  155344518  MISS:   11876527
L1D LOAD      ACCESS:  151750371  HIT:  140097371  MISS:   11653000
L1D RFO       ACCESS:   15470674  HIT:   15247147  MISS:     223527
L1D PREFETCH  ACCESS:          0  HIT:          0  MISS:          0
L1D WRITEBACK ACCESS:          0  HIT:          0  MISS:          0
L1D PREFETCH  REQUESTED:          0  ISSUED:          0  USEFUL:          0  USELESS:          0  UAC CORRECT:          0
L1D AVERAGE MISS LATENCY: 298.034 cycles
L1I TOTAL     ACCESS:   87058775  HIT:   87058711  MISS:         64
L1I LOAD      ACCESS:   87058775  HIT:   87058711  MISS:         64
L1I RFO       ACCESS:          0  HIT:          0  MISS:          0
L1I PREFETCH  ACCESS:          0  HIT:          0  MISS:          0
L1I WRITEBACK ACCESS:          0  HIT:          0  MISS:          0
L1I PREFETCH  REQUESTED:          0  ISSUED:          0  USEFUL:          0  USELESS:          0  UAC CORRECT:          0
L1I AVERAGE MISS LATENCY: 199.594 cycles
L2C TOTAL     ACCESS:   12782059  HIT:    1363397  MISS:   11418662
L2C LOAD      ACCESS:   11653063  HIT:     457897  MISS:   11195166
L2C RFO       ACCESS:     223523  HIT:         63  MISS:     223460
L2C PREFETCH  ACCESS:          0  HIT:          0  MISS:          0
L2C WRITEBACK ACCESS:     905473  HIT:     905437  MISS:         36
L2C PREFETCH  REQUESTED:          0  ISSUED:          0  USEFUL:          0  USELESS:          0  UAC CORRECT:          0
L2C AVERAGE MISS LATENCY: 293.741 cycles
LLC TOTAL     ACCESS:   12318212  HIT:     901949  MISS:   11416263
LLC LOAD      ACCESS:   11195166  HIT:       2415  MISS:   11192751
LLC RFO       ACCESS:     223460  HIT:          0  MISS:     223460
LLC PREFETCH  ACCESS:          0  HIT:          0  MISS:          0
LLC WRITEBACK ACCESS:     899586  HIT:     899534  MISS:         52
LLC PREFETCH  REQUESTED:          0  ISSUED:          0  USEFUL:          0  USELESS:          0  UAC CORRECT:          0
LLC AVERAGE MISS LATENCY: 262.288 cycles
Major fault: 0 Minor fault: 108279

DRAM Statistics
 CHANNEL 0
 RQ ROW_BUFFER_HIT:    5117081  ROW_BUFFER_MISS:     591030
 DBUS_CONGESTED:    1631834
 WQ ROW_BUFFER_HIT:     367676  ROW_BUFFER_MISS:      82006  FULL:          0

 CHANNEL 1
 RQ ROW_BUFFER_HIT:    5116792  ROW_BUFFER_MISS:     591307
 DBUS_CONGESTED:    1631834
 WQ ROW_BUFFER_HIT:     365764  ROW_BUFFER_MISS:      83936  FULL:          0

 AVG_CONGESTED_CYCLE: 15

CPU 0 Branch Prediction Accuracy: 99.8696% MPKI: 0.070904 Average ROB Occupancy at Mispredict: 329.621

Branch types
NOT_BRANCH: 472806423 94.5613%
BRANCH_DIRECT_JUMP: 811201 0.16224%
BRANCH_INDIRECT: 0 0%
BRANCH_CONDITIONAL: 26382347 5.27647%
BRANCH_DIRECT_CALL: 2 4e-07%
BRANCH_INDIRECT_CALL: 0 0%
BRANCH_RETURN: 2 4e-07%
BRANCH_OTHER: 0 0%


gzip: stdout: Broken pipe
