
*** ChampSim Multicore Out-of-Order Simulator ***

Warmup Instructions: 1000000
Prefetch Warmup Instructions: 10000000
Simulation Instructions: 500000000
Stat Printing Period: 1000000
Number of CPUs: 1
LLC sets: 2048
LLC ways: 16
Off-chip DRAM Size: 32768 MB Channels: 2 Width: 64-bit Data Rate: 1024 MT/s

CPU 0 runs /scratch/cluster/cmolder/ML-DPC/ChampSimTraces/spec06/429.mcf-s2.trace.gz
Read seed: 577
Heartbeat CPU 0 instructions: 1000003 cycles: 435020 heartbeat IPC: 2.29875 cumulative IPC: 2.29875 (Simulation time: 0 hr 0 min 5 sec) 

Warmup complete CPU 0 instructions: 1000003 cycles: 435020 (Simulation time: 0 hr 0 min 5 sec) 

Heartbeat CPU 0 instructions: 2000000 cycles: 4798520 heartbeat IPC: 0.229173 cumulative IPC: 0.229173 (Simulation time: 0 hr 0 min 11 sec) 
Heartbeat CPU 0 instructions: 3000001 cycles: 18948450 heartbeat IPC: 0.0706718 cumulative IPC: 0.10803 (Simulation time: 0 hr 0 min 21 sec) 
Heartbeat CPU 0 instructions: 4000001 cycles: 31006174 heartbeat IPC: 0.0829344 cumulative IPC: 0.0981317 (Simulation time: 0 hr 0 min 32 sec) 
Heartbeat CPU 0 instructions: 5000001 cycles: 35166567 heartbeat IPC: 0.240362 cumulative IPC: 0.115169 (Simulation time: 0 hr 0 min 38 sec) 
Heartbeat CPU 0 instructions: 6000000 cycles: 42175629 heartbeat IPC: 0.142672 cumulative IPC: 0.119787 (Simulation time: 0 hr 0 min 44 sec) 
Heartbeat CPU 0 instructions: 7000003 cycles: 61169731 heartbeat IPC: 0.0526481 cumulative IPC: 0.0987903 (Simulation time: 0 hr 0 min 59 sec) 
Heartbeat CPU 0 instructions: 8000002 cycles: 65936083 heartbeat IPC: 0.209804 cumulative IPC: 0.106868 (Simulation time: 0 hr 1 min 5 sec) 
Heartbeat CPU 0 instructions: 9000002 cycles: 70108261 heartbeat IPC: 0.239683 cumulative IPC: 0.114822 (Simulation time: 0 hr 1 min 11 sec) 
Heartbeat CPU 0 instructions: 10000002 cycles: 87383176 heartbeat IPC: 0.0578874 cumulative IPC: 0.10351 (Simulation time: 0 hr 1 min 24 sec) 

Warmup complete CPU 0 instructions: 10000002 cycles: 87383176 (Simulation time: 0 hr 1 min 24 sec) 

Heartbeat CPU 0 instructions: 11000000 cycles: 97190220 heartbeat IPC: 0.101967 cumulative IPC: 0.101967 (Simulation time: 0 hr 1 min 33 sec) 
Heartbeat CPU 0 instructions: 12000000 cycles: 101345932 heartbeat IPC: 0.240633 cumulative IPC: 0.143238 (Simulation time: 0 hr 1 min 39 sec) 
Heartbeat CPU 0 instructions: 13000001 cycles: 107617971 heartbeat IPC: 0.159438 cumulative IPC: 0.148259 (Simulation time: 0 hr 1 min 46 sec) 
Heartbeat CPU 0 instructions: 14000000 cycles: 119213183 heartbeat IPC: 0.0862424 cumulative IPC: 0.125668 (Simulation time: 0 hr 1 min 55 sec) 
Heartbeat CPU 0 instructions: 15000000 cycles: 123425115 heartbeat IPC: 0.237421 cumulative IPC: 0.138727 (Simulation time: 0 hr 2 min 1 sec) 
Heartbeat CPU 0 instructions: 16000001 cycles: 127095806 heartbeat IPC: 0.272429 cumulative IPC: 0.151085 (Simulation time: 0 hr 2 min 7 sec) 
Heartbeat CPU 0 instructions: 17000002 cycles: 138784264 heartbeat IPC: 0.0855546 cumulative IPC: 0.136184 (Simulation time: 0 hr 2 min 17 sec) 
Heartbeat CPU 0 instructions: 18000001 cycles: 143871325 heartbeat IPC: 0.196577 cumulative IPC: 0.141623 (Simulation time: 0 hr 2 min 23 sec) 
Heartbeat CPU 0 instructions: 19000003 cycles: 148791207 heartbeat IPC: 0.203257 cumulative IPC: 0.146561 (Simulation time: 0 hr 2 min 30 sec) 
Heartbeat CPU 0 instructions: 20000002 cycles: 160638755 heartbeat IPC: 0.0844056 cumulative IPC: 0.136508 (Simulation time: 0 hr 2 min 40 sec) 
Heartbeat CPU 0 instructions: 21000002 cycles: 171758252 heartbeat IPC: 0.0899321 cumulative IPC: 0.13037 (Simulation time: 0 hr 2 min 50 sec) 
Heartbeat CPU 0 instructions: 22000000 cycles: 176125768 heartbeat IPC: 0.228963 cumulative IPC: 0.135223 (Simulation time: 0 hr 2 min 56 sec) 
Heartbeat CPU 0 instructions: 23000000 cycles: 180240000 heartbeat IPC: 0.243059 cumulative IPC: 0.14 (Simulation time: 0 hr 3 min 2 sec) 
Heartbeat CPU 0 instructions: 24000001 cycles: 190351641 heartbeat IPC: 0.098896 cumulative IPC: 0.135964 (Simulation time: 0 hr 3 min 10 sec) 
Heartbeat CPU 0 instructions: 25000003 cycles: 197344942 heartbeat IPC: 0.142994 cumulative IPC: 0.136411 (Simulation time: 0 hr 3 min 18 sec) 
Heartbeat CPU 0 instructions: 26000000 cycles: 201113463 heartbeat IPC: 0.265355 cumulative IPC: 0.140684 (Simulation time: 0 hr 3 min 24 sec) 
Heartbeat CPU 0 instructions: 27000000 cycles: 208983519 heartbeat IPC: 0.127064 cumulative IPC: 0.139802 (Simulation time: 0 hr 3 min 31 sec) 
Heartbeat CPU 0 instructions: 28000000 cycles: 218163192 heartbeat IPC: 0.108936 cumulative IPC: 0.137636 (Simulation time: 0 hr 3 min 40 sec) 
Heartbeat CPU 0 instructions: 29000000 cycles: 222983094 heartbeat IPC: 0.207473 cumulative IPC: 0.140118 (Simulation time: 0 hr 3 min 46 sec) 
Heartbeat CPU 0 instructions: 30000001 cycles: 229257573 heartbeat IPC: 0.159376 cumulative IPC: 0.14097 (Simulation time: 0 hr 3 min 53 sec) 
Heartbeat CPU 0 instructions: 31000002 cycles: 240102360 heartbeat IPC: 0.0922103 cumulative IPC: 0.137507 (Simulation time: 0 hr 4 min 2 sec) 
Heartbeat CPU 0 instructions: 32000000 cycles: 244631462 heartbeat IPC: 0.220794 cumulative IPC: 0.139906 (Simulation time: 0 hr 4 min 8 sec) 
Heartbeat CPU 0 instructions: 33000000 cycles: 250581313 heartbeat IPC: 0.168071 cumulative IPC: 0.140933 (Simulation time: 0 hr 4 min 15 sec) 
Heartbeat CPU 0 instructions: 34000001 cycles: 262042381 heartbeat IPC: 0.087252 cumulative IPC: 0.13741 (Simulation time: 0 hr 4 min 24 sec) 
Heartbeat CPU 0 instructions: 35000001 cycles: 267790796 heartbeat IPC: 0.173961 cumulative IPC: 0.138575 (Simulation time: 0 hr 4 min 31 sec) 
Heartbeat CPU 0 instructions: 36000000 cycles: 273785255 heartbeat IPC: 0.166821 cumulative IPC: 0.139483 (Simulation time: 0 hr 4 min 37 sec) 
Heartbeat CPU 0 instructions: 37000000 cycles: 282086060 heartbeat IPC: 0.12047 cumulative IPC: 0.138673 (Simulation time: 0 hr 4 min 45 sec) 
Heartbeat CPU 0 instructions: 38000001 cycles: 290916013 heartbeat IPC: 0.113251 cumulative IPC: 0.13757 (Simulation time: 0 hr 4 min 54 sec) 
Heartbeat CPU 0 instructions: 39000000 cycles: 295047363 heartbeat IPC: 0.242051 cumulative IPC: 0.139649 (Simulation time: 0 hr 4 min 59 sec) 
Heartbeat CPU 0 instructions: 40000002 cycles: 300201057 heartbeat IPC: 0.194036 cumulative IPC: 0.140966 (Simulation time: 0 hr 5 min 5 sec) 
Heartbeat CPU 0 instructions: 41000002 cycles: 311682040 heartbeat IPC: 0.0871006 cumulative IPC: 0.138208 (Simulation time: 0 hr 5 min 15 sec) 
Heartbeat CPU 0 instructions: 42000002 cycles: 316858395 heartbeat IPC: 0.193186 cumulative IPC: 0.139449 (Simulation time: 0 hr 5 min 21 sec) 
Heartbeat CPU 0 instructions: 43000001 cycles: 321091543 heartbeat IPC: 0.236231 cumulative IPC: 0.141202 (Simulation time: 0 hr 5 min 26 sec) 
Heartbeat CPU 0 instructions: 44000000 cycles: 331471661 heartbeat IPC: 0.0963379 cumulative IPC: 0.139294 (Simulation time: 0 hr 5 min 35 sec) 
Heartbeat CPU 0 instructions: 45000000 cycles: 338269066 heartbeat IPC: 0.147115 cumulative IPC: 0.139506 (Simulation time: 0 hr 5 min 42 sec) 
Heartbeat CPU 0 instructions: 46000002 cycles: 342477843 heartbeat IPC: 0.237599 cumulative IPC: 0.141124 (Simulation time: 0 hr 5 min 48 sec) 
Heartbeat CPU 0 instructions: 47000003 cycles: 350443918 heartbeat IPC: 0.125532 cumulative IPC: 0.140652 (Simulation time: 0 hr 5 min 55 sec) 
Heartbeat CPU 0 instructions: 48000001 cycles: 359772776 heartbeat IPC: 0.107194 cumulative IPC: 0.139506 (Simulation time: 0 hr 6 min 4 sec) 
Heartbeat CPU 0 instructions: 49000002 cycles: 364654399 heartbeat IPC: 0.20485 cumulative IPC: 0.140657 (Simulation time: 0 hr 6 min 10 sec) 
Heartbeat CPU 0 instructions: 50000002 cycles: 370506699 heartbeat IPC: 0.170873 cumulative IPC: 0.141281 (Simulation time: 0 hr 6 min 16 sec) 
Heartbeat CPU 0 instructions: 51000002 cycles: 381958613 heartbeat IPC: 0.0873216 cumulative IPC: 0.139183 (Simulation time: 0 hr 6 min 26 sec) 
Heartbeat CPU 0 instructions: 52000000 cycles: 386623484 heartbeat IPC: 0.214368 cumulative IPC: 0.140355 (Simulation time: 0 hr 6 min 31 sec) 
Heartbeat CPU 0 instructions: 53000001 cycles: 390833336 heartbeat IPC: 0.237538 cumulative IPC: 0.141704 (Simulation time: 0 hr 6 min 37 sec) 
Heartbeat CPU 0 instructions: 54000003 cycles: 402764111 heartbeat IPC: 0.083817 cumulative IPC: 0.139514 (Simulation time: 0 hr 6 min 47 sec) 
Heartbeat CPU 0 instructions: 55000000 cycles: 408229650 heartbeat IPC: 0.182964 cumulative IPC: 0.140254 (Simulation time: 0 hr 6 min 53 sec) 
Heartbeat CPU 0 instructions: 56000000 cycles: 412714922 heartbeat IPC: 0.222952 cumulative IPC: 0.141394 (Simulation time: 0 hr 6 min 59 sec) 
Heartbeat CPU 0 instructions: 57000001 cycles: 423135965 heartbeat IPC: 0.0959598 cumulative IPC: 0.139984 (Simulation time: 0 hr 7 min 8 sec) 
Heartbeat CPU 0 instructions: 58000001 cycles: 429789831 heartbeat IPC: 0.150289 cumulative IPC: 0.140184 (Simulation time: 0 hr 7 min 16 sec) 
Heartbeat CPU 0 instructions: 59000000 cycles: 433941183 heartbeat IPC: 0.240885 cumulative IPC: 0.14139 (Simulation time: 0 hr 7 min 21 sec) 
Heartbeat CPU 0 instructions: 60000000 cycles: 443297177 heartbeat IPC: 0.106883 cumulative IPC: 0.140483 (Simulation time: 0 hr 7 min 29 sec) 
Heartbeat CPU 0 instructions: 61000001 cycles: 451252985 heartbeat IPC: 0.125694 cumulative IPC: 0.14016 (Simulation time: 0 hr 7 min 37 sec) 
Heartbeat CPU 0 instructions: 62000000 cycles: 455645586 heartbeat IPC: 0.227655 cumulative IPC: 0.141204 (Simulation time: 0 hr 7 min 43 sec) 
Heartbeat CPU 0 instructions: 63000001 cycles: 464076205 heartbeat IPC: 0.118615 cumulative IPC: 0.140698 (Simulation time: 0 hr 7 min 51 sec) 
Heartbeat CPU 0 instructions: 64000002 cycles: 473218908 heartbeat IPC: 0.109377 cumulative IPC: 0.139956 (Simulation time: 0 hr 8 min 0 sec) 
Heartbeat CPU 0 instructions: 65000000 cycles: 478386710 heartbeat IPC: 0.193505 cumulative IPC: 0.140664 (Simulation time: 0 hr 8 min 6 sec) 
Heartbeat CPU 0 instructions: 66000000 cycles: 484587027 heartbeat IPC: 0.161282 cumulative IPC: 0.140986 (Simulation time: 0 hr 8 min 12 sec) 
Heartbeat CPU 0 instructions: 67000002 cycles: 496697224 heartbeat IPC: 0.0825752 cumulative IPC: 0.139257 (Simulation time: 0 hr 8 min 22 sec) 
Heartbeat CPU 0 instructions: 68000001 cycles: 501391406 heartbeat IPC: 0.213029 cumulative IPC: 0.140094 (Simulation time: 0 hr 8 min 29 sec) 
Heartbeat CPU 0 instructions: 69000001 cycles: 505536111 heartbeat IPC: 0.241272 cumulative IPC: 0.141097 (Simulation time: 0 hr 8 min 34 sec) 
Heartbeat CPU 0 instructions: 70000003 cycles: 516494852 heartbeat IPC: 0.0912515 cumulative IPC: 0.139824 (Simulation time: 0 hr 8 min 43 sec) 
Heartbeat CPU 0 instructions: 71000000 cycles: 524223080 heartbeat IPC: 0.129395 cumulative IPC: 0.139639 (Simulation time: 0 hr 8 min 51 sec) 
Heartbeat CPU 0 instructions: 72000002 cycles: 529185254 heartbeat IPC: 0.201525 cumulative IPC: 0.140334 (Simulation time: 0 hr 8 min 57 sec) 
Heartbeat CPU 0 instructions: 73000003 cycles: 536584398 heartbeat IPC: 0.135151 cumulative IPC: 0.140249 (Simulation time: 0 hr 9 min 4 sec) 
Heartbeat CPU 0 instructions: 74000003 cycles: 546375083 heartbeat IPC: 0.102138 cumulative IPC: 0.139436 (Simulation time: 0 hr 9 min 13 sec) 
Heartbeat CPU 0 instructions: 75000003 cycles: 551571229 heartbeat IPC: 0.19245 cumulative IPC: 0.140029 (Simulation time: 0 hr 9 min 20 sec) 
Heartbeat CPU 0 instructions: 76000002 cycles: 557096972 heartbeat IPC: 0.180971 cumulative IPC: 0.140511 (Simulation time: 0 hr 9 min 26 sec) 
Heartbeat CPU 0 instructions: 77000000 cycles: 569902725 heartbeat IPC: 0.0780897 cumulative IPC: 0.138854 (Simulation time: 0 hr 9 min 37 sec) 
Heartbeat CPU 0 instructions: 78000002 cycles: 574936533 heartbeat IPC: 0.198657 cumulative IPC: 0.139472 (Simulation time: 0 hr 9 min 43 sec) 
Heartbeat CPU 0 instructions: 79000002 cycles: 579399535 heartbeat IPC: 0.224064 cumulative IPC: 0.140239 (Simulation time: 0 hr 9 min 49 sec) 
Heartbeat CPU 0 instructions: 80000000 cycles: 589793516 heartbeat IPC: 0.0962093 cumulative IPC: 0.139328 (Simulation time: 0 hr 9 min 59 sec) 
Heartbeat CPU 0 instructions: 81000001 cycles: 596458397 heartbeat IPC: 0.15004 cumulative IPC: 0.139469 (Simulation time: 0 hr 10 min 6 sec) 
Heartbeat CPU 0 instructions: 82000000 cycles: 601095324 heartbeat IPC: 0.21566 cumulative IPC: 0.140156 (Simulation time: 0 hr 10 min 12 sec) 
Heartbeat CPU 0 instructions: 83000000 cycles: 609135743 heartbeat IPC: 0.124372 cumulative IPC: 0.139913 (Simulation time: 0 hr 10 min 19 sec) 
Heartbeat CPU 0 instructions: 84000001 cycles: 618338770 heartbeat IPC: 0.10866 cumulative IPC: 0.139371 (Simulation time: 0 hr 10 min 28 sec) 
Heartbeat CPU 0 instructions: 85000000 cycles: 622797033 heartbeat IPC: 0.224302 cumulative IPC: 0.140079 (Simulation time: 0 hr 10 min 34 sec) 
Heartbeat CPU 0 instructions: 86000003 cycles: 630872921 heartbeat IPC: 0.123826 cumulative IPC: 0.139837 (Simulation time: 0 hr 10 min 42 sec) 
Heartbeat CPU 0 instructions: 87000000 cycles: 641957337 heartbeat IPC: 0.0902165 cumulative IPC: 0.138845 (Simulation time: 0 hr 10 min 51 sec) 
Heartbeat CPU 0 instructions: 88000000 cycles: 647732899 heartbeat IPC: 0.173143 cumulative IPC: 0.139199 (Simulation time: 0 hr 10 min 58 sec) 
Heartbeat CPU 0 instructions: 89000001 cycles: 651930684 heartbeat IPC: 0.238221 cumulative IPC: 0.139935 (Simulation time: 0 hr 11 min 3 sec) 
Heartbeat CPU 0 instructions: 90000000 cycles: 661177606 heartbeat IPC: 0.108144 cumulative IPC: 0.139423 (Simulation time: 0 hr 11 min 11 sec) 
Heartbeat CPU 0 instructions: 91000001 cycles: 668866780 heartbeat IPC: 0.130053 cumulative IPC: 0.139299 (Simulation time: 0 hr 11 min 19 sec) 
Heartbeat CPU 0 instructions: 92000000 cycles: 672965785 heartbeat IPC: 0.243961 cumulative IPC: 0.140031 (Simulation time: 0 hr 11 min 25 sec) 
Heartbeat CPU 0 instructions: 93000001 cycles: 680240412 heartbeat IPC: 0.137464 cumulative IPC: 0.14 (Simulation time: 0 hr 11 min 32 sec) 
Heartbeat CPU 0 instructions: 94000000 cycles: 690023433 heartbeat IPC: 0.102218 cumulative IPC: 0.139387 (Simulation time: 0 hr 11 min 41 sec) 
Heartbeat CPU 0 instructions: 95000001 cycles: 695735917 heartbeat IPC: 0.175055 cumulative IPC: 0.139722 (Simulation time: 0 hr 11 min 48 sec) 
Heartbeat CPU 0 instructions: 96000002 cycles: 700756332 heartbeat IPC: 0.199187 cumulative IPC: 0.140208 (Simulation time: 0 hr 11 min 54 sec) 
Heartbeat CPU 0 instructions: 97000002 cycles: 712530712 heartbeat IPC: 0.0849302 cumulative IPC: 0.139167 (Simulation time: 0 hr 12 min 4 sec) 
Heartbeat CPU 0 instructions: 98000000 cycles: 717256802 heartbeat IPC: 0.211591 cumulative IPC: 0.139711 (Simulation time: 0 hr 12 min 10 sec) 
Heartbeat CPU 0 instructions: 99000000 cycles: 721964463 heartbeat IPC: 0.21242 cumulative IPC: 0.14025 (Simulation time: 0 hr 12 min 16 sec) 
Heartbeat CPU 0 instructions: 100000000 cycles: 732964712 heartbeat IPC: 0.090907 cumulative IPC: 0.139409 (Simulation time: 0 hr 12 min 25 sec) 
Heartbeat CPU 0 instructions: 101000000 cycles: 739242292 heartbeat IPC: 0.159297 cumulative IPC: 0.139601 (Simulation time: 0 hr 12 min 32 sec) 
Heartbeat CPU 0 instructions: 102000000 cycles: 743598994 heartbeat IPC: 0.229531 cumulative IPC: 0.140198 (Simulation time: 0 hr 12 min 38 sec) 
Heartbeat CPU 0 instructions: 103000000 cycles: 753028510 heartbeat IPC: 0.10605 cumulative IPC: 0.139714 (Simulation time: 0 hr 12 min 46 sec) 
Heartbeat CPU 0 instructions: 104000000 cycles: 762946234 heartbeat IPC: 0.10083 cumulative IPC: 0.139143 (Simulation time: 0 hr 12 min 55 sec) 
Heartbeat CPU 0 instructions: 105000000 cycles: 767636402 heartbeat IPC: 0.213212 cumulative IPC: 0.139654 (Simulation time: 0 hr 13 min 1 sec) 
Heartbeat CPU 0 instructions: 106000001 cycles: 771956371 heartbeat IPC: 0.231483 cumulative IPC: 0.140233 (Simulation time: 0 hr 13 min 7 sec) 
Heartbeat CPU 0 instructions: 107000003 cycles: 783768435 heartbeat IPC: 0.0846594 cumulative IPC: 0.139291 (Simulation time: 0 hr 13 min 17 sec) 
Heartbeat CPU 0 instructions: 108000000 cycles: 788954108 heartbeat IPC: 0.192838 cumulative IPC: 0.139687 (Simulation time: 0 hr 13 min 23 sec) 
Heartbeat CPU 0 instructions: 109000002 cycles: 793330012 heartbeat IPC: 0.228525 cumulative IPC: 0.140237 (Simulation time: 0 hr 13 min 29 sec) 
Heartbeat CPU 0 instructions: 110000000 cycles: 801296222 heartbeat IPC: 0.12553 cumulative IPC: 0.140073 (Simulation time: 0 hr 13 min 36 sec) 
Heartbeat CPU 0 instructions: 111000000 cycles: 810242732 heartbeat IPC: 0.111775 cumulative IPC: 0.139723 (Simulation time: 0 hr 13 min 45 sec) 
Heartbeat CPU 0 instructions: 112000000 cycles: 814441531 heartbeat IPC: 0.238163 cumulative IPC: 0.140291 (Simulation time: 0 hr 13 min 51 sec) 
Heartbeat CPU 0 instructions: 113000000 cycles: 821841979 heartbeat IPC: 0.135127 cumulative IPC: 0.140239 (Simulation time: 0 hr 13 min 58 sec) 
Heartbeat CPU 0 instructions: 114000001 cycles: 832374032 heartbeat IPC: 0.0949483 cumulative IPC: 0.139599 (Simulation time: 0 hr 14 min 7 sec) 
Heartbeat CPU 0 instructions: 115000000 cycles: 838997541 heartbeat IPC: 0.150977 cumulative IPC: 0.139699 (Simulation time: 0 hr 14 min 15 sec) 
Heartbeat CPU 0 instructions: 116000001 cycles: 842963182 heartbeat IPC: 0.252166 cumulative IPC: 0.14029 (Simulation time: 0 hr 14 min 20 sec) 
Heartbeat CPU 0 instructions: 117000001 cycles: 851277448 heartbeat IPC: 0.120275 cumulative IPC: 0.140072 (Simulation time: 0 hr 14 min 28 sec) 
Heartbeat CPU 0 instructions: 118000000 cycles: 859871144 heartbeat IPC: 0.116364 cumulative IPC: 0.139808 (Simulation time: 0 hr 14 min 37 sec) 
Heartbeat CPU 0 instructions: 119000001 cycles: 863844912 heartbeat IPC: 0.251651 cumulative IPC: 0.14038 (Simulation time: 0 hr 14 min 42 sec) 
Heartbeat CPU 0 instructions: 120000002 cycles: 869919284 heartbeat IPC: 0.164626 cumulative IPC: 0.140569 (Simulation time: 0 hr 14 min 49 sec) 
Heartbeat CPU 0 instructions: 121000000 cycles: 880973518 heartbeat IPC: 0.0904629 cumulative IPC: 0.139871 (Simulation time: 0 hr 14 min 59 sec) 
Heartbeat CPU 0 instructions: 122000001 cycles: 885125497 heartbeat IPC: 0.240849 cumulative IPC: 0.140396 (Simulation time: 0 hr 15 min 4 sec) 
Heartbeat CPU 0 instructions: 123000000 cycles: 889309631 heartbeat IPC: 0.238998 cumulative IPC: 0.140911 (Simulation time: 0 hr 15 min 10 sec) 
Heartbeat CPU 0 instructions: 124000003 cycles: 900684555 heartbeat IPC: 0.0879129 cumulative IPC: 0.140169 (Simulation time: 0 hr 15 min 20 sec) 
Heartbeat CPU 0 instructions: 125000002 cycles: 906298158 heartbeat IPC: 0.178139 cumulative IPC: 0.14043 (Simulation time: 0 hr 15 min 27 sec) 
Heartbeat CPU 0 instructions: 126000001 cycles: 910513870 heartbeat IPC: 0.237208 cumulative IPC: 0.140925 (Simulation time: 0 hr 15 min 32 sec) 
Heartbeat CPU 0 instructions: 127000003 cycles: 920010029 heartbeat IPC: 0.105306 cumulative IPC: 0.140519 (Simulation time: 0 hr 15 min 41 sec) 
Heartbeat CPU 0 instructions: 128000000 cycles: 927428954 heartbeat IPC: 0.13479 cumulative IPC: 0.140469 (Simulation time: 0 hr 15 min 49 sec) 
Heartbeat CPU 0 instructions: 129000001 cycles: 931730488 heartbeat IPC: 0.232475 cumulative IPC: 0.140937 (Simulation time: 0 hr 15 min 55 sec) 
Heartbeat CPU 0 instructions: 130000001 cycles: 938923790 heartbeat IPC: 0.139018 cumulative IPC: 0.140921 (Simulation time: 0 hr 16 min 2 sec) 
Heartbeat CPU 0 instructions: 131000001 cycles: 949323131 heartbeat IPC: 0.0961599 cumulative IPC: 0.140381 (Simulation time: 0 hr 16 min 11 sec) 
Heartbeat CPU 0 instructions: 132000000 cycles: 954299185 heartbeat IPC: 0.200962 cumulative IPC: 0.140729 (Simulation time: 0 hr 16 min 17 sec) 
Heartbeat CPU 0 instructions: 133000003 cycles: 958759070 heartbeat IPC: 0.224222 cumulative IPC: 0.141156 (Simulation time: 0 hr 16 min 23 sec) 
Heartbeat CPU 0 instructions: 134000002 cycles: 970841419 heartbeat IPC: 0.0827653 cumulative IPC: 0.140358 (Simulation time: 0 hr 16 min 33 sec) 
Heartbeat CPU 0 instructions: 135000002 cycles: 975585942 heartbeat IPC: 0.210769 cumulative IPC: 0.140734 (Simulation time: 0 hr 16 min 39 sec) 
Heartbeat CPU 0 instructions: 136000000 cycles: 983839962 heartbeat IPC: 0.121153 cumulative IPC: 0.140553 (Simulation time: 0 hr 16 min 46 sec) 
Heartbeat CPU 0 instructions: 137000001 cycles: 992029389 heartbeat IPC: 0.122109 cumulative IPC: 0.140386 (Simulation time: 0 hr 16 min 55 sec) 
Heartbeat CPU 0 instructions: 138000002 cycles: 1000821785 heartbeat IPC: 0.113735 cumulative IPC: 0.14013 (Simulation time: 0 hr 17 min 3 sec) 
Heartbeat CPU 0 instructions: 139000002 cycles: 1005189338 heartbeat IPC: 0.228961 cumulative IPC: 0.140553 (Simulation time: 0 hr 17 min 9 sec) 
Heartbeat CPU 0 instructions: 140000001 cycles: 1010549499 heartbeat IPC: 0.186561 cumulative IPC: 0.14082 (Simulation time: 0 hr 17 min 15 sec) 
Heartbeat CPU 0 instructions: 141000003 cycles: 1021750913 heartbeat IPC: 0.0892746 cumulative IPC: 0.140202 (Simulation time: 0 hr 17 min 25 sec) 
Heartbeat CPU 0 instructions: 142000000 cycles: 1025843777 heartbeat IPC: 0.244327 cumulative IPC: 0.140656 (Simulation time: 0 hr 17 min 31 sec) 
Heartbeat CPU 0 instructions: 143000000 cycles: 1029874228 heartbeat IPC: 0.248111 cumulative IPC: 0.141115 (Simulation time: 0 hr 17 min 37 sec) 
Heartbeat CPU 0 instructions: 144000001 cycles: 1041534726 heartbeat IPC: 0.0857597 cumulative IPC: 0.140439 (Simulation time: 0 hr 17 min 47 sec) 
Heartbeat CPU 0 instructions: 145000000 cycles: 1046612594 heartbeat IPC: 0.196933 cumulative IPC: 0.140738 (Simulation time: 0 hr 17 min 54 sec) 
Heartbeat CPU 0 instructions: 146000002 cycles: 1050692455 heartbeat IPC: 0.245107 cumulative IPC: 0.14118 (Simulation time: 0 hr 18 min 0 sec) 
Heartbeat CPU 0 instructions: 147000000 cycles: 1060650529 heartbeat IPC: 0.100421 cumulative IPC: 0.140763 (Simulation time: 0 hr 18 min 9 sec) 
Heartbeat CPU 0 instructions: 148000001 cycles: 1067309419 heartbeat IPC: 0.150175 cumulative IPC: 0.140827 (Simulation time: 0 hr 18 min 16 sec) 
Heartbeat CPU 0 instructions: 149000003 cycles: 1071537728 heartbeat IPC: 0.236502 cumulative IPC: 0.141238 (Simulation time: 0 hr 18 min 22 sec) 
Heartbeat CPU 0 instructions: 150000001 cycles: 1079976350 heartbeat IPC: 0.118503 cumulative IPC: 0.141045 (Simulation time: 0 hr 18 min 30 sec) 
Heartbeat CPU 0 instructions: 151000003 cycles: 1088839737 heartbeat IPC: 0.112824 cumulative IPC: 0.140795 (Simulation time: 0 hr 18 min 39 sec) 
Heartbeat CPU 0 instructions: 152000001 cycles: 1092881207 heartbeat IPC: 0.247434 cumulative IPC: 0.141224 (Simulation time: 0 hr 18 min 45 sec) 
Heartbeat CPU 0 instructions: 153000003 cycles: 1099781529 heartbeat IPC: 0.144921 cumulative IPC: 0.141249 (Simulation time: 0 hr 18 min 53 sec) 
Heartbeat CPU 0 instructions: 154000000 cycles: 1109536031 heartbeat IPC: 0.102516 cumulative IPC: 0.140879 (Simulation time: 0 hr 19 min 2 sec) 
Heartbeat CPU 0 instructions: 155000003 cycles: 1113498611 heartbeat IPC: 0.252362 cumulative IPC: 0.14131 (Simulation time: 0 hr 19 min 7 sec) 
Heartbeat CPU 0 instructions: 156000000 cycles: 1123544587 heartbeat IPC: 0.099542 cumulative IPC: 0.140905 (Simulation time: 0 hr 19 min 16 sec) 
Heartbeat CPU 0 instructions: 157000001 cycles: 1133975001 heartbeat IPC: 0.0958736 cumulative IPC: 0.140456 (Simulation time: 0 hr 19 min 26 sec) 
Heartbeat CPU 0 instructions: 158000001 cycles: 1141256704 heartbeat IPC: 0.137331 cumulative IPC: 0.140434 (Simulation time: 0 hr 19 min 34 sec) 
Heartbeat CPU 0 instructions: 159000000 cycles: 1147657865 heartbeat IPC: 0.156222 cumulative IPC: 0.14053 (Simulation time: 0 hr 19 min 41 sec) 
Heartbeat CPU 0 instructions: 160000000 cycles: 1155273541 heartbeat IPC: 0.131308 cumulative IPC: 0.140464 (Simulation time: 0 hr 19 min 48 sec) 
Heartbeat CPU 0 instructions: 161000001 cycles: 1166160966 heartbeat IPC: 0.0918492 cumulative IPC: 0.139973 (Simulation time: 0 hr 19 min 58 sec) 
Heartbeat CPU 0 instructions: 162000000 cycles: 1171020095 heartbeat IPC: 0.205798 cumulative IPC: 0.140268 (Simulation time: 0 hr 20 min 4 sec) 
Heartbeat CPU 0 instructions: 163000001 cycles: 1179030127 heartbeat IPC: 0.124844 cumulative IPC: 0.140155 (Simulation time: 0 hr 20 min 12 sec) 
Heartbeat CPU 0 instructions: 164000000 cycles: 1188954927 heartbeat IPC: 0.100758 cumulative IPC: 0.1398 (Simulation time: 0 hr 20 min 21 sec) 
Heartbeat CPU 0 instructions: 165000000 cycles: 1197266339 heartbeat IPC: 0.120316 cumulative IPC: 0.139654 (Simulation time: 0 hr 20 min 29 sec) 
Heartbeat CPU 0 instructions: 166000000 cycles: 1202074707 heartbeat IPC: 0.207971 cumulative IPC: 0.139949 (Simulation time: 0 hr 20 min 36 sec) 
Heartbeat CPU 0 instructions: 167000000 cycles: 1210328075 heartbeat IPC: 0.121163 cumulative IPC: 0.139811 (Simulation time: 0 hr 20 min 44 sec) 
Heartbeat CPU 0 instructions: 168000001 cycles: 1219686280 heartbeat IPC: 0.106858 cumulative IPC: 0.139539 (Simulation time: 0 hr 20 min 52 sec) 
Heartbeat CPU 0 instructions: 169000002 cycles: 1227902140 heartbeat IPC: 0.121716 cumulative IPC: 0.13941 (Simulation time: 0 hr 21 min 1 sec) 
Heartbeat CPU 0 instructions: 170000001 cycles: 1236356865 heartbeat IPC: 0.118277 cumulative IPC: 0.139255 (Simulation time: 0 hr 21 min 9 sec) 
Heartbeat CPU 0 instructions: 171000001 cycles: 1246364443 heartbeat IPC: 0.0999243 cumulative IPC: 0.138915 (Simulation time: 0 hr 21 min 18 sec) 
Heartbeat CPU 0 instructions: 172000000 cycles: 1253435002 heartbeat IPC: 0.141431 cumulative IPC: 0.13893 (Simulation time: 0 hr 21 min 26 sec) 
Heartbeat CPU 0 instructions: 173000001 cycles: 1258939552 heartbeat IPC: 0.181668 cumulative IPC: 0.139131 (Simulation time: 0 hr 21 min 32 sec) 
Heartbeat CPU 0 instructions: 174000003 cycles: 1267020037 heartbeat IPC: 0.123755 cumulative IPC: 0.139026 (Simulation time: 0 hr 21 min 40 sec) 
Heartbeat CPU 0 instructions: 175000001 cycles: 1278233113 heartbeat IPC: 0.0891814 cumulative IPC: 0.138556 (Simulation time: 0 hr 21 min 50 sec) 
Heartbeat CPU 0 instructions: 176000000 cycles: 1283162461 heartbeat IPC: 0.202866 cumulative IPC: 0.138822 (Simulation time: 0 hr 21 min 55 sec) 
Heartbeat CPU 0 instructions: 177000001 cycles: 1287705475 heartbeat IPC: 0.220118 cumulative IPC: 0.139129 (Simulation time: 0 hr 22 min 0 sec) 
Heartbeat CPU 0 instructions: 178000000 cycles: 1298583679 heartbeat IPC: 0.0919269 cumulative IPC: 0.138705 (Simulation time: 0 hr 22 min 10 sec) 
Heartbeat CPU 0 instructions: 179000000 cycles: 1307083419 heartbeat IPC: 0.117651 cumulative IPC: 0.138559 (Simulation time: 0 hr 22 min 18 sec) 
Heartbeat CPU 0 instructions: 180000000 cycles: 1311562290 heartbeat IPC: 0.223271 cumulative IPC: 0.138869 (Simulation time: 0 hr 22 min 24 sec) 
Heartbeat CPU 0 instructions: 181000001 cycles: 1319732970 heartbeat IPC: 0.122389 cumulative IPC: 0.138759 (Simulation time: 0 hr 22 min 32 sec) 
Heartbeat CPU 0 instructions: 182000000 cycles: 1331392575 heartbeat IPC: 0.0857661 cumulative IPC: 0.138263 (Simulation time: 0 hr 22 min 42 sec) 
Heartbeat CPU 0 instructions: 183000001 cycles: 1336524049 heartbeat IPC: 0.194876 cumulative IPC: 0.138495 (Simulation time: 0 hr 22 min 48 sec) 
Heartbeat CPU 0 instructions: 184000001 cycles: 1341902083 heartbeat IPC: 0.185942 cumulative IPC: 0.138699 (Simulation time: 0 hr 22 min 54 sec) 
Heartbeat CPU 0 instructions: 185000000 cycles: 1351887598 heartbeat IPC: 0.100145 cumulative IPC: 0.138394 (Simulation time: 0 hr 23 min 3 sec) 
Heartbeat CPU 0 instructions: 186000003 cycles: 1361429918 heartbeat IPC: 0.104797 cumulative IPC: 0.138142 (Simulation time: 0 hr 23 min 12 sec) 
Heartbeat CPU 0 instructions: 187000000 cycles: 1367273684 heartbeat IPC: 0.171122 cumulative IPC: 0.138293 (Simulation time: 0 hr 23 min 19 sec) 
Heartbeat CPU 0 instructions: 188000000 cycles: 1375032822 heartbeat IPC: 0.12888 cumulative IPC: 0.138236 (Simulation time: 0 hr 23 min 26 sec) 
Heartbeat CPU 0 instructions: 189000001 cycles: 1385101727 heartbeat IPC: 0.0993158 cumulative IPC: 0.137934 (Simulation time: 0 hr 23 min 35 sec) 
Heartbeat CPU 0 instructions: 190000000 cycles: 1393241722 heartbeat IPC: 0.12285 cumulative IPC: 0.13784 (Simulation time: 0 hr 23 min 42 sec) 
Heartbeat CPU 0 instructions: 191000002 cycles: 1398373309 heartbeat IPC: 0.194872 cumulative IPC: 0.138064 (Simulation time: 0 hr 23 min 47 sec) 
Heartbeat CPU 0 instructions: 192000002 cycles: 1404313889 heartbeat IPC: 0.168334 cumulative IPC: 0.1382 (Simulation time: 0 hr 23 min 53 sec) 
Heartbeat CPU 0 instructions: 193000002 cycles: 1416184845 heartbeat IPC: 0.0842392 cumulative IPC: 0.137718 (Simulation time: 0 hr 24 min 3 sec) 
Heartbeat CPU 0 instructions: 194000003 cycles: 1421102697 heartbeat IPC: 0.203341 cumulative IPC: 0.13796 (Simulation time: 0 hr 24 min 10 sec) 
Heartbeat CPU 0 instructions: 195000001 cycles: 1425099433 heartbeat IPC: 0.250204 cumulative IPC: 0.138295 (Simulation time: 0 hr 24 min 15 sec) 
Heartbeat CPU 0 instructions: 196000000 cycles: 1435989424 heartbeat IPC: 0.0918273 cumulative IPC: 0.13792 (Simulation time: 0 hr 24 min 25 sec) 
Heartbeat CPU 0 instructions: 197000001 cycles: 1443432157 heartbeat IPC: 0.134359 cumulative IPC: 0.137901 (Simulation time: 0 hr 24 min 32 sec) 
Heartbeat CPU 0 instructions: 198000000 cycles: 1447590982 heartbeat IPC: 0.240452 cumulative IPC: 0.138214 (Simulation time: 0 hr 24 min 38 sec) 
Heartbeat CPU 0 instructions: 199000002 cycles: 1455385480 heartbeat IPC: 0.128296 cumulative IPC: 0.138158 (Simulation time: 0 hr 24 min 46 sec) 
Heartbeat CPU 0 instructions: 200000000 cycles: 1464555302 heartbeat IPC: 0.109053 cumulative IPC: 0.137964 (Simulation time: 0 hr 24 min 54 sec) 
Heartbeat CPU 0 instructions: 201000001 cycles: 1468519078 heartbeat IPC: 0.252285 cumulative IPC: 0.138292 (Simulation time: 0 hr 25 min 0 sec) 
Heartbeat CPU 0 instructions: 202000002 cycles: 1474851337 heartbeat IPC: 0.157922 cumulative IPC: 0.138382 (Simulation time: 0 hr 25 min 7 sec) 
Heartbeat CPU 0 instructions: 203000002 cycles: 1485115858 heartbeat IPC: 0.097423 cumulative IPC: 0.138081 (Simulation time: 0 hr 25 min 17 sec) 
Heartbeat CPU 0 instructions: 204000000 cycles: 1489416356 heartbeat IPC: 0.232531 cumulative IPC: 0.13837 (Simulation time: 0 hr 25 min 22 sec) 
Heartbeat CPU 0 instructions: 205000000 cycles: 1494653562 heartbeat IPC: 0.190942 cumulative IPC: 0.138566 (Simulation time: 0 hr 25 min 29 sec) 
Heartbeat CPU 0 instructions: 206000000 cycles: 1505946035 heartbeat IPC: 0.0885546 cumulative IPC: 0.138168 (Simulation time: 0 hr 25 min 38 sec) 
Heartbeat CPU 0 instructions: 207000002 cycles: 1510321054 heartbeat IPC: 0.228571 cumulative IPC: 0.138446 (Simulation time: 0 hr 25 min 44 sec) 
Heartbeat CPU 0 instructions: 208000002 cycles: 1514572510 heartbeat IPC: 0.235214 cumulative IPC: 0.138734 (Simulation time: 0 hr 25 min 50 sec) 
Heartbeat CPU 0 instructions: 209000000 cycles: 1526632740 heartbeat IPC: 0.082917 cumulative IPC: 0.138267 (Simulation time: 0 hr 26 min 0 sec) 
Heartbeat CPU 0 instructions: 210000000 cycles: 1531188845 heartbeat IPC: 0.219486 cumulative IPC: 0.138523 (Simulation time: 0 hr 26 min 6 sec) 
Heartbeat CPU 0 instructions: 211000001 cycles: 1535707564 heartbeat IPC: 0.221302 cumulative IPC: 0.138781 (Simulation time: 0 hr 26 min 12 sec) 
Heartbeat CPU 0 instructions: 212000001 cycles: 1546904842 heartbeat IPC: 0.0893074 cumulative IPC: 0.138402 (Simulation time: 0 hr 26 min 22 sec) 
Heartbeat CPU 0 instructions: 213000001 cycles: 1553360663 heartbeat IPC: 0.154899 cumulative IPC: 0.138474 (Simulation time: 0 hr 26 min 29 sec) 
Heartbeat CPU 0 instructions: 214000000 cycles: 1557357976 heartbeat IPC: 0.250168 cumulative IPC: 0.138778 (Simulation time: 0 hr 26 min 35 sec) 
Heartbeat CPU 0 instructions: 215000002 cycles: 1565898172 heartbeat IPC: 0.117094 cumulative IPC: 0.138653 (Simulation time: 0 hr 26 min 43 sec) 
Heartbeat CPU 0 instructions: 216000000 cycles: 1575783634 heartbeat IPC: 0.101158 cumulative IPC: 0.138404 (Simulation time: 0 hr 26 min 52 sec) 
Heartbeat CPU 0 instructions: 217000001 cycles: 1582035209 heartbeat IPC: 0.15996 cumulative IPC: 0.138494 (Simulation time: 0 hr 26 min 59 sec) 
Heartbeat CPU 0 instructions: 218000003 cycles: 1586499100 heartbeat IPC: 0.22402 cumulative IPC: 0.138748 (Simulation time: 0 hr 27 min 4 sec) 
Heartbeat CPU 0 instructions: 219000001 cycles: 1598598204 heartbeat IPC: 0.0826506 cumulative IPC: 0.138299 (Simulation time: 0 hr 27 min 14 sec) 
Heartbeat CPU 0 instructions: 220000000 cycles: 1603520723 heartbeat IPC: 0.203148 cumulative IPC: 0.13851 (Simulation time: 0 hr 27 min 20 sec) 
Heartbeat CPU 0 instructions: 221000000 cycles: 1608232427 heartbeat IPC: 0.212237 cumulative IPC: 0.138738 (Simulation time: 0 hr 27 min 26 sec) 
Heartbeat CPU 0 instructions: 222000003 cycles: 1619009186 heartbeat IPC: 0.0927926 cumulative IPC: 0.138415 (Simulation time: 0 hr 27 min 35 sec) 
Heartbeat CPU 0 instructions: 223000000 cycles: 1627290388 heartbeat IPC: 0.120755 cumulative IPC: 0.13832 (Simulation time: 0 hr 27 min 43 sec) 
Heartbeat CPU 0 instructions: 224000002 cycles: 1637522333 heartbeat IPC: 0.0977333 cumulative IPC: 0.138052 (Simulation time: 0 hr 27 min 52 sec) 
Heartbeat CPU 0 instructions: 225000000 cycles: 1642451649 heartbeat IPC: 0.202867 cumulative IPC: 0.138258 (Simulation time: 0 hr 27 min 58 sec) 
Heartbeat CPU 0 instructions: 226000001 cycles: 1653216320 heartbeat IPC: 0.0928966 cumulative IPC: 0.137946 (Simulation time: 0 hr 28 min 7 sec) 
Heartbeat CPU 0 instructions: 227000003 cycles: 1660998243 heartbeat IPC: 0.128503 cumulative IPC: 0.137899 (Simulation time: 0 hr 28 min 15 sec) 
Heartbeat CPU 0 instructions: 228000000 cycles: 1666055154 heartbeat IPC: 0.197749 cumulative IPC: 0.138091 (Simulation time: 0 hr 28 min 21 sec) 
Heartbeat CPU 0 instructions: 229000000 cycles: 1672538841 heartbeat IPC: 0.154233 cumulative IPC: 0.138157 (Simulation time: 0 hr 28 min 28 sec) 
Heartbeat CPU 0 instructions: 230000001 cycles: 1683103715 heartbeat IPC: 0.0946534 cumulative IPC: 0.137869 (Simulation time: 0 hr 28 min 38 sec) 
Heartbeat CPU 0 instructions: 231000000 cycles: 1689455896 heartbeat IPC: 0.157426 cumulative IPC: 0.137946 (Simulation time: 0 hr 28 min 45 sec) 
Heartbeat CPU 0 instructions: 232000002 cycles: 1694513164 heartbeat IPC: 0.197736 cumulative IPC: 0.138134 (Simulation time: 0 hr 28 min 50 sec) 
Heartbeat CPU 0 instructions: 233000001 cycles: 1704309661 heartbeat IPC: 0.102077 cumulative IPC: 0.137916 (Simulation time: 0 hr 28 min 59 sec) 
Heartbeat CPU 0 instructions: 234000002 cycles: 1711869868 heartbeat IPC: 0.132272 cumulative IPC: 0.13789 (Simulation time: 0 hr 29 min 6 sec) 
Heartbeat CPU 0 instructions: 235000001 cycles: 1716344149 heartbeat IPC: 0.223499 cumulative IPC: 0.138125 (Simulation time: 0 hr 29 min 12 sec) 
Heartbeat CPU 0 instructions: 236000002 cycles: 1722605063 heartbeat IPC: 0.159721 cumulative IPC: 0.138208 (Simulation time: 0 hr 29 min 18 sec) 
Heartbeat CPU 0 instructions: 237000002 cycles: 1733623755 heartbeat IPC: 0.0907549 cumulative IPC: 0.13789 (Simulation time: 0 hr 29 min 27 sec) 
Heartbeat CPU 0 instructions: 238000000 cycles: 1738395903 heartbeat IPC: 0.209549 cumulative IPC: 0.138097 (Simulation time: 0 hr 29 min 33 sec) 
Heartbeat CPU 0 instructions: 239000000 cycles: 1743614717 heartbeat IPC: 0.191614 cumulative IPC: 0.138266 (Simulation time: 0 hr 29 min 39 sec) 
Heartbeat CPU 0 instructions: 240000001 cycles: 1754029551 heartbeat IPC: 0.096017 cumulative IPC: 0.138002 (Simulation time: 0 hr 29 min 48 sec) 
Heartbeat CPU 0 instructions: 241000003 cycles: 1760780943 heartbeat IPC: 0.148118 cumulative IPC: 0.138042 (Simulation time: 0 hr 29 min 56 sec) 
Heartbeat CPU 0 instructions: 242000000 cycles: 1765319554 heartbeat IPC: 0.220331 cumulative IPC: 0.138265 (Simulation time: 0 hr 30 min 1 sec) 
Heartbeat CPU 0 instructions: 243000001 cycles: 1774544024 heartbeat IPC: 0.108407 cumulative IPC: 0.138102 (Simulation time: 0 hr 30 min 10 sec) 
Heartbeat CPU 0 instructions: 244000002 cycles: 1782582512 heartbeat IPC: 0.124402 cumulative IPC: 0.138037 (Simulation time: 0 hr 30 min 18 sec) 
Heartbeat CPU 0 instructions: 245000000 cycles: 1786957498 heartbeat IPC: 0.228572 cumulative IPC: 0.13827 (Simulation time: 0 hr 30 min 24 sec) 
Heartbeat CPU 0 instructions: 246000001 cycles: 1794816039 heartbeat IPC: 0.12725 cumulative IPC: 0.138219 (Simulation time: 0 hr 30 min 31 sec) 
Heartbeat CPU 0 instructions: 247000001 cycles: 1804113983 heartbeat IPC: 0.107551 cumulative IPC: 0.138053 (Simulation time: 0 hr 30 min 40 sec) 
Heartbeat CPU 0 instructions: 248000001 cycles: 1808811458 heartbeat IPC: 0.21288 cumulative IPC: 0.138257 (Simulation time: 0 hr 30 min 46 sec) 
Heartbeat CPU 0 instructions: 249000003 cycles: 1814600853 heartbeat IPC: 0.17273 cumulative IPC: 0.138373 (Simulation time: 0 hr 30 min 52 sec) 
Heartbeat CPU 0 instructions: 250000000 cycles: 1826167382 heartbeat IPC: 0.0864561 cumulative IPC: 0.138027 (Simulation time: 0 hr 31 min 2 sec) 
Heartbeat CPU 0 instructions: 251000003 cycles: 1830654470 heartbeat IPC: 0.222862 cumulative IPC: 0.138246 (Simulation time: 0 hr 31 min 8 sec) 
Heartbeat CPU 0 instructions: 252000000 cycles: 1834559405 heartbeat IPC: 0.256085 cumulative IPC: 0.138509 (Simulation time: 0 hr 31 min 13 sec) 
Heartbeat CPU 0 instructions: 253000000 cycles: 1845553456 heartbeat IPC: 0.0909583 cumulative IPC: 0.138212 (Simulation time: 0 hr 31 min 22 sec) 
Heartbeat CPU 0 instructions: 254000000 cycles: 1851575366 heartbeat IPC: 0.16606 cumulative IPC: 0.138307 (Simulation time: 0 hr 31 min 29 sec) 
Heartbeat CPU 0 instructions: 255000000 cycles: 1855903311 heartbeat IPC: 0.231057 cumulative IPC: 0.138534 (Simulation time: 0 hr 31 min 35 sec) 
Heartbeat CPU 0 instructions: 256000000 cycles: 1864707614 heartbeat IPC: 0.113581 cumulative IPC: 0.13841 (Simulation time: 0 hr 31 min 43 sec) 
Heartbeat CPU 0 instructions: 257000000 cycles: 1872639510 heartbeat IPC: 0.126073 cumulative IPC: 0.138355 (Simulation time: 0 hr 31 min 51 sec) 
Heartbeat CPU 0 instructions: 258000000 cycles: 1878809985 heartbeat IPC: 0.162062 cumulative IPC: 0.138437 (Simulation time: 0 hr 31 min 58 sec) 
Heartbeat CPU 0 instructions: 259000003 cycles: 1883727705 heartbeat IPC: 0.203347 cumulative IPC: 0.138615 (Simulation time: 0 hr 32 min 4 sec) 
Heartbeat CPU 0 instructions: 260000000 cycles: 1895556882 heartbeat IPC: 0.0845365 cumulative IPC: 0.138261 (Simulation time: 0 hr 32 min 14 sec) 
Heartbeat CPU 0 instructions: 261000002 cycles: 1900193239 heartbeat IPC: 0.215687 cumulative IPC: 0.138459 (Simulation time: 0 hr 32 min 20 sec) 
Heartbeat CPU 0 instructions: 262000000 cycles: 1905067855 heartbeat IPC: 0.205144 cumulative IPC: 0.138638 (Simulation time: 0 hr 32 min 25 sec) 
Heartbeat CPU 0 instructions: 263000001 cycles: 1915213220 heartbeat IPC: 0.0985673 cumulative IPC: 0.138416 (Simulation time: 0 hr 32 min 34 sec) 
Heartbeat CPU 0 instructions: 264000000 cycles: 1922304126 heartbeat IPC: 0.141026 cumulative IPC: 0.138426 (Simulation time: 0 hr 32 min 42 sec) 
Heartbeat CPU 0 instructions: 265000003 cycles: 1926961150 heartbeat IPC: 0.21473 cumulative IPC: 0.138619 (Simulation time: 0 hr 32 min 48 sec) 
Heartbeat CPU 0 instructions: 266000003 cycles: 1934274058 heartbeat IPC: 0.136745 cumulative IPC: 0.138611 (Simulation time: 0 hr 32 min 55 sec) 
Heartbeat CPU 0 instructions: 267000000 cycles: 1943904156 heartbeat IPC: 0.103841 cumulative IPC: 0.138431 (Simulation time: 0 hr 33 min 4 sec) 
Heartbeat CPU 0 instructions: 268000001 cycles: 1948268334 heartbeat IPC: 0.229138 cumulative IPC: 0.138644 (Simulation time: 0 hr 33 min 9 sec) 
Heartbeat CPU 0 instructions: 269000000 cycles: 1953318201 heartbeat IPC: 0.198025 cumulative IPC: 0.138804 (Simulation time: 0 hr 33 min 16 sec) 
Heartbeat CPU 0 instructions: 270000001 cycles: 1965117219 heartbeat IPC: 0.0847529 cumulative IPC: 0.138465 (Simulation time: 0 hr 33 min 25 sec) 
Heartbeat CPU 0 instructions: 271000003 cycles: 1969490866 heartbeat IPC: 0.228643 cumulative IPC: 0.138674 (Simulation time: 0 hr 33 min 32 sec) 
Heartbeat CPU 0 instructions: 272000001 cycles: 1974113531 heartbeat IPC: 0.216325 cumulative IPC: 0.138865 (Simulation time: 0 hr 33 min 37 sec) 
Heartbeat CPU 0 instructions: 273000001 cycles: 1984033691 heartbeat IPC: 0.100805 cumulative IPC: 0.138665 (Simulation time: 0 hr 33 min 46 sec) 
Heartbeat CPU 0 instructions: 274000001 cycles: 1991760579 heartbeat IPC: 0.129418 cumulative IPC: 0.138628 (Simulation time: 0 hr 33 min 53 sec) 
Heartbeat CPU 0 instructions: 275000000 cycles: 1996376035 heartbeat IPC: 0.216663 cumulative IPC: 0.138817 (Simulation time: 0 hr 33 min 59 sec) 
Heartbeat CPU 0 instructions: 276000003 cycles: 2002459991 heartbeat IPC: 0.164367 cumulative IPC: 0.138898 (Simulation time: 0 hr 34 min 5 sec) 
Heartbeat CPU 0 instructions: 277000000 cycles: 2013759408 heartbeat IPC: 0.0884999 cumulative IPC: 0.138602 (Simulation time: 0 hr 34 min 15 sec) 
Heartbeat CPU 0 instructions: 278000000 cycles: 2018361415 heartbeat IPC: 0.217296 cumulative IPC: 0.13879 (Simulation time: 0 hr 34 min 20 sec) 
Heartbeat CPU 0 instructions: 279000000 cycles: 2022663368 heartbeat IPC: 0.232453 cumulative IPC: 0.138998 (Simulation time: 0 hr 34 min 26 sec) 
Heartbeat CPU 0 instructions: 280000002 cycles: 2032290917 heartbeat IPC: 0.103869 cumulative IPC: 0.138824 (Simulation time: 0 hr 34 min 34 sec) 
Heartbeat CPU 0 instructions: 281000001 cycles: 2039912789 heartbeat IPC: 0.131201 cumulative IPC: 0.138794 (Simulation time: 0 hr 34 min 42 sec) 
Heartbeat CPU 0 instructions: 282000001 cycles: 2044152436 heartbeat IPC: 0.235869 cumulative IPC: 0.139005 (Simulation time: 0 hr 34 min 47 sec) 
Heartbeat CPU 0 instructions: 283000001 cycles: 2049192462 heartbeat IPC: 0.198412 cumulative IPC: 0.139157 (Simulation time: 0 hr 34 min 53 sec) 
Heartbeat CPU 0 instructions: 284000001 cycles: 2060682625 heartbeat IPC: 0.087031 cumulative IPC: 0.138854 (Simulation time: 0 hr 35 min 3 sec) 
Heartbeat CPU 0 instructions: 285000001 cycles: 2065342658 heartbeat IPC: 0.214591 cumulative IPC: 0.139032 (Simulation time: 0 hr 35 min 8 sec) 
Heartbeat CPU 0 instructions: 286000000 cycles: 2070232357 heartbeat IPC: 0.204511 cumulative IPC: 0.139194 (Simulation time: 0 hr 35 min 14 sec) 
Heartbeat CPU 0 instructions: 287000002 cycles: 2078604672 heartbeat IPC: 0.119442 cumulative IPC: 0.139111 (Simulation time: 0 hr 35 min 22 sec) 
Heartbeat CPU 0 instructions: 288000000 cycles: 2087193203 heartbeat IPC: 0.116434 cumulative IPC: 0.139013 (Simulation time: 0 hr 35 min 30 sec) 
Heartbeat CPU 0 instructions: 289000002 cycles: 2091656390 heartbeat IPC: 0.224056 cumulative IPC: 0.139203 (Simulation time: 0 hr 35 min 35 sec) 
Heartbeat CPU 0 instructions: 290000003 cycles: 2098953255 heartbeat IPC: 0.137045 cumulative IPC: 0.139195 (Simulation time: 0 hr 35 min 43 sec) 
Heartbeat CPU 0 instructions: 291000002 cycles: 2110047641 heartbeat IPC: 0.0901356 cumulative IPC: 0.138926 (Simulation time: 0 hr 35 min 52 sec) 
Heartbeat CPU 0 instructions: 292000002 cycles: 2116039803 heartbeat IPC: 0.166885 cumulative IPC: 0.139008 (Simulation time: 0 hr 35 min 59 sec) 
Heartbeat CPU 0 instructions: 293000000 cycles: 2124453981 heartbeat IPC: 0.118847 cumulative IPC: 0.138925 (Simulation time: 0 hr 36 min 7 sec) 
Heartbeat CPU 0 instructions: 294000000 cycles: 2130899598 heartbeat IPC: 0.155144 cumulative IPC: 0.138976 (Simulation time: 0 hr 36 min 15 sec) 
Heartbeat CPU 0 instructions: 295000001 cycles: 2141528277 heartbeat IPC: 0.0940852 cumulative IPC: 0.138744 (Simulation time: 0 hr 36 min 24 sec) 
Heartbeat CPU 0 instructions: 296000001 cycles: 2146716953 heartbeat IPC: 0.192727 cumulative IPC: 0.13888 (Simulation time: 0 hr 36 min 31 sec) 
Heartbeat CPU 0 instructions: 297000000 cycles: 2151240611 heartbeat IPC: 0.22106 cumulative IPC: 0.13906 (Simulation time: 0 hr 36 min 36 sec) 
Heartbeat CPU 0 instructions: 298000001 cycles: 2163009403 heartbeat IPC: 0.0849706 cumulative IPC: 0.138753 (Simulation time: 0 hr 36 min 46 sec) 
Heartbeat CPU 0 instructions: 299000001 cycles: 2171454787 heartbeat IPC: 0.118408 cumulative IPC: 0.138671 (Simulation time: 0 hr 36 min 54 sec) 
Heartbeat CPU 0 instructions: 300000000 cycles: 2176952121 heartbeat IPC: 0.181906 cumulative IPC: 0.138785 (Simulation time: 0 hr 37 min 0 sec) 
Heartbeat CPU 0 instructions: 301000003 cycles: 2182768711 heartbeat IPC: 0.171923 cumulative IPC: 0.138877 (Simulation time: 0 hr 37 min 5 sec) 
Heartbeat CPU 0 instructions: 302000001 cycles: 2194578826 heartbeat IPC: 0.084673 cumulative IPC: 0.138573 (Simulation time: 0 hr 37 min 15 sec) 
Heartbeat CPU 0 instructions: 303000000 cycles: 2200013669 heartbeat IPC: 0.183998 cumulative IPC: 0.13869 (Simulation time: 0 hr 37 min 21 sec) 
Heartbeat CPU 0 instructions: 304000001 cycles: 2205861054 heartbeat IPC: 0.171017 cumulative IPC: 0.138779 (Simulation time: 0 hr 37 min 27 sec) 
Heartbeat CPU 0 instructions: 305000000 cycles: 2215035255 heartbeat IPC: 0.109001 cumulative IPC: 0.13865 (Simulation time: 0 hr 37 min 36 sec) 
Heartbeat CPU 0 instructions: 306000001 cycles: 2223420802 heartbeat IPC: 0.119253 cumulative IPC: 0.138574 (Simulation time: 0 hr 37 min 44 sec) 
Heartbeat CPU 0 instructions: 307000002 cycles: 2227838054 heartbeat IPC: 0.226385 cumulative IPC: 0.138756 (Simulation time: 0 hr 37 min 50 sec) 
Heartbeat CPU 0 instructions: 308000000 cycles: 2235782398 heartbeat IPC: 0.125875 cumulative IPC: 0.138708 (Simulation time: 0 hr 37 min 57 sec) 
Heartbeat CPU 0 instructions: 309000002 cycles: 2245870356 heartbeat IPC: 0.0991283 cumulative IPC: 0.138523 (Simulation time: 0 hr 38 min 7 sec) 
Heartbeat CPU 0 instructions: 310000000 cycles: 2250436319 heartbeat IPC: 0.219011 cumulative IPC: 0.138693 (Simulation time: 0 hr 38 min 13 sec) 
Heartbeat CPU 0 instructions: 311000000 cycles: 2257406148 heartbeat IPC: 0.143476 cumulative IPC: 0.138708 (Simulation time: 0 hr 38 min 20 sec) 
Heartbeat CPU 0 instructions: 312000002 cycles: 2268670150 heartbeat IPC: 0.0887786 cumulative IPC: 0.13845 (Simulation time: 0 hr 38 min 30 sec) 
Heartbeat CPU 0 instructions: 313000000 cycles: 2274661283 heartbeat IPC: 0.166913 cumulative IPC: 0.138528 (Simulation time: 0 hr 38 min 37 sec) 
Heartbeat CPU 0 instructions: 314000001 cycles: 2279172786 heartbeat IPC: 0.221656 cumulative IPC: 0.138699 (Simulation time: 0 hr 38 min 42 sec) 
Heartbeat CPU 0 instructions: 315000000 cycles: 2288058887 heartbeat IPC: 0.112535 cumulative IPC: 0.138594 (Simulation time: 0 hr 38 min 50 sec) 
Heartbeat CPU 0 instructions: 316000000 cycles: 2297009912 heartbeat IPC: 0.111719 cumulative IPC: 0.138485 (Simulation time: 0 hr 38 min 59 sec) 
Heartbeat CPU 0 instructions: 317000002 cycles: 2302558813 heartbeat IPC: 0.180216 cumulative IPC: 0.138589 (Simulation time: 0 hr 39 min 5 sec) 
Heartbeat CPU 0 instructions: 318000001 cycles: 2309399543 heartbeat IPC: 0.146183 cumulative IPC: 0.138613 (Simulation time: 0 hr 39 min 12 sec) 
Heartbeat CPU 0 instructions: 319000000 cycles: 2320305384 heartbeat IPC: 0.0916939 cumulative IPC: 0.138384 (Simulation time: 0 hr 39 min 21 sec) 
Heartbeat CPU 0 instructions: 320000003 cycles: 2325625366 heartbeat IPC: 0.187971 cumulative IPC: 0.138502 (Simulation time: 0 hr 39 min 27 sec) 
Heartbeat CPU 0 instructions: 321000000 cycles: 2331450151 heartbeat IPC: 0.17168 cumulative IPC: 0.138588 (Simulation time: 0 hr 39 min 33 sec) 
Heartbeat CPU 0 instructions: 322000002 cycles: 2341083148 heartbeat IPC: 0.10381 cumulative IPC: 0.138439 (Simulation time: 0 hr 39 min 41 sec) 
Heartbeat CPU 0 instructions: 323000001 cycles: 2349341124 heartbeat IPC: 0.121095 cumulative IPC: 0.138376 (Simulation time: 0 hr 39 min 48 sec) 
Heartbeat CPU 0 instructions: 324000002 cycles: 2354710871 heartbeat IPC: 0.186229 cumulative IPC: 0.138489 (Simulation time: 0 hr 39 min 54 sec) 
Heartbeat CPU 0 instructions: 325000000 cycles: 2360727573 heartbeat IPC: 0.166204 cumulative IPC: 0.138562 (Simulation time: 0 hr 40 min 0 sec) 
Heartbeat CPU 0 instructions: 326000000 cycles: 2372241454 heartbeat IPC: 0.0868517 cumulative IPC: 0.138302 (Simulation time: 0 hr 40 min 10 sec) 
Heartbeat CPU 0 instructions: 327000000 cycles: 2377159296 heartbeat IPC: 0.203341 cumulative IPC: 0.138441 (Simulation time: 0 hr 40 min 15 sec) 
Heartbeat CPU 0 instructions: 328000002 cycles: 2384055092 heartbeat IPC: 0.145016 cumulative IPC: 0.138461 (Simulation time: 0 hr 40 min 22 sec) 
Heartbeat CPU 0 instructions: 329000002 cycles: 2393569272 heartbeat IPC: 0.105106 cumulative IPC: 0.138324 (Simulation time: 0 hr 40 min 30 sec) 
Heartbeat CPU 0 instructions: 330000000 cycles: 2402264715 heartbeat IPC: 0.115003 cumulative IPC: 0.138236 (Simulation time: 0 hr 40 min 38 sec) 
Heartbeat CPU 0 instructions: 331000003 cycles: 2407054170 heartbeat IPC: 0.208793 cumulative IPC: 0.138382 (Simulation time: 0 hr 40 min 43 sec) 
Heartbeat CPU 0 instructions: 332000000 cycles: 2412517846 heartbeat IPC: 0.183026 cumulative IPC: 0.138487 (Simulation time: 0 hr 40 min 49 sec) 
Heartbeat CPU 0 instructions: 333000000 cycles: 2424445027 heartbeat IPC: 0.0838421 cumulative IPC: 0.138208 (Simulation time: 0 hr 40 min 59 sec) 
Heartbeat CPU 0 instructions: 334000000 cycles: 2430620319 heartbeat IPC: 0.161936 cumulative IPC: 0.13827 (Simulation time: 0 hr 41 min 5 sec) 
Heartbeat CPU 0 instructions: 335000000 cycles: 2435170352 heartbeat IPC: 0.219779 cumulative IPC: 0.138428 (Simulation time: 0 hr 41 min 10 sec) 
Heartbeat CPU 0 instructions: 336000002 cycles: 2444335616 heartbeat IPC: 0.109108 cumulative IPC: 0.138314 (Simulation time: 0 hr 41 min 18 sec) 
Heartbeat CPU 0 instructions: 337000001 cycles: 2452355078 heartbeat IPC: 0.124697 cumulative IPC: 0.138268 (Simulation time: 0 hr 41 min 26 sec) 
Heartbeat CPU 0 instructions: 338000000 cycles: 2456778056 heartbeat IPC: 0.226092 cumulative IPC: 0.138432 (Simulation time: 0 hr 41 min 32 sec) 
Heartbeat CPU 0 instructions: 339000001 cycles: 2463151994 heartbeat IPC: 0.156889 cumulative IPC: 0.138481 (Simulation time: 0 hr 41 min 38 sec) 
Heartbeat CPU 0 instructions: 340000000 cycles: 2473915607 heartbeat IPC: 0.0929055 cumulative IPC: 0.138276 (Simulation time: 0 hr 41 min 48 sec) 
Heartbeat CPU 0 instructions: 341000000 cycles: 2478379643 heartbeat IPC: 0.224013 cumulative IPC: 0.138436 (Simulation time: 0 hr 41 min 53 sec) 
Heartbeat CPU 0 instructions: 342000003 cycles: 2482766043 heartbeat IPC: 0.227978 cumulative IPC: 0.1386 (Simulation time: 0 hr 41 min 59 sec) 
Heartbeat CPU 0 instructions: 343000000 cycles: 2494999701 heartbeat IPC: 0.0817415 cumulative IPC: 0.138311 (Simulation time: 0 hr 42 min 9 sec) 
Heartbeat CPU 0 instructions: 344000000 cycles: 2500131528 heartbeat IPC: 0.194862 cumulative IPC: 0.138431 (Simulation time: 0 hr 42 min 15 sec) 
Heartbeat CPU 0 instructions: 345000003 cycles: 2504632520 heartbeat IPC: 0.222174 cumulative IPC: 0.138587 (Simulation time: 0 hr 42 min 21 sec) 
Heartbeat CPU 0 instructions: 346000000 cycles: 2514795638 heartbeat IPC: 0.0983947 cumulative IPC: 0.138419 (Simulation time: 0 hr 42 min 29 sec) 
Heartbeat CPU 0 instructions: 347000003 cycles: 2522274505 heartbeat IPC: 0.13371 cumulative IPC: 0.138405 (Simulation time: 0 hr 42 min 37 sec) 
Heartbeat CPU 0 instructions: 348000002 cycles: 2526583014 heartbeat IPC: 0.232099 cumulative IPC: 0.13857 (Simulation time: 0 hr 42 min 43 sec) 
Heartbeat CPU 0 instructions: 349000001 cycles: 2534934424 heartbeat IPC: 0.11974 cumulative IPC: 0.138506 (Simulation time: 0 hr 42 min 50 sec) 
Heartbeat CPU 0 instructions: 350000003 cycles: 2544015071 heartbeat IPC: 0.110125 cumulative IPC: 0.138401 (Simulation time: 0 hr 42 min 59 sec) 
Heartbeat CPU 0 instructions: 351000002 cycles: 2548715803 heartbeat IPC: 0.212733 cumulative IPC: 0.138543 (Simulation time: 0 hr 43 min 5 sec) 
Heartbeat CPU 0 instructions: 352000000 cycles: 2555206353 heartbeat IPC: 0.15407 cumulative IPC: 0.138584 (Simulation time: 0 hr 43 min 11 sec) 
Heartbeat CPU 0 instructions: 353000001 cycles: 2565833030 heartbeat IPC: 0.0941029 cumulative IPC: 0.138393 (Simulation time: 0 hr 43 min 21 sec) 
Heartbeat CPU 0 instructions: 354000000 cycles: 2570741619 heartbeat IPC: 0.203724 cumulative IPC: 0.138522 (Simulation time: 0 hr 43 min 27 sec) 
Heartbeat CPU 0 instructions: 355000000 cycles: 2575780530 heartbeat IPC: 0.198456 cumulative IPC: 0.138643 (Simulation time: 0 hr 43 min 33 sec) 
Heartbeat CPU 0 instructions: 356000001 cycles: 2587812438 heartbeat IPC: 0.0831124 cumulative IPC: 0.138376 (Simulation time: 0 hr 43 min 43 sec) 
Heartbeat CPU 0 instructions: 357000003 cycles: 2592539097 heartbeat IPC: 0.211566 cumulative IPC: 0.138514 (Simulation time: 0 hr 43 min 49 sec) 
Heartbeat CPU 0 instructions: 358000001 cycles: 2596938979 heartbeat IPC: 0.227278 cumulative IPC: 0.13867 (Simulation time: 0 hr 43 min 54 sec) 
Heartbeat CPU 0 instructions: 359000002 cycles: 2607075988 heartbeat IPC: 0.0986485 cumulative IPC: 0.138509 (Simulation time: 0 hr 44 min 3 sec) 
Heartbeat CPU 0 instructions: 360000000 cycles: 2615257918 heartbeat IPC: 0.12222 cumulative IPC: 0.138456 (Simulation time: 0 hr 44 min 11 sec) 
Heartbeat CPU 0 instructions: 361000001 cycles: 2620490197 heartbeat IPC: 0.191122 cumulative IPC: 0.138565 (Simulation time: 0 hr 44 min 17 sec) 
Heartbeat CPU 0 instructions: 362000001 cycles: 2626022437 heartbeat IPC: 0.180759 cumulative IPC: 0.138657 (Simulation time: 0 hr 44 min 23 sec) 
Heartbeat CPU 0 instructions: 363000000 cycles: 2637435206 heartbeat IPC: 0.0876211 cumulative IPC: 0.138429 (Simulation time: 0 hr 44 min 33 sec) 
Heartbeat CPU 0 instructions: 364000000 cycles: 2642083248 heartbeat IPC: 0.215144 cumulative IPC: 0.138568 (Simulation time: 0 hr 44 min 39 sec) 
Heartbeat CPU 0 instructions: 365000000 cycles: 2646290811 heartbeat IPC: 0.237667 cumulative IPC: 0.138731 (Simulation time: 0 hr 44 min 44 sec) 
Heartbeat CPU 0 instructions: 366000000 cycles: 2656891876 heartbeat IPC: 0.0943301 cumulative IPC: 0.138548 (Simulation time: 0 hr 44 min 53 sec) 
Heartbeat CPU 0 instructions: 367000002 cycles: 2663815722 heartbeat IPC: 0.144429 cumulative IPC: 0.138564 (Simulation time: 0 hr 45 min 0 sec) 
Heartbeat CPU 0 instructions: 368000002 cycles: 2668205173 heartbeat IPC: 0.227819 cumulative IPC: 0.138715 (Simulation time: 0 hr 45 min 6 sec) 
Heartbeat CPU 0 instructions: 369000001 cycles: 2675374389 heartbeat IPC: 0.139485 cumulative IPC: 0.138718 (Simulation time: 0 hr 45 min 13 sec) 
Heartbeat CPU 0 instructions: 370000000 cycles: 2685344306 heartbeat IPC: 0.100302 cumulative IPC: 0.13857 (Simulation time: 0 hr 45 min 22 sec) 
Heartbeat CPU 0 instructions: 371000002 cycles: 2690416541 heartbeat IPC: 0.197152 cumulative IPC: 0.138684 (Simulation time: 0 hr 45 min 28 sec) 
Heartbeat CPU 0 instructions: 372000000 cycles: 2698589731 heartbeat IPC: 0.122351 cumulative IPC: 0.138633 (Simulation time: 0 hr 45 min 35 sec) 
Heartbeat CPU 0 instructions: 373000002 cycles: 2706835500 heartbeat IPC: 0.121275 cumulative IPC: 0.138579 (Simulation time: 0 hr 45 min 42 sec) 
Heartbeat CPU 0 instructions: 374000000 cycles: 2716966631 heartbeat IPC: 0.0987055 cumulative IPC: 0.138425 (Simulation time: 0 hr 45 min 51 sec) 
Heartbeat CPU 0 instructions: 375000001 cycles: 2722978776 heartbeat IPC: 0.16633 cumulative IPC: 0.138489 (Simulation time: 0 hr 45 min 57 sec) 
Heartbeat CPU 0 instructions: 376000000 cycles: 2728015662 heartbeat IPC: 0.198535 cumulative IPC: 0.138603 (Simulation time: 0 hr 46 min 2 sec) 
Heartbeat CPU 0 instructions: 377000000 cycles: 2737456284 heartbeat IPC: 0.105925 cumulative IPC: 0.138487 (Simulation time: 0 hr 46 min 10 sec) 
Heartbeat CPU 0 instructions: 378000001 cycles: 2745896096 heartbeat IPC: 0.118486 cumulative IPC: 0.138423 (Simulation time: 0 hr 46 min 17 sec) 
Heartbeat CPU 0 instructions: 379000000 cycles: 2752113433 heartbeat IPC: 0.16084 cumulative IPC: 0.138476 (Simulation time: 0 hr 46 min 23 sec) 
Heartbeat CPU 0 instructions: 380000003 cycles: 2756442182 heartbeat IPC: 0.231014 cumulative IPC: 0.138626 (Simulation time: 0 hr 46 min 29 sec) 
Heartbeat CPU 0 instructions: 381000003 cycles: 2768216894 heartbeat IPC: 0.0849278 cumulative IPC: 0.13839 (Simulation time: 0 hr 46 min 39 sec) 
Heartbeat CPU 0 instructions: 382000000 cycles: 2773787964 heartbeat IPC: 0.179498 cumulative IPC: 0.138475 (Simulation time: 0 hr 46 min 45 sec) 
Heartbeat CPU 0 instructions: 383000000 cycles: 2777829667 heartbeat IPC: 0.24742 cumulative IPC: 0.138639 (Simulation time: 0 hr 46 min 51 sec) 
Heartbeat CPU 0 instructions: 384000001 cycles: 2786347349 heartbeat IPC: 0.117403 cumulative IPC: 0.138572 (Simulation time: 0 hr 46 min 59 sec) 
Heartbeat CPU 0 instructions: 385000000 cycles: 2794796608 heartbeat IPC: 0.118353 cumulative IPC: 0.138509 (Simulation time: 0 hr 47 min 7 sec) 
Heartbeat CPU 0 instructions: 386000001 cycles: 2798929787 heartbeat IPC: 0.241945 cumulative IPC: 0.138666 (Simulation time: 0 hr 47 min 13 sec) 
Heartbeat CPU 0 instructions: 387000000 cycles: 2804110953 heartbeat IPC: 0.193007 cumulative IPC: 0.13877 (Simulation time: 0 hr 47 min 19 sec) 
Heartbeat CPU 0 instructions: 388000002 cycles: 2815627648 heartbeat IPC: 0.0868306 cumulative IPC: 0.138551 (Simulation time: 0 hr 47 min 29 sec) 
Heartbeat CPU 0 instructions: 389000002 cycles: 2819881195 heartbeat IPC: 0.235098 cumulative IPC: 0.138701 (Simulation time: 0 hr 47 min 35 sec) 
Heartbeat CPU 0 instructions: 390000000 cycles: 2824072297 heartbeat IPC: 0.2386 cumulative IPC: 0.138854 (Simulation time: 0 hr 47 min 41 sec) 
Heartbeat CPU 0 instructions: 391000003 cycles: 2834462650 heartbeat IPC: 0.0962434 cumulative IPC: 0.138693 (Simulation time: 0 hr 47 min 50 sec) 
Heartbeat CPU 0 instructions: 392000001 cycles: 2841086648 heartbeat IPC: 0.150966 cumulative IPC: 0.138722 (Simulation time: 0 hr 47 min 57 sec) 
Heartbeat CPU 0 instructions: 393000003 cycles: 2845507250 heartbeat IPC: 0.226214 cumulative IPC: 0.138863 (Simulation time: 0 hr 48 min 3 sec) 
Heartbeat CPU 0 instructions: 394000003 cycles: 2852741006 heartbeat IPC: 0.138241 cumulative IPC: 0.138861 (Simulation time: 0 hr 48 min 11 sec) 
Heartbeat CPU 0 instructions: 395000000 cycles: 2862452593 heartbeat IPC: 0.102969 cumulative IPC: 0.138735 (Simulation time: 0 hr 48 min 20 sec) 
Heartbeat CPU 0 instructions: 396000000 cycles: 2866784700 heartbeat IPC: 0.230835 cumulative IPC: 0.138879 (Simulation time: 0 hr 48 min 26 sec) 
Heartbeat CPU 0 instructions: 397000000 cycles: 2871219836 heartbeat IPC: 0.225472 cumulative IPC: 0.139017 (Simulation time: 0 hr 48 min 31 sec) 
Heartbeat CPU 0 instructions: 398000002 cycles: 2882395027 heartbeat IPC: 0.0894841 cumulative IPC: 0.138819 (Simulation time: 0 hr 48 min 41 sec) 
Heartbeat CPU 0 instructions: 399000002 cycles: 2889066490 heartbeat IPC: 0.149892 cumulative IPC: 0.138845 (Simulation time: 0 hr 48 min 47 sec) 
Heartbeat CPU 0 instructions: 400000000 cycles: 2893759552 heartbeat IPC: 0.21308 cumulative IPC: 0.138969 (Simulation time: 0 hr 48 min 53 sec) 
Heartbeat CPU 0 instructions: 401000002 cycles: 2899623583 heartbeat IPC: 0.170531 cumulative IPC: 0.139035 (Simulation time: 0 hr 48 min 59 sec) 
Heartbeat CPU 0 instructions: 402000001 cycles: 2911123740 heartbeat IPC: 0.0869552 cumulative IPC: 0.138823 (Simulation time: 0 hr 49 min 8 sec) 
Heartbeat CPU 0 instructions: 403000000 cycles: 2916524863 heartbeat IPC: 0.185146 cumulative IPC: 0.138911 (Simulation time: 0 hr 49 min 14 sec) 
Heartbeat CPU 0 instructions: 404000000 cycles: 2921458728 heartbeat IPC: 0.202681 cumulative IPC: 0.139022 (Simulation time: 0 hr 49 min 20 sec) 
Heartbeat CPU 0 instructions: 405000002 cycles: 2929761575 heartbeat IPC: 0.120441 cumulative IPC: 0.138968 (Simulation time: 0 hr 49 min 27 sec) 
Heartbeat CPU 0 instructions: 406000000 cycles: 2939407520 heartbeat IPC: 0.10367 cumulative IPC: 0.138849 (Simulation time: 0 hr 49 min 36 sec) 
Heartbeat CPU 0 instructions: 407000000 cycles: 2944617482 heartbeat IPC: 0.19194 cumulative IPC: 0.138946 (Simulation time: 0 hr 49 min 41 sec) 
Heartbeat CPU 0 instructions: 408000000 cycles: 2952487942 heartbeat IPC: 0.127057 cumulative IPC: 0.138913 (Simulation time: 0 hr 49 min 48 sec) 
Heartbeat CPU 0 instructions: 409000000 cycles: 2962286074 heartbeat IPC: 0.10206 cumulative IPC: 0.138787 (Simulation time: 0 hr 49 min 57 sec) 
Heartbeat CPU 0 instructions: 410000000 cycles: 2970521816 heartbeat IPC: 0.121422 cumulative IPC: 0.138738 (Simulation time: 0 hr 50 min 4 sec) 
Heartbeat CPU 0 instructions: 411000001 cycles: 2975289694 heartbeat IPC: 0.209737 cumulative IPC: 0.138855 (Simulation time: 0 hr 50 min 9 sec) 
Heartbeat CPU 0 instructions: 412000000 cycles: 2981942095 heartbeat IPC: 0.150322 cumulative IPC: 0.138881 (Simulation time: 0 hr 50 min 16 sec) 
Heartbeat CPU 0 instructions: 413000000 cycles: 2993214830 heartbeat IPC: 0.0887096 cumulative IPC: 0.138687 (Simulation time: 0 hr 50 min 26 sec) 
Heartbeat CPU 0 instructions: 414000002 cycles: 2998015134 heartbeat IPC: 0.208321 cumulative IPC: 0.138801 (Simulation time: 0 hr 50 min 32 sec) 
Heartbeat CPU 0 instructions: 415000003 cycles: 3002510207 heartbeat IPC: 0.222466 cumulative IPC: 0.13893 (Simulation time: 0 hr 50 min 37 sec) 
Heartbeat CPU 0 instructions: 416000001 cycles: 3012664549 heartbeat IPC: 0.0984798 cumulative IPC: 0.13879 (Simulation time: 0 hr 50 min 46 sec) 
Heartbeat CPU 0 instructions: 417000000 cycles: 3019814568 heartbeat IPC: 0.13986 cumulative IPC: 0.138793 (Simulation time: 0 hr 50 min 54 sec) 
Heartbeat CPU 0 instructions: 418000000 cycles: 3024093556 heartbeat IPC: 0.2337 cumulative IPC: 0.138931 (Simulation time: 0 hr 50 min 59 sec) 
Heartbeat CPU 0 instructions: 419000000 cycles: 3031699407 heartbeat IPC: 0.131478 cumulative IPC: 0.138912 (Simulation time: 0 hr 51 min 7 sec) 
Heartbeat CPU 0 instructions: 420000000 cycles: 3041061142 heartbeat IPC: 0.106818 cumulative IPC: 0.13881 (Simulation time: 0 hr 51 min 16 sec) 
Heartbeat CPU 0 instructions: 421000000 cycles: 3045427473 heartbeat IPC: 0.229025 cumulative IPC: 0.138943 (Simulation time: 0 hr 51 min 23 sec) 
Heartbeat CPU 0 instructions: 422000003 cycles: 3050681455 heartbeat IPC: 0.190332 cumulative IPC: 0.139034 (Simulation time: 0 hr 51 min 29 sec) 
Heartbeat CPU 0 instructions: 423000001 cycles: 3063170170 heartbeat IPC: 0.0800721 cumulative IPC: 0.138787 (Simulation time: 0 hr 51 min 39 sec) 
Heartbeat CPU 0 instructions: 424000002 cycles: 3069074096 heartbeat IPC: 0.169379 cumulative IPC: 0.138847 (Simulation time: 0 hr 51 min 46 sec) 
Heartbeat CPU 0 instructions: 425000000 cycles: 3073215134 heartbeat IPC: 0.241485 cumulative IPC: 0.13899 (Simulation time: 0 hr 51 min 52 sec) 
Heartbeat CPU 0 instructions: 426000001 cycles: 3082231295 heartbeat IPC: 0.110912 cumulative IPC: 0.138905 (Simulation time: 0 hr 52 min 1 sec) 
Heartbeat CPU 0 instructions: 427000000 cycles: 3090106133 heartbeat IPC: 0.126987 cumulative IPC: 0.138874 (Simulation time: 0 hr 52 min 9 sec) 
Heartbeat CPU 0 instructions: 428000002 cycles: 3094433689 heartbeat IPC: 0.231078 cumulative IPC: 0.139007 (Simulation time: 0 hr 52 min 15 sec) 
Heartbeat CPU 0 instructions: 429000000 cycles: 3100453564 heartbeat IPC: 0.166116 cumulative IPC: 0.139061 (Simulation time: 0 hr 52 min 22 sec) 
Heartbeat CPU 0 instructions: 430000001 cycles: 3112007551 heartbeat IPC: 0.0865503 cumulative IPC: 0.13886 (Simulation time: 0 hr 52 min 31 sec) 
Heartbeat CPU 0 instructions: 431000001 cycles: 3116934449 heartbeat IPC: 0.202967 cumulative IPC: 0.138964 (Simulation time: 0 hr 52 min 37 sec) 
Heartbeat CPU 0 instructions: 432000000 cycles: 3121972553 heartbeat IPC: 0.198487 cumulative IPC: 0.139063 (Simulation time: 0 hr 52 min 42 sec) 
Heartbeat CPU 0 instructions: 433000000 cycles: 3131732887 heartbeat IPC: 0.102456 cumulative IPC: 0.138946 (Simulation time: 0 hr 52 min 51 sec) 
Heartbeat CPU 0 instructions: 434000002 cycles: 3139993811 heartbeat IPC: 0.121052 cumulative IPC: 0.138898 (Simulation time: 0 hr 52 min 58 sec) 
Heartbeat CPU 0 instructions: 435000000 cycles: 3144870747 heartbeat IPC: 0.205046 cumulative IPC: 0.139003 (Simulation time: 0 hr 53 min 4 sec) 
Heartbeat CPU 0 instructions: 436000000 cycles: 3151796871 heartbeat IPC: 0.144381 cumulative IPC: 0.139015 (Simulation time: 0 hr 53 min 10 sec) 
Heartbeat CPU 0 instructions: 437000001 cycles: 3163707229 heartbeat IPC: 0.0839606 cumulative IPC: 0.138802 (Simulation time: 0 hr 53 min 20 sec) 
Heartbeat CPU 0 instructions: 438000000 cycles: 3169312089 heartbeat IPC: 0.178416 cumulative IPC: 0.138874 (Simulation time: 0 hr 53 min 25 sec) 
Heartbeat CPU 0 instructions: 439000002 cycles: 3174271826 heartbeat IPC: 0.201624 cumulative IPC: 0.138975 (Simulation time: 0 hr 53 min 30 sec) 
Heartbeat CPU 0 instructions: 440000000 cycles: 3184159797 heartbeat IPC: 0.101133 cumulative IPC: 0.138854 (Simulation time: 0 hr 53 min 39 sec) 
Heartbeat CPU 0 instructions: 441000002 cycles: 3192362814 heartbeat IPC: 0.121907 cumulative IPC: 0.138809 (Simulation time: 0 hr 53 min 46 sec) 
Heartbeat CPU 0 instructions: 442000000 cycles: 3197939487 heartbeat IPC: 0.179318 cumulative IPC: 0.138882 (Simulation time: 0 hr 53 min 52 sec) 
Heartbeat CPU 0 instructions: 443000003 cycles: 3204277733 heartbeat IPC: 0.157773 cumulative IPC: 0.13892 (Simulation time: 0 hr 53 min 59 sec) 
Heartbeat CPU 0 instructions: 444000003 cycles: 3215336993 heartbeat IPC: 0.090422 cumulative IPC: 0.138749 (Simulation time: 0 hr 54 min 8 sec) 
Heartbeat CPU 0 instructions: 445000000 cycles: 3220188020 heartbeat IPC: 0.206141 cumulative IPC: 0.138853 (Simulation time: 0 hr 54 min 14 sec) 
Heartbeat CPU 0 instructions: 446000003 cycles: 3226522249 heartbeat IPC: 0.157873 cumulative IPC: 0.138892 (Simulation time: 0 hr 54 min 21 sec) 
Heartbeat CPU 0 instructions: 447000000 cycles: 3237414786 heartbeat IPC: 0.0918057 cumulative IPC: 0.138729 (Simulation time: 0 hr 54 min 30 sec) 
Heartbeat CPU 0 instructions: 448000002 cycles: 3244690334 heartbeat IPC: 0.137447 cumulative IPC: 0.138726 (Simulation time: 0 hr 54 min 38 sec) 
Heartbeat CPU 0 instructions: 449000002 cycles: 3251986419 heartbeat IPC: 0.13706 cumulative IPC: 0.138722 (Simulation time: 0 hr 54 min 45 sec) 
Heartbeat CPU 0 instructions: 450000002 cycles: 3259075828 heartbeat IPC: 0.141055 cumulative IPC: 0.138727 (Simulation time: 0 hr 54 min 52 sec) 
Heartbeat CPU 0 instructions: 451000000 cycles: 3269168037 heartbeat IPC: 0.0990861 cumulative IPC: 0.138601 (Simulation time: 0 hr 55 min 2 sec) 
Heartbeat CPU 0 instructions: 452000000 cycles: 3277582134 heartbeat IPC: 0.118848 cumulative IPC: 0.138549 (Simulation time: 0 hr 55 min 10 sec) 
Heartbeat CPU 0 instructions: 453000002 cycles: 3281821508 heartbeat IPC: 0.235884 cumulative IPC: 0.138679 (Simulation time: 0 hr 55 min 15 sec) 
Heartbeat CPU 0 instructions: 454000000 cycles: 3292853073 heartbeat IPC: 0.0906488 cumulative IPC: 0.138513 (Simulation time: 0 hr 55 min 25 sec) 
Heartbeat CPU 0 instructions: 455000001 cycles: 3298960365 heartbeat IPC: 0.163739 cumulative IPC: 0.138561 (Simulation time: 0 hr 55 min 32 sec) 
Heartbeat CPU 0 instructions: 456000001 cycles: 3303107508 heartbeat IPC: 0.24113 cumulative IPC: 0.138693 (Simulation time: 0 hr 55 min 38 sec) 
Heartbeat CPU 0 instructions: 457000002 cycles: 3312502953 heartbeat IPC: 0.106435 cumulative IPC: 0.1386 (Simulation time: 0 hr 55 min 46 sec) 
Heartbeat CPU 0 instructions: 458000002 cycles: 3319811511 heartbeat IPC: 0.136826 cumulative IPC: 0.138595 (Simulation time: 0 hr 55 min 54 sec) 
Heartbeat CPU 0 instructions: 459000002 cycles: 3323702568 heartbeat IPC: 0.257 cumulative IPC: 0.138738 (Simulation time: 0 hr 55 min 59 sec) 
Heartbeat CPU 0 instructions: 460000000 cycles: 3331013999 heartbeat IPC: 0.136772 cumulative IPC: 0.138733 (Simulation time: 0 hr 56 min 7 sec) 
Heartbeat CPU 0 instructions: 461000002 cycles: 3340269206 heartbeat IPC: 0.108048 cumulative IPC: 0.138646 (Simulation time: 0 hr 56 min 15 sec) 
Heartbeat CPU 0 instructions: 462000000 cycles: 3344365380 heartbeat IPC: 0.24413 cumulative IPC: 0.138779 (Simulation time: 0 hr 56 min 21 sec) 
Heartbeat CPU 0 instructions: 463000000 cycles: 3349447973 heartbeat IPC: 0.19675 cumulative IPC: 0.138869 (Simulation time: 0 hr 56 min 27 sec) 
Heartbeat CPU 0 instructions: 464000002 cycles: 3360687848 heartbeat IPC: 0.0889691 cumulative IPC: 0.138698 (Simulation time: 0 hr 56 min 37 sec) 
Heartbeat CPU 0 instructions: 465000000 cycles: 3366729222 heartbeat IPC: 0.165525 cumulative IPC: 0.138747 (Simulation time: 0 hr 56 min 44 sec) 
Heartbeat CPU 0 instructions: 466000001 cycles: 3375018901 heartbeat IPC: 0.120632 cumulative IPC: 0.138701 (Simulation time: 0 hr 56 min 52 sec) 
Heartbeat CPU 0 instructions: 467000000 cycles: 3383373165 heartbeat IPC: 0.119699 cumulative IPC: 0.138653 (Simulation time: 0 hr 57 min 0 sec) 
Heartbeat CPU 0 instructions: 468000001 cycles: 3392258956 heartbeat IPC: 0.112539 cumulative IPC: 0.138583 (Simulation time: 0 hr 57 min 9 sec) 
Heartbeat CPU 0 instructions: 469000003 cycles: 3398508993 heartbeat IPC: 0.159999 cumulative IPC: 0.138624 (Simulation time: 0 hr 57 min 15 sec) 
Heartbeat CPU 0 instructions: 470000003 cycles: 3404101304 heartbeat IPC: 0.178817 cumulative IPC: 0.138691 (Simulation time: 0 hr 57 min 22 sec) 
Heartbeat CPU 0 instructions: 471000001 cycles: 3414980549 heartbeat IPC: 0.091918 cumulative IPC: 0.138538 (Simulation time: 0 hr 57 min 31 sec) 
Heartbeat CPU 0 instructions: 472000002 cycles: 3421123933 heartbeat IPC: 0.162777 cumulative IPC: 0.138583 (Simulation time: 0 hr 57 min 38 sec) 
Heartbeat CPU 0 instructions: 473000000 cycles: 3429842725 heartbeat IPC: 0.114695 cumulative IPC: 0.138521 (Simulation time: 0 hr 57 min 46 sec) 
Heartbeat CPU 0 instructions: 474000001 cycles: 3436487104 heartbeat IPC: 0.150503 cumulative IPC: 0.138545 (Simulation time: 0 hr 57 min 53 sec) 
Heartbeat CPU 0 instructions: 475000000 cycles: 3446686976 heartbeat IPC: 0.0980403 cumulative IPC: 0.138422 (Simulation time: 0 hr 58 min 2 sec) 
Heartbeat CPU 0 instructions: 476000001 cycles: 3450888077 heartbeat IPC: 0.238033 cumulative IPC: 0.138546 (Simulation time: 0 hr 58 min 8 sec) 
Heartbeat CPU 0 instructions: 477000002 cycles: 3455814121 heartbeat IPC: 0.203003 cumulative IPC: 0.13864 (Simulation time: 0 hr 58 min 15 sec) 
Heartbeat CPU 0 instructions: 478000002 cycles: 3467807726 heartbeat IPC: 0.0833778 cumulative IPC: 0.138444 (Simulation time: 0 hr 58 min 25 sec) 
Heartbeat CPU 0 instructions: 479000001 cycles: 3472057996 heartbeat IPC: 0.235279 cumulative IPC: 0.138566 (Simulation time: 0 hr 58 min 31 sec) 
Heartbeat CPU 0 instructions: 480000000 cycles: 3480826945 heartbeat IPC: 0.114039 cumulative IPC: 0.138502 (Simulation time: 0 hr 58 min 39 sec) 
Heartbeat CPU 0 instructions: 481000003 cycles: 3489164650 heartbeat IPC: 0.119937 cumulative IPC: 0.138457 (Simulation time: 0 hr 58 min 47 sec) 
Heartbeat CPU 0 instructions: 482000000 cycles: 3498997937 heartbeat IPC: 0.101695 cumulative IPC: 0.138351 (Simulation time: 0 hr 58 min 56 sec) 
Heartbeat CPU 0 instructions: 483000000 cycles: 3504545676 heartbeat IPC: 0.180254 cumulative IPC: 0.138419 (Simulation time: 0 hr 59 min 3 sec) 
Heartbeat CPU 0 instructions: 484000000 cycles: 3513262278 heartbeat IPC: 0.114724 cumulative IPC: 0.138359 (Simulation time: 0 hr 59 min 11 sec) 
Heartbeat CPU 0 instructions: 485000002 cycles: 3523584584 heartbeat IPC: 0.0968778 cumulative IPC: 0.138234 (Simulation time: 0 hr 59 min 20 sec) 
Heartbeat CPU 0 instructions: 486000000 cycles: 3529931904 heartbeat IPC: 0.157546 cumulative IPC: 0.13827 (Simulation time: 0 hr 59 min 27 sec) 
Heartbeat CPU 0 instructions: 487000002 cycles: 3534137399 heartbeat IPC: 0.237785 cumulative IPC: 0.138391 (Simulation time: 0 hr 59 min 33 sec) 
Heartbeat CPU 0 instructions: 488000000 cycles: 3542934389 heartbeat IPC: 0.113675 cumulative IPC: 0.138328 (Simulation time: 0 hr 59 min 41 sec) 
Heartbeat CPU 0 instructions: 489000000 cycles: 3551386238 heartbeat IPC: 0.118317 cumulative IPC: 0.138279 (Simulation time: 0 hr 59 min 50 sec) 
Heartbeat CPU 0 instructions: 490000001 cycles: 3555532041 heartbeat IPC: 0.241208 cumulative IPC: 0.138402 (Simulation time: 0 hr 59 min 55 sec) 
Heartbeat CPU 0 instructions: 491000000 cycles: 3562601537 heartbeat IPC: 0.141453 cumulative IPC: 0.138409 (Simulation time: 1 hr 0 min 2 sec) 
Heartbeat CPU 0 instructions: 492000003 cycles: 3572415195 heartbeat IPC: 0.101899 cumulative IPC: 0.138306 (Simulation time: 1 hr 0 min 12 sec) 
Heartbeat CPU 0 instructions: 493000000 cycles: 3577452624 heartbeat IPC: 0.198513 cumulative IPC: 0.138393 (Simulation time: 1 hr 0 min 18 sec) 
Heartbeat CPU 0 instructions: 494000002 cycles: 3582557871 heartbeat IPC: 0.195877 cumulative IPC: 0.138477 (Simulation time: 1 hr 0 min 24 sec) 
Heartbeat CPU 0 instructions: 495000000 cycles: 3594144254 heartbeat IPC: 0.086308 cumulative IPC: 0.138304 (Simulation time: 1 hr 0 min 34 sec) 
Heartbeat CPU 0 instructions: 496000001 cycles: 3598905364 heartbeat IPC: 0.210035 cumulative IPC: 0.138402 (Simulation time: 1 hr 0 min 40 sec) 
Heartbeat CPU 0 instructions: 497000001 cycles: 3603191876 heartbeat IPC: 0.23329 cumulative IPC: 0.138517 (Simulation time: 1 hr 0 min 46 sec) 
Heartbeat CPU 0 instructions: 498000000 cycles: 3614185574 heartbeat IPC: 0.0909611 cumulative IPC: 0.138369 (Simulation time: 1 hr 0 min 56 sec) 
Heartbeat CPU 0 instructions: 499000001 cycles: 3621119221 heartbeat IPC: 0.144224 cumulative IPC: 0.13838 (Simulation time: 1 hr 1 min 3 sec) 
Heartbeat CPU 0 instructions: 500000000 cycles: 3626283484 heartbeat IPC: 0.193638 cumulative IPC: 0.138461 (Simulation time: 1 hr 1 min 9 sec) 
Heartbeat CPU 0 instructions: 501000001 cycles: 3634551547 heartbeat IPC: 0.120947 cumulative IPC: 0.13842 (Simulation time: 1 hr 1 min 17 sec) 
Heartbeat CPU 0 instructions: 502000002 cycles: 3642994486 heartbeat IPC: 0.118442 cumulative IPC: 0.138373 (Simulation time: 1 hr 1 min 26 sec) 
Heartbeat CPU 0 instructions: 503000001 cycles: 3647136822 heartbeat IPC: 0.241409 cumulative IPC: 0.138493 (Simulation time: 1 hr 1 min 31 sec) 
Heartbeat CPU 0 instructions: 504000000 cycles: 3653753925 heartbeat IPC: 0.151123 cumulative IPC: 0.138516 (Simulation time: 1 hr 1 min 38 sec) 
Heartbeat CPU 0 instructions: 505000001 cycles: 3663902753 heartbeat IPC: 0.0985336 cumulative IPC: 0.138403 (Simulation time: 1 hr 1 min 48 sec) 
Heartbeat CPU 0 instructions: 506000000 cycles: 3668088699 heartbeat IPC: 0.238894 cumulative IPC: 0.13852 (Simulation time: 1 hr 1 min 53 sec) 
Heartbeat CPU 0 instructions: 507000001 cycles: 3673209558 heartbeat IPC: 0.19528 cumulative IPC: 0.138601 (Simulation time: 1 hr 2 min 0 sec) 
Heartbeat CPU 0 instructions: 508000002 cycles: 3684559445 heartbeat IPC: 0.0881067 cumulative IPC: 0.138442 (Simulation time: 1 hr 2 min 9 sec) 
Heartbeat CPU 0 instructions: 509000000 cycles: 3689009563 heartbeat IPC: 0.224713 cumulative IPC: 0.138549 (Simulation time: 1 hr 2 min 15 sec) 
Heartbeat CPU 0 instructions: 510000000 cycles: 3695549151 heartbeat IPC: 0.152915 cumulative IPC: 0.138575 (Simulation time: 1 hr 2 min 23 sec) 
Finished CPU 0 instructions: 500000000 cycles: 3608166261 cumulative IPC: 0.138575 (Simulation time: 1 hr 2 min 23 sec) 

ChampSim completed all CPUs

Region of Interest Statistics

CPU 0 cumulative IPC: 0.138575 instructions: 500000000 cycles: 3608166261
L1D TOTAL     ACCESS:  131377490  HIT:   76049703  MISS:   55327787
L1D LOAD      ACCESS:  106357535  HIT:   52442836  MISS:   53914699
L1D RFO       ACCESS:   25019955  HIT:   23606867  MISS:    1413088
L1D PREFETCH  ACCESS:          0  HIT:          0  MISS:          0
L1D WRITEBACK ACCESS:          0  HIT:          0  MISS:          0
L1D PREFETCH  REQUESTED:          0  ISSUED:          0  USEFUL:          0  USELESS:          0  UAC CORRECT:          0
L1D AVERAGE MISS LATENCY: 120.893 cycles
L1I TOTAL     ACCESS:   93345308  HIT:   93345308  MISS:          0
L1I LOAD      ACCESS:   93345308  HIT:   93345308  MISS:          0
L1I RFO       ACCESS:          0  HIT:          0  MISS:          0
L1I PREFETCH  ACCESS:          0  HIT:          0  MISS:          0
L1I WRITEBACK ACCESS:          0  HIT:          0  MISS:          0
L1I PREFETCH  REQUESTED:          0  ISSUED:          0  USEFUL:          0  USELESS:          0  UAC CORRECT:          0
L1I AVERAGE MISS LATENCY: -nan cycles
L2C TOTAL     ACCESS:   67614252  HIT:   26084576  MISS:   41529676
L2C LOAD      ACCESS:   53913254  HIT:   13260547  MISS:   40652707
L2C RFO       ACCESS:    1413015  HIT:     538037  MISS:     874978
L2C PREFETCH  ACCESS:          0  HIT:          0  MISS:          0
L2C WRITEBACK ACCESS:   12287983  HIT:   12285992  MISS:       1991
L2C PREFETCH  REQUESTED:          0  ISSUED:          0  USEFUL:          0  USELESS:          0  UAC CORRECT:          0
L2C AVERAGE MISS LATENCY: 136.959 cycles
LLC TOTAL     ACCESS:   79086194  HIT:   40133313  MISS:   38952881
LLC LOAD      ACCESS:   40652671  HIT:   20215028  MISS:   20437643
LLC RFO       ACCESS:     874978  HIT:     319660  MISS:     555318
LLC PREFETCH  ACCESS:   27899309  HIT:   10003075  MISS:   17896234
LLC WRITEBACK ACCESS:    9659236  HIT:    9595550  MISS:      63686
LLC PREFETCH  REQUESTED:   32183449  ISSUED:   31845512  USEFUL:   13748566  USELESS:    4143726  UAC CORRECT:   12588747
LLC AVERAGE MISS LATENCY: 225.204 cycles
Major fault: 0 Minor fault: 160718
performance stats:
mapping cache size: 9137281
divergence: 15840702

DRAM Statistics
 CHANNEL 0
 RQ ROW_BUFFER_HIT:    4536873  ROW_BUFFER_MISS:   14935657
 DBUS_CONGESTED:   18905898
 WQ ROW_BUFFER_HIT:    2797374  ROW_BUFFER_MISS:    1822985  FULL:          0

 CHANNEL 1
 RQ ROW_BUFFER_HIT:    4501478  ROW_BUFFER_MISS:   14912614
 DBUS_CONGESTED:   18905898
 WQ ROW_BUFFER_HIT:    2754103  ROW_BUFFER_MISS:    1864243  FULL:          0

 AVG_CONGESTED_CYCLE: 17

CPU 0 Branch Prediction Accuracy: 95.6941% MPKI: 11.637 Average ROB Occupancy at Mispredict: 50.7663

Branch types
NOT_BRANCH: 364871950 72.9744%
BRANCH_DIRECT_JUMP: 10097937 2.01959%
BRANCH_INDIRECT: 0 0%
BRANCH_CONDITIONAL: 124794415 24.9589%
BRANCH_DIRECT_CALL: 117892 0.0235784%
BRANCH_INDIRECT_CALL: 0 0%
BRANCH_RETURN: 117892 0.0235784%
BRANCH_OTHER: 0 0%


gzip: stdout: Broken pipe
