
*** ChampSim Multicore Out-of-Order Simulator ***

Warmup Instructions: 1000000
Prefetch Warmup Instructions: 10000000
Simulation Instructions: 500000000
Stat Printing Period: 1000000
Number of CPUs: 1
LLC sets: 2048
LLC ways: 16
Off-chip DRAM Size: 32768 MB Channels: 2 Width: 64-bit Data Rate: 1024 MT/s

CPU 0 runs /scratch/cluster/cmolder/ML-DPC/ChampSimTraces/spec06/429.mcf-s0.trace.gz
Read seed: 629
Heartbeat CPU 0 instructions: 1000000 cycles: 475031 heartbeat IPC: 2.10513 cumulative IPC: 2.10513 (Simulation time: 0 hr 0 min 3 sec) 

Warmup complete CPU 0 instructions: 1000003 cycles: 475032 (Simulation time: 0 hr 0 min 3 sec) 

Heartbeat CPU 0 instructions: 2000000 cycles: 14583686 heartbeat IPC: 0.0708785 cumulative IPC: 0.0708783 (Simulation time: 0 hr 0 min 9 sec) 
Heartbeat CPU 0 instructions: 3000000 cycles: 29181604 heartbeat IPC: 0.0685029 cumulative IPC: 0.0696703 (Simulation time: 0 hr 0 min 15 sec) 
Heartbeat CPU 0 instructions: 4000000 cycles: 42610730 heartbeat IPC: 0.074465 cumulative IPC: 0.0711985 (Simulation time: 0 hr 0 min 21 sec) 
Heartbeat CPU 0 instructions: 5000000 cycles: 54750505 heartbeat IPC: 0.0823739 cumulative IPC: 0.0736981 (Simulation time: 0 hr 0 min 27 sec) 
Heartbeat CPU 0 instructions: 6000002 cycles: 67626617 heartbeat IPC: 0.0776633 cumulative IPC: 0.0744584 (Simulation time: 0 hr 0 min 33 sec) 
Heartbeat CPU 0 instructions: 7000002 cycles: 80613774 heartbeat IPC: 0.0769991 cumulative IPC: 0.0748701 (Simulation time: 0 hr 0 min 38 sec) 
Heartbeat CPU 0 instructions: 8000000 cycles: 93927962 heartbeat IPC: 0.0751077 cumulative IPC: 0.074904 (Simulation time: 0 hr 0 min 44 sec) 
Heartbeat CPU 0 instructions: 9000001 cycles: 109345928 heartbeat IPC: 0.0648595 cumulative IPC: 0.0734815 (Simulation time: 0 hr 0 min 51 sec) 
Heartbeat CPU 0 instructions: 10000002 cycles: 128354236 heartbeat IPC: 0.0526086 cumulative IPC: 0.0703789 (Simulation time: 0 hr 1 min 1 sec) 

Warmup complete CPU 0 instructions: 10000002 cycles: 128354236 (Simulation time: 0 hr 1 min 1 sec) 

Heartbeat CPU 0 instructions: 11000000 cycles: 142487545 heartbeat IPC: 0.0707547 cumulative IPC: 0.0707547 (Simulation time: 0 hr 1 min 7 sec) 
Heartbeat CPU 0 instructions: 12000002 cycles: 154525440 heartbeat IPC: 0.0830712 cumulative IPC: 0.0764199 (Simulation time: 0 hr 1 min 13 sec) 
Heartbeat CPU 0 instructions: 13000002 cycles: 167375936 heartbeat IPC: 0.077818 cumulative IPC: 0.0768803 (Simulation time: 0 hr 1 min 18 sec) 
Heartbeat CPU 0 instructions: 14000000 cycles: 178718110 heartbeat IPC: 0.0881663 cumulative IPC: 0.079422 (Simulation time: 0 hr 1 min 24 sec) 
Heartbeat CPU 0 instructions: 15000001 cycles: 190966595 heartbeat IPC: 0.0816428 cumulative IPC: 0.0798564 (Simulation time: 0 hr 1 min 30 sec) 
Heartbeat CPU 0 instructions: 16000001 cycles: 210336435 heartbeat IPC: 0.0516267 cumulative IPC: 0.0731866 (Simulation time: 0 hr 1 min 39 sec) 
Heartbeat CPU 0 instructions: 17000000 cycles: 224996443 heartbeat IPC: 0.0682127 cumulative IPC: 0.0724321 (Simulation time: 0 hr 1 min 46 sec) 
Heartbeat CPU 0 instructions: 18000002 cycles: 237864988 heartbeat IPC: 0.077709 cumulative IPC: 0.0730522 (Simulation time: 0 hr 1 min 52 sec) 
Heartbeat CPU 0 instructions: 19000002 cycles: 251777462 heartbeat IPC: 0.0718779 cumulative IPC: 0.0729198 (Simulation time: 0 hr 1 min 59 sec) 
Heartbeat CPU 0 instructions: 20000000 cycles: 265196021 heartbeat IPC: 0.0745235 cumulative IPC: 0.0730771 (Simulation time: 0 hr 2 min 6 sec) 
Heartbeat CPU 0 instructions: 21000001 cycles: 278822381 heartbeat IPC: 0.0733872 cumulative IPC: 0.0731052 (Simulation time: 0 hr 2 min 12 sec) 
Heartbeat CPU 0 instructions: 22000000 cycles: 292614878 heartbeat IPC: 0.0725031 cumulative IPC: 0.0730546 (Simulation time: 0 hr 2 min 18 sec) 
Heartbeat CPU 0 instructions: 23000000 cycles: 307254581 heartbeat IPC: 0.0683074 cumulative IPC: 0.0726661 (Simulation time: 0 hr 2 min 25 sec) 
Heartbeat CPU 0 instructions: 24000001 cycles: 326809453 heartbeat IPC: 0.0511382 cumulative IPC: 0.0705449 (Simulation time: 0 hr 2 min 35 sec) 
Heartbeat CPU 0 instructions: 25000001 cycles: 339191710 heartbeat IPC: 0.0807607 cumulative IPC: 0.0711448 (Simulation time: 0 hr 2 min 41 sec) 
Heartbeat CPU 0 instructions: 26000001 cycles: 348928557 heartbeat IPC: 0.102703 cumulative IPC: 0.0725379 (Simulation time: 0 hr 2 min 46 sec) 
Heartbeat CPU 0 instructions: 27000000 cycles: 358886371 heartbeat IPC: 0.100424 cumulative IPC: 0.0737424 (Simulation time: 0 hr 2 min 51 sec) 
Heartbeat CPU 0 instructions: 28000001 cycles: 377641704 heartbeat IPC: 0.0533182 cumulative IPC: 0.0722058 (Simulation time: 0 hr 3 min 1 sec) 
Heartbeat CPU 0 instructions: 29000000 cycles: 389191922 heartbeat IPC: 0.0865784 cumulative IPC: 0.0728422 (Simulation time: 0 hr 3 min 7 sec) 
Heartbeat CPU 0 instructions: 30000001 cycles: 397954297 heartbeat IPC: 0.114124 cumulative IPC: 0.074184 (Simulation time: 0 hr 3 min 12 sec) 
Heartbeat CPU 0 instructions: 31000000 cycles: 408247257 heartbeat IPC: 0.0971537 cumulative IPC: 0.0750287 (Simulation time: 0 hr 3 min 18 sec) 
Heartbeat CPU 0 instructions: 32000001 cycles: 427144207 heartbeat IPC: 0.0529186 cumulative IPC: 0.0736303 (Simulation time: 0 hr 3 min 28 sec) 
Heartbeat CPU 0 instructions: 33000000 cycles: 437027718 heartbeat IPC: 0.101179 cumulative IPC: 0.0745124 (Simulation time: 0 hr 3 min 33 sec) 
Heartbeat CPU 0 instructions: 34000001 cycles: 447498648 heartbeat IPC: 0.0955026 cumulative IPC: 0.0752011 (Simulation time: 0 hr 3 min 38 sec) 
Heartbeat CPU 0 instructions: 35000002 cycles: 458581927 heartbeat IPC: 0.0902261 cumulative IPC: 0.0757053 (Simulation time: 0 hr 3 min 44 sec) 
Heartbeat CPU 0 instructions: 36000001 cycles: 478597142 heartbeat IPC: 0.0499619 cumulative IPC: 0.0742342 (Simulation time: 0 hr 3 min 55 sec) 
Heartbeat CPU 0 instructions: 37000002 cycles: 490058045 heartbeat IPC: 0.0872533 cumulative IPC: 0.0746467 (Simulation time: 0 hr 4 min 0 sec) 
Heartbeat CPU 0 instructions: 38000000 cycles: 500666338 heartbeat IPC: 0.0942657 cumulative IPC: 0.0752057 (Simulation time: 0 hr 4 min 6 sec) 
Heartbeat CPU 0 instructions: 39000000 cycles: 509353068 heartbeat IPC: 0.115118 cumulative IPC: 0.0761157 (Simulation time: 0 hr 4 min 11 sec) 
Heartbeat CPU 0 instructions: 40000001 cycles: 527371084 heartbeat IPC: 0.0555001 cumulative IPC: 0.0751848 (Simulation time: 0 hr 4 min 20 sec) 
Heartbeat CPU 0 instructions: 41000000 cycles: 539086233 heartbeat IPC: 0.0853595 cumulative IPC: 0.075475 (Simulation time: 0 hr 4 min 27 sec) 
Heartbeat CPU 0 instructions: 42000001 cycles: 547530426 heartbeat IPC: 0.118425 cumulative IPC: 0.0763402 (Simulation time: 0 hr 4 min 31 sec) 
Heartbeat CPU 0 instructions: 43000002 cycles: 560564913 heartbeat IPC: 0.0767196 cumulative IPC: 0.0763517 (Simulation time: 0 hr 4 min 38 sec) 
Heartbeat CPU 0 instructions: 44000000 cycles: 575902821 heartbeat IPC: 0.0651978 cumulative IPC: 0.0759694 (Simulation time: 0 hr 4 min 47 sec) 
Heartbeat CPU 0 instructions: 45000001 cycles: 583545880 heartbeat IPC: 0.130838 cumulative IPC: 0.0768907 (Simulation time: 0 hr 4 min 52 sec) 
Heartbeat CPU 0 instructions: 46000003 cycles: 595860019 heartbeat IPC: 0.0812076 cumulative IPC: 0.0770044 (Simulation time: 0 hr 4 min 58 sec) 
Heartbeat CPU 0 instructions: 47000000 cycles: 611833810 heartbeat IPC: 0.0626024 cumulative IPC: 0.0765286 (Simulation time: 0 hr 5 min 7 sec) 
Heartbeat CPU 0 instructions: 48000002 cycles: 620136299 heartbeat IPC: 0.120446 cumulative IPC: 0.07727 (Simulation time: 0 hr 5 min 12 sec) 
Heartbeat CPU 0 instructions: 49000000 cycles: 632244581 heartbeat IPC: 0.0825879 cumulative IPC: 0.0773978 (Simulation time: 0 hr 5 min 18 sec) 
Heartbeat CPU 0 instructions: 50000000 cycles: 648200079 heartbeat IPC: 0.0626743 cumulative IPC: 0.0769459 (Simulation time: 0 hr 5 min 27 sec) 
Heartbeat CPU 0 instructions: 51000000 cycles: 655433764 heartbeat IPC: 0.138242 cumulative IPC: 0.0777871 (Simulation time: 0 hr 5 min 32 sec) 
Heartbeat CPU 0 instructions: 52000003 cycles: 666927451 heartbeat IPC: 0.0870045 cumulative IPC: 0.0779838 (Simulation time: 0 hr 5 min 38 sec) 
Heartbeat CPU 0 instructions: 53000001 cycles: 684084990 heartbeat IPC: 0.0582833 cumulative IPC: 0.0773756 (Simulation time: 0 hr 5 min 47 sec) 
Heartbeat CPU 0 instructions: 54000001 cycles: 691793992 heartbeat IPC: 0.129718 cumulative IPC: 0.0780918 (Simulation time: 0 hr 5 min 52 sec) 
Heartbeat CPU 0 instructions: 55000000 cycles: 701360508 heartbeat IPC: 0.104531 cumulative IPC: 0.0785332 (Simulation time: 0 hr 5 min 58 sec) 
Heartbeat CPU 0 instructions: 56000000 cycles: 719895186 heartbeat IPC: 0.0539529 cumulative IPC: 0.077763 (Simulation time: 0 hr 6 min 8 sec) 
Heartbeat CPU 0 instructions: 57000002 cycles: 727451581 heartbeat IPC: 0.132339 cumulative IPC: 0.0784514 (Simulation time: 0 hr 6 min 12 sec) 
Heartbeat CPU 0 instructions: 58000002 cycles: 734963980 heartbeat IPC: 0.133113 cumulative IPC: 0.0791283 (Simulation time: 0 hr 6 min 17 sec) 
Heartbeat CPU 0 instructions: 59000001 cycles: 754510301 heartbeat IPC: 0.0511605 cumulative IPC: 0.0782553 (Simulation time: 0 hr 6 min 27 sec) 
Heartbeat CPU 0 instructions: 60000002 cycles: 763195368 heartbeat IPC: 0.11514 cumulative IPC: 0.0787599 (Simulation time: 0 hr 6 min 32 sec) 
Heartbeat CPU 0 instructions: 61000001 cycles: 771994603 heartbeat IPC: 0.113646 cumulative IPC: 0.0792368 (Simulation time: 0 hr 6 min 38 sec) 
Heartbeat CPU 0 instructions: 62000002 cycles: 787630330 heartbeat IPC: 0.0639562 cumulative IPC: 0.0788744 (Simulation time: 0 hr 6 min 46 sec) 
Heartbeat CPU 0 instructions: 63000000 cycles: 800507088 heartbeat IPC: 0.0776591 cumulative IPC: 0.0788511 (Simulation time: 0 hr 6 min 53 sec) 
Heartbeat CPU 0 instructions: 64000001 cycles: 807669292 heartbeat IPC: 0.139622 cumulative IPC: 0.0794918 (Simulation time: 0 hr 6 min 58 sec) 
Heartbeat CPU 0 instructions: 65000000 cycles: 816161320 heartbeat IPC: 0.117757 cumulative IPC: 0.0799643 (Simulation time: 0 hr 7 min 3 sec) 
Heartbeat CPU 0 instructions: 66000000 cycles: 834968116 heartbeat IPC: 0.0531723 cumulative IPC: 0.0792512 (Simulation time: 0 hr 7 min 13 sec) 
Heartbeat CPU 0 instructions: 67000000 cycles: 842049394 heartbeat IPC: 0.141217 cumulative IPC: 0.079866 (Simulation time: 0 hr 7 min 17 sec) 
Heartbeat CPU 0 instructions: 68000001 cycles: 848790045 heartbeat IPC: 0.148354 cumulative IPC: 0.0805068 (Simulation time: 0 hr 7 min 22 sec) 
Heartbeat CPU 0 instructions: 69000001 cycles: 864989606 heartbeat IPC: 0.0617301 cumulative IPC: 0.0800939 (Simulation time: 0 hr 7 min 31 sec) 
Heartbeat CPU 0 instructions: 70000001 cycles: 876374234 heartbeat IPC: 0.0878377 cumulative IPC: 0.0802118 (Simulation time: 0 hr 7 min 37 sec) 
Heartbeat CPU 0 instructions: 71000000 cycles: 883063191 heartbeat IPC: 0.1495 cumulative IPC: 0.0808259 (Simulation time: 0 hr 7 min 42 sec) 
Heartbeat CPU 0 instructions: 72000002 cycles: 892122463 heartbeat IPC: 0.110384 cumulative IPC: 0.0811765 (Simulation time: 0 hr 7 min 47 sec) 
Heartbeat CPU 0 instructions: 73000000 cycles: 910265059 heartbeat IPC: 0.0551188 cumulative IPC: 0.0805718 (Simulation time: 0 hr 7 min 57 sec) 
Heartbeat CPU 0 instructions: 74000000 cycles: 917383792 heartbeat IPC: 0.140474 cumulative IPC: 0.0811123 (Simulation time: 0 hr 8 min 2 sec) 
Heartbeat CPU 0 instructions: 75000003 cycles: 924789763 heartbeat IPC: 0.135027 cumulative IPC: 0.0816136 (Simulation time: 0 hr 8 min 6 sec) 
Heartbeat CPU 0 instructions: 76000002 cycles: 939776579 heartbeat IPC: 0.0667252 cumulative IPC: 0.0813387 (Simulation time: 0 hr 8 min 15 sec) 
Heartbeat CPU 0 instructions: 77000000 cycles: 952839511 heartbeat IPC: 0.0765523 cumulative IPC: 0.0812628 (Simulation time: 0 hr 8 min 22 sec) 
Heartbeat CPU 0 instructions: 78000001 cycles: 961141264 heartbeat IPC: 0.120457 cumulative IPC: 0.0816535 (Simulation time: 0 hr 8 min 27 sec) 
Heartbeat CPU 0 instructions: 79000000 cycles: 969573338 heartbeat IPC: 0.118595 cumulative IPC: 0.0820238 (Simulation time: 0 hr 8 min 32 sec) 
Heartbeat CPU 0 instructions: 80000001 cycles: 989005328 heartbeat IPC: 0.0514616 cumulative IPC: 0.0813338 (Simulation time: 0 hr 8 min 42 sec) 
Heartbeat CPU 0 instructions: 81000000 cycles: 998253994 heartbeat IPC: 0.108124 cumulative IPC: 0.0816186 (Simulation time: 0 hr 8 min 47 sec) 
Heartbeat CPU 0 instructions: 82000002 cycles: 1007048181 heartbeat IPC: 0.113712 cumulative IPC: 0.0819398 (Simulation time: 0 hr 8 min 52 sec) 
Heartbeat CPU 0 instructions: 83000000 cycles: 1022948230 heartbeat IPC: 0.0628928 cumulative IPC: 0.0816013 (Simulation time: 0 hr 9 min 1 sec) 
Heartbeat CPU 0 instructions: 84000001 cycles: 1036991824 heartbeat IPC: 0.0712069 cumulative IPC: 0.0814406 (Simulation time: 0 hr 9 min 8 sec) 
Heartbeat CPU 0 instructions: 85000002 cycles: 1044627366 heartbeat IPC: 0.130967 cumulative IPC: 0.0818533 (Simulation time: 0 hr 9 min 13 sec) 
Heartbeat CPU 0 instructions: 86000000 cycles: 1054152216 heartbeat IPC: 0.104988 cumulative IPC: 0.0820913 (Simulation time: 0 hr 9 min 19 sec) 
Heartbeat CPU 0 instructions: 87000003 cycles: 1073195752 heartbeat IPC: 0.0525114 cumulative IPC: 0.0814952 (Simulation time: 0 hr 9 min 29 sec) 
Heartbeat CPU 0 instructions: 88000000 cycles: 1081349538 heartbeat IPC: 0.122642 cumulative IPC: 0.0818472 (Simulation time: 0 hr 9 min 34 sec) 
Heartbeat CPU 0 instructions: 89000000 cycles: 1090661019 heartbeat IPC: 0.107394 cumulative IPC: 0.0820944 (Simulation time: 0 hr 9 min 39 sec) 
Heartbeat CPU 0 instructions: 90000003 cycles: 1107907845 heartbeat IPC: 0.0579819 cumulative IPC: 0.0816699 (Simulation time: 0 hr 9 min 48 sec) 
Heartbeat CPU 0 instructions: 91000002 cycles: 1119250265 heartbeat IPC: 0.0881645 cumulative IPC: 0.0817442 (Simulation time: 0 hr 9 min 55 sec) 
Heartbeat CPU 0 instructions: 92000000 cycles: 1127558110 heartbeat IPC: 0.120368 cumulative IPC: 0.0820653 (Simulation time: 0 hr 10 min 0 sec) 
Heartbeat CPU 0 instructions: 93000000 cycles: 1141267179 heartbeat IPC: 0.0729444 cumulative IPC: 0.0819419 (Simulation time: 0 hr 10 min 7 sec) 
Heartbeat CPU 0 instructions: 94000000 cycles: 1156664401 heartbeat IPC: 0.0649468 cumulative IPC: 0.0816874 (Simulation time: 0 hr 10 min 16 sec) 
Heartbeat CPU 0 instructions: 95000001 cycles: 1165751435 heartbeat IPC: 0.110047 cumulative IPC: 0.0819358 (Simulation time: 0 hr 10 min 21 sec) 
Heartbeat CPU 0 instructions: 96000000 cycles: 1174909186 heartbeat IPC: 0.109197 cumulative IPC: 0.0821744 (Simulation time: 0 hr 10 min 26 sec) 
Heartbeat CPU 0 instructions: 97000003 cycles: 1194671501 heartbeat IPC: 0.0506015 cumulative IPC: 0.0815892 (Simulation time: 0 hr 10 min 37 sec) 
Heartbeat CPU 0 instructions: 98000000 cycles: 1203773426 heartbeat IPC: 0.109867 cumulative IPC: 0.0818286 (Simulation time: 0 hr 10 min 42 sec) 
Heartbeat CPU 0 instructions: 99000000 cycles: 1212564037 heartbeat IPC: 0.113758 cumulative IPC: 0.0820874 (Simulation time: 0 hr 10 min 47 sec) 
Heartbeat CPU 0 instructions: 100000002 cycles: 1229710992 heartbeat IPC: 0.0583195 cumulative IPC: 0.0817174 (Simulation time: 0 hr 10 min 56 sec) 
Heartbeat CPU 0 instructions: 101000000 cycles: 1242719992 heartbeat IPC: 0.0768697 cumulative IPC: 0.0816608 (Simulation time: 0 hr 11 min 3 sec) 
Heartbeat CPU 0 instructions: 102000001 cycles: 1252650614 heartbeat IPC: 0.100699 cumulative IPC: 0.081829 (Simulation time: 0 hr 11 min 8 sec) 
Heartbeat CPU 0 instructions: 103000000 cycles: 1261311429 heartbeat IPC: 0.115462 cumulative IPC: 0.0820861 (Simulation time: 0 hr 11 min 13 sec) 
Heartbeat CPU 0 instructions: 104000003 cycles: 1281194304 heartbeat IPC: 0.0502947 cumulative IPC: 0.0815378 (Simulation time: 0 hr 11 min 24 sec) 
Heartbeat CPU 0 instructions: 105000000 cycles: 1292216804 heartbeat IPC: 0.0907232 cumulative IPC: 0.0816248 (Simulation time: 0 hr 11 min 29 sec) 
Heartbeat CPU 0 instructions: 106000001 cycles: 1301508240 heartbeat IPC: 0.107626 cumulative IPC: 0.0818307 (Simulation time: 0 hr 11 min 35 sec) 
Heartbeat CPU 0 instructions: 107000001 cycles: 1314033534 heartbeat IPC: 0.0798384 cumulative IPC: 0.0818096 (Simulation time: 0 hr 11 min 41 sec) 
Heartbeat CPU 0 instructions: 108000000 cycles: 1331635688 heartbeat IPC: 0.0568112 cumulative IPC: 0.081444 (Simulation time: 0 hr 11 min 51 sec) 
Heartbeat CPU 0 instructions: 109000001 cycles: 1340904346 heartbeat IPC: 0.107891 cumulative IPC: 0.0816461 (Simulation time: 0 hr 11 min 56 sec) 
Heartbeat CPU 0 instructions: 110000000 cycles: 1351840342 heartbeat IPC: 0.0914411 cumulative IPC: 0.0817337 (Simulation time: 0 hr 12 min 1 sec) 
Heartbeat CPU 0 instructions: 111000002 cycles: 1368325773 heartbeat IPC: 0.0606597 cumulative IPC: 0.0814535 (Simulation time: 0 hr 12 min 10 sec) 
Heartbeat CPU 0 instructions: 112000001 cycles: 1382783142 heartbeat IPC: 0.0691688 cumulative IPC: 0.0813119 (Simulation time: 0 hr 12 min 18 sec) 
Heartbeat CPU 0 instructions: 113000000 cycles: 1392690798 heartbeat IPC: 0.100932 cumulative IPC: 0.0814656 (Simulation time: 0 hr 12 min 23 sec) 
Heartbeat CPU 0 instructions: 114000000 cycles: 1403119396 heartbeat IPC: 0.0958902 cumulative IPC: 0.0815836 (Simulation time: 0 hr 12 min 29 sec) 
Heartbeat CPU 0 instructions: 115000001 cycles: 1419934994 heartbeat IPC: 0.0594687 cumulative IPC: 0.0812957 (Simulation time: 0 hr 12 min 37 sec) 
Heartbeat CPU 0 instructions: 116000003 cycles: 1435045628 heartbeat IPC: 0.0661787 cumulative IPC: 0.0811209 (Simulation time: 0 hr 12 min 45 sec) 
Heartbeat CPU 0 instructions: 117000000 cycles: 1446210055 heartbeat IPC: 0.0895699 cumulative IPC: 0.0811925 (Simulation time: 0 hr 12 min 51 sec) 
Heartbeat CPU 0 instructions: 118000001 cycles: 1456925931 heartbeat IPC: 0.0933196 cumulative IPC: 0.0812903 (Simulation time: 0 hr 12 min 56 sec) 
Heartbeat CPU 0 instructions: 119000002 cycles: 1468554637 heartbeat IPC: 0.0859942 cumulative IPC: 0.0813311 (Simulation time: 0 hr 13 min 3 sec) 
Heartbeat CPU 0 instructions: 120000002 cycles: 1486825237 heartbeat IPC: 0.0547327 cumulative IPC: 0.0809734 (Simulation time: 0 hr 13 min 12 sec) 
Heartbeat CPU 0 instructions: 121000000 cycles: 1497453331 heartbeat IPC: 0.0940901 cumulative IPC: 0.0810752 (Simulation time: 0 hr 13 min 18 sec) 
Heartbeat CPU 0 instructions: 122000002 cycles: 1508712400 heartbeat IPC: 0.0888175 cumulative IPC: 0.0811384 (Simulation time: 0 hr 13 min 23 sec) 
Heartbeat CPU 0 instructions: 123000003 cycles: 1519832964 heartbeat IPC: 0.0899236 cumulative IPC: 0.0812086 (Simulation time: 0 hr 13 min 29 sec) 
Heartbeat CPU 0 instructions: 124000000 cycles: 1539878022 heartbeat IPC: 0.0498875 cumulative IPC: 0.0807638 (Simulation time: 0 hr 13 min 39 sec) 
Heartbeat CPU 0 instructions: 125000002 cycles: 1550968659 heartbeat IPC: 0.0901663 cumulative IPC: 0.0808371 (Simulation time: 0 hr 13 min 45 sec) 
Heartbeat CPU 0 instructions: 126000001 cycles: 1562714680 heartbeat IPC: 0.0851351 cumulative IPC: 0.0808723 (Simulation time: 0 hr 13 min 50 sec) 
Heartbeat CPU 0 instructions: 127000000 cycles: 1573502242 heartbeat IPC: 0.0926993 cumulative IPC: 0.0809606 (Simulation time: 0 hr 13 min 56 sec) 
Heartbeat CPU 0 instructions: 128000002 cycles: 1588506294 heartbeat IPC: 0.0666488 cumulative IPC: 0.0808135 (Simulation time: 0 hr 14 min 4 sec) 
Heartbeat CPU 0 instructions: 129000001 cycles: 1606320983 heartbeat IPC: 0.0561334 cumulative IPC: 0.080516 (Simulation time: 0 hr 14 min 14 sec) 
Heartbeat CPU 0 instructions: 130000000 cycles: 1616906269 heartbeat IPC: 0.0944707 cumulative IPC: 0.0806153 (Simulation time: 0 hr 14 min 20 sec) 
Heartbeat CPU 0 instructions: 131000000 cycles: 1625686927 heartbeat IPC: 0.113887 cumulative IPC: 0.0808104 (Simulation time: 0 hr 14 min 24 sec) 
Heartbeat CPU 0 instructions: 132000000 cycles: 1640251176 heartbeat IPC: 0.0686613 cumulative IPC: 0.0806933 (Simulation time: 0 hr 14 min 32 sec) 
Heartbeat CPU 0 instructions: 133000000 cycles: 1655127180 heartbeat IPC: 0.0672224 cumulative IPC: 0.0805621 (Simulation time: 0 hr 14 min 39 sec) 
Heartbeat CPU 0 instructions: 134000000 cycles: 1663615750 heartbeat IPC: 0.117805 cumulative IPC: 0.080768 (Simulation time: 0 hr 14 min 44 sec) 
Heartbeat CPU 0 instructions: 135000000 cycles: 1671397493 heartbeat IPC: 0.128506 cumulative IPC: 0.0810087 (Simulation time: 0 hr 14 min 49 sec) 
Heartbeat CPU 0 instructions: 136000000 cycles: 1687304592 heartbeat IPC: 0.062865 cumulative IPC: 0.0808236 (Simulation time: 0 hr 14 min 58 sec) 
Heartbeat CPU 0 instructions: 137000001 cycles: 1702185788 heartbeat IPC: 0.067199 cumulative IPC: 0.0806948 (Simulation time: 0 hr 15 min 6 sec) 
Heartbeat CPU 0 instructions: 138000001 cycles: 1713136598 heartbeat IPC: 0.0913174 cumulative IPC: 0.0807682 (Simulation time: 0 hr 15 min 11 sec) 
Heartbeat CPU 0 instructions: 139000002 cycles: 1724231785 heartbeat IPC: 0.0901293 cumulative IPC: 0.0808333 (Simulation time: 0 hr 15 min 17 sec) 
Heartbeat CPU 0 instructions: 140000000 cycles: 1734974299 heartbeat IPC: 0.0930879 cumulative IPC: 0.0809152 (Simulation time: 0 hr 15 min 23 sec) 
Heartbeat CPU 0 instructions: 141000001 cycles: 1754972785 heartbeat IPC: 0.0500038 cumulative IPC: 0.0805352 (Simulation time: 0 hr 15 min 33 sec) 
Heartbeat CPU 0 instructions: 142000000 cycles: 1765009426 heartbeat IPC: 0.0996348 cumulative IPC: 0.0806523 (Simulation time: 0 hr 15 min 39 sec) 
Heartbeat CPU 0 instructions: 143000000 cycles: 1775559654 heartbeat IPC: 0.0947847 cumulative IPC: 0.0807428 (Simulation time: 0 hr 15 min 44 sec) 
Heartbeat CPU 0 instructions: 144000003 cycles: 1785960752 heartbeat IPC: 0.096144 cumulative IPC: 0.0808394 (Simulation time: 0 hr 15 min 50 sec) 
Heartbeat CPU 0 instructions: 145000000 cycles: 1805361840 heartbeat IPC: 0.0515433 cumulative IPC: 0.0805005 (Simulation time: 0 hr 16 min 0 sec) 
Heartbeat CPU 0 instructions: 146000001 cycles: 1816957896 heartbeat IPC: 0.0862363 cumulative IPC: 0.0805399 (Simulation time: 0 hr 16 min 6 sec) 
Heartbeat CPU 0 instructions: 147000000 cycles: 1828226792 heartbeat IPC: 0.0887397 cumulative IPC: 0.0805943 (Simulation time: 0 hr 16 min 11 sec) 
Heartbeat CPU 0 instructions: 148000000 cycles: 1839183405 heartbeat IPC: 0.0912691 cumulative IPC: 0.0806626 (Simulation time: 0 hr 16 min 18 sec) 
Heartbeat CPU 0 instructions: 149000000 cycles: 1856069728 heartbeat IPC: 0.0592195 cumulative IPC: 0.0804531 (Simulation time: 0 hr 16 min 27 sec) 
Heartbeat CPU 0 instructions: 150000001 cycles: 1870770799 heartbeat IPC: 0.0680223 cumulative IPC: 0.0803482 (Simulation time: 0 hr 16 min 34 sec) 
Heartbeat CPU 0 instructions: 151000000 cycles: 1883254952 heartbeat IPC: 0.0801015 cumulative IPC: 0.0803464 (Simulation time: 0 hr 16 min 40 sec) 
Heartbeat CPU 0 instructions: 152000002 cycles: 1894631468 heartbeat IPC: 0.0879005 cumulative IPC: 0.0803951 (Simulation time: 0 hr 16 min 46 sec) 
Heartbeat CPU 0 instructions: 153000000 cycles: 1905787781 heartbeat IPC: 0.0896352 cumulative IPC: 0.0804531 (Simulation time: 0 hr 16 min 52 sec) 
Heartbeat CPU 0 instructions: 154000000 cycles: 1924278684 heartbeat IPC: 0.0540806 cumulative IPC: 0.0801815 (Simulation time: 0 hr 17 min 3 sec) 
Heartbeat CPU 0 instructions: 155000000 cycles: 1934719386 heartbeat IPC: 0.095779 cumulative IPC: 0.0802717 (Simulation time: 0 hr 17 min 8 sec) 
Heartbeat CPU 0 instructions: 156000000 cycles: 1945460033 heartbeat IPC: 0.0931043 cumulative IPC: 0.0803476 (Simulation time: 0 hr 17 min 14 sec) 
Heartbeat CPU 0 instructions: 157000001 cycles: 1956504888 heartbeat IPC: 0.09054 cumulative IPC: 0.0804091 (Simulation time: 0 hr 17 min 20 sec) 
Heartbeat CPU 0 instructions: 158000002 cycles: 1975112915 heartbeat IPC: 0.0537403 cumulative IPC: 0.0801404 (Simulation time: 0 hr 17 min 29 sec) 
Heartbeat CPU 0 instructions: 159000000 cycles: 1989888272 heartbeat IPC: 0.0676801 cumulative IPC: 0.0800415 (Simulation time: 0 hr 17 min 36 sec) 
Heartbeat CPU 0 instructions: 160000002 cycles: 2000399509 heartbeat IPC: 0.0951365 cumulative IPC: 0.0801263 (Simulation time: 0 hr 17 min 42 sec) 
Heartbeat CPU 0 instructions: 161000000 cycles: 2011616542 heartbeat IPC: 0.08915 cumulative IPC: 0.08018 (Simulation time: 0 hr 17 min 48 sec) 
Heartbeat CPU 0 instructions: 162000000 cycles: 2022387605 heartbeat IPC: 0.0928413 cumulative IPC: 0.080252 (Simulation time: 0 hr 17 min 53 sec) 
Heartbeat CPU 0 instructions: 163000003 cycles: 2042107319 heartbeat IPC: 0.0507108 cumulative IPC: 0.0799476 (Simulation time: 0 hr 18 min 4 sec) 
Heartbeat CPU 0 instructions: 164000002 cycles: 2054754452 heartbeat IPC: 0.0790692 cumulative IPC: 0.0799419 (Simulation time: 0 hr 18 min 10 sec) 
Heartbeat CPU 0 instructions: 165000000 cycles: 2065508840 heartbeat IPC: 0.0929851 cumulative IPC: 0.0800143 (Simulation time: 0 hr 18 min 15 sec) 
Heartbeat CPU 0 instructions: 166000001 cycles: 2076340282 heartbeat IPC: 0.0923239 cumulative IPC: 0.0800827 (Simulation time: 0 hr 18 min 21 sec) 
Heartbeat CPU 0 instructions: 167000003 cycles: 2090083149 heartbeat IPC: 0.0727652 cumulative IPC: 0.0800314 (Simulation time: 0 hr 18 min 28 sec) 
Heartbeat CPU 0 instructions: 168000000 cycles: 2107408897 heartbeat IPC: 0.0577174 cumulative IPC: 0.0798361 (Simulation time: 0 hr 18 min 37 sec) 
Heartbeat CPU 0 instructions: 169000002 cycles: 2118580041 heartbeat IPC: 0.0895165 cumulative IPC: 0.0798904 (Simulation time: 0 hr 18 min 43 sec) 
Heartbeat CPU 0 instructions: 170000000 cycles: 2128722481 heartbeat IPC: 0.0985954 cumulative IPC: 0.0799853 (Simulation time: 0 hr 18 min 48 sec) 
Heartbeat CPU 0 instructions: 171000002 cycles: 2139916657 heartbeat IPC: 0.0893323 cumulative IPC: 0.0800373 (Simulation time: 0 hr 18 min 54 sec) 
Heartbeat CPU 0 instructions: 172000002 cycles: 2159672922 heartbeat IPC: 0.0506169 cumulative IPC: 0.0797511 (Simulation time: 0 hr 19 min 4 sec) 
Heartbeat CPU 0 instructions: 173000001 cycles: 2170471055 heartbeat IPC: 0.0926085 cumulative IPC: 0.0798191 (Simulation time: 0 hr 19 min 9 sec) 
Heartbeat CPU 0 instructions: 174000001 cycles: 2185188770 heartbeat IPC: 0.0679453 cumulative IPC: 0.0797342 (Simulation time: 0 hr 19 min 16 sec) 
Heartbeat CPU 0 instructions: 175000000 cycles: 2195080138 heartbeat IPC: 0.101098 cumulative IPC: 0.0798364 (Simulation time: 0 hr 19 min 21 sec) 
Heartbeat CPU 0 instructions: 176000000 cycles: 2212291362 heartbeat IPC: 0.0581016 cumulative IPC: 0.0796569 (Simulation time: 0 hr 19 min 30 sec) 
Heartbeat CPU 0 instructions: 177000000 cycles: 2226048587 heartbeat IPC: 0.0726891 cumulative IPC: 0.0796112 (Simulation time: 0 hr 19 min 37 sec) 
Heartbeat CPU 0 instructions: 178000000 cycles: 2235207527 heartbeat IPC: 0.109183 cumulative IPC: 0.0797398 (Simulation time: 0 hr 19 min 42 sec) 
Heartbeat CPU 0 instructions: 179000002 cycles: 2243327602 heartbeat IPC: 0.123152 cumulative IPC: 0.0799064 (Simulation time: 0 hr 19 min 47 sec) 
Heartbeat CPU 0 instructions: 180000001 cycles: 2260399817 heartbeat IPC: 0.0585747 cumulative IPC: 0.0797356 (Simulation time: 0 hr 19 min 56 sec) 
Heartbeat CPU 0 instructions: 181000000 cycles: 2273101338 heartbeat IPC: 0.0787307 cumulative IPC: 0.0797297 (Simulation time: 0 hr 20 min 2 sec) 
Heartbeat CPU 0 instructions: 182000003 cycles: 2283026585 heartbeat IPC: 0.100753 cumulative IPC: 0.0798265 (Simulation time: 0 hr 20 min 8 sec) 
Heartbeat CPU 0 instructions: 183000000 cycles: 2294459466 heartbeat IPC: 0.0874668 cumulative IPC: 0.0798668 (Simulation time: 0 hr 20 min 13 sec) 
Heartbeat CPU 0 instructions: 184000000 cycles: 2308041929 heartbeat IPC: 0.0736244 cumulative IPC: 0.0798279 (Simulation time: 0 hr 20 min 20 sec) 
Heartbeat CPU 0 instructions: 185000000 cycles: 2326054174 heartbeat IPC: 0.0555178 cumulative IPC: 0.0796287 (Simulation time: 0 hr 20 min 29 sec) 
Heartbeat CPU 0 instructions: 186000000 cycles: 2336650355 heartbeat IPC: 0.0943736 cumulative IPC: 0.0796995 (Simulation time: 0 hr 20 min 35 sec) 
Heartbeat CPU 0 instructions: 187000000 cycles: 2346804812 heartbeat IPC: 0.0984789 cumulative IPC: 0.0797854 (Simulation time: 0 hr 20 min 40 sec) 
Heartbeat CPU 0 instructions: 188000001 cycles: 2357950699 heartbeat IPC: 0.0897193 cumulative IPC: 0.0798351 (Simulation time: 0 hr 20 min 46 sec) 
Heartbeat CPU 0 instructions: 189000000 cycles: 2373062378 heartbeat IPC: 0.0661739 cumulative IPC: 0.0797431 (Simulation time: 0 hr 20 min 54 sec) 
Heartbeat CPU 0 instructions: 190000000 cycles: 2390081580 heartbeat IPC: 0.0587572 cumulative IPC: 0.0795852 (Simulation time: 0 hr 21 min 3 sec) 
Heartbeat CPU 0 instructions: 191000001 cycles: 2398984426 heartbeat IPC: 0.112324 cumulative IPC: 0.0797136 (Simulation time: 0 hr 21 min 8 sec) 
Heartbeat CPU 0 instructions: 192000000 cycles: 2407511561 heartbeat IPC: 0.117273 cumulative IPC: 0.0798541 (Simulation time: 0 hr 21 min 13 sec) 
Heartbeat CPU 0 instructions: 193000003 cycles: 2422670523 heartbeat IPC: 0.0659678 cumulative IPC: 0.0797623 (Simulation time: 0 hr 21 min 21 sec) 
Heartbeat CPU 0 instructions: 194000000 cycles: 2436294295 heartbeat IPC: 0.0734009 cumulative IPC: 0.0797248 (Simulation time: 0 hr 21 min 28 sec) 
Heartbeat CPU 0 instructions: 195000000 cycles: 2443848457 heartbeat IPC: 0.132377 cumulative IPC: 0.0798965 (Simulation time: 0 hr 21 min 33 sec) 
Heartbeat CPU 0 instructions: 196000000 cycles: 2459143130 heartbeat IPC: 0.0653822 cumulative IPC: 0.0798013 (Simulation time: 0 hr 21 min 41 sec) 
Heartbeat CPU 0 instructions: 197000001 cycles: 2471924273 heartbeat IPC: 0.0782403 cumulative IPC: 0.0797928 (Simulation time: 0 hr 21 min 47 sec) 
Heartbeat CPU 0 instructions: 198000000 cycles: 2491587036 heartbeat IPC: 0.0508575 cumulative IPC: 0.079552 (Simulation time: 0 hr 21 min 58 sec) 
Heartbeat CPU 0 instructions: 199000000 cycles: 2502340878 heartbeat IPC: 0.09299 cumulative IPC: 0.0796129 (Simulation time: 0 hr 22 min 3 sec) 
Heartbeat CPU 0 instructions: 200000000 cycles: 2511401290 heartbeat IPC: 0.11037 cumulative IPC: 0.0797299 (Simulation time: 0 hr 22 min 8 sec) 
Heartbeat CPU 0 instructions: 201000000 cycles: 2522253208 heartbeat IPC: 0.0921496 cumulative IPC: 0.0797862 (Simulation time: 0 hr 22 min 13 sec) 
Heartbeat CPU 0 instructions: 202000001 cycles: 2542044314 heartbeat IPC: 0.0505278 cumulative IPC: 0.0795463 (Simulation time: 0 hr 22 min 23 sec) 
Heartbeat CPU 0 instructions: 203000000 cycles: 2556535952 heartbeat IPC: 0.0690052 cumulative IPC: 0.0794833 (Simulation time: 0 hr 22 min 29 sec) 
Heartbeat CPU 0 instructions: 204000001 cycles: 2566323997 heartbeat IPC: 0.102166 cumulative IPC: 0.0795744 (Simulation time: 0 hr 22 min 34 sec) 
Heartbeat CPU 0 instructions: 205000000 cycles: 2576825077 heartbeat IPC: 0.0952282 cumulative IPC: 0.0796415 (Simulation time: 0 hr 22 min 40 sec) 
Heartbeat CPU 0 instructions: 206000000 cycles: 2595896978 heartbeat IPC: 0.0524332 cumulative IPC: 0.0794313 (Simulation time: 0 hr 22 min 49 sec) 
Heartbeat CPU 0 instructions: 207000000 cycles: 2606037389 heartbeat IPC: 0.0986153 cumulative IPC: 0.0795098 (Simulation time: 0 hr 22 min 54 sec) 
Heartbeat CPU 0 instructions: 208000002 cycles: 2615185169 heartbeat IPC: 0.109316 cumulative IPC: 0.0796194 (Simulation time: 0 hr 22 min 59 sec) 
Heartbeat CPU 0 instructions: 209000000 cycles: 2625642027 heartbeat IPC: 0.0956308 cumulative IPC: 0.0796864 (Simulation time: 0 hr 23 min 4 sec) 
Heartbeat CPU 0 instructions: 210000000 cycles: 2643710856 heartbeat IPC: 0.0553439 cumulative IPC: 0.0795116 (Simulation time: 0 hr 23 min 13 sec) 
Heartbeat CPU 0 instructions: 211000001 cycles: 2656417908 heartbeat IPC: 0.0786965 cumulative IPC: 0.0795075 (Simulation time: 0 hr 23 min 19 sec) 
Heartbeat CPU 0 instructions: 212000000 cycles: 2667960781 heartbeat IPC: 0.0866335 cumulative IPC: 0.0795399 (Simulation time: 0 hr 23 min 25 sec) 
Heartbeat CPU 0 instructions: 213000002 cycles: 2680577476 heartbeat IPC: 0.0792602 cumulative IPC: 0.0795385 (Simulation time: 0 hr 23 min 31 sec) 
Heartbeat CPU 0 instructions: 214000001 cycles: 2691902756 heartbeat IPC: 0.0882979 cumulative IPC: 0.0795772 (Simulation time: 0 hr 23 min 36 sec) 
Heartbeat CPU 0 instructions: 215000003 cycles: 2709191182 heartbeat IPC: 0.0578423 cumulative IPC: 0.0794316 (Simulation time: 0 hr 23 min 44 sec) 
Heartbeat CPU 0 instructions: 216000002 cycles: 2724226600 heartbeat IPC: 0.0665096 cumulative IPC: 0.0793568 (Simulation time: 0 hr 23 min 51 sec) 
Heartbeat CPU 0 instructions: 217000001 cycles: 2740712119 heartbeat IPC: 0.0606592 cumulative IPC: 0.0792388 (Simulation time: 0 hr 23 min 58 sec) 
Heartbeat CPU 0 instructions: 218000001 cycles: 2752508551 heartbeat IPC: 0.0847714 cumulative IPC: 0.0792636 (Simulation time: 0 hr 24 min 4 sec) 
Heartbeat CPU 0 instructions: 219000000 cycles: 2763680124 heartbeat IPC: 0.0895128 cumulative IPC: 0.0793071 (Simulation time: 0 hr 24 min 9 sec) 
Heartbeat CPU 0 instructions: 220000000 cycles: 2779692233 heartbeat IPC: 0.0624527 cumulative IPC: 0.0792053 (Simulation time: 0 hr 24 min 17 sec) 
Heartbeat CPU 0 instructions: 221000000 cycles: 2795517987 heartbeat IPC: 0.0631881 cumulative IPC: 0.0791102 (Simulation time: 0 hr 24 min 24 sec) 
Heartbeat CPU 0 instructions: 222000000 cycles: 2807252383 heartbeat IPC: 0.0852196 cumulative IPC: 0.079137 (Simulation time: 0 hr 24 min 30 sec) 
Heartbeat CPU 0 instructions: 223000002 cycles: 2818273147 heartbeat IPC: 0.090738 cumulative IPC: 0.0791845 (Simulation time: 0 hr 24 min 35 sec) 
Heartbeat CPU 0 instructions: 224000000 cycles: 2828676996 heartbeat IPC: 0.0961181 cumulative IPC: 0.0792498 (Simulation time: 0 hr 24 min 40 sec) 
Heartbeat CPU 0 instructions: 225000003 cycles: 2848603470 heartbeat IPC: 0.0501846 cumulative IPC: 0.0790369 (Simulation time: 0 hr 24 min 50 sec) 
Heartbeat CPU 0 instructions: 226000001 cycles: 2859014535 heartbeat IPC: 0.0960515 cumulative IPC: 0.0791017 (Simulation time: 0 hr 24 min 55 sec) 
Heartbeat CPU 0 instructions: 227000000 cycles: 2870959618 heartbeat IPC: 0.0837164 cumulative IPC: 0.0791218 (Simulation time: 0 hr 25 min 1 sec) 
Heartbeat CPU 0 instructions: 228000000 cycles: 2882534677 heartbeat IPC: 0.0863926 cumulative IPC: 0.0791524 (Simulation time: 0 hr 25 min 6 sec) 
Heartbeat CPU 0 instructions: 229000001 cycles: 2894842305 heartbeat IPC: 0.0812505 cumulative IPC: 0.0791617 (Simulation time: 0 hr 25 min 12 sec) 
Heartbeat CPU 0 instructions: 230000002 cycles: 2910826265 heartbeat IPC: 0.0625628 cumulative IPC: 0.0790664 (Simulation time: 0 hr 25 min 20 sec) 
Heartbeat CPU 0 instructions: 231000000 cycles: 2926524231 heartbeat IPC: 0.0637024 cumulative IPC: 0.0789802 (Simulation time: 0 hr 25 min 27 sec) 
Heartbeat CPU 0 instructions: 232000000 cycles: 2937210114 heartbeat IPC: 0.0935814 cumulative IPC: 0.0790357 (Simulation time: 0 hr 25 min 33 sec) 
Heartbeat CPU 0 instructions: 233000003 cycles: 2948246936 heartbeat IPC: 0.0906061 cumulative IPC: 0.079081 (Simulation time: 0 hr 25 min 38 sec) 
Heartbeat CPU 0 instructions: 234000002 cycles: 2960274528 heartbeat IPC: 0.0831421 cumulative IPC: 0.0790983 (Simulation time: 0 hr 25 min 44 sec) 
Heartbeat CPU 0 instructions: 235000002 cycles: 2971443638 heartbeat IPC: 0.0895327 cumulative IPC: 0.0791393 (Simulation time: 0 hr 25 min 49 sec) 
Heartbeat CPU 0 instructions: 236000001 cycles: 2983376654 heartbeat IPC: 0.083801 cumulative IPC: 0.0791587 (Simulation time: 0 hr 25 min 55 sec) 
Heartbeat CPU 0 instructions: 237000002 cycles: 3002784288 heartbeat IPC: 0.0515262 cumulative IPC: 0.0789722 (Simulation time: 0 hr 26 min 4 sec) 
Heartbeat CPU 0 instructions: 238000001 cycles: 3014388742 heartbeat IPC: 0.0861737 cumulative IPC: 0.0790011 (Simulation time: 0 hr 26 min 10 sec) 
Heartbeat CPU 0 instructions: 239000001 cycles: 3026153790 heartbeat IPC: 0.0849975 cumulative IPC: 0.0790255 (Simulation time: 0 hr 26 min 16 sec) 
Heartbeat CPU 0 instructions: 240000000 cycles: 3036895367 heartbeat IPC: 0.0930961 cumulative IPC: 0.0790774 (Simulation time: 0 hr 26 min 21 sec) 
Heartbeat CPU 0 instructions: 241000000 cycles: 3048105087 heartbeat IPC: 0.0892083 cumulative IPC: 0.0791163 (Simulation time: 0 hr 26 min 26 sec) 
Heartbeat CPU 0 instructions: 242000000 cycles: 3061694657 heartbeat IPC: 0.0735858 cumulative IPC: 0.0790907 (Simulation time: 0 hr 26 min 33 sec) 
Heartbeat CPU 0 instructions: 243000002 cycles: 3080239492 heartbeat IPC: 0.0539235 cumulative IPC: 0.0789326 (Simulation time: 0 hr 26 min 42 sec) 
Heartbeat CPU 0 instructions: 244000000 cycles: 3091955132 heartbeat IPC: 0.0853558 cumulative IPC: 0.078958 (Simulation time: 0 hr 26 min 47 sec) 
Heartbeat CPU 0 instructions: 245000001 cycles: 3100623547 heartbeat IPC: 0.115361 cumulative IPC: 0.0790642 (Simulation time: 0 hr 26 min 52 sec) 
Heartbeat CPU 0 instructions: 246000003 cycles: 3112850419 heartbeat IPC: 0.0817872 cumulative IPC: 0.0790753 (Simulation time: 0 hr 26 min 58 sec) 
Heartbeat CPU 0 instructions: 247000002 cycles: 3123647246 heartbeat IPC: 0.0926197 cumulative IPC: 0.0791241 (Simulation time: 0 hr 27 min 3 sec) 
Heartbeat CPU 0 instructions: 248000000 cycles: 3135354248 heartbeat IPC: 0.0854188 cumulative IPC: 0.0791487 (Simulation time: 0 hr 27 min 9 sec) 
Heartbeat CPU 0 instructions: 249000000 cycles: 3151669110 heartbeat IPC: 0.0612938 cumulative IPC: 0.0790523 (Simulation time: 0 hr 27 min 17 sec) 
Heartbeat CPU 0 instructions: 250000000 cycles: 3168739205 heartbeat IPC: 0.058582 cumulative IPC: 0.0789374 (Simulation time: 0 hr 27 min 26 sec) 
Heartbeat CPU 0 instructions: 251000001 cycles: 3179532401 heartbeat IPC: 0.0926511 cumulative IPC: 0.0789859 (Simulation time: 0 hr 27 min 31 sec) 
Heartbeat CPU 0 instructions: 252000002 cycles: 3189686470 heartbeat IPC: 0.0984828 cumulative IPC: 0.0790505 (Simulation time: 0 hr 27 min 37 sec) 
Heartbeat CPU 0 instructions: 253000000 cycles: 3201533122 heartbeat IPC: 0.0844119 cumulative IPC: 0.0790712 (Simulation time: 0 hr 27 min 43 sec) 
Heartbeat CPU 0 instructions: 254000002 cycles: 3212163099 heartbeat IPC: 0.0940738 cumulative IPC: 0.0791229 (Simulation time: 0 hr 27 min 48 sec) 
Heartbeat CPU 0 instructions: 255000001 cycles: 3222802849 heartbeat IPC: 0.0939871 cumulative IPC: 0.079174 (Simulation time: 0 hr 27 min 54 sec) 
Heartbeat CPU 0 instructions: 256000002 cycles: 3239316788 heartbeat IPC: 0.060555 cumulative IPC: 0.0790752 (Simulation time: 0 hr 28 min 3 sec) 
Heartbeat CPU 0 instructions: 257000000 cycles: 3247103760 heartbeat IPC: 0.128419 cumulative IPC: 0.0791984 (Simulation time: 0 hr 28 min 8 sec) 
Heartbeat CPU 0 instructions: 258000001 cycles: 3262797927 heartbeat IPC: 0.063718 cumulative IPC: 0.0791209 (Simulation time: 0 hr 28 min 16 sec) 
Heartbeat CPU 0 instructions: 259000000 cycles: 3268093976 heartbeat IPC: 0.18882 cumulative IPC: 0.0793059 (Simulation time: 0 hr 28 min 21 sec) 
Heartbeat CPU 0 instructions: 260000000 cycles: 3273614755 heartbeat IPC: 0.181134 cumulative IPC: 0.0794847 (Simulation time: 0 hr 28 min 25 sec) 
Heartbeat CPU 0 instructions: 261000001 cycles: 3293490230 heartbeat IPC: 0.0503133 cumulative IPC: 0.0793015 (Simulation time: 0 hr 28 min 36 sec) 
Heartbeat CPU 0 instructions: 262000002 cycles: 3299021855 heartbeat IPC: 0.180779 cumulative IPC: 0.0794785 (Simulation time: 0 hr 28 min 41 sec) 
Heartbeat CPU 0 instructions: 263000000 cycles: 3303883627 heartbeat IPC: 0.205686 cumulative IPC: 0.0796718 (Simulation time: 0 hr 28 min 46 sec) 
Heartbeat CPU 0 instructions: 264000000 cycles: 3308103596 heartbeat IPC: 0.236969 cumulative IPC: 0.0798805 (Simulation time: 0 hr 28 min 50 sec) 
Heartbeat CPU 0 instructions: 265000000 cycles: 3319734058 heartbeat IPC: 0.0859811 cumulative IPC: 0.0799027 (Simulation time: 0 hr 28 min 58 sec) 
Heartbeat CPU 0 instructions: 266000000 cycles: 3333280772 heartbeat IPC: 0.0738186 cumulative IPC: 0.079877 (Simulation time: 0 hr 29 min 6 sec) 
Heartbeat CPU 0 instructions: 267000001 cycles: 3338310651 heartbeat IPC: 0.198812 cumulative IPC: 0.0800634 (Simulation time: 0 hr 29 min 11 sec) 
Heartbeat CPU 0 instructions: 268000000 cycles: 3342986514 heartbeat IPC: 0.213864 cumulative IPC: 0.080258 (Simulation time: 0 hr 29 min 15 sec) 
Heartbeat CPU 0 instructions: 269000000 cycles: 3347436160 heartbeat IPC: 0.224737 cumulative IPC: 0.0804577 (Simulation time: 0 hr 29 min 20 sec) 
Heartbeat CPU 0 instructions: 270000000 cycles: 3365134342 heartbeat IPC: 0.056503 cumulative IPC: 0.0803267 (Simulation time: 0 hr 29 min 29 sec) 
Heartbeat CPU 0 instructions: 271000001 cycles: 3372507415 heartbeat IPC: 0.135629 cumulative IPC: 0.0804524 (Simulation time: 0 hr 29 min 37 sec) 
Heartbeat CPU 0 instructions: 272000001 cycles: 3377084110 heartbeat IPC: 0.218498 cumulative IPC: 0.0806469 (Simulation time: 0 hr 29 min 44 sec) 
Heartbeat CPU 0 instructions: 273000000 cycles: 3381560932 heartbeat IPC: 0.223373 cumulative IPC: 0.0808433 (Simulation time: 0 hr 29 min 52 sec) 
Heartbeat CPU 0 instructions: 274000000 cycles: 3388357284 heartbeat IPC: 0.147138 cumulative IPC: 0.0809815 (Simulation time: 0 hr 30 min 1 sec) 
Heartbeat CPU 0 instructions: 275000000 cycles: 3408111143 heartbeat IPC: 0.050623 cumulative IPC: 0.0807987 (Simulation time: 0 hr 30 min 18 sec) 
Heartbeat CPU 0 instructions: 276000000 cycles: 3414340550 heartbeat IPC: 0.160529 cumulative IPC: 0.0809498 (Simulation time: 0 hr 30 min 27 sec) 
Heartbeat CPU 0 instructions: 277000002 cycles: 3420732886 heartbeat IPC: 0.156438 cumulative IPC: 0.0810964 (Simulation time: 0 hr 30 min 36 sec) 
Heartbeat CPU 0 instructions: 278000000 cycles: 3426634375 heartbeat IPC: 0.169448 cumulative IPC: 0.0812545 (Simulation time: 0 hr 30 min 45 sec) 
Heartbeat CPU 0 instructions: 279000000 cycles: 3432719837 heartbeat IPC: 0.164326 cumulative IPC: 0.0814075 (Simulation time: 0 hr 30 min 53 sec) 
Heartbeat CPU 0 instructions: 280000001 cycles: 3446419179 heartbeat IPC: 0.0729963 cumulative IPC: 0.0813727 (Simulation time: 0 hr 31 min 7 sec) 
Heartbeat CPU 0 instructions: 281000000 cycles: 3459377133 heartbeat IPC: 0.0771726 cumulative IPC: 0.0813564 (Simulation time: 0 hr 31 min 20 sec) 
Heartbeat CPU 0 instructions: 282000001 cycles: 3466118988 heartbeat IPC: 0.148327 cumulative IPC: 0.0814917 (Simulation time: 0 hr 31 min 29 sec) 
Heartbeat CPU 0 instructions: 283000001 cycles: 3473591807 heartbeat IPC: 0.133818 cumulative IPC: 0.0816086 (Simulation time: 0 hr 31 min 38 sec) 
Heartbeat CPU 0 instructions: 284000000 cycles: 3480968001 heartbeat IPC: 0.135571 cumulative IPC: 0.0817273 (Simulation time: 0 hr 31 min 47 sec) 
Heartbeat CPU 0 instructions: 285000000 cycles: 3491220557 heartbeat IPC: 0.0975367 cumulative IPC: 0.0817755 (Simulation time: 0 hr 31 min 57 sec) 
Heartbeat CPU 0 instructions: 286000000 cycles: 3507218628 heartbeat IPC: 0.0625075 cumulative IPC: 0.0816842 (Simulation time: 0 hr 32 min 12 sec) 
Heartbeat CPU 0 instructions: 287000000 cycles: 3519463741 heartbeat IPC: 0.0816652 cumulative IPC: 0.0816842 (Simulation time: 0 hr 32 min 25 sec) 
Heartbeat CPU 0 instructions: 288000001 cycles: 3527485064 heartbeat IPC: 0.124668 cumulative IPC: 0.0817856 (Simulation time: 0 hr 32 min 34 sec) 
Heartbeat CPU 0 instructions: 289000000 cycles: 3535374999 heartbeat IPC: 0.126744 cumulative IPC: 0.0818897 (Simulation time: 0 hr 32 min 43 sec) 
Heartbeat CPU 0 instructions: 290000003 cycles: 3544136205 heartbeat IPC: 0.11414 cumulative IPC: 0.0819724 (Simulation time: 0 hr 32 min 52 sec) 
Heartbeat CPU 0 instructions: 291000003 cycles: 3555736769 heartbeat IPC: 0.0862027 cumulative IPC: 0.0819868 (Simulation time: 0 hr 33 min 3 sec) 
Heartbeat CPU 0 instructions: 292000000 cycles: 3574754055 heartbeat IPC: 0.0525836 cumulative IPC: 0.0818245 (Simulation time: 0 hr 33 min 20 sec) 
Heartbeat CPU 0 instructions: 293000000 cycles: 3586719233 heartbeat IPC: 0.0835759 cumulative IPC: 0.0818306 (Simulation time: 0 hr 33 min 30 sec) 
Heartbeat CPU 0 instructions: 294000000 cycles: 3599115831 heartbeat IPC: 0.0806673 cumulative IPC: 0.0818264 (Simulation time: 0 hr 33 min 40 sec) 
Heartbeat CPU 0 instructions: 295000000 cycles: 3610812341 heartbeat IPC: 0.0854956 cumulative IPC: 0.0818387 (Simulation time: 0 hr 33 min 50 sec) 
Heartbeat CPU 0 instructions: 296000000 cycles: 3623199510 heartbeat IPC: 0.0807287 cumulative IPC: 0.0818348 (Simulation time: 0 hr 34 min 0 sec) 
Heartbeat CPU 0 instructions: 297000000 cycles: 3635844696 heartbeat IPC: 0.0790815 cumulative IPC: 0.0818249 (Simulation time: 0 hr 34 min 11 sec) 
Heartbeat CPU 0 instructions: 298000002 cycles: 3653431323 heartbeat IPC: 0.0568615 cumulative IPC: 0.0817003 (Simulation time: 0 hr 34 min 27 sec) 
Heartbeat CPU 0 instructions: 299000000 cycles: 3667931439 heartbeat IPC: 0.0689648 cumulative IPC: 0.0816482 (Simulation time: 0 hr 34 min 41 sec) 
Heartbeat CPU 0 instructions: 300000000 cycles: 3680668818 heartbeat IPC: 0.0785091 cumulative IPC: 0.0816369 (Simulation time: 0 hr 34 min 52 sec) 
Heartbeat CPU 0 instructions: 301000000 cycles: 3693440267 heartbeat IPC: 0.0782996 cumulative IPC: 0.081625 (Simulation time: 0 hr 35 min 2 sec) 
Heartbeat CPU 0 instructions: 302000000 cycles: 3705549353 heartbeat IPC: 0.0825826 cumulative IPC: 0.0816282 (Simulation time: 0 hr 35 min 13 sec) 
Heartbeat CPU 0 instructions: 303000002 cycles: 3717370541 heartbeat IPC: 0.084594 cumulative IPC: 0.081638 (Simulation time: 0 hr 35 min 23 sec) 
Heartbeat CPU 0 instructions: 304000000 cycles: 3729794104 heartbeat IPC: 0.080492 cumulative IPC: 0.081634 (Simulation time: 0 hr 35 min 33 sec) 
Heartbeat CPU 0 instructions: 305000003 cycles: 3749542132 heartbeat IPC: 0.0506381 cumulative IPC: 0.081465 (Simulation time: 0 hr 35 min 51 sec) 
Heartbeat CPU 0 instructions: 306000000 cycles: 3762078221 heartbeat IPC: 0.0797695 cumulative IPC: 0.0814591 (Simulation time: 0 hr 36 min 3 sec) 
Heartbeat CPU 0 instructions: 307000001 cycles: 3773473535 heartbeat IPC: 0.0877555 cumulative IPC: 0.0814788 (Simulation time: 0 hr 36 min 13 sec) 
Heartbeat CPU 0 instructions: 308000000 cycles: 3785955170 heartbeat IPC: 0.0801176 cumulative IPC: 0.0814742 (Simulation time: 0 hr 36 min 23 sec) 
Heartbeat CPU 0 instructions: 309000000 cycles: 3799249656 heartbeat IPC: 0.0752192 cumulative IPC: 0.0814515 (Simulation time: 0 hr 36 min 35 sec) 
Heartbeat CPU 0 instructions: 310000000 cycles: 3812467498 heartbeat IPC: 0.0756553 cumulative IPC: 0.0814307 (Simulation time: 0 hr 36 min 46 sec) 
Heartbeat CPU 0 instructions: 311000000 cycles: 3825497851 heartbeat IPC: 0.0767439 cumulative IPC: 0.0814142 (Simulation time: 0 hr 36 min 57 sec) 
Heartbeat CPU 0 instructions: 312000001 cycles: 3840306731 heartbeat IPC: 0.0675271 cumulative IPC: 0.0813588 (Simulation time: 0 hr 37 min 10 sec) 
Heartbeat CPU 0 instructions: 313000000 cycles: 3858040474 heartbeat IPC: 0.0563896 cumulative IPC: 0.0812401 (Simulation time: 0 hr 37 min 26 sec) 
Heartbeat CPU 0 instructions: 314000000 cycles: 3864740349 heartbeat IPC: 0.149257 cumulative IPC: 0.081362 (Simulation time: 0 hr 37 min 35 sec) 
Heartbeat CPU 0 instructions: 315000000 cycles: 3870910900 heartbeat IPC: 0.16206 cumulative IPC: 0.0814951 (Simulation time: 0 hr 37 min 43 sec) 
Heartbeat CPU 0 instructions: 316000000 cycles: 3886697897 heartbeat IPC: 0.0633433 cumulative IPC: 0.0814188 (Simulation time: 0 hr 37 min 58 sec) 
Heartbeat CPU 0 instructions: 317000000 cycles: 3897678253 heartbeat IPC: 0.0910717 cumulative IPC: 0.081447 (Simulation time: 0 hr 38 min 10 sec) 
Heartbeat CPU 0 instructions: 318000003 cycles: 3902882842 heartbeat IPC: 0.192139 cumulative IPC: 0.0815996 (Simulation time: 0 hr 38 min 17 sec) 
Heartbeat CPU 0 instructions: 319000000 cycles: 3920526905 heartbeat IPC: 0.0566761 cumulative IPC: 0.0814836 (Simulation time: 0 hr 38 min 32 sec) 
Heartbeat CPU 0 instructions: 320000001 cycles: 3933803378 heartbeat IPC: 0.0753213 cumulative IPC: 0.0814621 (Simulation time: 0 hr 38 min 46 sec) 
Heartbeat CPU 0 instructions: 321000000 cycles: 3946670806 heartbeat IPC: 0.0777155 cumulative IPC: 0.0814495 (Simulation time: 0 hr 39 min 0 sec) 
Heartbeat CPU 0 instructions: 322000002 cycles: 3951956979 heartbeat IPC: 0.189173 cumulative IPC: 0.0815984 (Simulation time: 0 hr 39 min 8 sec) 
Heartbeat CPU 0 instructions: 323000000 cycles: 3957115216 heartbeat IPC: 0.193864 cumulative IPC: 0.0817497 (Simulation time: 0 hr 39 min 15 sec) 
Heartbeat CPU 0 instructions: 324000002 cycles: 3977172641 heartbeat IPC: 0.0498569 cumulative IPC: 0.0815835 (Simulation time: 0 hr 39 min 35 sec) 
Heartbeat CPU 0 instructions: 325000000 cycles: 3983190357 heartbeat IPC: 0.166176 cumulative IPC: 0.0817155 (Simulation time: 0 hr 39 min 43 sec) 
Heartbeat CPU 0 instructions: 326000002 cycles: 3990019570 heartbeat IPC: 0.14643 cumulative IPC: 0.08183 (Simulation time: 0 hr 39 min 52 sec) 
Heartbeat CPU 0 instructions: 327000000 cycles: 4001927317 heartbeat IPC: 0.0839788 cumulative IPC: 0.0818366 (Simulation time: 0 hr 40 min 4 sec) 
Heartbeat CPU 0 instructions: 328000001 cycles: 4019398180 heartbeat IPC: 0.0572382 cumulative IPC: 0.0817261 (Simulation time: 0 hr 40 min 21 sec) 
Heartbeat CPU 0 instructions: 329000001 cycles: 4028998939 heartbeat IPC: 0.104158 cumulative IPC: 0.0817814 (Simulation time: 0 hr 40 min 30 sec) 
Heartbeat CPU 0 instructions: 330000000 cycles: 4039397138 heartbeat IPC: 0.0961704 cumulative IPC: 0.0818196 (Simulation time: 0 hr 40 min 40 sec) 
Heartbeat CPU 0 instructions: 331000003 cycles: 4050942159 heartbeat IPC: 0.0866177 cumulative IPC: 0.0818337 (Simulation time: 0 hr 40 min 50 sec) 
Heartbeat CPU 0 instructions: 332000003 cycles: 4067725440 heartbeat IPC: 0.0595831 cumulative IPC: 0.0817389 (Simulation time: 0 hr 41 min 6 sec) 
Heartbeat CPU 0 instructions: 333000000 cycles: 4083200889 heartbeat IPC: 0.0646183 cumulative IPC: 0.0816719 (Simulation time: 0 hr 41 min 21 sec) 
Heartbeat CPU 0 instructions: 334000000 cycles: 4095140636 heartbeat IPC: 0.0837539 cumulative IPC: 0.0816782 (Simulation time: 0 hr 41 min 31 sec) 
Heartbeat CPU 0 instructions: 335000002 cycles: 4107459342 heartbeat IPC: 0.0811775 cumulative IPC: 0.0816767 (Simulation time: 0 hr 41 min 42 sec) 
Heartbeat CPU 0 instructions: 336000000 cycles: 4118820220 heartbeat IPC: 0.0880212 cumulative IPC: 0.0816947 (Simulation time: 0 hr 41 min 53 sec) 
Heartbeat CPU 0 instructions: 337000000 cycles: 4130749828 heartbeat IPC: 0.0838251 cumulative IPC: 0.0817011 (Simulation time: 0 hr 42 min 3 sec) 
Heartbeat CPU 0 instructions: 338000000 cycles: 4146300214 heartbeat IPC: 0.0643071 cumulative IPC: 0.0816337 (Simulation time: 0 hr 42 min 18 sec) 
Heartbeat CPU 0 instructions: 339000002 cycles: 4162723207 heartbeat IPC: 0.0608904 cumulative IPC: 0.0815493 (Simulation time: 0 hr 42 min 33 sec) 
Heartbeat CPU 0 instructions: 340000001 cycles: 4174235371 heartbeat IPC: 0.0868646 cumulative IPC: 0.0815644 (Simulation time: 0 hr 42 min 42 sec) 
Heartbeat CPU 0 instructions: 341000000 cycles: 4185641323 heartbeat IPC: 0.0876734 cumulative IPC: 0.0815816 (Simulation time: 0 hr 42 min 53 sec) 
Heartbeat CPU 0 instructions: 342000000 cycles: 4196191223 heartbeat IPC: 0.0947876 cumulative IPC: 0.0816159 (Simulation time: 0 hr 43 min 2 sec) 
Heartbeat CPU 0 instructions: 343000000 cycles: 4212053502 heartbeat IPC: 0.0630426 cumulative IPC: 0.0815437 (Simulation time: 0 hr 43 min 17 sec) 
Heartbeat CPU 0 instructions: 344000000 cycles: 4228239619 heartbeat IPC: 0.0617813 cumulative IPC: 0.0814657 (Simulation time: 0 hr 43 min 32 sec) 
Heartbeat CPU 0 instructions: 345000000 cycles: 4240272310 heartbeat IPC: 0.0831069 cumulative IPC: 0.0814705 (Simulation time: 0 hr 43 min 43 sec) 
Heartbeat CPU 0 instructions: 346000000 cycles: 4251044165 heartbeat IPC: 0.0928345 cumulative IPC: 0.0815002 (Simulation time: 0 hr 43 min 53 sec) 
Heartbeat CPU 0 instructions: 347000000 cycles: 4263070485 heartbeat IPC: 0.083151 cumulative IPC: 0.081505 (Simulation time: 0 hr 44 min 4 sec) 
Heartbeat CPU 0 instructions: 348000000 cycles: 4276210319 heartbeat IPC: 0.0761045 cumulative IPC: 0.0814879 (Simulation time: 0 hr 44 min 16 sec) 
Heartbeat CPU 0 instructions: 349000003 cycles: 4291136212 heartbeat IPC: 0.0669979 cumulative IPC: 0.0814359 (Simulation time: 0 hr 44 min 30 sec) 
Heartbeat CPU 0 instructions: 350000001 cycles: 4308903224 heartbeat IPC: 0.056284 cumulative IPC: 0.081329 (Simulation time: 0 hr 44 min 46 sec) 
Heartbeat CPU 0 instructions: 351000002 cycles: 4322184192 heartbeat IPC: 0.0752958 cumulative IPC: 0.0813099 (Simulation time: 0 hr 44 min 57 sec) 
Heartbeat CPU 0 instructions: 352000000 cycles: 4334613963 heartbeat IPC: 0.0804518 cumulative IPC: 0.0813074 (Simulation time: 0 hr 45 min 8 sec) 
Heartbeat CPU 0 instructions: 353000000 cycles: 4356259213 heartbeat IPC: 0.0461995 cumulative IPC: 0.0811277 (Simulation time: 0 hr 45 min 25 sec) 
Heartbeat CPU 0 instructions: 354000000 cycles: 4368158615 heartbeat IPC: 0.0840378 cumulative IPC: 0.0811358 (Simulation time: 0 hr 45 min 35 sec) 
Heartbeat CPU 0 instructions: 355000000 cycles: 4381024253 heartbeat IPC: 0.0777264 cumulative IPC: 0.0811255 (Simulation time: 0 hr 45 min 46 sec) 
Heartbeat CPU 0 instructions: 356000002 cycles: 4395236960 heartbeat IPC: 0.0703597 cumulative IPC: 0.0810896 (Simulation time: 0 hr 45 min 58 sec) 
Heartbeat CPU 0 instructions: 357000000 cycles: 4408044093 heartbeat IPC: 0.0780813 cumulative IPC: 0.0810806 (Simulation time: 0 hr 46 min 9 sec) 
Heartbeat CPU 0 instructions: 358000001 cycles: 4427891298 heartbeat IPC: 0.050385 cumulative IPC: 0.0809389 (Simulation time: 0 hr 46 min 28 sec) 
Heartbeat CPU 0 instructions: 359000002 cycles: 4440558170 heartbeat IPC: 0.0789462 cumulative IPC: 0.0809331 (Simulation time: 0 hr 46 min 39 sec) 
Heartbeat CPU 0 instructions: 360000002 cycles: 4452641242 heartbeat IPC: 0.0827604 cumulative IPC: 0.0809382 (Simulation time: 0 hr 46 min 50 sec) 
Heartbeat CPU 0 instructions: 361000001 cycles: 4465544582 heartbeat IPC: 0.0774992 cumulative IPC: 0.080928 (Simulation time: 0 hr 47 min 0 sec) 
Heartbeat CPU 0 instructions: 362000001 cycles: 4479076930 heartbeat IPC: 0.073897 cumulative IPC: 0.0809061 (Simulation time: 0 hr 47 min 12 sec) 
Heartbeat CPU 0 instructions: 363000000 cycles: 4492068966 heartbeat IPC: 0.0769702 cumulative IPC: 0.0808944 (Simulation time: 0 hr 47 min 23 sec) 
Heartbeat CPU 0 instructions: 364000000 cycles: 4504731035 heartbeat IPC: 0.078976 cumulative IPC: 0.0808888 (Simulation time: 0 hr 47 min 33 sec) 
Heartbeat CPU 0 instructions: 365000001 cycles: 4518245215 heartbeat IPC: 0.0739964 cumulative IPC: 0.0808676 (Simulation time: 0 hr 47 min 44 sec) 
Heartbeat CPU 0 instructions: 366000000 cycles: 4531771255 heartbeat IPC: 0.0739314 cumulative IPC: 0.0808463 (Simulation time: 0 hr 47 min 56 sec) 
Heartbeat CPU 0 instructions: 367000002 cycles: 4547788304 heartbeat IPC: 0.0624336 cumulative IPC: 0.0807796 (Simulation time: 0 hr 48 min 9 sec) 
Heartbeat CPU 0 instructions: 368000002 cycles: 4566240208 heartbeat IPC: 0.0541949 cumulative IPC: 0.080669 (Simulation time: 0 hr 48 min 26 sec) 
Heartbeat CPU 0 instructions: 369000000 cycles: 4577276228 heartbeat IPC: 0.0906122 cumulative IPC: 0.0806937 (Simulation time: 0 hr 48 min 36 sec) 
Heartbeat CPU 0 instructions: 370000001 cycles: 4588504367 heartbeat IPC: 0.089062 cumulative IPC: 0.0807148 (Simulation time: 0 hr 48 min 46 sec) 
Heartbeat CPU 0 instructions: 371000000 cycles: 4601679774 heartbeat IPC: 0.0758989 cumulative IPC: 0.0807006 (Simulation time: 0 hr 48 min 57 sec) 
Heartbeat CPU 0 instructions: 372000002 cycles: 4614816072 heartbeat IPC: 0.0761251 cumulative IPC: 0.0806872 (Simulation time: 0 hr 49 min 9 sec) 
Heartbeat CPU 0 instructions: 373000002 cycles: 4627764624 heartbeat IPC: 0.0772287 cumulative IPC: 0.0806772 (Simulation time: 0 hr 49 min 20 sec) 
Heartbeat CPU 0 instructions: 374000000 cycles: 4640414393 heartbeat IPC: 0.0790527 cumulative IPC: 0.0806727 (Simulation time: 0 hr 49 min 31 sec) 
Heartbeat CPU 0 instructions: 375000000 cycles: 4658219932 heartbeat IPC: 0.0561623 cumulative IPC: 0.0805763 (Simulation time: 0 hr 49 min 48 sec) 
Heartbeat CPU 0 instructions: 376000000 cycles: 4673408135 heartbeat IPC: 0.0658406 cumulative IPC: 0.0805271 (Simulation time: 0 hr 50 min 2 sec) 
Heartbeat CPU 0 instructions: 377000000 cycles: 4684736715 heartbeat IPC: 0.0882723 cumulative IPC: 0.0805464 (Simulation time: 0 hr 50 min 12 sec) 
Heartbeat CPU 0 instructions: 378000001 cycles: 4697213467 heartbeat IPC: 0.0801491 cumulative IPC: 0.0805453 (Simulation time: 0 hr 50 min 23 sec) 
Heartbeat CPU 0 instructions: 379000003 cycles: 4709396345 heartbeat IPC: 0.0820826 cumulative IPC: 0.0805494 (Simulation time: 0 hr 50 min 35 sec) 
Heartbeat CPU 0 instructions: 380000000 cycles: 4722180535 heartbeat IPC: 0.0782214 cumulative IPC: 0.0805429 (Simulation time: 0 hr 50 min 46 sec) 
Heartbeat CPU 0 instructions: 381000002 cycles: 4735128798 heartbeat IPC: 0.0772306 cumulative IPC: 0.0805336 (Simulation time: 0 hr 50 min 57 sec) 
Heartbeat CPU 0 instructions: 382000000 cycles: 4747206793 heartbeat IPC: 0.082795 cumulative IPC: 0.0805395 (Simulation time: 0 hr 51 min 8 sec) 
Heartbeat CPU 0 instructions: 383000002 cycles: 4758955003 heartbeat IPC: 0.0851195 cumulative IPC: 0.0805511 (Simulation time: 0 hr 51 min 19 sec) 
Heartbeat CPU 0 instructions: 384000000 cycles: 4775052032 heartbeat IPC: 0.0621231 cumulative IPC: 0.0804873 (Simulation time: 0 hr 51 min 34 sec) 
Heartbeat CPU 0 instructions: 385000000 cycles: 4792334620 heartbeat IPC: 0.0578617 cumulative IPC: 0.0804034 (Simulation time: 0 hr 51 min 50 sec) 
Heartbeat CPU 0 instructions: 386000001 cycles: 4804837139 heartbeat IPC: 0.079984 cumulative IPC: 0.0804023 (Simulation time: 0 hr 52 min 0 sec) 
Heartbeat CPU 0 instructions: 387000000 cycles: 4818544170 heartbeat IPC: 0.0729552 cumulative IPC: 0.0803805 (Simulation time: 0 hr 52 min 12 sec) 
Heartbeat CPU 0 instructions: 388000002 cycles: 4831827380 heartbeat IPC: 0.0752832 cumulative IPC: 0.0803661 (Simulation time: 0 hr 52 min 23 sec) 
Heartbeat CPU 0 instructions: 389000001 cycles: 4844795267 heartbeat IPC: 0.0771135 cumulative IPC: 0.0803572 (Simulation time: 0 hr 52 min 34 sec) 
Heartbeat CPU 0 instructions: 390000001 cycles: 4857498125 heartbeat IPC: 0.0787224 cumulative IPC: 0.0803528 (Simulation time: 0 hr 52 min 45 sec) 
Heartbeat CPU 0 instructions: 391000000 cycles: 4870575322 heartbeat IPC: 0.0764689 cumulative IPC: 0.0803421 (Simulation time: 0 hr 52 min 56 sec) 
Heartbeat CPU 0 instructions: 392000001 cycles: 4883204308 heartbeat IPC: 0.079183 cumulative IPC: 0.080339 (Simulation time: 0 hr 53 min 7 sec) 
Heartbeat CPU 0 instructions: 393000000 cycles: 4896414860 heartbeat IPC: 0.075697 cumulative IPC: 0.0803262 (Simulation time: 0 hr 53 min 19 sec) 
Heartbeat CPU 0 instructions: 394000003 cycles: 4908952653 heartbeat IPC: 0.0797591 cumulative IPC: 0.0803247 (Simulation time: 0 hr 53 min 30 sec) 
Heartbeat CPU 0 instructions: 395000001 cycles: 4921833847 heartbeat IPC: 0.0776324 cumulative IPC: 0.0803174 (Simulation time: 0 hr 53 min 41 sec) 
Heartbeat CPU 0 instructions: 396000000 cycles: 4941440334 heartbeat IPC: 0.0510035 cumulative IPC: 0.080198 (Simulation time: 0 hr 53 min 59 sec) 
Heartbeat CPU 0 instructions: 397000001 cycles: 4955444815 heartbeat IPC: 0.0714058 cumulative IPC: 0.0801725 (Simulation time: 0 hr 54 min 12 sec) 
Heartbeat CPU 0 instructions: 398000000 cycles: 4969070218 heartbeat IPC: 0.0733922 cumulative IPC: 0.0801534 (Simulation time: 0 hr 54 min 23 sec) 
Heartbeat CPU 0 instructions: 399000001 cycles: 4984105907 heartbeat IPC: 0.0665085 cumulative IPC: 0.0801112 (Simulation time: 0 hr 54 min 35 sec) 
Heartbeat CPU 0 instructions: 400000000 cycles: 4998488562 heartbeat IPC: 0.0695281 cumulative IPC: 0.0800799 (Simulation time: 0 hr 54 min 47 sec) 
Heartbeat CPU 0 instructions: 401000002 cycles: 5011745940 heartbeat IPC: 0.0754298 cumulative IPC: 0.0800673 (Simulation time: 0 hr 54 min 58 sec) 
Heartbeat CPU 0 instructions: 402000003 cycles: 5025231316 heartbeat IPC: 0.0741545 cumulative IPC: 0.080051 (Simulation time: 0 hr 55 min 10 sec) 
Heartbeat CPU 0 instructions: 403000000 cycles: 5039819962 heartbeat IPC: 0.0685463 cumulative IPC: 0.0800168 (Simulation time: 0 hr 55 min 22 sec) 
Heartbeat CPU 0 instructions: 404000000 cycles: 5053705089 heartbeat IPC: 0.0720195 cumulative IPC: 0.0799943 (Simulation time: 0 hr 55 min 33 sec) 
Heartbeat CPU 0 instructions: 405000000 cycles: 5066801221 heartbeat IPC: 0.0763584 cumulative IPC: 0.0799847 (Simulation time: 0 hr 55 min 45 sec) 
Heartbeat CPU 0 instructions: 406000000 cycles: 5080370519 heartbeat IPC: 0.0736958 cumulative IPC: 0.0799674 (Simulation time: 0 hr 55 min 56 sec) 
Heartbeat CPU 0 instructions: 407000000 cycles: 5094300110 heartbeat IPC: 0.0717896 cumulative IPC: 0.0799445 (Simulation time: 0 hr 56 min 8 sec) 
Heartbeat CPU 0 instructions: 408000002 cycles: 5108010288 heartbeat IPC: 0.0729387 cumulative IPC: 0.0799252 (Simulation time: 0 hr 56 min 19 sec) 
Heartbeat CPU 0 instructions: 409000002 cycles: 5125315936 heartbeat IPC: 0.0577846 cumulative IPC: 0.0798485 (Simulation time: 0 hr 56 min 35 sec) 
Heartbeat CPU 0 instructions: 410000001 cycles: 5142345837 heartbeat IPC: 0.0587202 cumulative IPC: 0.0797768 (Simulation time: 0 hr 56 min 50 sec) 
Heartbeat CPU 0 instructions: 411000001 cycles: 5155539110 heartbeat IPC: 0.0757962 cumulative IPC: 0.0797663 (Simulation time: 0 hr 57 min 2 sec) 
Heartbeat CPU 0 instructions: 412000000 cycles: 5168482937 heartbeat IPC: 0.0772568 cumulative IPC: 0.0797599 (Simulation time: 0 hr 57 min 13 sec) 
Heartbeat CPU 0 instructions: 413000000 cycles: 5181703043 heartbeat IPC: 0.0756424 cumulative IPC: 0.0797491 (Simulation time: 0 hr 57 min 24 sec) 
Heartbeat CPU 0 instructions: 414000000 cycles: 5194932490 heartbeat IPC: 0.0755889 cumulative IPC: 0.0797382 (Simulation time: 0 hr 57 min 36 sec) 
Heartbeat CPU 0 instructions: 415000000 cycles: 5207385728 heartbeat IPC: 0.0803004 cumulative IPC: 0.0797396 (Simulation time: 0 hr 57 min 47 sec) 
Heartbeat CPU 0 instructions: 416000002 cycles: 5218292028 heartbeat IPC: 0.0916903 cumulative IPC: 0.0797652 (Simulation time: 0 hr 57 min 57 sec) 
Heartbeat CPU 0 instructions: 417000001 cycles: 5231398405 heartbeat IPC: 0.0762987 cumulative IPC: 0.0797563 (Simulation time: 0 hr 58 min 9 sec) 
Heartbeat CPU 0 instructions: 418000000 cycles: 5244228781 heartbeat IPC: 0.07794 cumulative IPC: 0.0797518 (Simulation time: 0 hr 58 min 20 sec) 
Heartbeat CPU 0 instructions: 419000000 cycles: 5264214372 heartbeat IPC: 0.050036 cumulative IPC: 0.0796361 (Simulation time: 0 hr 58 min 40 sec) 
Heartbeat CPU 0 instructions: 420000000 cycles: 5273636580 heartbeat IPC: 0.106132 cumulative IPC: 0.0796846 (Simulation time: 0 hr 58 min 50 sec) 
Heartbeat CPU 0 instructions: 421000000 cycles: 5279857956 heartbeat IPC: 0.160736 cumulative IPC: 0.0797825 (Simulation time: 0 hr 58 min 59 sec) 
Heartbeat CPU 0 instructions: 422000000 cycles: 5286041304 heartbeat IPC: 0.161725 cumulative IPC: 0.0798808 (Simulation time: 0 hr 59 min 7 sec) 
Heartbeat CPU 0 instructions: 423000003 cycles: 5304549722 heartbeat IPC: 0.0540296 cumulative IPC: 0.0797883 (Simulation time: 0 hr 59 min 26 sec) 
Heartbeat CPU 0 instructions: 424000001 cycles: 5314461547 heartbeat IPC: 0.100889 cumulative IPC: 0.0798287 (Simulation time: 0 hr 59 min 37 sec) 
Heartbeat CPU 0 instructions: 425000000 cycles: 5321171323 heartbeat IPC: 0.149036 cumulative IPC: 0.0799181 (Simulation time: 0 hr 59 min 46 sec) 
Heartbeat CPU 0 instructions: 426000000 cycles: 5327542914 heartbeat IPC: 0.156947 cumulative IPC: 0.0800125 (Simulation time: 0 hr 59 min 54 sec) 
Heartbeat CPU 0 instructions: 427000001 cycles: 5346601970 heartbeat IPC: 0.0524685 cumulative IPC: 0.0799119 (Simulation time: 1 hr 0 min 12 sec) 
Heartbeat CPU 0 instructions: 428000001 cycles: 5355629407 heartbeat IPC: 0.110773 cumulative IPC: 0.0799652 (Simulation time: 1 hr 0 min 22 sec) 
Heartbeat CPU 0 instructions: 429000000 cycles: 5362991192 heartbeat IPC: 0.135836 cumulative IPC: 0.0800438 (Simulation time: 1 hr 0 min 30 sec) 
Heartbeat CPU 0 instructions: 430000000 cycles: 5377534412 heartbeat IPC: 0.0687606 cumulative IPC: 0.0800125 (Simulation time: 1 hr 0 min 45 sec) 
Heartbeat CPU 0 instructions: 431000000 cycles: 5391869211 heartbeat IPC: 0.0697603 cumulative IPC: 0.0799846 (Simulation time: 1 hr 0 min 59 sec) 
Heartbeat CPU 0 instructions: 432000000 cycles: 5399971934 heartbeat IPC: 0.123415 cumulative IPC: 0.0800513 (Simulation time: 1 hr 1 min 7 sec) 
Heartbeat CPU 0 instructions: 433000000 cycles: 5409265927 heartbeat IPC: 0.107596 cumulative IPC: 0.0800998 (Simulation time: 1 hr 1 min 17 sec) 
Heartbeat CPU 0 instructions: 434000000 cycles: 5427534467 heartbeat IPC: 0.0547389 cumulative IPC: 0.0800124 (Simulation time: 1 hr 1 min 35 sec) 
Heartbeat CPU 0 instructions: 435000001 cycles: 5433684723 heartbeat IPC: 0.162595 cumulative IPC: 0.0801081 (Simulation time: 1 hr 1 min 43 sec) 
Heartbeat CPU 0 instructions: 436000001 cycles: 5442830991 heartbeat IPC: 0.109334 cumulative IPC: 0.0801584 (Simulation time: 1 hr 1 min 52 sec) 
Heartbeat CPU 0 instructions: 437000000 cycles: 5458233088 heartbeat IPC: 0.0649262 cumulative IPC: 0.0801144 (Simulation time: 1 hr 2 min 7 sec) 
Heartbeat CPU 0 instructions: 438000001 cycles: 5470845732 heartbeat IPC: 0.0792856 cumulative IPC: 0.0801124 (Simulation time: 1 hr 2 min 20 sec) 
Heartbeat CPU 0 instructions: 439000000 cycles: 5477912755 heartbeat IPC: 0.141502 cumulative IPC: 0.0801935 (Simulation time: 1 hr 2 min 28 sec) 
Heartbeat CPU 0 instructions: 440000000 cycles: 5491845942 heartbeat IPC: 0.0717711 cumulative IPC: 0.0801717 (Simulation time: 1 hr 2 min 42 sec) 
Heartbeat CPU 0 instructions: 441000000 cycles: 5506688012 heartbeat IPC: 0.067376 cumulative IPC: 0.0801363 (Simulation time: 1 hr 2 min 56 sec) 
Heartbeat CPU 0 instructions: 442000000 cycles: 5514355200 heartbeat IPC: 0.130426 cumulative IPC: 0.0802079 (Simulation time: 1 hr 3 min 4 sec) 
Heartbeat CPU 0 instructions: 443000001 cycles: 5525887657 heartbeat IPC: 0.0867119 cumulative IPC: 0.0802218 (Simulation time: 1 hr 3 min 16 sec) 
Heartbeat CPU 0 instructions: 444000002 cycles: 5543218220 heartbeat IPC: 0.0577016 cumulative IPC: 0.0801497 (Simulation time: 1 hr 3 min 32 sec) 
Heartbeat CPU 0 instructions: 445000000 cycles: 5550371627 heartbeat IPC: 0.139793 cumulative IPC: 0.0802284 (Simulation time: 1 hr 3 min 40 sec) 
Heartbeat CPU 0 instructions: 446000000 cycles: 5559117749 heartbeat IPC: 0.114336 cumulative IPC: 0.0802834 (Simulation time: 1 hr 3 min 49 sec) 
Heartbeat CPU 0 instructions: 447000000 cycles: 5578221050 heartbeat IPC: 0.052347 cumulative IPC: 0.0801854 (Simulation time: 1 hr 4 min 8 sec) 
Heartbeat CPU 0 instructions: 448000000 cycles: 5585933423 heartbeat IPC: 0.129662 cumulative IPC: 0.0802554 (Simulation time: 1 hr 4 min 16 sec) 
Heartbeat CPU 0 instructions: 449000000 cycles: 5593508553 heartbeat IPC: 0.132011 cumulative IPC: 0.0803271 (Simulation time: 1 hr 4 min 24 sec) 
Heartbeat CPU 0 instructions: 450000002 cycles: 5612964330 heartbeat IPC: 0.0513987 cumulative IPC: 0.0802245 (Simulation time: 1 hr 4 min 42 sec) 
Heartbeat CPU 0 instructions: 451000000 cycles: 5621848841 heartbeat IPC: 0.112555 cumulative IPC: 0.0802768 (Simulation time: 1 hr 4 min 52 sec) 
Heartbeat CPU 0 instructions: 452000000 cycles: 5629174453 heartbeat IPC: 0.136507 cumulative IPC: 0.0803517 (Simulation time: 1 hr 5 min 0 sec) 
Heartbeat CPU 0 instructions: 453000001 cycles: 5647148486 heartbeat IPC: 0.0556359 cumulative IPC: 0.0802712 (Simulation time: 1 hr 5 min 17 sec) 
Heartbeat CPU 0 instructions: 454000002 cycles: 5657843934 heartbeat IPC: 0.0934978 cumulative IPC: 0.0802967 (Simulation time: 1 hr 5 min 28 sec) 
Heartbeat CPU 0 instructions: 455000001 cycles: 5665226132 heartbeat IPC: 0.135461 cumulative IPC: 0.0803703 (Simulation time: 1 hr 5 min 36 sec) 
Heartbeat CPU 0 instructions: 456000002 cycles: 5681556657 heartbeat IPC: 0.0612351 cumulative IPC: 0.080314 (Simulation time: 1 hr 5 min 51 sec) 
Heartbeat CPU 0 instructions: 457000002 cycles: 5694193471 heartbeat IPC: 0.0791339 cumulative IPC: 0.0803113 (Simulation time: 1 hr 6 min 4 sec) 
Heartbeat CPU 0 instructions: 458000000 cycles: 5701220643 heartbeat IPC: 0.142304 cumulative IPC: 0.0803895 (Simulation time: 1 hr 6 min 12 sec) 
Heartbeat CPU 0 instructions: 459000001 cycles: 5715254631 heartbeat IPC: 0.0712557 cumulative IPC: 0.0803666 (Simulation time: 1 hr 6 min 25 sec) 
Heartbeat CPU 0 instructions: 460000001 cycles: 5729385722 heartbeat IPC: 0.0707659 cumulative IPC: 0.0803423 (Simulation time: 1 hr 6 min 39 sec) 
Heartbeat CPU 0 instructions: 461000000 cycles: 5736326947 heartbeat IPC: 0.144067 cumulative IPC: 0.0804212 (Simulation time: 1 hr 6 min 47 sec) 
Heartbeat CPU 0 instructions: 462000000 cycles: 5748027332 heartbeat IPC: 0.0854673 cumulative IPC: 0.0804317 (Simulation time: 1 hr 6 min 59 sec) 
Heartbeat CPU 0 instructions: 463000000 cycles: 5764094246 heartbeat IPC: 0.0622397 cumulative IPC: 0.0803799 (Simulation time: 1 hr 7 min 15 sec) 
Heartbeat CPU 0 instructions: 464000000 cycles: 5771250411 heartbeat IPC: 0.13974 cumulative IPC: 0.0804551 (Simulation time: 1 hr 7 min 23 sec) 
Heartbeat CPU 0 instructions: 465000002 cycles: 5781101027 heartbeat IPC: 0.101517 cumulative IPC: 0.0804918 (Simulation time: 1 hr 7 min 33 sec) 
Heartbeat CPU 0 instructions: 466000000 cycles: 5798903572 heartbeat IPC: 0.0561716 cumulative IPC: 0.0804155 (Simulation time: 1 hr 7 min 50 sec) 
Heartbeat CPU 0 instructions: 467000003 cycles: 5806043294 heartbeat IPC: 0.140062 cumulative IPC: 0.0804905 (Simulation time: 1 hr 7 min 58 sec) 
Heartbeat CPU 0 instructions: 468000003 cycles: 5813373041 heartbeat IPC: 0.13643 cumulative IPC: 0.0805626 (Simulation time: 1 hr 8 min 7 sec) 
Heartbeat CPU 0 instructions: 469000000 cycles: 5833591158 heartbeat IPC: 0.0494604 cumulative IPC: 0.0804524 (Simulation time: 1 hr 8 min 26 sec) 
Heartbeat CPU 0 instructions: 470000002 cycles: 5840977460 heartbeat IPC: 0.135386 cumulative IPC: 0.0805234 (Simulation time: 1 hr 8 min 34 sec) 
Heartbeat CPU 0 instructions: 471000002 cycles: 5847450549 heartbeat IPC: 0.154486 cumulative IPC: 0.0806071 (Simulation time: 1 hr 8 min 42 sec) 
Heartbeat CPU 0 instructions: 472000001 cycles: 5865363303 heartbeat IPC: 0.0558261 cumulative IPC: 0.0805298 (Simulation time: 1 hr 8 min 59 sec) 
Heartbeat CPU 0 instructions: 473000000 cycles: 5877870503 heartbeat IPC: 0.0799539 cumulative IPC: 0.0805285 (Simulation time: 1 hr 9 min 11 sec) 
Heartbeat CPU 0 instructions: 474000000 cycles: 5887396220 heartbeat IPC: 0.104979 cumulative IPC: 0.080569 (Simulation time: 1 hr 9 min 21 sec) 
Heartbeat CPU 0 instructions: 475000001 cycles: 5900253364 heartbeat IPC: 0.0777778 cumulative IPC: 0.0805627 (Simulation time: 1 hr 9 min 34 sec) 
Heartbeat CPU 0 instructions: 476000000 cycles: 5916162562 heartbeat IPC: 0.0628567 cumulative IPC: 0.0805141 (Simulation time: 1 hr 9 min 49 sec) 
Heartbeat CPU 0 instructions: 477000000 cycles: 5923762251 heartbeat IPC: 0.131584 cumulative IPC: 0.080581 (Simulation time: 1 hr 9 min 58 sec) 
Heartbeat CPU 0 instructions: 478000000 cycles: 5934987227 heartbeat IPC: 0.089087 cumulative IPC: 0.0805975 (Simulation time: 1 hr 10 min 9 sec) 
Heartbeat CPU 0 instructions: 479000003 cycles: 5952389858 heartbeat IPC: 0.0574627 cumulative IPC: 0.0805284 (Simulation time: 1 hr 10 min 26 sec) 
Heartbeat CPU 0 instructions: 480000000 cycles: 5964380129 heartbeat IPC: 0.0834007 cumulative IPC: 0.0805343 (Simulation time: 1 hr 10 min 37 sec) 
Heartbeat CPU 0 instructions: 481000001 cycles: 5972729631 heartbeat IPC: 0.119768 cumulative IPC: 0.0805903 (Simulation time: 1 hr 10 min 46 sec) 
Heartbeat CPU 0 instructions: 482000003 cycles: 5992428373 heartbeat IPC: 0.0507648 cumulative IPC: 0.0804901 (Simulation time: 1 hr 11 min 5 sec) 
Heartbeat CPU 0 instructions: 483000002 cycles: 6000278506 heartbeat IPC: 0.127386 cumulative IPC: 0.0805528 (Simulation time: 1 hr 11 min 13 sec) 
Heartbeat CPU 0 instructions: 484000000 cycles: 6008245043 heartbeat IPC: 0.125525 cumulative IPC: 0.0806137 (Simulation time: 1 hr 11 min 22 sec) 
Heartbeat CPU 0 instructions: 485000001 cycles: 6028383548 heartbeat IPC: 0.0496562 cumulative IPC: 0.0805081 (Simulation time: 1 hr 11 min 41 sec) 
Heartbeat CPU 0 instructions: 486000000 cycles: 6040470507 heartbeat IPC: 0.0827337 cumulative IPC: 0.0805126 (Simulation time: 1 hr 11 min 52 sec) 
Heartbeat CPU 0 instructions: 487000000 cycles: 6049648667 heartbeat IPC: 0.108954 cumulative IPC: 0.0805567 (Simulation time: 1 hr 12 min 1 sec) 
Heartbeat CPU 0 instructions: 488000003 cycles: 6064318627 heartbeat IPC: 0.0681667 cumulative IPC: 0.0805261 (Simulation time: 1 hr 12 min 15 sec) 
Heartbeat CPU 0 instructions: 489000002 cycles: 6079968418 heartbeat IPC: 0.0638986 cumulative IPC: 0.0804824 (Simulation time: 1 hr 12 min 30 sec) 
Heartbeat CPU 0 instructions: 490000002 cycles: 6091371137 heartbeat IPC: 0.0876984 cumulative IPC: 0.0804962 (Simulation time: 1 hr 12 min 40 sec) 
Heartbeat CPU 0 instructions: 491000002 cycles: 6101627514 heartbeat IPC: 0.0975003 cumulative IPC: 0.0805254 (Simulation time: 1 hr 12 min 50 sec) 
Heartbeat CPU 0 instructions: 492000002 cycles: 6114974870 heartbeat IPC: 0.0749212 cumulative IPC: 0.0805129 (Simulation time: 1 hr 13 min 3 sec) 
Heartbeat CPU 0 instructions: 493000000 cycles: 6132507777 heartbeat IPC: 0.0570355 cumulative IPC: 0.0804443 (Simulation time: 1 hr 13 min 19 sec) 
Heartbeat CPU 0 instructions: 494000003 cycles: 6143042440 heartbeat IPC: 0.094925 cumulative IPC: 0.0804697 (Simulation time: 1 hr 13 min 29 sec) 
Heartbeat CPU 0 instructions: 495000000 cycles: 6153314161 heartbeat IPC: 0.0973544 cumulative IPC: 0.0804985 (Simulation time: 1 hr 13 min 39 sec) 
Heartbeat CPU 0 instructions: 496000000 cycles: 6163200346 heartbeat IPC: 0.101151 cumulative IPC: 0.0805323 (Simulation time: 1 hr 13 min 48 sec) 
Heartbeat CPU 0 instructions: 497000000 cycles: 6181314310 heartbeat IPC: 0.055206 cumulative IPC: 0.0804565 (Simulation time: 1 hr 14 min 5 sec) 
Heartbeat CPU 0 instructions: 498000003 cycles: 6194757555 heartbeat IPC: 0.074387 cumulative IPC: 0.0804431 (Simulation time: 1 hr 14 min 17 sec) 
Heartbeat CPU 0 instructions: 499000001 cycles: 6206763098 heartbeat IPC: 0.0832947 cumulative IPC: 0.0804487 (Simulation time: 1 hr 14 min 28 sec) 
Heartbeat CPU 0 instructions: 500000000 cycles: 6216469653 heartbeat IPC: 0.103023 cumulative IPC: 0.0804847 (Simulation time: 1 hr 14 min 37 sec) 
Heartbeat CPU 0 instructions: 501000000 cycles: 6230206736 heartbeat IPC: 0.0727957 cumulative IPC: 0.0804674 (Simulation time: 1 hr 14 min 49 sec) 
Heartbeat CPU 0 instructions: 502000000 cycles: 6248750613 heartbeat IPC: 0.0539262 cumulative IPC: 0.080387 (Simulation time: 1 hr 15 min 6 sec) 
Heartbeat CPU 0 instructions: 503000000 cycles: 6258516588 heartbeat IPC: 0.102396 cumulative IPC: 0.080422 (Simulation time: 1 hr 15 min 16 sec) 
Heartbeat CPU 0 instructions: 504000000 cycles: 6265639551 heartbeat IPC: 0.140391 cumulative IPC: 0.0804916 (Simulation time: 1 hr 15 min 24 sec) 
Heartbeat CPU 0 instructions: 505000000 cycles: 6281060259 heartbeat IPC: 0.0648479 cumulative IPC: 0.0804524 (Simulation time: 1 hr 15 min 38 sec) 
Heartbeat CPU 0 instructions: 506000000 cycles: 6294687190 heartbeat IPC: 0.0733841 cumulative IPC: 0.0804368 (Simulation time: 1 hr 15 min 52 sec) 
Heartbeat CPU 0 instructions: 507000001 cycles: 6302039594 heartbeat IPC: 0.13601 cumulative IPC: 0.080503 (Simulation time: 1 hr 16 min 1 sec) 
Heartbeat CPU 0 instructions: 508000000 cycles: 6311973906 heartbeat IPC: 0.100661 cumulative IPC: 0.0805354 (Simulation time: 1 hr 16 min 11 sec) 
Heartbeat CPU 0 instructions: 509000002 cycles: 6330183579 heartbeat IPC: 0.054916 cumulative IPC: 0.0804601 (Simulation time: 1 hr 16 min 29 sec) 
Heartbeat CPU 0 instructions: 510000001 cycles: 6339404154 heartbeat IPC: 0.108453 cumulative IPC: 0.0805017 (Simulation time: 1 hr 16 min 40 sec) 
Finished CPU 0 instructions: 500000000 cycles: 6211049919 cumulative IPC: 0.0805017 (Simulation time: 1 hr 16 min 40 sec) 

ChampSim completed all CPUs

Region of Interest Statistics

CPU 0 cumulative IPC: 0.0805017 instructions: 500000000 cycles: 6211049919
L1D TOTAL     ACCESS:  123278601  HIT:   53885486  MISS:   69393115
L1D LOAD      ACCESS:  104981847  HIT:   36432082  MISS:   68549765
L1D RFO       ACCESS:   18296754  HIT:   17453404  MISS:     843350
L1D PREFETCH  ACCESS:          0  HIT:          0  MISS:          0
L1D WRITEBACK ACCESS:          0  HIT:          0  MISS:          0
L1D PREFETCH  REQUESTED:          0  ISSUED:          0  USEFUL:          0  USELESS:          0
L1D AVERAGE MISS LATENCY: 159.216 cycles
L1I TOTAL     ACCESS:   94858152  HIT:   94858147  MISS:          5
L1I LOAD      ACCESS:   94858152  HIT:   94858147  MISS:          5
L1I RFO       ACCESS:          0  HIT:          0  MISS:          0
L1I PREFETCH  ACCESS:          0  HIT:          0  MISS:          0
L1I WRITEBACK ACCESS:          0  HIT:          0  MISS:          0
L1I PREFETCH  REQUESTED:          0  ISSUED:          0  USEFUL:          0  USELESS:          0
L1I AVERAGE MISS LATENCY: 310.6 cycles
L2C TOTAL     ACCESS:   78735235  HIT:   28698417  MISS:   50036818
L2C LOAD      ACCESS:   68548732  HIT:   19069476  MISS:   49479256
L2C RFO       ACCESS:     843306  HIT:     286098  MISS:     557208
L2C PREFETCH  ACCESS:          0  HIT:          0  MISS:          0
L2C WRITEBACK ACCESS:    9343197  HIT:    9342843  MISS:        354
L2C PREFETCH  REQUESTED:          0  ISSUED:          0  USEFUL:          0  USELESS:          0
L2C AVERAGE MISS LATENCY: 197.28 cycles
LLC TOTAL     ACCESS:   56904942  HIT:   17791146  MISS:   39113796
LLC LOAD      ACCESS:   49479239  HIT:   10852405  MISS:   38626834
LLC RFO       ACCESS:     557208  HIT:     125019  MISS:     432189
LLC PREFETCH  ACCESS:          0  HIT:          0  MISS:          0
LLC WRITEBACK ACCESS:    6868495  HIT:    6813722  MISS:      54773
LLC PREFETCH  REQUESTED:          0  ISSUED:          0  USEFUL:          0  USELESS:          0
LLC AVERAGE MISS LATENCY: 210.166 cycles
Major fault: 0 Minor fault: 272987

DRAM Statistics
 CHANNEL 0
 RQ ROW_BUFFER_HIT:    7276370  ROW_BUFFER_MISS:   12189362
 DBUS_CONGESTED:   11707816
 WQ ROW_BUFFER_HIT:    1685129  ROW_BUFFER_MISS:    1529397  FULL:          0

 CHANNEL 1
 RQ ROW_BUFFER_HIT:    7313351  ROW_BUFFER_MISS:   12279705
 DBUS_CONGESTED:   11707816
 WQ ROW_BUFFER_HIT:    1697868  ROW_BUFFER_MISS:    1516494  FULL:          0

 AVG_CONGESTED_CYCLE: 17

CPU 0 Branch Prediction Accuracy: 94.1758% MPKI: 16.5845 Average ROB Occupancy at Mispredict: 35.4831

Branch types
NOT_BRANCH: 357622969 71.5246%
BRANCH_DIRECT_JUMP: 6531298 1.30626%
BRANCH_INDIRECT: 0 0%
BRANCH_CONDITIONAL: 135670517 27.1341%
BRANCH_DIRECT_CALL: 87590 0.017518%
BRANCH_INDIRECT_CALL: 0 0%
BRANCH_RETURN: 87589 0.0175178%
BRANCH_OTHER: 0 0%


gzip: stdout: Broken pipe
