
*** ChampSim Multicore Out-of-Order Simulator ***

Warmup Instructions: 1000000
Prefetch Warmup Instructions: 10000000
Simulation Instructions: 500000000
Stat Printing Period: 1000000
Number of CPUs: 1
LLC sets: 2048
LLC ways: 16
Off-chip DRAM Size: 32768 MB Channels: 2 Width: 64-bit Data Rate: 1024 MT/s

CPU 0 runs /scratch/cluster/cmolder/ML-DPC/ChampSimTraces/spec06/450.soplex-s2.trace.gz
Read seed: 936
Heartbeat CPU 0 instructions: 1000000 cycles: 342156 heartbeat IPC: 2.92264 cumulative IPC: 2.92264 (Simulation time: 0 hr 0 min 6 sec) 

Warmup complete CPU 0 instructions: 1000004 cycles: 342157 (Simulation time: 0 hr 0 min 6 sec) 

Heartbeat CPU 0 instructions: 2000001 cycles: 2898044 heartbeat IPC: 0.391254 cumulative IPC: 0.391252 (Simulation time: 0 hr 0 min 16 sec) 
Heartbeat CPU 0 instructions: 3000000 cycles: 5801178 heartbeat IPC: 0.344455 cumulative IPC: 0.366365 (Simulation time: 0 hr 0 min 26 sec) 
Heartbeat CPU 0 instructions: 4000002 cycles: 7280215 heartbeat IPC: 0.676117 cumulative IPC: 0.432397 (Simulation time: 0 hr 0 min 30 sec) 
Heartbeat CPU 0 instructions: 5000000 cycles: 10796245 heartbeat IPC: 0.284411 cumulative IPC: 0.382625 (Simulation time: 0 hr 0 min 36 sec) 
Heartbeat CPU 0 instructions: 6000001 cycles: 12996638 heartbeat IPC: 0.454465 cumulative IPC: 0.395117 (Simulation time: 0 hr 0 min 40 sec) 
Heartbeat CPU 0 instructions: 7000003 cycles: 15060302 heartbeat IPC: 0.484576 cumulative IPC: 0.40766 (Simulation time: 0 hr 0 min 43 sec) 
Heartbeat CPU 0 instructions: 8000003 cycles: 18353124 heartbeat IPC: 0.303691 cumulative IPC: 0.388652 (Simulation time: 0 hr 0 min 49 sec) 
Heartbeat CPU 0 instructions: 9000002 cycles: 21168876 heartbeat IPC: 0.355145 cumulative IPC: 0.384122 (Simulation time: 0 hr 0 min 56 sec) 
Heartbeat CPU 0 instructions: 10000000 cycles: 23626183 heartbeat IPC: 0.406949 cumulative IPC: 0.386531 (Simulation time: 0 hr 1 min 2 sec) 

Warmup complete CPU 0 instructions: 10000003 cycles: 23626184 (Simulation time: 0 hr 1 min 2 sec) 

Heartbeat CPU 0 instructions: 11000000 cycles: 25951114 heartbeat IPC: 0.43012 cumulative IPC: 0.430119 (Simulation time: 0 hr 1 min 16 sec) 
Heartbeat CPU 0 instructions: 12000000 cycles: 27166485 heartbeat IPC: 0.822794 cumulative IPC: 0.564923 (Simulation time: 0 hr 1 min 24 sec) 
Heartbeat CPU 0 instructions: 13000002 cycles: 29525289 heartbeat IPC: 0.423945 cumulative IPC: 0.508552 (Simulation time: 0 hr 1 min 36 sec) 
Heartbeat CPU 0 instructions: 14000002 cycles: 31308625 heartbeat IPC: 0.560747 cumulative IPC: 0.520668 (Simulation time: 0 hr 1 min 44 sec) 
Heartbeat CPU 0 instructions: 15000001 cycles: 32789764 heartbeat IPC: 0.675155 cumulative IPC: 0.545638 (Simulation time: 0 hr 1 min 46 sec) 
Heartbeat CPU 0 instructions: 16000001 cycles: 34967119 heartbeat IPC: 0.459273 cumulative IPC: 0.529057 (Simulation time: 0 hr 1 min 55 sec) 
Heartbeat CPU 0 instructions: 17000002 cycles: 37086935 heartbeat IPC: 0.47174 cumulative IPC: 0.52003 (Simulation time: 0 hr 2 min 6 sec) 
Heartbeat CPU 0 instructions: 18000000 cycles: 38770666 heartbeat IPC: 0.593918 cumulative IPC: 0.528245 (Simulation time: 0 hr 2 min 11 sec) 
Heartbeat CPU 0 instructions: 19000000 cycles: 41415486 heartbeat IPC: 0.378098 cumulative IPC: 0.505922 (Simulation time: 0 hr 2 min 21 sec) 
Heartbeat CPU 0 instructions: 20000003 cycles: 42620914 heartbeat IPC: 0.829583 cumulative IPC: 0.526462 (Simulation time: 0 hr 2 min 27 sec) 
Heartbeat CPU 0 instructions: 21000001 cycles: 44642201 heartbeat IPC: 0.494733 cumulative IPC: 0.52341 (Simulation time: 0 hr 2 min 38 sec) 
Heartbeat CPU 0 instructions: 22000000 cycles: 46687396 heartbeat IPC: 0.48895 cumulative IPC: 0.520354 (Simulation time: 0 hr 2 min 46 sec) 
Heartbeat CPU 0 instructions: 23000000 cycles: 48182919 heartbeat IPC: 0.668662 cumulative IPC: 0.529386 (Simulation time: 0 hr 2 min 53 sec) 
Heartbeat CPU 0 instructions: 24000001 cycles: 49975271 heartbeat IPC: 0.557927 cumulative IPC: 0.531328 (Simulation time: 0 hr 2 min 58 sec) 
Heartbeat CPU 0 instructions: 25000000 cycles: 52319712 heartbeat IPC: 0.42654 cumulative IPC: 0.522766 (Simulation time: 0 hr 3 min 5 sec) 
Heartbeat CPU 0 instructions: 26000002 cycles: 54153456 heartbeat IPC: 0.545334 cumulative IPC: 0.524121 (Simulation time: 0 hr 3 min 10 sec) 
Heartbeat CPU 0 instructions: 27000003 cycles: 56828107 heartbeat IPC: 0.373881 cumulative IPC: 0.512019 (Simulation time: 0 hr 3 min 16 sec) 
Heartbeat CPU 0 instructions: 28000000 cycles: 58027575 heartbeat IPC: 0.8337 cumulative IPC: 0.523235 (Simulation time: 0 hr 3 min 19 sec) 
Heartbeat CPU 0 instructions: 29000001 cycles: 59702111 heartbeat IPC: 0.597181 cumulative IPC: 0.526667 (Simulation time: 0 hr 3 min 26 sec) 
Heartbeat CPU 0 instructions: 30000000 cycles: 61987953 heartbeat IPC: 0.437475 cumulative IPC: 0.521352 (Simulation time: 0 hr 3 min 30 sec) 
Heartbeat CPU 0 instructions: 31000003 cycles: 63578301 heartbeat IPC: 0.628795 cumulative IPC: 0.525629 (Simulation time: 0 hr 3 min 33 sec) 
Heartbeat CPU 0 instructions: 32000002 cycles: 65118437 heartbeat IPC: 0.649293 cumulative IPC: 0.530219 (Simulation time: 0 hr 3 min 37 sec) 
Heartbeat CPU 0 instructions: 33000000 cycles: 68101445 heartbeat IPC: 0.335231 cumulative IPC: 0.517141 (Simulation time: 0 hr 3 min 46 sec) 
Heartbeat CPU 0 instructions: 34000001 cycles: 69897444 heartbeat IPC: 0.556794 cumulative IPC: 0.51868 (Simulation time: 0 hr 3 min 55 sec) 
Heartbeat CPU 0 instructions: 35000000 cycles: 72197269 heartbeat IPC: 0.434815 cumulative IPC: 0.514709 (Simulation time: 0 hr 4 min 1 sec) 
Heartbeat CPU 0 instructions: 36000000 cycles: 73410305 heartbeat IPC: 0.824378 cumulative IPC: 0.522255 (Simulation time: 0 hr 4 min 4 sec) 
Heartbeat CPU 0 instructions: 37000000 cycles: 75757015 heartbeat IPC: 0.426129 cumulative IPC: 0.517928 (Simulation time: 0 hr 4 min 9 sec) 
Heartbeat CPU 0 instructions: 38000002 cycles: 77514288 heartbeat IPC: 0.569065 cumulative IPC: 0.519595 (Simulation time: 0 hr 4 min 16 sec) 
Heartbeat CPU 0 instructions: 39000000 cycles: 78998357 heartbeat IPC: 0.673822 cumulative IPC: 0.523729 (Simulation time: 0 hr 4 min 21 sec) 
Heartbeat CPU 0 instructions: 40000000 cycles: 80961048 heartbeat IPC: 0.509505 cumulative IPC: 0.523242 (Simulation time: 0 hr 4 min 25 sec) 
Heartbeat CPU 0 instructions: 41000002 cycles: 83072381 heartbeat IPC: 0.473635 cumulative IPC: 0.52148 (Simulation time: 0 hr 4 min 31 sec) 
Heartbeat CPU 0 instructions: 42000000 cycles: 84745274 heartbeat IPC: 0.597766 cumulative IPC: 0.523568 (Simulation time: 0 hr 4 min 36 sec) 
Heartbeat CPU 0 instructions: 43000001 cycles: 87383655 heartbeat IPC: 0.379021 cumulative IPC: 0.517586 (Simulation time: 0 hr 4 min 49 sec) 
Heartbeat CPU 0 instructions: 44000000 cycles: 88584960 heartbeat IPC: 0.832427 cumulative IPC: 0.523409 (Simulation time: 0 hr 4 min 53 sec) 
Heartbeat CPU 0 instructions: 45000000 cycles: 90589311 heartbeat IPC: 0.498915 cumulative IPC: 0.522676 (Simulation time: 0 hr 4 min 57 sec) 
Heartbeat CPU 0 instructions: 46000002 cycles: 92633558 heartbeat IPC: 0.489179 cumulative IPC: 0.521683 (Simulation time: 0 hr 5 min 5 sec) 
Heartbeat CPU 0 instructions: 47000000 cycles: 94135014 heartbeat IPC: 0.666019 cumulative IPC: 0.524757 (Simulation time: 0 hr 5 min 7 sec) 
Heartbeat CPU 0 instructions: 48000003 cycles: 95883486 heartbeat IPC: 0.57193 cumulative IPC: 0.525898 (Simulation time: 0 hr 5 min 11 sec) 
Heartbeat CPU 0 instructions: 49000000 cycles: 99238926 heartbeat IPC: 0.298023 cumulative IPC: 0.515786 (Simulation time: 0 hr 5 min 19 sec) 
Heartbeat CPU 0 instructions: 50000003 cycles: 105699902 heartbeat IPC: 0.154776 cumulative IPC: 0.487367 (Simulation time: 0 hr 5 min 28 sec) 
Heartbeat CPU 0 instructions: 51000002 cycles: 107686923 heartbeat IPC: 0.503265 cumulative IPC: 0.487743 (Simulation time: 0 hr 5 min 46 sec) 
Heartbeat CPU 0 instructions: 52000002 cycles: 110535569 heartbeat IPC: 0.351044 cumulative IPC: 0.483262 (Simulation time: 0 hr 6 min 1 sec) 
Heartbeat CPU 0 instructions: 53000000 cycles: 112720974 heartbeat IPC: 0.45758 cumulative IPC: 0.482632 (Simulation time: 0 hr 6 min 14 sec) 
Heartbeat CPU 0 instructions: 54000000 cycles: 114809319 heartbeat IPC: 0.478848 cumulative IPC: 0.482545 (Simulation time: 0 hr 6 min 26 sec) 
Heartbeat CPU 0 instructions: 55000000 cycles: 117974264 heartbeat IPC: 0.315961 cumulative IPC: 0.476957 (Simulation time: 0 hr 6 min 31 sec) 
Heartbeat CPU 0 instructions: 56000000 cycles: 120533400 heartbeat IPC: 0.390757 cumulative IPC: 0.474681 (Simulation time: 0 hr 6 min 35 sec) 
Heartbeat CPU 0 instructions: 57000002 cycles: 122498239 heartbeat IPC: 0.508949 cumulative IPC: 0.475362 (Simulation time: 0 hr 6 min 41 sec) 
Heartbeat CPU 0 instructions: 58000002 cycles: 124077230 heartbeat IPC: 0.633316 cumulative IPC: 0.477845 (Simulation time: 0 hr 6 min 49 sec) 
Heartbeat CPU 0 instructions: 59000001 cycles: 125369068 heartbeat IPC: 0.77409 cumulative IPC: 0.481606 (Simulation time: 0 hr 6 min 53 sec) 
Heartbeat CPU 0 instructions: 60000000 cycles: 127215984 heartbeat IPC: 0.541443 cumulative IPC: 0.482673 (Simulation time: 0 hr 6 min 58 sec) 
Heartbeat CPU 0 instructions: 61000003 cycles: 130230357 heartbeat IPC: 0.331745 cumulative IPC: 0.478405 (Simulation time: 0 hr 7 min 4 sec) 
Heartbeat CPU 0 instructions: 62000001 cycles: 132709618 heartbeat IPC: 0.403345 cumulative IPC: 0.476699 (Simulation time: 0 hr 7 min 17 sec) 
Heartbeat CPU 0 instructions: 63000000 cycles: 135307509 heartbeat IPC: 0.384927 cumulative IPC: 0.474565 (Simulation time: 0 hr 7 min 30 sec) 
Heartbeat CPU 0 instructions: 64000000 cycles: 137312194 heartbeat IPC: 0.498831 cumulative IPC: 0.474992 (Simulation time: 0 hr 7 min 38 sec) 
Heartbeat CPU 0 instructions: 65000001 cycles: 139949280 heartbeat IPC: 0.379207 cumulative IPC: 0.472821 (Simulation time: 0 hr 7 min 52 sec) 
Heartbeat CPU 0 instructions: 66000000 cycles: 141151154 heartbeat IPC: 0.832033 cumulative IPC: 0.476494 (Simulation time: 0 hr 7 min 59 sec) 
Heartbeat CPU 0 instructions: 67000001 cycles: 142370718 heartbeat IPC: 0.819966 cumulative IPC: 0.480022 (Simulation time: 0 hr 8 min 5 sec) 
Heartbeat CPU 0 instructions: 68000001 cycles: 145057717 heartbeat IPC: 0.372162 cumulative IPC: 0.477635 (Simulation time: 0 hr 8 min 17 sec) 
Heartbeat CPU 0 instructions: 69000002 cycles: 146996357 heartbeat IPC: 0.515826 cumulative IPC: 0.478236 (Simulation time: 0 hr 8 min 22 sec) 
Heartbeat CPU 0 instructions: 70000002 cycles: 148752597 heartbeat IPC: 0.569398 cumulative IPC: 0.479515 (Simulation time: 0 hr 8 min 29 sec) 
Heartbeat CPU 0 instructions: 71000001 cycles: 151097768 heartbeat IPC: 0.426408 cumulative IPC: 0.478538 (Simulation time: 0 hr 8 min 41 sec) 
Heartbeat CPU 0 instructions: 72000000 cycles: 153368667 heartbeat IPC: 0.440354 cumulative IPC: 0.47787 (Simulation time: 0 hr 8 min 54 sec) 
Heartbeat CPU 0 instructions: 73000002 cycles: 155722837 heartbeat IPC: 0.424779 cumulative IPC: 0.476923 (Simulation time: 0 hr 9 min 0 sec) 
Heartbeat CPU 0 instructions: 74000001 cycles: 157259414 heartbeat IPC: 0.650797 cumulative IPC: 0.478923 (Simulation time: 0 hr 9 min 6 sec) 
Heartbeat CPU 0 instructions: 75000003 cycles: 158475539 heartbeat IPC: 0.822286 cumulative IPC: 0.482019 (Simulation time: 0 hr 9 min 11 sec) 
Heartbeat CPU 0 instructions: 76000002 cycles: 161164544 heartbeat IPC: 0.371884 cumulative IPC: 0.479866 (Simulation time: 0 hr 9 min 19 sec) 
Heartbeat CPU 0 instructions: 77000000 cycles: 162791109 heartbeat IPC: 0.614791 cumulative IPC: 0.481443 (Simulation time: 0 hr 9 min 23 sec) 
Heartbeat CPU 0 instructions: 78000003 cycles: 164189652 heartbeat IPC: 0.715032 cumulative IPC: 0.483767 (Simulation time: 0 hr 9 min 26 sec) 
Heartbeat CPU 0 instructions: 79000000 cycles: 166829894 heartbeat IPC: 0.378752 cumulative IPC: 0.481831 (Simulation time: 0 hr 9 min 33 sec) 
Heartbeat CPU 0 instructions: 80000001 cycles: 169097463 heartbeat IPC: 0.441001 cumulative IPC: 0.481195 (Simulation time: 0 hr 9 min 39 sec) 
Heartbeat CPU 0 instructions: 81000000 cycles: 171615471 heartbeat IPC: 0.397139 cumulative IPC: 0.479764 (Simulation time: 0 hr 9 min 51 sec) 
Heartbeat CPU 0 instructions: 82000001 cycles: 173013229 heartbeat IPC: 0.715432 cumulative IPC: 0.48197 (Simulation time: 0 hr 9 min 57 sec) 
Heartbeat CPU 0 instructions: 83000002 cycles: 174227697 heartbeat IPC: 0.823407 cumulative IPC: 0.484723 (Simulation time: 0 hr 10 min 3 sec) 
Heartbeat CPU 0 instructions: 84000001 cycles: 176930223 heartbeat IPC: 0.370024 cumulative IPC: 0.482701 (Simulation time: 0 hr 10 min 14 sec) 
Heartbeat CPU 0 instructions: 85000000 cycles: 178574842 heartbeat IPC: 0.608043 cumulative IPC: 0.484031 (Simulation time: 0 hr 10 min 20 sec) 
Heartbeat CPU 0 instructions: 86000000 cycles: 180024405 heartbeat IPC: 0.689863 cumulative IPC: 0.485939 (Simulation time: 0 hr 10 min 23 sec) 
Heartbeat CPU 0 instructions: 87000001 cycles: 182523586 heartbeat IPC: 0.400131 cumulative IPC: 0.484589 (Simulation time: 0 hr 10 min 34 sec) 
Heartbeat CPU 0 instructions: 88000000 cycles: 184496212 heartbeat IPC: 0.506938 cumulative IPC: 0.484863 (Simulation time: 0 hr 10 min 42 sec) 
Heartbeat CPU 0 instructions: 89000002 cycles: 187117304 heartbeat IPC: 0.381521 cumulative IPC: 0.483207 (Simulation time: 0 hr 10 min 52 sec) 
Heartbeat CPU 0 instructions: 90000003 cycles: 188315701 heartbeat IPC: 0.834449 cumulative IPC: 0.485763 (Simulation time: 0 hr 10 min 58 sec) 
Heartbeat CPU 0 instructions: 91000002 cycles: 189608916 heartbeat IPC: 0.773266 cumulative IPC: 0.488003 (Simulation time: 0 hr 11 min 1 sec) 
Heartbeat CPU 0 instructions: 92000000 cycles: 192173054 heartbeat IPC: 0.389994 cumulative IPC: 0.486512 (Simulation time: 0 hr 11 min 9 sec) 
Heartbeat CPU 0 instructions: 93000000 cycles: 193938927 heartbeat IPC: 0.566292 cumulative IPC: 0.487339 (Simulation time: 0 hr 11 min 15 sec) 
Heartbeat CPU 0 instructions: 94000000 cycles: 195280881 heartbeat IPC: 0.745182 cumulative IPC: 0.489354 (Simulation time: 0 hr 11 min 20 sec) 
Heartbeat CPU 0 instructions: 95000000 cycles: 198040689 heartbeat IPC: 0.362344 cumulative IPC: 0.487345 (Simulation time: 0 hr 11 min 33 sec) 
Heartbeat CPU 0 instructions: 96000000 cycles: 199796074 heartbeat IPC: 0.569676 cumulative IPC: 0.488165 (Simulation time: 0 hr 11 min 42 sec) 
Heartbeat CPU 0 instructions: 97000003 cycles: 202282331 heartbeat IPC: 0.402212 cumulative IPC: 0.486969 (Simulation time: 0 hr 11 min 52 sec) 
Heartbeat CPU 0 instructions: 98000001 cycles: 203487700 heartbeat IPC: 0.82962 cumulative IPC: 0.489265 (Simulation time: 0 hr 11 min 58 sec) 
Heartbeat CPU 0 instructions: 99000000 cycles: 205622002 heartbeat IPC: 0.468537 cumulative IPC: 0.489022 (Simulation time: 0 hr 12 min 7 sec) 
Heartbeat CPU 0 instructions: 100000000 cycles: 207568560 heartbeat IPC: 0.513727 cumulative IPC: 0.489284 (Simulation time: 0 hr 12 min 15 sec) 
Heartbeat CPU 0 instructions: 101000002 cycles: 209050664 heartbeat IPC: 0.674718 cumulative IPC: 0.490766 (Simulation time: 0 hr 12 min 21 sec) 
Heartbeat CPU 0 instructions: 102000003 cycles: 210659442 heartbeat IPC: 0.62159 cumulative IPC: 0.491891 (Simulation time: 0 hr 12 min 28 sec) 
Heartbeat CPU 0 instructions: 103000003 cycles: 213393449 heartbeat IPC: 0.365764 cumulative IPC: 0.490074 (Simulation time: 0 hr 12 min 42 sec) 
Heartbeat CPU 0 instructions: 104000003 cycles: 215531794 heartbeat IPC: 0.467651 cumulative IPC: 0.489824 (Simulation time: 0 hr 12 min 48 sec) 
Heartbeat CPU 0 instructions: 105000000 cycles: 217360057 heartbeat IPC: 0.546966 cumulative IPC: 0.490363 (Simulation time: 0 hr 12 min 53 sec) 
Heartbeat CPU 0 instructions: 106000002 cycles: 218574521 heartbeat IPC: 0.82341 cumulative IPC: 0.492438 (Simulation time: 0 hr 12 min 56 sec) 
Heartbeat CPU 0 instructions: 107000000 cycles: 221202745 heartbeat IPC: 0.380484 cumulative IPC: 0.490949 (Simulation time: 0 hr 13 min 2 sec) 
Heartbeat CPU 0 instructions: 108000000 cycles: 222780099 heartbeat IPC: 0.633973 cumulative IPC: 0.492082 (Simulation time: 0 hr 13 min 7 sec) 
Heartbeat CPU 0 instructions: 109000003 cycles: 224239173 heartbeat IPC: 0.685368 cumulative IPC: 0.493487 (Simulation time: 0 hr 13 min 10 sec) 
Heartbeat CPU 0 instructions: 110000000 cycles: 226556311 heartbeat IPC: 0.431566 cumulative IPC: 0.49278 (Simulation time: 0 hr 13 min 20 sec) 
Heartbeat CPU 0 instructions: 111000002 cycles: 228441248 heartbeat IPC: 0.530523 cumulative IPC: 0.493128 (Simulation time: 0 hr 13 min 25 sec) 
Heartbeat CPU 0 instructions: 112000001 cycles: 230377317 heartbeat IPC: 0.51651 cumulative IPC: 0.493347 (Simulation time: 0 hr 13 min 34 sec) 
Heartbeat CPU 0 instructions: 113000000 cycles: 232450733 heartbeat IPC: 0.482295 cumulative IPC: 0.493237 (Simulation time: 0 hr 13 min 42 sec) 
Heartbeat CPU 0 instructions: 114000001 cycles: 233665784 heartbeat IPC: 0.823012 cumulative IPC: 0.495145 (Simulation time: 0 hr 13 min 47 sec) 
Heartbeat CPU 0 instructions: 115000000 cycles: 236213221 heartbeat IPC: 0.392551 cumulative IPC: 0.493915 (Simulation time: 0 hr 13 min 58 sec) 
Heartbeat CPU 0 instructions: 116000001 cycles: 237816519 heartbeat IPC: 0.623715 cumulative IPC: 0.494887 (Simulation time: 0 hr 14 min 4 sec) 
Heartbeat CPU 0 instructions: 117000001 cycles: 239351725 heartbeat IPC: 0.651378 cumulative IPC: 0.496001 (Simulation time: 0 hr 14 min 9 sec) 
Heartbeat CPU 0 instructions: 118000000 cycles: 241849596 heartbeat IPC: 0.400341 cumulative IPC: 0.494906 (Simulation time: 0 hr 14 min 21 sec) 
Heartbeat CPU 0 instructions: 119000000 cycles: 243724544 heartbeat IPC: 0.533348 cumulative IPC: 0.495233 (Simulation time: 0 hr 14 min 30 sec) 
Heartbeat CPU 0 instructions: 120000002 cycles: 245566655 heartbeat IPC: 0.542857 cumulative IPC: 0.495628 (Simulation time: 0 hr 14 min 41 sec) 
Heartbeat CPU 0 instructions: 121000000 cycles: 247799122 heartbeat IPC: 0.447934 cumulative IPC: 0.495153 (Simulation time: 0 hr 14 min 48 sec) 
Heartbeat CPU 0 instructions: 122000002 cycles: 249014948 heartbeat IPC: 0.822488 cumulative IPC: 0.496919 (Simulation time: 0 hr 14 min 54 sec) 
Heartbeat CPU 0 instructions: 123000000 cycles: 251440173 heartbeat IPC: 0.412332 cumulative IPC: 0.496019 (Simulation time: 0 hr 15 min 0 sec) 
Heartbeat CPU 0 instructions: 124000000 cycles: 253191906 heartbeat IPC: 0.570863 cumulative IPC: 0.49659 (Simulation time: 0 hr 15 min 7 sec) 
Heartbeat CPU 0 instructions: 125000000 cycles: 254730936 heartbeat IPC: 0.64976 cumulative IPC: 0.49761 (Simulation time: 0 hr 15 min 12 sec) 
Heartbeat CPU 0 instructions: 126000001 cycles: 256731869 heartbeat IPC: 0.499767 cumulative IPC: 0.497628 (Simulation time: 0 hr 15 min 16 sec) 
Heartbeat CPU 0 instructions: 127000003 cycles: 259338029 heartbeat IPC: 0.383707 cumulative IPC: 0.496369 (Simulation time: 0 hr 15 min 29 sec) 
Heartbeat CPU 0 instructions: 128000001 cycles: 261562783 heartbeat IPC: 0.449487 cumulative IPC: 0.49593 (Simulation time: 0 hr 15 min 41 sec) 
Heartbeat CPU 0 instructions: 129000002 cycles: 263257930 heartbeat IPC: 0.58992 cumulative IPC: 0.496595 (Simulation time: 0 hr 15 min 48 sec) 
Heartbeat CPU 0 instructions: 130000001 cycles: 264472720 heartbeat IPC: 0.823187 cumulative IPC: 0.498243 (Simulation time: 0 hr 15 min 55 sec) 
Heartbeat CPU 0 instructions: 131000000 cycles: 267094157 heartbeat IPC: 0.38147 cumulative IPC: 0.496985 (Simulation time: 0 hr 16 min 4 sec) 
Heartbeat CPU 0 instructions: 132000000 cycles: 268712451 heartbeat IPC: 0.617935 cumulative IPC: 0.497784 (Simulation time: 0 hr 16 min 7 sec) 
Heartbeat CPU 0 instructions: 133000001 cycles: 270179201 heartbeat IPC: 0.68178 cumulative IPC: 0.498879 (Simulation time: 0 hr 16 min 11 sec) 
Heartbeat CPU 0 instructions: 134000002 cycles: 272578002 heartbeat IPC: 0.416875 cumulative IPC: 0.498088 (Simulation time: 0 hr 16 min 22 sec) 
Heartbeat CPU 0 instructions: 135000000 cycles: 274502642 heartbeat IPC: 0.519577 cumulative IPC: 0.498253 (Simulation time: 0 hr 16 min 32 sec) 
Heartbeat CPU 0 instructions: 136000000 cycles: 276423430 heartbeat IPC: 0.52062 cumulative IPC: 0.498423 (Simulation time: 0 hr 16 min 44 sec) 
Heartbeat CPU 0 instructions: 137000003 cycles: 278533483 heartbeat IPC: 0.473923 cumulative IPC: 0.49822 (Simulation time: 0 hr 16 min 53 sec) 
Heartbeat CPU 0 instructions: 138000001 cycles: 279746871 heartbeat IPC: 0.824137 cumulative IPC: 0.499764 (Simulation time: 0 hr 16 min 59 sec) 
Heartbeat CPU 0 instructions: 139000000 cycles: 282264611 heartbeat IPC: 0.397181 cumulative IPC: 0.498766 (Simulation time: 0 hr 17 min 11 sec) 
Heartbeat CPU 0 instructions: 140000003 cycles: 283914824 heartbeat IPC: 0.605984 cumulative IPC: 0.499446 (Simulation time: 0 hr 17 min 18 sec) 
Heartbeat CPU 0 instructions: 141000001 cycles: 285450548 heartbeat IPC: 0.651157 cumulative IPC: 0.500335 (Simulation time: 0 hr 17 min 23 sec) 
Heartbeat CPU 0 instructions: 142000002 cycles: 287782516 heartbeat IPC: 0.428823 cumulative IPC: 0.499704 (Simulation time: 0 hr 17 min 35 sec) 
Heartbeat CPU 0 instructions: 143000000 cycles: 291029589 heartbeat IPC: 0.307969 cumulative IPC: 0.497376 (Simulation time: 0 hr 17 min 44 sec) 
Heartbeat CPU 0 instructions: 144000002 cycles: 294066131 heartbeat IPC: 0.329323 cumulative IPC: 0.495489 (Simulation time: 0 hr 18 min 0 sec) 
Heartbeat CPU 0 instructions: 145000002 cycles: 296333431 heartbeat IPC: 0.441053 cumulative IPC: 0.495036 (Simulation time: 0 hr 18 min 15 sec) 
Heartbeat CPU 0 instructions: 146000001 cycles: 298959769 heartbeat IPC: 0.380758 cumulative IPC: 0.493946 (Simulation time: 0 hr 18 min 28 sec) 
Heartbeat CPU 0 instructions: 147000003 cycles: 301003887 heartbeat IPC: 0.48921 cumulative IPC: 0.493911 (Simulation time: 0 hr 18 min 36 sec) 
Heartbeat CPU 0 instructions: 148000000 cycles: 303572117 heartbeat IPC: 0.389372 cumulative IPC: 0.492952 (Simulation time: 0 hr 18 min 50 sec) 
Heartbeat CPU 0 instructions: 149000001 cycles: 306090988 heartbeat IPC: 0.397004 cumulative IPC: 0.492097 (Simulation time: 0 hr 18 min 57 sec) 
Heartbeat CPU 0 instructions: 150000002 cycles: 308306480 heartbeat IPC: 0.451367 cumulative IPC: 0.49178 (Simulation time: 0 hr 19 min 1 sec) 
Heartbeat CPU 0 instructions: 151000000 cycles: 310411025 heartbeat IPC: 0.475161 cumulative IPC: 0.491658 (Simulation time: 0 hr 19 min 11 sec) 
Heartbeat CPU 0 instructions: 152000002 cycles: 311728797 heartbeat IPC: 0.758858 cumulative IPC: 0.49288 (Simulation time: 0 hr 19 min 18 sec) 
Heartbeat CPU 0 instructions: 153000003 cycles: 312968475 heartbeat IPC: 0.806662 cumulative IPC: 0.494224 (Simulation time: 0 hr 19 min 25 sec) 
Heartbeat CPU 0 instructions: 154000000 cycles: 314717182 heartbeat IPC: 0.571849 cumulative IPC: 0.494691 (Simulation time: 0 hr 19 min 29 sec) 
Heartbeat CPU 0 instructions: 155000001 cycles: 317693447 heartbeat IPC: 0.335992 cumulative IPC: 0.493084 (Simulation time: 0 hr 19 min 35 sec) 
Heartbeat CPU 0 instructions: 156000000 cycles: 319908620 heartbeat IPC: 0.451432 cumulative IPC: 0.492773 (Simulation time: 0 hr 19 min 41 sec) 
Heartbeat CPU 0 instructions: 157000002 cycles: 322022957 heartbeat IPC: 0.472962 cumulative IPC: 0.492633 (Simulation time: 0 hr 19 min 49 sec) 
Heartbeat CPU 0 instructions: 158000000 cycles: 323670724 heartbeat IPC: 0.606881 cumulative IPC: 0.49326 (Simulation time: 0 hr 19 min 56 sec) 
Heartbeat CPU 0 instructions: 159000000 cycles: 326393399 heartbeat IPC: 0.367286 cumulative IPC: 0.492127 (Simulation time: 0 hr 20 min 3 sec) 
Heartbeat CPU 0 instructions: 160000001 cycles: 327607462 heartbeat IPC: 0.823681 cumulative IPC: 0.493451 (Simulation time: 0 hr 20 min 10 sec) 
Heartbeat CPU 0 instructions: 161000001 cycles: 329438934 heartbeat IPC: 0.546009 cumulative IPC: 0.493766 (Simulation time: 0 hr 20 min 19 sec) 
Heartbeat CPU 0 instructions: 162000001 cycles: 331614317 heartbeat IPC: 0.459689 cumulative IPC: 0.493526 (Simulation time: 0 hr 20 min 30 sec) 
Heartbeat CPU 0 instructions: 163000001 cycles: 333471031 heartbeat IPC: 0.538586 cumulative IPC: 0.493796 (Simulation time: 0 hr 20 min 35 sec) 
Heartbeat CPU 0 instructions: 164000002 cycles: 335376359 heartbeat IPC: 0.524845 cumulative IPC: 0.493985 (Simulation time: 0 hr 20 min 42 sec) 
Heartbeat CPU 0 instructions: 165000000 cycles: 337528753 heartbeat IPC: 0.464598 cumulative IPC: 0.493784 (Simulation time: 0 hr 20 min 50 sec) 
Heartbeat CPU 0 instructions: 166000001 cycles: 340120931 heartbeat IPC: 0.385776 cumulative IPC: 0.492899 (Simulation time: 0 hr 21 min 1 sec) 
Heartbeat CPU 0 instructions: 167000001 cycles: 341318152 heartbeat IPC: 0.835268 cumulative IPC: 0.494189 (Simulation time: 0 hr 21 min 7 sec) 
Heartbeat CPU 0 instructions: 168000000 cycles: 342517307 heartbeat IPC: 0.83392 cumulative IPC: 0.495467 (Simulation time: 0 hr 21 min 14 sec) 
Heartbeat CPU 0 instructions: 169000000 cycles: 345006407 heartbeat IPC: 0.401752 cumulative IPC: 0.494741 (Simulation time: 0 hr 21 min 27 sec) 
Heartbeat CPU 0 instructions: 170000003 cycles: 346655129 heartbeat IPC: 0.606532 cumulative IPC: 0.495312 (Simulation time: 0 hr 21 min 33 sec) 
Heartbeat CPU 0 instructions: 171000000 cycles: 348033448 heartbeat IPC: 0.725519 cumulative IPC: 0.49629 (Simulation time: 0 hr 21 min 38 sec) 
Heartbeat CPU 0 instructions: 172000000 cycles: 350593998 heartbeat IPC: 0.390541 cumulative IPC: 0.495462 (Simulation time: 0 hr 21 min 50 sec) 
Heartbeat CPU 0 instructions: 173000000 cycles: 352496400 heartbeat IPC: 0.525651 cumulative IPC: 0.495636 (Simulation time: 0 hr 21 min 59 sec) 
Heartbeat CPU 0 instructions: 174000000 cycles: 355162396 heartbeat IPC: 0.375094 cumulative IPC: 0.494667 (Simulation time: 0 hr 22 min 12 sec) 
Heartbeat CPU 0 instructions: 175000001 cycles: 356362936 heartbeat IPC: 0.832959 cumulative IPC: 0.495888 (Simulation time: 0 hr 22 min 18 sec) 
Heartbeat CPU 0 instructions: 176000000 cycles: 357922612 heartbeat IPC: 0.641158 cumulative IPC: 0.496565 (Simulation time: 0 hr 22 min 27 sec) 
Heartbeat CPU 0 instructions: 177000002 cycles: 360208902 heartbeat IPC: 0.437391 cumulative IPC: 0.496163 (Simulation time: 0 hr 22 min 36 sec) 
Heartbeat CPU 0 instructions: 178000000 cycles: 361935596 heartbeat IPC: 0.57914 cumulative IPC: 0.496587 (Simulation time: 0 hr 22 min 43 sec) 
Heartbeat CPU 0 instructions: 179000000 cycles: 363295250 heartbeat IPC: 0.735481 cumulative IPC: 0.497543 (Simulation time: 0 hr 22 min 47 sec) 
Heartbeat CPU 0 instructions: 180000001 cycles: 366089288 heartbeat IPC: 0.357905 cumulative IPC: 0.496404 (Simulation time: 0 hr 22 min 59 sec) 
Heartbeat CPU 0 instructions: 181000000 cycles: 367746281 heartbeat IPC: 0.603502 cumulative IPC: 0.49692 (Simulation time: 0 hr 23 min 6 sec) 
Heartbeat CPU 0 instructions: 182000000 cycles: 370460189 heartbeat IPC: 0.368472 cumulative IPC: 0.495914 (Simulation time: 0 hr 23 min 21 sec) 
Heartbeat CPU 0 instructions: 183000000 cycles: 371666456 heartbeat IPC: 0.829004 cumulative IPC: 0.497069 (Simulation time: 0 hr 23 min 25 sec) 
Heartbeat CPU 0 instructions: 184000000 cycles: 373614827 heartbeat IPC: 0.513249 cumulative IPC: 0.497159 (Simulation time: 0 hr 23 min 33 sec) 
Heartbeat CPU 0 instructions: 185000001 cycles: 375680418 heartbeat IPC: 0.484123 cumulative IPC: 0.497083 (Simulation time: 0 hr 23 min 42 sec) 
Heartbeat CPU 0 instructions: 186000000 cycles: 377293007 heartbeat IPC: 0.62012 cumulative IPC: 0.497644 (Simulation time: 0 hr 23 min 46 sec) 
Heartbeat CPU 0 instructions: 187000000 cycles: 378656432 heartbeat IPC: 0.733447 cumulative IPC: 0.498549 (Simulation time: 0 hr 23 min 49 sec) 
Heartbeat CPU 0 instructions: 188000003 cycles: 381639436 heartbeat IPC: 0.335234 cumulative IPC: 0.497188 (Simulation time: 0 hr 24 min 1 sec) 
Heartbeat CPU 0 instructions: 189000000 cycles: 383440961 heartbeat IPC: 0.555084 cumulative IPC: 0.497478 (Simulation time: 0 hr 24 min 7 sec) 
Heartbeat CPU 0 instructions: 190000001 cycles: 385688717 heartbeat IPC: 0.444889 cumulative IPC: 0.497152 (Simulation time: 0 hr 24 min 15 sec) 
Heartbeat CPU 0 instructions: 191000003 cycles: 386901239 heartbeat IPC: 0.824729 cumulative IPC: 0.498245 (Simulation time: 0 hr 24 min 19 sec) 
Heartbeat CPU 0 instructions: 192000000 cycles: 389298981 heartbeat IPC: 0.417058 cumulative IPC: 0.497713 (Simulation time: 0 hr 24 min 24 sec) 
Heartbeat CPU 0 instructions: 193000000 cycles: 390976243 heartbeat IPC: 0.59621 cumulative IPC: 0.498162 (Simulation time: 0 hr 24 min 28 sec) 
Heartbeat CPU 0 instructions: 194000002 cycles: 392506811 heartbeat IPC: 0.653354 cumulative IPC: 0.498806 (Simulation time: 0 hr 24 min 31 sec) 
Heartbeat CPU 0 instructions: 195000001 cycles: 394600763 heartbeat IPC: 0.477565 cumulative IPC: 0.498686 (Simulation time: 0 hr 24 min 40 sec) 
Heartbeat CPU 0 instructions: 196000002 cycles: 396876110 heartbeat IPC: 0.439494 cumulative IPC: 0.498326 (Simulation time: 0 hr 24 min 46 sec) 
Heartbeat CPU 0 instructions: 197000000 cycles: 399139501 heartbeat IPC: 0.441814 cumulative IPC: 0.497985 (Simulation time: 0 hr 24 min 54 sec) 
Heartbeat CPU 0 instructions: 198000000 cycles: 400773303 heartbeat IPC: 0.612069 cumulative IPC: 0.498479 (Simulation time: 0 hr 25 min 2 sec) 
Heartbeat CPU 0 instructions: 199000000 cycles: 401989973 heartbeat IPC: 0.821916 cumulative IPC: 0.499519 (Simulation time: 0 hr 25 min 8 sec) 
Heartbeat CPU 0 instructions: 200000002 cycles: 404696335 heartbeat IPC: 0.3695 cumulative IPC: 0.498596 (Simulation time: 0 hr 25 min 20 sec) 
Heartbeat CPU 0 instructions: 201000000 cycles: 406246283 heartbeat IPC: 0.645182 cumulative IPC: 0.49919 (Simulation time: 0 hr 25 min 26 sec) 
Heartbeat CPU 0 instructions: 202000000 cycles: 407736698 heartbeat IPC: 0.670954 cumulative IPC: 0.499856 (Simulation time: 0 hr 25 min 32 sec) 
Heartbeat CPU 0 instructions: 203000002 cycles: 410160449 heartbeat IPC: 0.412584 cumulative IPC: 0.499309 (Simulation time: 0 hr 25 min 43 sec) 
Heartbeat CPU 0 instructions: 204000000 cycles: 412093241 heartbeat IPC: 0.517385 cumulative IPC: 0.499399 (Simulation time: 0 hr 25 min 52 sec) 
Heartbeat CPU 0 instructions: 205000000 cycles: 414705895 heartbeat IPC: 0.382753 cumulative IPC: 0.49862 (Simulation time: 0 hr 25 min 59 sec) 
Heartbeat CPU 0 instructions: 206000001 cycles: 415911681 heartbeat IPC: 0.829335 cumulative IPC: 0.499636 (Simulation time: 0 hr 26 min 4 sec) 
Heartbeat CPU 0 instructions: 207000000 cycles: 417284919 heartbeat IPC: 0.728205 cumulative IPC: 0.500433 (Simulation time: 0 hr 26 min 12 sec) 
Heartbeat CPU 0 instructions: 208000000 cycles: 419736750 heartbeat IPC: 0.407858 cumulative IPC: 0.49986 (Simulation time: 0 hr 26 min 22 sec) 
Heartbeat CPU 0 instructions: 209000000 cycles: 421399865 heartbeat IPC: 0.601281 cumulative IPC: 0.500284 (Simulation time: 0 hr 26 min 26 sec) 
Heartbeat CPU 0 instructions: 210000000 cycles: 422705321 heartbeat IPC: 0.766016 cumulative IPC: 0.501154 (Simulation time: 0 hr 26 min 31 sec) 
Heartbeat CPU 0 instructions: 211000001 cycles: 425513370 heartbeat IPC: 0.356119 cumulative IPC: 0.50014 (Simulation time: 0 hr 26 min 44 sec) 
Heartbeat CPU 0 instructions: 212000002 cycles: 427316448 heartbeat IPC: 0.554608 cumulative IPC: 0.500384 (Simulation time: 0 hr 26 min 52 sec) 
Heartbeat CPU 0 instructions: 213000001 cycles: 429656587 heartbeat IPC: 0.427325 cumulative IPC: 0.499963 (Simulation time: 0 hr 27 min 3 sec) 
Heartbeat CPU 0 instructions: 214000000 cycles: 430864580 heartbeat IPC: 0.827819 cumulative IPC: 0.500935 (Simulation time: 0 hr 27 min 10 sec) 
Heartbeat CPU 0 instructions: 215000003 cycles: 433181697 heartbeat IPC: 0.431572 cumulative IPC: 0.500543 (Simulation time: 0 hr 27 min 16 sec) 
Heartbeat CPU 0 instructions: 216000000 cycles: 434921354 heartbeat IPC: 0.574824 cumulative IPC: 0.500857 (Simulation time: 0 hr 27 min 22 sec) 
Heartbeat CPU 0 instructions: 217000001 cycles: 436392315 heartbeat IPC: 0.679828 cumulative IPC: 0.501495 (Simulation time: 0 hr 27 min 26 sec) 
Heartbeat CPU 0 instructions: 218000001 cycles: 437658429 heartbeat IPC: 0.789818 cumulative IPC: 0.502376 (Simulation time: 0 hr 27 min 31 sec) 
Heartbeat CPU 0 instructions: 219000001 cycles: 439734665 heartbeat IPC: 0.481641 cumulative IPC: 0.502273 (Simulation time: 0 hr 27 min 42 sec) 
Heartbeat CPU 0 instructions: 220000000 cycles: 442022606 heartbeat IPC: 0.437074 cumulative IPC: 0.501916 (Simulation time: 0 hr 27 min 50 sec) 
Heartbeat CPU 0 instructions: 221000002 cycles: 443635989 heartbeat IPC: 0.619817 cumulative IPC: 0.502369 (Simulation time: 0 hr 27 min 54 sec) 
Heartbeat CPU 0 instructions: 222000002 cycles: 444845254 heartbeat IPC: 0.826949 cumulative IPC: 0.503301 (Simulation time: 0 hr 27 min 58 sec) 
Heartbeat CPU 0 instructions: 223000003 cycles: 447326253 heartbeat IPC: 0.403064 cumulative IPC: 0.502714 (Simulation time: 0 hr 28 min 4 sec) 
Heartbeat CPU 0 instructions: 224000003 cycles: 448797457 heartbeat IPC: 0.679715 cumulative IPC: 0.503327 (Simulation time: 0 hr 28 min 9 sec) 
Heartbeat CPU 0 instructions: 225000000 cycles: 450205570 heartbeat IPC: 0.710168 cumulative IPC: 0.504009 (Simulation time: 0 hr 28 min 14 sec) 
Heartbeat CPU 0 instructions: 226000001 cycles: 451606043 heartbeat IPC: 0.714045 cumulative IPC: 0.504697 (Simulation time: 0 hr 28 min 21 sec) 
Heartbeat CPU 0 instructions: 227000001 cycles: 453649590 heartbeat IPC: 0.489345 cumulative IPC: 0.504624 (Simulation time: 0 hr 28 min 31 sec) 
Heartbeat CPU 0 instructions: 228000000 cycles: 456268507 heartbeat IPC: 0.381837 cumulative IPC: 0.50388 (Simulation time: 0 hr 28 min 44 sec) 
Heartbeat CPU 0 instructions: 229000001 cycles: 457471930 heartbeat IPC: 0.830964 cumulative IPC: 0.504788 (Simulation time: 0 hr 28 min 51 sec) 
Heartbeat CPU 0 instructions: 230000002 cycles: 458729039 heartbeat IPC: 0.795477 cumulative IPC: 0.505628 (Simulation time: 0 hr 28 min 55 sec) 
Heartbeat CPU 0 instructions: 231000000 cycles: 461120865 heartbeat IPC: 0.41809 cumulative IPC: 0.505149 (Simulation time: 0 hr 29 min 1 sec) 
Heartbeat CPU 0 instructions: 232000002 cycles: 462755954 heartbeat IPC: 0.611589 cumulative IPC: 0.505545 (Simulation time: 0 hr 29 min 4 sec) 
Heartbeat CPU 0 instructions: 233000000 cycles: 464133060 heartbeat IPC: 0.726159 cumulative IPC: 0.506235 (Simulation time: 0 hr 29 min 10 sec) 
Heartbeat CPU 0 instructions: 234000001 cycles: 466158458 heartbeat IPC: 0.493731 cumulative IPC: 0.506178 (Simulation time: 0 hr 29 min 18 sec) 
Heartbeat CPU 0 instructions: 235000002 cycles: 470132568 heartbeat IPC: 0.251629 cumulative IPC: 0.503912 (Simulation time: 0 hr 29 min 32 sec) 
Heartbeat CPU 0 instructions: 236000002 cycles: 472124170 heartbeat IPC: 0.502108 cumulative IPC: 0.503904 (Simulation time: 0 hr 29 min 47 sec) 
Heartbeat CPU 0 instructions: 237000000 cycles: 474883713 heartbeat IPC: 0.362378 cumulative IPC: 0.503039 (Simulation time: 0 hr 29 min 59 sec) 
Heartbeat CPU 0 instructions: 238000002 cycles: 476974333 heartbeat IPC: 0.478328 cumulative IPC: 0.502925 (Simulation time: 0 hr 30 min 5 sec) 
Heartbeat CPU 0 instructions: 239000003 cycles: 479040537 heartbeat IPC: 0.48398 cumulative IPC: 0.502839 (Simulation time: 0 hr 30 min 16 sec) 
Heartbeat CPU 0 instructions: 240000002 cycles: 482021858 heartbeat IPC: 0.335421 cumulative IPC: 0.50175 (Simulation time: 0 hr 30 min 20 sec) 
Heartbeat CPU 0 instructions: 241000001 cycles: 484446384 heartbeat IPC: 0.412451 cumulative IPC: 0.50128 (Simulation time: 0 hr 30 min 25 sec) 
Heartbeat CPU 0 instructions: 242000000 cycles: 486365488 heartbeat IPC: 0.521076 cumulative IPC: 0.501362 (Simulation time: 0 hr 30 min 33 sec) 
Heartbeat CPU 0 instructions: 243000000 cycles: 487828728 heartbeat IPC: 0.683415 cumulative IPC: 0.501936 (Simulation time: 0 hr 30 min 38 sec) 
Heartbeat CPU 0 instructions: 244000003 cycles: 489090615 heartbeat IPC: 0.792466 cumulative IPC: 0.502724 (Simulation time: 0 hr 30 min 43 sec) 
Heartbeat CPU 0 instructions: 245000001 cycles: 490874928 heartbeat IPC: 0.560439 cumulative IPC: 0.502944 (Simulation time: 0 hr 30 min 47 sec) 
Heartbeat CPU 0 instructions: 246000002 cycles: 493750329 heartbeat IPC: 0.347778 cumulative IPC: 0.501995 (Simulation time: 0 hr 30 min 53 sec) 
Heartbeat CPU 0 instructions: 247000001 cycles: 496111177 heartbeat IPC: 0.423576 cumulative IPC: 0.501603 (Simulation time: 0 hr 31 min 0 sec) 
Heartbeat CPU 0 instructions: 248000001 cycles: 498188983 heartbeat IPC: 0.481277 cumulative IPC: 0.501514 (Simulation time: 0 hr 31 min 6 sec) 
Heartbeat CPU 0 instructions: 249000003 cycles: 500168113 heartbeat IPC: 0.505274 cumulative IPC: 0.50153 (Simulation time: 0 hr 31 min 11 sec) 
Heartbeat CPU 0 instructions: 250000003 cycles: 502791115 heartbeat IPC: 0.381243 cumulative IPC: 0.500871 (Simulation time: 0 hr 31 min 17 sec) 
Heartbeat CPU 0 instructions: 251000000 cycles: 503996716 heartbeat IPC: 0.829459 cumulative IPC: 0.501696 (Simulation time: 0 hr 31 min 20 sec) 
Heartbeat CPU 0 instructions: 252000002 cycles: 505223632 heartbeat IPC: 0.815053 cumulative IPC: 0.502494 (Simulation time: 0 hr 31 min 24 sec) 
Heartbeat CPU 0 instructions: 253000000 cycles: 507728424 heartbeat IPC: 0.399234 cumulative IPC: 0.50196 (Simulation time: 0 hr 31 min 33 sec) 
Heartbeat CPU 0 instructions: 254000000 cycles: 509668762 heartbeat IPC: 0.515374 cumulative IPC: 0.502014 (Simulation time: 0 hr 31 min 39 sec) 
Heartbeat CPU 0 instructions: 255000001 cycles: 511419541 heartbeat IPC: 0.571175 cumulative IPC: 0.502262 (Simulation time: 0 hr 31 min 45 sec) 
Heartbeat CPU 0 instructions: 256000002 cycles: 513278216 heartbeat IPC: 0.538018 cumulative IPC: 0.502398 (Simulation time: 0 hr 31 min 50 sec) 
Heartbeat CPU 0 instructions: 257000002 cycles: 514980790 heartbeat IPC: 0.587346 cumulative IPC: 0.502692 (Simulation time: 0 hr 32 min 0 sec) 
Heartbeat CPU 0 instructions: 258000002 cycles: 517647567 heartbeat IPC: 0.374984 cumulative IPC: 0.502003 (Simulation time: 0 hr 32 min 12 sec) 
Heartbeat CPU 0 instructions: 259000000 cycles: 518839153 heartbeat IPC: 0.839216 cumulative IPC: 0.502814 (Simulation time: 0 hr 32 min 18 sec) 
Heartbeat CPU 0 instructions: 260000000 cycles: 520396305 heartbeat IPC: 0.642198 cumulative IPC: 0.503251 (Simulation time: 0 hr 32 min 26 sec) 
Heartbeat CPU 0 instructions: 261000001 cycles: 522611093 heartbeat IPC: 0.451511 cumulative IPC: 0.503021 (Simulation time: 0 hr 32 min 36 sec) 
Heartbeat CPU 0 instructions: 262000003 cycles: 524212901 heartbeat IPC: 0.624296 cumulative IPC: 0.503409 (Simulation time: 0 hr 32 min 40 sec) 
Heartbeat CPU 0 instructions: 263000001 cycles: 525626734 heartbeat IPC: 0.707296 cumulative IPC: 0.503983 (Simulation time: 0 hr 32 min 43 sec) 
Heartbeat CPU 0 instructions: 264000000 cycles: 527441537 heartbeat IPC: 0.551023 cumulative IPC: 0.504153 (Simulation time: 0 hr 32 min 48 sec) 
Heartbeat CPU 0 instructions: 265000002 cycles: 528953637 heartbeat IPC: 0.661333 cumulative IPC: 0.504623 (Simulation time: 0 hr 32 min 53 sec) 
Heartbeat CPU 0 instructions: 266000000 cycles: 531624318 heartbeat IPC: 0.374436 cumulative IPC: 0.503939 (Simulation time: 0 hr 33 min 6 sec) 
Heartbeat CPU 0 instructions: 267000000 cycles: 532824386 heartbeat IPC: 0.833286 cumulative IPC: 0.504715 (Simulation time: 0 hr 33 min 12 sec) 
Heartbeat CPU 0 instructions: 268000002 cycles: 534725966 heartbeat IPC: 0.52588 cumulative IPC: 0.504794 (Simulation time: 0 hr 33 min 18 sec) 
Heartbeat CPU 0 instructions: 269000000 cycles: 536714644 heartbeat IPC: 0.502846 cumulative IPC: 0.504786 (Simulation time: 0 hr 33 min 27 sec) 
Heartbeat CPU 0 instructions: 270000000 cycles: 538209450 heartbeat IPC: 0.668983 cumulative IPC: 0.505263 (Simulation time: 0 hr 33 min 33 sec) 
Heartbeat CPU 0 instructions: 271000003 cycles: 539639766 heartbeat IPC: 0.699148 cumulative IPC: 0.505801 (Simulation time: 0 hr 33 min 39 sec) 
Heartbeat CPU 0 instructions: 272000001 cycles: 541536554 heartbeat IPC: 0.527206 cumulative IPC: 0.505879 (Simulation time: 0 hr 33 min 48 sec) 
Heartbeat CPU 0 instructions: 273000000 cycles: 543326400 heartbeat IPC: 0.558707 cumulative IPC: 0.506061 (Simulation time: 0 hr 33 min 58 sec) 
Heartbeat CPU 0 instructions: 274000000 cycles: 545618512 heartbeat IPC: 0.436279 cumulative IPC: 0.505755 (Simulation time: 0 hr 34 min 9 sec) 
Heartbeat CPU 0 instructions: 275000000 cycles: 546827792 heartbeat IPC: 0.826938 cumulative IPC: 0.506497 (Simulation time: 0 hr 34 min 15 sec) 
Heartbeat CPU 0 instructions: 276000002 cycles: 549051560 heartbeat IPC: 0.449688 cumulative IPC: 0.506256 (Simulation time: 0 hr 34 min 24 sec) 
Heartbeat CPU 0 instructions: 277000002 cycles: 550755580 heartbeat IPC: 0.586848 cumulative IPC: 0.506517 (Simulation time: 0 hr 34 min 28 sec) 
Heartbeat CPU 0 instructions: 278000000 cycles: 552238092 heartbeat IPC: 0.674529 cumulative IPC: 0.506988 (Simulation time: 0 hr 34 min 34 sec) 
Heartbeat CPU 0 instructions: 279000001 cycles: 553572537 heartbeat IPC: 0.749376 cumulative IPC: 0.507599 (Simulation time: 0 hr 34 min 40 sec) 
Heartbeat CPU 0 instructions: 280000002 cycles: 555644880 heartbeat IPC: 0.482546 cumulative IPC: 0.507501 (Simulation time: 0 hr 34 min 46 sec) 
Heartbeat CPU 0 instructions: 281000003 cycles: 557673909 heartbeat IPC: 0.492847 cumulative IPC: 0.507445 (Simulation time: 0 hr 34 min 55 sec) 
Heartbeat CPU 0 instructions: 282000002 cycles: 559610979 heartbeat IPC: 0.516243 cumulative IPC: 0.507477 (Simulation time: 0 hr 35 min 3 sec) 
Heartbeat CPU 0 instructions: 283000001 cycles: 560818727 heartbeat IPC: 0.827986 cumulative IPC: 0.508198 (Simulation time: 0 hr 35 min 9 sec) 
Heartbeat CPU 0 instructions: 284000001 cycles: 563236253 heartbeat IPC: 0.413646 cumulative IPC: 0.507774 (Simulation time: 0 hr 35 min 20 sec) 
Heartbeat CPU 0 instructions: 285000002 cycles: 564802147 heartbeat IPC: 0.638613 cumulative IPC: 0.508153 (Simulation time: 0 hr 35 min 26 sec) 
Heartbeat CPU 0 instructions: 286000000 cycles: 566234360 heartbeat IPC: 0.698219 cumulative IPC: 0.508654 (Simulation time: 0 hr 35 min 31 sec) 
Heartbeat CPU 0 instructions: 287000000 cycles: 567500650 heartbeat IPC: 0.789708 cumulative IPC: 0.509309 (Simulation time: 0 hr 35 min 36 sec) 
Heartbeat CPU 0 instructions: 288000001 cycles: 569707089 heartbeat IPC: 0.453219 cumulative IPC: 0.509082 (Simulation time: 0 hr 35 min 46 sec) 
Heartbeat CPU 0 instructions: 289000003 cycles: 571967506 heartbeat IPC: 0.442397 cumulative IPC: 0.508807 (Simulation time: 0 hr 35 min 59 sec) 
Heartbeat CPU 0 instructions: 290000001 cycles: 573593388 heartbeat IPC: 0.61505 cumulative IPC: 0.509121 (Simulation time: 0 hr 36 min 7 sec) 
Heartbeat CPU 0 instructions: 291000000 cycles: 574806939 heartbeat IPC: 0.824027 cumulative IPC: 0.509815 (Simulation time: 0 hr 36 min 15 sec) 
Heartbeat CPU 0 instructions: 292000002 cycles: 577324373 heartbeat IPC: 0.397231 cumulative IPC: 0.509303 (Simulation time: 0 hr 36 min 24 sec) 
Heartbeat CPU 0 instructions: 293000000 cycles: 578855047 heartbeat IPC: 0.653306 cumulative IPC: 0.5097 (Simulation time: 0 hr 36 min 27 sec) 
Heartbeat CPU 0 instructions: 294000000 cycles: 580265532 heartbeat IPC: 0.708976 cumulative IPC: 0.510205 (Simulation time: 0 hr 36 min 30 sec) 
Heartbeat CPU 0 instructions: 295000001 cycles: 581683875 heartbeat IPC: 0.705049 cumulative IPC: 0.5107 (Simulation time: 0 hr 36 min 36 sec) 
Heartbeat CPU 0 instructions: 296000001 cycles: 583708440 heartbeat IPC: 0.493933 cumulative IPC: 0.510639 (Simulation time: 0 hr 36 min 45 sec) 
Heartbeat CPU 0 instructions: 297000000 cycles: 586249018 heartbeat IPC: 0.393611 cumulative IPC: 0.510111 (Simulation time: 0 hr 36 min 53 sec) 
Heartbeat CPU 0 instructions: 298000000 cycles: 587600679 heartbeat IPC: 0.73983 cumulative IPC: 0.510661 (Simulation time: 0 hr 36 min 57 sec) 
Heartbeat CPU 0 instructions: 299000001 cycles: 588805454 heartbeat IPC: 0.830031 cumulative IPC: 0.511342 (Simulation time: 0 hr 37 min 1 sec) 
Heartbeat CPU 0 instructions: 300000003 cycles: 591288827 heartbeat IPC: 0.402679 cumulative IPC: 0.510867 (Simulation time: 0 hr 37 min 6 sec) 
Heartbeat CPU 0 instructions: 301000002 cycles: 592889013 heartbeat IPC: 0.624927 cumulative IPC: 0.511187 (Simulation time: 0 hr 37 min 9 sec) 
Heartbeat CPU 0 instructions: 302000001 cycles: 594314806 heartbeat IPC: 0.701363 cumulative IPC: 0.511663 (Simulation time: 0 hr 37 min 12 sec) 
Heartbeat CPU 0 instructions: 303000003 cycles: 595784698 heartbeat IPC: 0.680323 cumulative IPC: 0.512096 (Simulation time: 0 hr 37 min 19 sec) 
Heartbeat CPU 0 instructions: 304000001 cycles: 597770021 heartbeat IPC: 0.503695 cumulative IPC: 0.512067 (Simulation time: 0 hr 37 min 25 sec) 
Heartbeat CPU 0 instructions: 305000002 cycles: 600364926 heartbeat IPC: 0.385371 cumulative IPC: 0.511497 (Simulation time: 0 hr 37 min 33 sec) 
Heartbeat CPU 0 instructions: 306000000 cycles: 601560832 heartbeat IPC: 0.836184 cumulative IPC: 0.512169 (Simulation time: 0 hr 37 min 38 sec) 
Heartbeat CPU 0 instructions: 307000001 cycles: 602762801 heartbeat IPC: 0.831969 cumulative IPC: 0.512832 (Simulation time: 0 hr 37 min 43 sec) 
Heartbeat CPU 0 instructions: 308000000 cycles: 605228199 heartbeat IPC: 0.405614 cumulative IPC: 0.512378 (Simulation time: 0 hr 37 min 50 sec) 
Heartbeat CPU 0 instructions: 309000000 cycles: 606913503 heartbeat IPC: 0.593365 cumulative IPC: 0.512612 (Simulation time: 0 hr 37 min 54 sec) 
Heartbeat CPU 0 instructions: 310000000 cycles: 608300223 heartbeat IPC: 0.721126 cumulative IPC: 0.513106 (Simulation time: 0 hr 38 min 0 sec) 
Heartbeat CPU 0 instructions: 311000000 cycles: 609915972 heartbeat IPC: 0.618908 cumulative IPC: 0.513398 (Simulation time: 0 hr 38 min 6 sec) 
Heartbeat CPU 0 instructions: 312000001 cycles: 611714007 heartbeat IPC: 0.556163 cumulative IPC: 0.513529 (Simulation time: 0 hr 38 min 10 sec) 
Heartbeat CPU 0 instructions: 313000003 cycles: 614337343 heartbeat IPC: 0.381195 cumulative IPC: 0.512941 (Simulation time: 0 hr 38 min 18 sec) 
Heartbeat CPU 0 instructions: 314000001 cycles: 615537869 heartbeat IPC: 0.832967 cumulative IPC: 0.51359 (Simulation time: 0 hr 38 min 23 sec) 
Heartbeat CPU 0 instructions: 315000000 cycles: 616950560 heartbeat IPC: 0.707868 cumulative IPC: 0.514053 (Simulation time: 0 hr 38 min 32 sec) 
Heartbeat CPU 0 instructions: 316000001 cycles: 619230217 heartbeat IPC: 0.438663 cumulative IPC: 0.513764 (Simulation time: 0 hr 38 min 41 sec) 
Heartbeat CPU 0 instructions: 317000003 cycles: 620880415 heartbeat IPC: 0.605989 cumulative IPC: 0.514019 (Simulation time: 0 hr 38 min 47 sec) 
Heartbeat CPU 0 instructions: 318000000 cycles: 622279856 heartbeat IPC: 0.714569 cumulative IPC: 0.514488 (Simulation time: 0 hr 38 min 51 sec) 
Heartbeat CPU 0 instructions: 319000000 cycles: 624099974 heartbeat IPC: 0.549415 cumulative IPC: 0.514594 (Simulation time: 0 hr 39 min 0 sec) 
Heartbeat CPU 0 instructions: 320000000 cycles: 625625472 heartbeat IPC: 0.655524 cumulative IPC: 0.514951 (Simulation time: 0 hr 39 min 9 sec) 
Heartbeat CPU 0 instructions: 321000002 cycles: 628300333 heartbeat IPC: 0.373852 cumulative IPC: 0.514327 (Simulation time: 0 hr 39 min 23 sec) 
Heartbeat CPU 0 instructions: 322000001 cycles: 629497129 heartbeat IPC: 0.835563 cumulative IPC: 0.514961 (Simulation time: 0 hr 39 min 28 sec) 
Heartbeat CPU 0 instructions: 323000000 cycles: 631228543 heartbeat IPC: 0.577562 cumulative IPC: 0.51514 (Simulation time: 0 hr 39 min 38 sec) 
Heartbeat CPU 0 instructions: 324000002 cycles: 633306834 heartbeat IPC: 0.481166 cumulative IPC: 0.515024 (Simulation time: 0 hr 39 min 44 sec) 
Heartbeat CPU 0 instructions: 325000000 cycles: 634839613 heartbeat IPC: 0.652408 cumulative IPC: 0.515368 (Simulation time: 0 hr 39 min 49 sec) 
Heartbeat CPU 0 instructions: 326000003 cycles: 636286335 heartbeat IPC: 0.69122 cumulative IPC: 0.515783 (Simulation time: 0 hr 39 min 54 sec) 
Heartbeat CPU 0 instructions: 327000000 cycles: 639390756 heartbeat IPC: 0.32212 cumulative IPC: 0.514807 (Simulation time: 0 hr 40 min 4 sec) 
Heartbeat CPU 0 instructions: 328000001 cycles: 642251666 heartbeat IPC: 0.349539 cumulative IPC: 0.514043 (Simulation time: 0 hr 40 min 18 sec) 
Heartbeat CPU 0 instructions: 329000001 cycles: 644553282 heartbeat IPC: 0.434477 cumulative IPC: 0.513748 (Simulation time: 0 hr 40 min 36 sec) 
Heartbeat CPU 0 instructions: 330000000 cycles: 647145573 heartbeat IPC: 0.385759 cumulative IPC: 0.513216 (Simulation time: 0 hr 40 min 50 sec) 
Heartbeat CPU 0 instructions: 331000002 cycles: 649213732 heartbeat IPC: 0.483523 cumulative IPC: 0.513118 (Simulation time: 0 hr 41 min 1 sec) 
Heartbeat CPU 0 instructions: 332000001 cycles: 651834749 heartbeat IPC: 0.381531 cumulative IPC: 0.512569 (Simulation time: 0 hr 41 min 13 sec) 
Heartbeat CPU 0 instructions: 333000002 cycles: 654335239 heartbeat IPC: 0.399922 cumulative IPC: 0.512122 (Simulation time: 0 hr 41 min 22 sec) 
Heartbeat CPU 0 instructions: 334000001 cycles: 656642654 heartbeat IPC: 0.433385 cumulative IPC: 0.511835 (Simulation time: 0 hr 41 min 31 sec) 
Heartbeat CPU 0 instructions: 335000002 cycles: 658653378 heartbeat IPC: 0.497334 cumulative IPC: 0.511789 (Simulation time: 0 hr 41 min 40 sec) 
Heartbeat CPU 0 instructions: 336000002 cycles: 659921155 heartbeat IPC: 0.788782 cumulative IPC: 0.512341 (Simulation time: 0 hr 41 min 48 sec) 
Heartbeat CPU 0 instructions: 337000002 cycles: 661261585 heartbeat IPC: 0.746029 cumulative IPC: 0.512832 (Simulation time: 0 hr 41 min 56 sec) 
Heartbeat CPU 0 instructions: 338000003 cycles: 663095475 heartbeat IPC: 0.54529 cumulative IPC: 0.512925 (Simulation time: 0 hr 42 min 6 sec) 
Heartbeat CPU 0 instructions: 339000002 cycles: 666117248 heartbeat IPC: 0.330931 cumulative IPC: 0.512069 (Simulation time: 0 hr 42 min 17 sec) 
Heartbeat CPU 0 instructions: 340000000 cycles: 668130561 heartbeat IPC: 0.496693 cumulative IPC: 0.512021 (Simulation time: 0 hr 42 min 25 sec) 
Heartbeat CPU 0 instructions: 341000000 cycles: 670308903 heartbeat IPC: 0.459065 cumulative IPC: 0.511843 (Simulation time: 0 hr 42 min 33 sec) 
Heartbeat CPU 0 instructions: 342000000 cycles: 671892958 heartbeat IPC: 0.631291 cumulative IPC: 0.512135 (Simulation time: 0 hr 42 min 39 sec) 
Heartbeat CPU 0 instructions: 343000000 cycles: 674602543 heartbeat IPC: 0.36906 cumulative IPC: 0.511539 (Simulation time: 0 hr 42 min 52 sec) 
Heartbeat CPU 0 instructions: 344000001 cycles: 675809390 heartbeat IPC: 0.828606 cumulative IPC: 0.512126 (Simulation time: 0 hr 42 min 59 sec) 
Heartbeat CPU 0 instructions: 345000001 cycles: 677505961 heartbeat IPC: 0.589424 cumulative IPC: 0.512327 (Simulation time: 0 hr 43 min 7 sec) 
Heartbeat CPU 0 instructions: 346000001 cycles: 679684903 heartbeat IPC: 0.458938 cumulative IPC: 0.512149 (Simulation time: 0 hr 43 min 16 sec) 
Heartbeat CPU 0 instructions: 347000000 cycles: 681533091 heartbeat IPC: 0.54107 cumulative IPC: 0.512231 (Simulation time: 0 hr 43 min 21 sec) 
Heartbeat CPU 0 instructions: 348000003 cycles: 683425476 heartbeat IPC: 0.528435 cumulative IPC: 0.512277 (Simulation time: 0 hr 43 min 28 sec) 
Heartbeat CPU 0 instructions: 349000000 cycles: 685216761 heartbeat IPC: 0.558257 cumulative IPC: 0.512401 (Simulation time: 0 hr 43 min 36 sec) 
Heartbeat CPU 0 instructions: 350000000 cycles: 686867941 heartbeat IPC: 0.605627 cumulative IPC: 0.512634 (Simulation time: 0 hr 43 min 41 sec) 
Heartbeat CPU 0 instructions: 351000000 cycles: 689373492 heartbeat IPC: 0.399114 cumulative IPC: 0.512206 (Simulation time: 0 hr 43 min 48 sec) 
Heartbeat CPU 0 instructions: 352000000 cycles: 690579049 heartbeat IPC: 0.829492 cumulative IPC: 0.51278 (Simulation time: 0 hr 43 min 54 sec) 
Heartbeat CPU 0 instructions: 353000002 cycles: 692587018 heartbeat IPC: 0.498017 cumulative IPC: 0.512736 (Simulation time: 0 hr 44 min 3 sec) 
Heartbeat CPU 0 instructions: 354000003 cycles: 694473954 heartbeat IPC: 0.52996 cumulative IPC: 0.512784 (Simulation time: 0 hr 44 min 12 sec) 
Heartbeat CPU 0 instructions: 355000000 cycles: 695937823 heartbeat IPC: 0.683119 cumulative IPC: 0.513155 (Simulation time: 0 hr 44 min 14 sec) 
Heartbeat CPU 0 instructions: 356000002 cycles: 697329233 heartbeat IPC: 0.718697 cumulative IPC: 0.513579 (Simulation time: 0 hr 44 min 17 sec) 
Heartbeat CPU 0 instructions: 357000002 cycles: 699293891 heartbeat IPC: 0.508994 cumulative IPC: 0.513566 (Simulation time: 0 hr 44 min 22 sec) 
Heartbeat CPU 0 instructions: 358000001 cycles: 701103371 heartbeat IPC: 0.552644 cumulative IPC: 0.51367 (Simulation time: 0 hr 44 min 32 sec) 
Heartbeat CPU 0 instructions: 359000000 cycles: 703307759 heartbeat IPC: 0.45364 cumulative IPC: 0.513476 (Simulation time: 0 hr 44 min 42 sec) 
Heartbeat CPU 0 instructions: 360000002 cycles: 704523325 heartbeat IPC: 0.822664 cumulative IPC: 0.514028 (Simulation time: 0 hr 44 min 48 sec) 
Heartbeat CPU 0 instructions: 361000000 cycles: 706834015 heartbeat IPC: 0.43277 cumulative IPC: 0.513753 (Simulation time: 0 hr 44 min 58 sec) 
Heartbeat CPU 0 instructions: 362000001 cycles: 708443031 heartbeat IPC: 0.621498 cumulative IPC: 0.514006 (Simulation time: 0 hr 45 min 6 sec) 
Heartbeat CPU 0 instructions: 363000000 cycles: 709897591 heartbeat IPC: 0.687492 cumulative IPC: 0.514374 (Simulation time: 0 hr 45 min 12 sec) 
Heartbeat CPU 0 instructions: 364000003 cycles: 711204760 heartbeat IPC: 0.765014 cumulative IPC: 0.51485 (Simulation time: 0 hr 45 min 18 sec) 
Heartbeat CPU 0 instructions: 365000002 cycles: 713309330 heartbeat IPC: 0.475156 cumulative IPC: 0.514729 (Simulation time: 0 hr 45 min 28 sec) 
Heartbeat CPU 0 instructions: 366000000 cycles: 715365995 heartbeat IPC: 0.486223 cumulative IPC: 0.514644 (Simulation time: 0 hr 45 min 39 sec) 
Heartbeat CPU 0 instructions: 367000002 cycles: 717215542 heartbeat IPC: 0.540674 cumulative IPC: 0.514714 (Simulation time: 0 hr 45 min 49 sec) 
Heartbeat CPU 0 instructions: 368000002 cycles: 718428324 heartbeat IPC: 0.824551 cumulative IPC: 0.515255 (Simulation time: 0 hr 45 min 56 sec) 
Heartbeat CPU 0 instructions: 369000003 cycles: 720865416 heartbeat IPC: 0.410325 cumulative IPC: 0.514888 (Simulation time: 0 hr 46 min 4 sec) 
Heartbeat CPU 0 instructions: 370000001 cycles: 722404871 heartbeat IPC: 0.649579 cumulative IPC: 0.515185 (Simulation time: 0 hr 46 min 10 sec) 
Heartbeat CPU 0 instructions: 371000001 cycles: 723816873 heartbeat IPC: 0.708214 cumulative IPC: 0.515574 (Simulation time: 0 hr 46 min 16 sec) 
Heartbeat CPU 0 instructions: 372000002 cycles: 725057203 heartbeat IPC: 0.806238 cumulative IPC: 0.516088 (Simulation time: 0 hr 46 min 20 sec) 
Heartbeat CPU 0 instructions: 373000002 cycles: 727268458 heartbeat IPC: 0.452232 cumulative IPC: 0.515887 (Simulation time: 0 hr 46 min 26 sec) 
Heartbeat CPU 0 instructions: 374000000 cycles: 729541274 heartbeat IPC: 0.439982 cumulative IPC: 0.515643 (Simulation time: 0 hr 46 min 35 sec) 
Heartbeat CPU 0 instructions: 375000003 cycles: 731122746 heartbeat IPC: 0.632324 cumulative IPC: 0.515904 (Simulation time: 0 hr 46 min 43 sec) 
Heartbeat CPU 0 instructions: 376000002 cycles: 732339997 heartbeat IPC: 0.821522 cumulative IPC: 0.516428 (Simulation time: 0 hr 46 min 50 sec) 
Heartbeat CPU 0 instructions: 377000003 cycles: 734846218 heartbeat IPC: 0.399007 cumulative IPC: 0.516015 (Simulation time: 0 hr 46 min 59 sec) 
Heartbeat CPU 0 instructions: 378000001 cycles: 736372822 heartbeat IPC: 0.655047 cumulative IPC: 0.516312 (Simulation time: 0 hr 47 min 5 sec) 
Heartbeat CPU 0 instructions: 379000003 cycles: 737761173 heartbeat IPC: 0.72028 cumulative IPC: 0.516709 (Simulation time: 0 hr 47 min 10 sec) 
Heartbeat CPU 0 instructions: 380000000 cycles: 739214514 heartbeat IPC: 0.688068 cumulative IPC: 0.517057 (Simulation time: 0 hr 47 min 18 sec) 
Heartbeat CPU 0 instructions: 381000002 cycles: 741165537 heartbeat IPC: 0.512553 cumulative IPC: 0.517045 (Simulation time: 0 hr 47 min 29 sec) 
Heartbeat CPU 0 instructions: 382000000 cycles: 743744890 heartbeat IPC: 0.387693 cumulative IPC: 0.516581 (Simulation time: 0 hr 47 min 43 sec) 
Heartbeat CPU 0 instructions: 383000001 cycles: 745045890 heartbeat IPC: 0.76864 cumulative IPC: 0.517036 (Simulation time: 0 hr 47 min 51 sec) 
Heartbeat CPU 0 instructions: 384000000 cycles: 746253388 heartbeat IPC: 0.828158 cumulative IPC: 0.517556 (Simulation time: 0 hr 47 min 57 sec) 
Heartbeat CPU 0 instructions: 385000000 cycles: 748739896 heartbeat IPC: 0.40217 cumulative IPC: 0.51716 (Simulation time: 0 hr 48 min 8 sec) 
Heartbeat CPU 0 instructions: 386000000 cycles: 750328137 heartbeat IPC: 0.629627 cumulative IPC: 0.517406 (Simulation time: 0 hr 48 min 10 sec) 
Heartbeat CPU 0 instructions: 387000000 cycles: 751728932 heartbeat IPC: 0.71388 cumulative IPC: 0.517784 (Simulation time: 0 hr 48 min 15 sec) 
Heartbeat CPU 0 instructions: 388000000 cycles: 753217417 heartbeat IPC: 0.671824 cumulative IPC: 0.518098 (Simulation time: 0 hr 48 min 24 sec) 
Heartbeat CPU 0 instructions: 389000001 cycles: 755158591 heartbeat IPC: 0.515153 cumulative IPC: 0.51809 (Simulation time: 0 hr 48 min 29 sec) 
Heartbeat CPU 0 instructions: 390000003 cycles: 757753217 heartbeat IPC: 0.385413 cumulative IPC: 0.517622 (Simulation time: 0 hr 48 min 36 sec) 
Heartbeat CPU 0 instructions: 391000000 cycles: 758948126 heartbeat IPC: 0.836881 cumulative IPC: 0.51814 (Simulation time: 0 hr 48 min 39 sec) 
Heartbeat CPU 0 instructions: 392000001 cycles: 760166030 heartbeat IPC: 0.821084 cumulative IPC: 0.518641 (Simulation time: 0 hr 48 min 46 sec) 
Heartbeat CPU 0 instructions: 393000003 cycles: 762626931 heartbeat IPC: 0.406356 cumulative IPC: 0.518267 (Simulation time: 0 hr 48 min 58 sec) 
Heartbeat CPU 0 instructions: 394000001 cycles: 764290852 heartbeat IPC: 0.600989 cumulative IPC: 0.518453 (Simulation time: 0 hr 49 min 2 sec) 
Heartbeat CPU 0 instructions: 395000000 cycles: 765660382 heartbeat IPC: 0.730177 cumulative IPC: 0.518844 (Simulation time: 0 hr 49 min 5 sec) 
Heartbeat CPU 0 instructions: 396000000 cycles: 767288973 heartbeat IPC: 0.614028 cumulative IPC: 0.519052 (Simulation time: 0 hr 49 min 11 sec) 
Heartbeat CPU 0 instructions: 397000001 cycles: 769039998 heartbeat IPC: 0.571095 cumulative IPC: 0.519175 (Simulation time: 0 hr 49 min 20 sec) 
Heartbeat CPU 0 instructions: 398000000 cycles: 771662681 heartbeat IPC: 0.381289 cumulative IPC: 0.518691 (Simulation time: 0 hr 49 min 31 sec) 
Heartbeat CPU 0 instructions: 399000002 cycles: 772861080 heartbeat IPC: 0.834448 cumulative IPC: 0.519196 (Simulation time: 0 hr 49 min 35 sec) 
Heartbeat CPU 0 instructions: 400000000 cycles: 774331521 heartbeat IPC: 0.680067 cumulative IPC: 0.519511 (Simulation time: 0 hr 49 min 40 sec) 
Heartbeat CPU 0 instructions: 401000000 cycles: 776591081 heartbeat IPC: 0.442564 cumulative IPC: 0.51928 (Simulation time: 0 hr 49 min 50 sec) 
Heartbeat CPU 0 instructions: 402000000 cycles: 778199904 heartbeat IPC: 0.621572 cumulative IPC: 0.519499 (Simulation time: 0 hr 49 min 53 sec) 
Heartbeat CPU 0 instructions: 403000001 cycles: 779620512 heartbeat IPC: 0.703925 cumulative IPC: 0.519845 (Simulation time: 0 hr 49 min 56 sec) 
Heartbeat CPU 0 instructions: 404000001 cycles: 782440407 heartbeat IPC: 0.354623 cumulative IPC: 0.519231 (Simulation time: 0 hr 50 min 6 sec) 
Heartbeat CPU 0 instructions: 405000003 cycles: 784049939 heartbeat IPC: 0.6213 cumulative IPC: 0.519447 (Simulation time: 0 hr 50 min 13 sec) 
Heartbeat CPU 0 instructions: 406000000 cycles: 786707825 heartbeat IPC: 0.376238 cumulative IPC: 0.518948 (Simulation time: 0 hr 50 min 26 sec) 
Heartbeat CPU 0 instructions: 407000000 cycles: 787910276 heartbeat IPC: 0.831635 cumulative IPC: 0.51944 (Simulation time: 0 hr 50 min 32 sec) 
Heartbeat CPU 0 instructions: 408000001 cycles: 789914288 heartbeat IPC: 0.499 cumulative IPC: 0.519387 (Simulation time: 0 hr 50 min 41 sec) 
Heartbeat CPU 0 instructions: 409000002 cycles: 791916583 heartbeat IPC: 0.499427 cumulative IPC: 0.519335 (Simulation time: 0 hr 50 min 46 sec) 
Heartbeat CPU 0 instructions: 410000000 cycles: 793409419 heartbeat IPC: 0.669865 cumulative IPC: 0.519627 (Simulation time: 0 hr 50 min 52 sec) 
Heartbeat CPU 0 instructions: 411000003 cycles: 794779992 heartbeat IPC: 0.729624 cumulative IPC: 0.52 (Simulation time: 0 hr 50 min 58 sec) 
Heartbeat CPU 0 instructions: 412000000 cycles: 796750931 heartbeat IPC: 0.507371 cumulative IPC: 0.519968 (Simulation time: 0 hr 51 min 5 sec) 
Heartbeat CPU 0 instructions: 413000000 cycles: 798623456 heartbeat IPC: 0.534038 cumulative IPC: 0.520002 (Simulation time: 0 hr 51 min 18 sec) 
Heartbeat CPU 0 instructions: 414000003 cycles: 800733559 heartbeat IPC: 0.473912 cumulative IPC: 0.519877 (Simulation time: 0 hr 51 min 28 sec) 
Heartbeat CPU 0 instructions: 415000000 cycles: 801941116 heartbeat IPC: 0.828116 cumulative IPC: 0.520355 (Simulation time: 0 hr 51 min 35 sec) 
Heartbeat CPU 0 instructions: 416000001 cycles: 804293226 heartbeat IPC: 0.425151 cumulative IPC: 0.520068 (Simulation time: 0 hr 51 min 41 sec) 
Heartbeat CPU 0 instructions: 417000001 cycles: 805859948 heartbeat IPC: 0.638275 cumulative IPC: 0.520305 (Simulation time: 0 hr 51 min 46 sec) 
Heartbeat CPU 0 instructions: 418000000 cycles: 807310033 heartbeat IPC: 0.689614 cumulative IPC: 0.520618 (Simulation time: 0 hr 51 min 51 sec) 
Heartbeat CPU 0 instructions: 419000003 cycles: 808569459 heartbeat IPC: 0.794015 cumulative IPC: 0.521057 (Simulation time: 0 hr 51 min 56 sec) 
Heartbeat CPU 0 instructions: 420000002 cycles: 812704175 heartbeat IPC: 0.241854 cumulative IPC: 0.519594 (Simulation time: 0 hr 52 min 7 sec) 
Heartbeat CPU 0 instructions: 421000000 cycles: 814675746 heartbeat IPC: 0.507209 cumulative IPC: 0.519563 (Simulation time: 0 hr 52 min 19 sec) 
Heartbeat CPU 0 instructions: 422000001 cycles: 817408681 heartbeat IPC: 0.365907 cumulative IPC: 0.519034 (Simulation time: 0 hr 52 min 26 sec) 
Heartbeat CPU 0 instructions: 423000000 cycles: 819786513 heartbeat IPC: 0.420551 cumulative IPC: 0.51874 (Simulation time: 0 hr 52 min 37 sec) 
Heartbeat CPU 0 instructions: 424000003 cycles: 821847826 heartbeat IPC: 0.485129 cumulative IPC: 0.518653 (Simulation time: 0 hr 52 min 46 sec) 
Heartbeat CPU 0 instructions: 425000001 cycles: 824694818 heartbeat IPC: 0.351247 cumulative IPC: 0.518058 (Simulation time: 0 hr 52 min 54 sec) 
Heartbeat CPU 0 instructions: 426000002 cycles: 827180856 heartbeat IPC: 0.402247 cumulative IPC: 0.5177 (Simulation time: 0 hr 53 min 2 sec) 
Heartbeat CPU 0 instructions: 427000001 cycles: 829142338 heartbeat IPC: 0.509818 cumulative IPC: 0.51768 (Simulation time: 0 hr 53 min 8 sec) 
Heartbeat CPU 0 instructions: 428000003 cycles: 831117433 heartbeat IPC: 0.506306 cumulative IPC: 0.517653 (Simulation time: 0 hr 53 min 14 sec) 
Heartbeat CPU 0 instructions: 429000000 cycles: 832488618 heartbeat IPC: 0.729294 cumulative IPC: 0.518011 (Simulation time: 0 hr 53 min 21 sec) 
Heartbeat CPU 0 instructions: 430000003 cycles: 833881554 heartbeat IPC: 0.71791 cumulative IPC: 0.518355 (Simulation time: 0 hr 53 min 25 sec) 
Heartbeat CPU 0 instructions: 431000000 cycles: 835981457 heartbeat IPC: 0.476211 cumulative IPC: 0.518246 (Simulation time: 0 hr 53 min 30 sec) 
Heartbeat CPU 0 instructions: 432000002 cycles: 838550851 heartbeat IPC: 0.389198 cumulative IPC: 0.517839 (Simulation time: 0 hr 53 min 37 sec) 
Heartbeat CPU 0 instructions: 433000000 cycles: 840741298 heartbeat IPC: 0.456527 cumulative IPC: 0.517675 (Simulation time: 0 hr 53 min 47 sec) 
Heartbeat CPU 0 instructions: 434000000 cycles: 843087096 heartbeat IPC: 0.426294 cumulative IPC: 0.517413 (Simulation time: 0 hr 53 min 57 sec) 
Heartbeat CPU 0 instructions: 435000003 cycles: 844983013 heartbeat IPC: 0.527451 cumulative IPC: 0.517437 (Simulation time: 0 hr 54 min 2 sec) 
Heartbeat CPU 0 instructions: 436000001 cycles: 847137694 heartbeat IPC: 0.464105 cumulative IPC: 0.517297 (Simulation time: 0 hr 54 min 9 sec) 
Heartbeat CPU 0 instructions: 437000000 cycles: 848355049 heartbeat IPC: 0.821452 cumulative IPC: 0.517746 (Simulation time: 0 hr 54 min 12 sec) 
Heartbeat CPU 0 instructions: 438000003 cycles: 850720366 heartbeat IPC: 0.422778 cumulative IPC: 0.517474 (Simulation time: 0 hr 54 min 22 sec) 
Heartbeat CPU 0 instructions: 439000000 cycles: 852449491 heartbeat IPC: 0.578325 cumulative IPC: 0.517601 (Simulation time: 0 hr 54 min 29 sec) 
Heartbeat CPU 0 instructions: 440000000 cycles: 854246157 heartbeat IPC: 0.556587 cumulative IPC: 0.517686 (Simulation time: 0 hr 54 min 35 sec) 
Heartbeat CPU 0 instructions: 441000000 cycles: 856406495 heartbeat IPC: 0.462891 cumulative IPC: 0.517543 (Simulation time: 0 hr 54 min 42 sec) 
Heartbeat CPU 0 instructions: 442000001 cycles: 858287358 heartbeat IPC: 0.531671 cumulative IPC: 0.517575 (Simulation time: 0 hr 54 min 47 sec) 
Heartbeat CPU 0 instructions: 443000001 cycles: 860902549 heartbeat IPC: 0.382381 cumulative IPC: 0.517153 (Simulation time: 0 hr 54 min 54 sec) 
Heartbeat CPU 0 instructions: 444000002 cycles: 862106929 heartbeat IPC: 0.830304 cumulative IPC: 0.517603 (Simulation time: 0 hr 54 min 57 sec) 
Heartbeat CPU 0 instructions: 445000001 cycles: 863374530 heartbeat IPC: 0.788891 cumulative IPC: 0.518012 (Simulation time: 0 hr 55 min 2 sec) 
Heartbeat CPU 0 instructions: 446000002 cycles: 865788887 heartbeat IPC: 0.414189 cumulative IPC: 0.517715 (Simulation time: 0 hr 55 min 8 sec) 
Heartbeat CPU 0 instructions: 447000000 cycles: 867471219 heartbeat IPC: 0.594412 cumulative IPC: 0.517868 (Simulation time: 0 hr 55 min 11 sec) 
Heartbeat CPU 0 instructions: 448000000 cycles: 868816082 heartbeat IPC: 0.74357 cumulative IPC: 0.518227 (Simulation time: 0 hr 55 min 16 sec) 
Heartbeat CPU 0 instructions: 449000002 cycles: 870495286 heartbeat IPC: 0.595521 cumulative IPC: 0.51838 (Simulation time: 0 hr 55 min 22 sec) 
Heartbeat CPU 0 instructions: 450000000 cycles: 872214622 heartbeat IPC: 0.581619 cumulative IPC: 0.518508 (Simulation time: 0 hr 55 min 28 sec) 
Heartbeat CPU 0 instructions: 451000000 cycles: 874872084 heartbeat IPC: 0.376299 cumulative IPC: 0.518064 (Simulation time: 0 hr 55 min 41 sec) 
Heartbeat CPU 0 instructions: 452000003 cycles: 876064579 heartbeat IPC: 0.83858 cumulative IPC: 0.518513 (Simulation time: 0 hr 55 min 48 sec) 
Heartbeat CPU 0 instructions: 453000001 cycles: 877658973 heartbeat IPC: 0.627196 cumulative IPC: 0.518715 (Simulation time: 0 hr 55 min 55 sec) 
Heartbeat CPU 0 instructions: 454000001 cycles: 879861418 heartbeat IPC: 0.454041 cumulative IPC: 0.518549 (Simulation time: 0 hr 56 min 1 sec) 
Heartbeat CPU 0 instructions: 455000000 cycles: 881456187 heartbeat IPC: 0.627049 cumulative IPC: 0.518751 (Simulation time: 0 hr 56 min 5 sec) 
Heartbeat CPU 0 instructions: 456000001 cycles: 882897756 heartbeat IPC: 0.693689 cumulative IPC: 0.519044 (Simulation time: 0 hr 56 min 10 sec) 
Heartbeat CPU 0 instructions: 457000000 cycles: 885100844 heartbeat IPC: 0.453908 cumulative IPC: 0.518878 (Simulation time: 0 hr 56 min 18 sec) 
Heartbeat CPU 0 instructions: 458000002 cycles: 887281547 heartbeat IPC: 0.458569 cumulative IPC: 0.518725 (Simulation time: 0 hr 56 min 29 sec) 
Heartbeat CPU 0 instructions: 459000001 cycles: 888984878 heartbeat IPC: 0.587084 cumulative IPC: 0.51886 (Simulation time: 0 hr 56 min 38 sec) 
Heartbeat CPU 0 instructions: 460000002 cycles: 890202675 heartbeat IPC: 0.821156 cumulative IPC: 0.519285 (Simulation time: 0 hr 56 min 45 sec) 
Heartbeat CPU 0 instructions: 461000000 cycles: 892665256 heartbeat IPC: 0.406077 cumulative IPC: 0.518964 (Simulation time: 0 hr 56 min 58 sec) 
Heartbeat CPU 0 instructions: 462000000 cycles: 894225636 heartbeat IPC: 0.64087 cumulative IPC: 0.519183 (Simulation time: 0 hr 57 min 5 sec) 
Heartbeat CPU 0 instructions: 463000000 cycles: 895631462 heartbeat IPC: 0.711326 cumulative IPC: 0.519492 (Simulation time: 0 hr 57 min 12 sec) 
Heartbeat CPU 0 instructions: 464000000 cycles: 896927122 heartbeat IPC: 0.771807 cumulative IPC: 0.519867 (Simulation time: 0 hr 57 min 20 sec) 
Heartbeat CPU 0 instructions: 465000003 cycles: 899024421 heartbeat IPC: 0.476805 cumulative IPC: 0.519763 (Simulation time: 0 hr 57 min 30 sec) 
Heartbeat CPU 0 instructions: 466000000 cycles: 901518789 heartbeat IPC: 0.400902 cumulative IPC: 0.519426 (Simulation time: 0 hr 57 min 46 sec) 
Heartbeat CPU 0 instructions: 467000000 cycles: 902899565 heartbeat IPC: 0.72423 cumulative IPC: 0.519747 (Simulation time: 0 hr 57 min 53 sec) 
Heartbeat CPU 0 instructions: 468000000 cycles: 904109183 heartbeat IPC: 0.826707 cumulative IPC: 0.520169 (Simulation time: 0 hr 58 min 1 sec) 
Heartbeat CPU 0 instructions: 469000001 cycles: 906613827 heartbeat IPC: 0.399259 cumulative IPC: 0.519826 (Simulation time: 0 hr 58 min 15 sec) 
Heartbeat CPU 0 instructions: 470000000 cycles: 908219429 heartbeat IPC: 0.622819 cumulative IPC: 0.520013 (Simulation time: 0 hr 58 min 22 sec) 
Heartbeat CPU 0 instructions: 471000001 cycles: 909642729 heartbeat IPC: 0.702593 cumulative IPC: 0.520306 (Simulation time: 0 hr 58 min 29 sec) 
Heartbeat CPU 0 instructions: 472000003 cycles: 911661572 heartbeat IPC: 0.495334 cumulative IPC: 0.52025 (Simulation time: 0 hr 58 min 39 sec) 
Heartbeat CPU 0 instructions: 473000000 cycles: 913297872 heartbeat IPC: 0.611133 cumulative IPC: 0.520417 (Simulation time: 0 hr 58 min 51 sec) 
Heartbeat CPU 0 instructions: 474000000 cycles: 915810643 heartbeat IPC: 0.397967 cumulative IPC: 0.520072 (Simulation time: 0 hr 59 min 6 sec) 
Heartbeat CPU 0 instructions: 475000000 cycles: 917013724 heartbeat IPC: 0.831199 cumulative IPC: 0.520491 (Simulation time: 0 hr 59 min 11 sec) 
Heartbeat CPU 0 instructions: 476000001 cycles: 919015383 heartbeat IPC: 0.499586 cumulative IPC: 0.520444 (Simulation time: 0 hr 59 min 23 sec) 
Heartbeat CPU 0 instructions: 477000002 cycles: 920914534 heartbeat IPC: 0.526552 cumulative IPC: 0.520457 (Simulation time: 0 hr 59 min 32 sec) 
Heartbeat CPU 0 instructions: 478000002 cycles: 922401549 heartbeat IPC: 0.672488 cumulative IPC: 0.520709 (Simulation time: 0 hr 59 min 39 sec) 
Heartbeat CPU 0 instructions: 479000001 cycles: 923738305 heartbeat IPC: 0.748079 cumulative IPC: 0.521046 (Simulation time: 0 hr 59 min 46 sec) 
Heartbeat CPU 0 instructions: 480000001 cycles: 925690613 heartbeat IPC: 0.512214 cumulative IPC: 0.521027 (Simulation time: 0 hr 59 min 58 sec) 
Heartbeat CPU 0 instructions: 481000002 cycles: 927538796 heartbeat IPC: 0.541072 cumulative IPC: 0.521068 (Simulation time: 1 hr 0 min 11 sec) 
Heartbeat CPU 0 instructions: 482000002 cycles: 929717241 heartbeat IPC: 0.459043 cumulative IPC: 0.520919 (Simulation time: 1 hr 0 min 24 sec) 
Heartbeat CPU 0 instructions: 483000000 cycles: 930926500 heartbeat IPC: 0.826951 cumulative IPC: 0.521327 (Simulation time: 1 hr 0 min 32 sec) 
Heartbeat CPU 0 instructions: 484000000 cycles: 933258025 heartbeat IPC: 0.428904 cumulative IPC: 0.52109 (Simulation time: 1 hr 0 min 44 sec) 
Heartbeat CPU 0 instructions: 485000000 cycles: 934880592 heartbeat IPC: 0.616307 cumulative IPC: 0.521259 (Simulation time: 1 hr 0 min 50 sec) 
Heartbeat CPU 0 instructions: 486000000 cycles: 936346431 heartbeat IPC: 0.682203 cumulative IPC: 0.521518 (Simulation time: 1 hr 0 min 57 sec) 
Heartbeat CPU 0 instructions: 487000002 cycles: 938112545 heartbeat IPC: 0.566216 cumulative IPC: 0.521604 (Simulation time: 1 hr 1 min 8 sec) 
Heartbeat CPU 0 instructions: 488000001 cycles: 940022233 heartbeat IPC: 0.523645 cumulative IPC: 0.521609 (Simulation time: 1 hr 1 min 19 sec) 
Heartbeat CPU 0 instructions: 489000002 cycles: 942630368 heartbeat IPC: 0.383416 cumulative IPC: 0.521216 (Simulation time: 1 hr 1 min 36 sec) 
Heartbeat CPU 0 instructions: 490000000 cycles: 943826220 heartbeat IPC: 0.836222 cumulative IPC: 0.521626 (Simulation time: 1 hr 1 min 43 sec) 
Heartbeat CPU 0 instructions: 491000001 cycles: 945064064 heartbeat IPC: 0.807857 cumulative IPC: 0.52201 (Simulation time: 1 hr 1 min 52 sec) 
Heartbeat CPU 0 instructions: 492000002 cycles: 947509089 heartbeat IPC: 0.408994 cumulative IPC: 0.521711 (Simulation time: 1 hr 2 min 4 sec) 
Heartbeat CPU 0 instructions: 493000003 cycles: 949194745 heartbeat IPC: 0.593241 cumulative IPC: 0.521841 (Simulation time: 1 hr 2 min 10 sec) 
Heartbeat CPU 0 instructions: 494000000 cycles: 950543313 heartbeat IPC: 0.741525 cumulative IPC: 0.522161 (Simulation time: 1 hr 2 min 16 sec) 
Heartbeat CPU 0 instructions: 495000000 cycles: 952166783 heartbeat IPC: 0.615965 cumulative IPC: 0.522325 (Simulation time: 1 hr 2 min 27 sec) 
Heartbeat CPU 0 instructions: 496000000 cycles: 953929345 heartbeat IPC: 0.567356 cumulative IPC: 0.52241 (Simulation time: 1 hr 2 min 37 sec) 
Heartbeat CPU 0 instructions: 497000000 cycles: 956566166 heartbeat IPC: 0.379245 cumulative IPC: 0.522006 (Simulation time: 1 hr 2 min 54 sec) 
Heartbeat CPU 0 instructions: 498000000 cycles: 957765836 heartbeat IPC: 0.833563 cumulative IPC: 0.522406 (Simulation time: 1 hr 3 min 1 sec) 
Heartbeat CPU 0 instructions: 499000003 cycles: 959208269 heartbeat IPC: 0.693275 cumulative IPC: 0.522669 (Simulation time: 1 hr 3 min 11 sec) 
Heartbeat CPU 0 instructions: 500000000 cycles: 961442411 heartbeat IPC: 0.447598 cumulative IPC: 0.52249 (Simulation time: 1 hr 3 min 22 sec) 
Heartbeat CPU 0 instructions: 501000001 cycles: 963097517 heartbeat IPC: 0.604192 cumulative IPC: 0.522634 (Simulation time: 1 hr 3 min 29 sec) 
Heartbeat CPU 0 instructions: 502000000 cycles: 964503793 heartbeat IPC: 0.711097 cumulative IPC: 0.522916 (Simulation time: 1 hr 3 min 36 sec) 
Heartbeat CPU 0 instructions: 503000002 cycles: 966338666 heartbeat IPC: 0.544998 cumulative IPC: 0.522959 (Simulation time: 1 hr 3 min 47 sec) 
Heartbeat CPU 0 instructions: 504000002 cycles: 967841814 heartbeat IPC: 0.665271 cumulative IPC: 0.523186 (Simulation time: 1 hr 3 min 58 sec) 
Heartbeat CPU 0 instructions: 505000000 cycles: 970525210 heartbeat IPC: 0.372661 cumulative IPC: 0.522759 (Simulation time: 1 hr 4 min 10 sec) 
Heartbeat CPU 0 instructions: 506000000 cycles: 971731064 heartbeat IPC: 0.829288 cumulative IPC: 0.523149 (Simulation time: 1 hr 4 min 17 sec) 
Heartbeat CPU 0 instructions: 507000002 cycles: 973501297 heartbeat IPC: 0.564898 cumulative IPC: 0.523227 (Simulation time: 1 hr 4 min 27 sec) 
Heartbeat CPU 0 instructions: 508000002 cycles: 975557064 heartbeat IPC: 0.486436 cumulative IPC: 0.523147 (Simulation time: 1 hr 4 min 38 sec) 
Heartbeat CPU 0 instructions: 509000000 cycles: 977104855 heartbeat IPC: 0.646081 cumulative IPC: 0.523347 (Simulation time: 1 hr 4 min 45 sec) 
Heartbeat CPU 0 instructions: 510000002 cycles: 978561408 heartbeat IPC: 0.686554 cumulative IPC: 0.523596 (Simulation time: 1 hr 4 min 52 sec) 
Finished CPU 0 instructions: 500000000 cycles: 954935231 cumulative IPC: 0.523596 (Simulation time: 1 hr 4 min 52 sec) 

ChampSim completed all CPUs

Region of Interest Statistics

CPU 0 cumulative IPC: 0.523596 instructions: 500000000 cycles: 954935231
L1D TOTAL     ACCESS:   90120436  HIT:   69775921  MISS:   20344515
L1D LOAD      ACCESS:   61137500  HIT:   44445863  MISS:   16691637
L1D RFO       ACCESS:   28982936  HIT:   25330058  MISS:    3652878
L1D PREFETCH  ACCESS:          0  HIT:          0  MISS:          0
L1D WRITEBACK ACCESS:          0  HIT:          0  MISS:          0
L1D PREFETCH  REQUESTED:          0  ISSUED:          0  USEFUL:          0  USELESS:          0  UAC CORRECT:          0
L1D AVERAGE MISS LATENCY: 124.277 cycles
L1I TOTAL     ACCESS:   93318868  HIT:   93317089  MISS:       1779
L1I LOAD      ACCESS:   93318868  HIT:   93317089  MISS:       1779
L1I RFO       ACCESS:          0  HIT:          0  MISS:          0
L1I PREFETCH  ACCESS:          0  HIT:          0  MISS:          0
L1I WRITEBACK ACCESS:          0  HIT:          0  MISS:          0
L1I PREFETCH  REQUESTED:          0  ISSUED:          0  USEFUL:          0  USELESS:          0  UAC CORRECT:          0
L1I AVERAGE MISS LATENCY: 286.207 cycles
L2C TOTAL     ACCESS:   28686737  HIT:   12325843  MISS:   16360894
L2C LOAD      ACCESS:   16692793  HIT:    3483407  MISS:   13209386
L2C RFO       ACCESS:    3652651  HIT:     504382  MISS:    3148269
L2C PREFETCH  ACCESS:          0  HIT:          0  MISS:          0
L2C WRITEBACK ACCESS:    8341293  HIT:    8338054  MISS:       3239
L2C PREFETCH  REQUESTED:          0  ISSUED:          0  USEFUL:          0  USELESS:          0  UAC CORRECT:          0
L2C AVERAGE MISS LATENCY: 135.254 cycles
LLC TOTAL     ACCESS:   32066083  HIT:   18627649  MISS:   13438434
LLC LOAD      ACCESS:   13209296  HIT:    7229233  MISS:    5980063
LLC RFO       ACCESS:    3148251  HIT:     705766  MISS:    2442485
LLC PREFETCH  ACCESS:    9282198  HIT:    4268278  MISS:    5013920
LLC WRITEBACK ACCESS:    6426338  HIT:    6424372  MISS:       1966
LLC PREFETCH  REQUESTED:   13046759  ISSUED:   13046759  USEFUL:    4457039  USELESS:     556293  UAC CORRECT:    3773012
LLC AVERAGE MISS LATENCY: 195.304 cycles
Major fault: 0 Minor fault: 12089
performance stats:
mapping cache size: 294909
divergence: 6018379

DRAM Statistics
 CHANNEL 0
 RQ ROW_BUFFER_HIT:    4147232  ROW_BUFFER_MISS:    2559018
 DBUS_CONGESTED:    9149742
 WQ ROW_BUFFER_HIT:    2139292  ROW_BUFFER_MISS:     314644  FULL:          0

 CHANNEL 1
 RQ ROW_BUFFER_HIT:    4160492  ROW_BUFFER_MISS:    2565222
 DBUS_CONGESTED:    9149742
 WQ ROW_BUFFER_HIT:    2149212  ROW_BUFFER_MISS:     309646  FULL:          0

 AVG_CONGESTED_CYCLE: 20

CPU 0 Branch Prediction Accuracy: 95.0607% MPKI: 10.9444 Average ROB Occupancy at Mispredict: 38.3958

Branch types
NOT_BRANCH: 389211006 77.8422%
BRANCH_DIRECT_JUMP: 2921189 0.584238%
BRANCH_INDIRECT: 301 6.02e-05%
BRANCH_CONDITIONAL: 106803784 21.3608%
BRANCH_DIRECT_CALL: 530863 0.106173%
BRANCH_INDIRECT_CALL: 992 0.0001984%
BRANCH_RETURN: 531853 0.106371%
BRANCH_OTHER: 0 0%


gzip: stdout: Broken pipe
