
*** ChampSim Multicore Out-of-Order Simulator ***

Warmup Instructions: 1000000
Prefetch Warmup Instructions: 10000000
Simulation Instructions: 500000000
Stat Printing Period: 1000000
Number of CPUs: 1
LLC sets: 2048
LLC ways: 16
Off-chip DRAM Size: 32768 MB Channels: 2 Width: 64-bit Data Rate: 1024 MT/s

CPU 0 runs /scratch/cluster/cmolder/ML-DPC/ChampSimTraces/spec06/450.soplex-s0.trace.gz
Read seed: 979
Heartbeat CPU 0 instructions: 1000003 cycles: 365170 heartbeat IPC: 2.73846 cumulative IPC: 2.73846 (Simulation time: 0 hr 0 min 5 sec) 

Warmup complete CPU 0 instructions: 1000003 cycles: 365170 (Simulation time: 0 hr 0 min 5 sec) 

Heartbeat CPU 0 instructions: 2000000 cycles: 3514764 heartbeat IPC: 0.3175 cumulative IPC: 0.3175 (Simulation time: 0 hr 0 min 14 sec) 
Heartbeat CPU 0 instructions: 3000000 cycles: 7716974 heartbeat IPC: 0.23797 cumulative IPC: 0.272042 (Simulation time: 0 hr 0 min 27 sec) 
Heartbeat CPU 0 instructions: 4000001 cycles: 10684344 heartbeat IPC: 0.336999 cumulative IPC: 0.290721 (Simulation time: 0 hr 0 min 36 sec) 
Heartbeat CPU 0 instructions: 5000002 cycles: 13448781 heartbeat IPC: 0.361738 cumulative IPC: 0.305726 (Simulation time: 0 hr 0 min 46 sec) 
Heartbeat CPU 0 instructions: 6000000 cycles: 17567999 heartbeat IPC: 0.242764 cumulative IPC: 0.29065 (Simulation time: 0 hr 0 min 59 sec) 
Heartbeat CPU 0 instructions: 7000001 cycles: 19117428 heartbeat IPC: 0.6454 cumulative IPC: 0.319961 (Simulation time: 0 hr 1 min 5 sec) 
Heartbeat CPU 0 instructions: 8000000 cycles: 21525920 heartbeat IPC: 0.415197 cumulative IPC: 0.330801 (Simulation time: 0 hr 1 min 12 sec) 
Heartbeat CPU 0 instructions: 9000003 cycles: 24525638 heartbeat IPC: 0.333366 cumulative IPC: 0.331119 (Simulation time: 0 hr 1 min 22 sec) 
Heartbeat CPU 0 instructions: 10000003 cycles: 27952118 heartbeat IPC: 0.291845 cumulative IPC: 0.326241 (Simulation time: 0 hr 1 min 35 sec) 

Warmup complete CPU 0 instructions: 10000003 cycles: 27952118 (Simulation time: 0 hr 1 min 35 sec) 

Heartbeat CPU 0 instructions: 11000000 cycles: 29929448 heartbeat IPC: 0.505731 cumulative IPC: 0.505731 (Simulation time: 0 hr 1 min 43 sec) 
Heartbeat CPU 0 instructions: 12000000 cycles: 31950609 heartbeat IPC: 0.494765 cumulative IPC: 0.500188 (Simulation time: 0 hr 1 min 53 sec) 
Heartbeat CPU 0 instructions: 13000002 cycles: 35131686 heartbeat IPC: 0.31436 cumulative IPC: 0.417852 (Simulation time: 0 hr 2 min 6 sec) 
Heartbeat CPU 0 instructions: 14000000 cycles: 36376192 heartbeat IPC: 0.80353 cumulative IPC: 0.474829 (Simulation time: 0 hr 2 min 12 sec) 
Heartbeat CPU 0 instructions: 15000001 cycles: 37915645 heartbeat IPC: 0.649582 cumulative IPC: 0.50183 (Simulation time: 0 hr 2 min 18 sec) 
Heartbeat CPU 0 instructions: 16000002 cycles: 40251754 heartbeat IPC: 0.428063 cumulative IPC: 0.487819 (Simulation time: 0 hr 2 min 28 sec) 
Heartbeat CPU 0 instructions: 17000001 cycles: 43035721 heartbeat IPC: 0.359199 cumulative IPC: 0.46408 (Simulation time: 0 hr 2 min 40 sec) 
Heartbeat CPU 0 instructions: 18000001 cycles: 49960812 heartbeat IPC: 0.144402 cumulative IPC: 0.363493 (Simulation time: 0 hr 2 min 52 sec) 
Heartbeat CPU 0 instructions: 19000001 cycles: 54398689 heartbeat IPC: 0.225333 cumulative IPC: 0.340309 (Simulation time: 0 hr 3 min 7 sec) 
Heartbeat CPU 0 instructions: 20000000 cycles: 56278878 heartbeat IPC: 0.531861 cumulative IPC: 0.353023 (Simulation time: 0 hr 3 min 21 sec) 
Heartbeat CPU 0 instructions: 21000002 cycles: 59487073 heartbeat IPC: 0.311702 cumulative IPC: 0.348819 (Simulation time: 0 hr 3 min 33 sec) 
Heartbeat CPU 0 instructions: 22000000 cycles: 62379244 heartbeat IPC: 0.34576 cumulative IPC: 0.348562 (Simulation time: 0 hr 3 min 43 sec) 
Heartbeat CPU 0 instructions: 23000003 cycles: 64853026 heartbeat IPC: 0.404241 cumulative IPC: 0.352295 (Simulation time: 0 hr 3 min 53 sec) 
Heartbeat CPU 0 instructions: 24000000 cycles: 68037216 heartbeat IPC: 0.314051 cumulative IPC: 0.349257 (Simulation time: 0 hr 4 min 4 sec) 
Heartbeat CPU 0 instructions: 25000003 cycles: 70739952 heartbeat IPC: 0.369997 cumulative IPC: 0.350567 (Simulation time: 0 hr 4 min 11 sec) 
Heartbeat CPU 0 instructions: 26000003 cycles: 73312010 heartbeat IPC: 0.388794 cumulative IPC: 0.352735 (Simulation time: 0 hr 4 min 20 sec) 
Heartbeat CPU 0 instructions: 27000000 cycles: 75366040 heartbeat IPC: 0.486846 cumulative IPC: 0.358544 (Simulation time: 0 hr 4 min 27 sec) 
Heartbeat CPU 0 instructions: 28000003 cycles: 77675598 heartbeat IPC: 0.432985 cumulative IPC: 0.362002 (Simulation time: 0 hr 4 min 36 sec) 
Heartbeat CPU 0 instructions: 29000003 cycles: 79254661 heartbeat IPC: 0.633287 cumulative IPC: 0.370352 (Simulation time: 0 hr 4 min 45 sec) 
Heartbeat CPU 0 instructions: 30000003 cycles: 80479590 heartbeat IPC: 0.816374 cumulative IPC: 0.380753 (Simulation time: 0 hr 4 min 51 sec) 
Heartbeat CPU 0 instructions: 31000000 cycles: 82378814 heartbeat IPC: 0.526529 cumulative IPC: 0.38584 (Simulation time: 0 hr 4 min 59 sec) 
Heartbeat CPU 0 instructions: 32000000 cycles: 85239857 heartbeat IPC: 0.349523 cumulative IPC: 0.384026 (Simulation time: 0 hr 5 min 10 sec) 
Heartbeat CPU 0 instructions: 33000000 cycles: 87782763 heartbeat IPC: 0.393251 cumulative IPC: 0.384418 (Simulation time: 0 hr 5 min 20 sec) 
Heartbeat CPU 0 instructions: 34000003 cycles: 89832061 heartbeat IPC: 0.487973 cumulative IPC: 0.387848 (Simulation time: 0 hr 5 min 30 sec) 
Heartbeat CPU 0 instructions: 35000000 cycles: 91813176 heartbeat IPC: 0.504765 cumulative IPC: 0.391475 (Simulation time: 0 hr 5 min 38 sec) 
Heartbeat CPU 0 instructions: 36000002 cycles: 93933825 heartbeat IPC: 0.471555 cumulative IPC: 0.394049 (Simulation time: 0 hr 5 min 48 sec) 
Heartbeat CPU 0 instructions: 37000000 cycles: 97040650 heartbeat IPC: 0.321871 cumulative IPC: 0.390803 (Simulation time: 0 hr 6 min 1 sec) 
Heartbeat CPU 0 instructions: 38000000 cycles: 98289725 heartbeat IPC: 0.800592 cumulative IPC: 0.39808 (Simulation time: 0 hr 6 min 6 sec) 
Heartbeat CPU 0 instructions: 39000001 cycles: 100003346 heartbeat IPC: 0.58356 cumulative IPC: 0.402491 (Simulation time: 0 hr 6 min 13 sec) 
Heartbeat CPU 0 instructions: 40000000 cycles: 102511894 heartbeat IPC: 0.398637 cumulative IPC: 0.402362 (Simulation time: 0 hr 6 min 23 sec) 
Heartbeat CPU 0 instructions: 41000000 cycles: 105331280 heartbeat IPC: 0.354687 cumulative IPC: 0.400625 (Simulation time: 0 hr 6 min 33 sec) 
Heartbeat CPU 0 instructions: 42000002 cycles: 106760639 heartbeat IPC: 0.699616 cumulative IPC: 0.406047 (Simulation time: 0 hr 6 min 39 sec) 
Heartbeat CPU 0 instructions: 43000001 cycles: 109962306 heartbeat IPC: 0.312337 cumulative IPC: 0.402389 (Simulation time: 0 hr 6 min 52 sec) 
Heartbeat CPU 0 instructions: 44000000 cycles: 111965398 heartbeat IPC: 0.499228 cumulative IPC: 0.404698 (Simulation time: 0 hr 7 min 0 sec) 
Heartbeat CPU 0 instructions: 45000001 cycles: 113181163 heartbeat IPC: 0.822528 cumulative IPC: 0.410658 (Simulation time: 0 hr 7 min 5 sec) 
Heartbeat CPU 0 instructions: 46000002 cycles: 115458778 heartbeat IPC: 0.439056 cumulative IPC: 0.411397 (Simulation time: 0 hr 7 min 13 sec) 
Heartbeat CPU 0 instructions: 47000002 cycles: 117633164 heartbeat IPC: 0.4599 cumulative IPC: 0.412573 (Simulation time: 0 hr 7 min 22 sec) 
Heartbeat CPU 0 instructions: 48000003 cycles: 119951682 heartbeat IPC: 0.43131 cumulative IPC: 0.413045 (Simulation time: 0 hr 7 min 32 sec) 
Heartbeat CPU 0 instructions: 49000002 cycles: 121566814 heartbeat IPC: 0.619144 cumulative IPC: 0.416601 (Simulation time: 0 hr 7 min 39 sec) 
Heartbeat CPU 0 instructions: 50000003 cycles: 124597024 heartbeat IPC: 0.33001 cumulative IPC: 0.413886 (Simulation time: 0 hr 7 min 52 sec) 
Heartbeat CPU 0 instructions: 51000000 cycles: 126756049 heartbeat IPC: 0.463171 cumulative IPC: 0.414963 (Simulation time: 0 hr 8 min 0 sec) 
Heartbeat CPU 0 instructions: 52000001 cycles: 127975670 heartbeat IPC: 0.819928 cumulative IPC: 0.419901 (Simulation time: 0 hr 8 min 5 sec) 
Heartbeat CPU 0 instructions: 53000000 cycles: 130330755 heartbeat IPC: 0.424613 cumulative IPC: 0.420009 (Simulation time: 0 hr 8 min 14 sec) 
Heartbeat CPU 0 instructions: 54000002 cycles: 132612075 heartbeat IPC: 0.438344 cumulative IPC: 0.420409 (Simulation time: 0 hr 8 min 22 sec) 
Heartbeat CPU 0 instructions: 55000000 cycles: 135137071 heartbeat IPC: 0.396039 cumulative IPC: 0.419835 (Simulation time: 0 hr 8 min 33 sec) 
Heartbeat CPU 0 instructions: 56000002 cycles: 136634121 heartbeat IPC: 0.667982 cumulative IPC: 0.423253 (Simulation time: 0 hr 8 min 40 sec) 
Heartbeat CPU 0 instructions: 57000000 cycles: 139834466 heartbeat IPC: 0.312466 cumulative IPC: 0.420084 (Simulation time: 0 hr 8 min 53 sec) 
Heartbeat CPU 0 instructions: 58000001 cycles: 141834628 heartbeat IPC: 0.49996 cumulative IPC: 0.421487 (Simulation time: 0 hr 9 min 1 sec) 
Heartbeat CPU 0 instructions: 59000002 cycles: 143047892 heartbeat IPC: 0.824224 cumulative IPC: 0.425732 (Simulation time: 0 hr 9 min 6 sec) 
Heartbeat CPU 0 instructions: 60000003 cycles: 145482676 heartbeat IPC: 0.410714 cumulative IPC: 0.425421 (Simulation time: 0 hr 9 min 14 sec) 
Heartbeat CPU 0 instructions: 61000000 cycles: 147671551 heartbeat IPC: 0.456854 cumulative IPC: 0.425996 (Simulation time: 0 hr 9 min 23 sec) 
Heartbeat CPU 0 instructions: 62000003 cycles: 150140042 heartbeat IPC: 0.405107 cumulative IPC: 0.425574 (Simulation time: 0 hr 9 min 33 sec) 
Heartbeat CPU 0 instructions: 63000002 cycles: 151517993 heartbeat IPC: 0.725715 cumulative IPC: 0.428921 (Simulation time: 0 hr 9 min 40 sec) 
Heartbeat CPU 0 instructions: 64000000 cycles: 155133564 heartbeat IPC: 0.276581 cumulative IPC: 0.42459 (Simulation time: 0 hr 9 min 54 sec) 
Heartbeat CPU 0 instructions: 65000002 cycles: 156792810 heartbeat IPC: 0.602685 cumulative IPC: 0.426884 (Simulation time: 0 hr 10 min 1 sec) 
Heartbeat CPU 0 instructions: 66000000 cycles: 157981902 heartbeat IPC: 0.840976 cumulative IPC: 0.430671 (Simulation time: 0 hr 10 min 6 sec) 
Heartbeat CPU 0 instructions: 67000002 cycles: 160339474 heartbeat IPC: 0.424166 cumulative IPC: 0.430555 (Simulation time: 0 hr 10 min 14 sec) 
Heartbeat CPU 0 instructions: 68000001 cycles: 162554044 heartbeat IPC: 0.451554 cumulative IPC: 0.4309 (Simulation time: 0 hr 10 min 23 sec) 
Heartbeat CPU 0 instructions: 69000002 cycles: 164886016 heartbeat IPC: 0.428822 cumulative IPC: 0.430865 (Simulation time: 0 hr 10 min 33 sec) 
Heartbeat CPU 0 instructions: 70000000 cycles: 166392513 heartbeat IPC: 0.66379 cumulative IPC: 0.433399 (Simulation time: 0 hr 10 min 40 sec) 
Heartbeat CPU 0 instructions: 71000000 cycles: 169621250 heartbeat IPC: 0.309719 cumulative IPC: 0.430581 (Simulation time: 0 hr 10 min 54 sec) 
Heartbeat CPU 0 instructions: 72000001 cycles: 171601149 heartbeat IPC: 0.505077 cumulative IPC: 0.431607 (Simulation time: 0 hr 11 min 1 sec) 
Heartbeat CPU 0 instructions: 73000000 cycles: 172812510 heartbeat IPC: 0.825517 cumulative IPC: 0.434901 (Simulation time: 0 hr 11 min 6 sec) 
Heartbeat CPU 0 instructions: 74000000 cycles: 175240153 heartbeat IPC: 0.411922 cumulative IPC: 0.434523 (Simulation time: 0 hr 11 min 15 sec) 
Heartbeat CPU 0 instructions: 75000000 cycles: 177547827 heartbeat IPC: 0.433337 cumulative IPC: 0.434504 (Simulation time: 0 hr 11 min 23 sec) 
Heartbeat CPU 0 instructions: 76000001 cycles: 180056209 heartbeat IPC: 0.398664 cumulative IPC: 0.433913 (Simulation time: 0 hr 11 min 34 sec) 
Heartbeat CPU 0 instructions: 77000000 cycles: 181389815 heartbeat IPC: 0.749846 cumulative IPC: 0.436659 (Simulation time: 0 hr 11 min 40 sec) 
Heartbeat CPU 0 instructions: 78000002 cycles: 185101919 heartbeat IPC: 0.26939 cumulative IPC: 0.432708 (Simulation time: 0 hr 11 min 55 sec) 
Heartbeat CPU 0 instructions: 79000003 cycles: 186669912 heartbeat IPC: 0.637759 cumulative IPC: 0.434734 (Simulation time: 0 hr 12 min 1 sec) 
Heartbeat CPU 0 instructions: 80000003 cycles: 187855880 heartbeat IPC: 0.843193 cumulative IPC: 0.437763 (Simulation time: 0 hr 12 min 7 sec) 
Heartbeat CPU 0 instructions: 81000000 cycles: 190264515 heartbeat IPC: 0.415172 cumulative IPC: 0.437428 (Simulation time: 0 hr 12 min 15 sec) 
Heartbeat CPU 0 instructions: 82000001 cycles: 192482525 heartbeat IPC: 0.450855 cumulative IPC: 0.437609 (Simulation time: 0 hr 12 min 24 sec) 
Heartbeat CPU 0 instructions: 83000001 cycles: 194971377 heartbeat IPC: 0.401792 cumulative IPC: 0.437075 (Simulation time: 0 hr 12 min 34 sec) 
Heartbeat CPU 0 instructions: 84000001 cycles: 196474425 heartbeat IPC: 0.665315 cumulative IPC: 0.439111 (Simulation time: 0 hr 12 min 41 sec) 
Heartbeat CPU 0 instructions: 85000000 cycles: 200148631 heartbeat IPC: 0.272167 cumulative IPC: 0.435549 (Simulation time: 0 hr 12 min 56 sec) 
Heartbeat CPU 0 instructions: 86000000 cycles: 201493205 heartbeat IPC: 0.74373 cumulative IPC: 0.437937 (Simulation time: 0 hr 13 min 1 sec) 
Heartbeat CPU 0 instructions: 87000000 cycles: 202644880 heartbeat IPC: 0.8683 cumulative IPC: 0.440774 (Simulation time: 0 hr 13 min 7 sec) 
Heartbeat CPU 0 instructions: 88000000 cycles: 205020418 heartbeat IPC: 0.420957 cumulative IPC: 0.440508 (Simulation time: 0 hr 13 min 15 sec) 
Heartbeat CPU 0 instructions: 89000000 cycles: 207558022 heartbeat IPC: 0.394073 cumulative IPC: 0.439852 (Simulation time: 0 hr 13 min 25 sec) 
Heartbeat CPU 0 instructions: 90000003 cycles: 209784207 heartbeat IPC: 0.4492 cumulative IPC: 0.439966 (Simulation time: 0 hr 13 min 34 sec) 
Heartbeat CPU 0 instructions: 91000000 cycles: 211535662 heartbeat IPC: 0.570952 cumulative IPC: 0.441216 (Simulation time: 0 hr 13 min 42 sec) 
Heartbeat CPU 0 instructions: 92000000 cycles: 215024927 heartbeat IPC: 0.286593 cumulative IPC: 0.438332 (Simulation time: 0 hr 13 min 56 sec) 
Heartbeat CPU 0 instructions: 93000000 cycles: 216283649 heartbeat IPC: 0.794457 cumulative IPC: 0.440712 (Simulation time: 0 hr 14 min 1 sec) 
Heartbeat CPU 0 instructions: 94000002 cycles: 217510646 heartbeat IPC: 0.815 cumulative IPC: 0.443135 (Simulation time: 0 hr 14 min 7 sec) 
Heartbeat CPU 0 instructions: 95000002 cycles: 219890821 heartbeat IPC: 0.420137 cumulative IPC: 0.44285 (Simulation time: 0 hr 14 min 16 sec) 
Heartbeat CPU 0 instructions: 96000000 cycles: 221924820 heartbeat IPC: 0.491641 cumulative IPC: 0.443361 (Simulation time: 0 hr 14 min 24 sec) 
Heartbeat CPU 0 instructions: 97000000 cycles: 223909757 heartbeat IPC: 0.503794 cumulative IPC: 0.443973 (Simulation time: 0 hr 14 min 32 sec) 
Heartbeat CPU 0 instructions: 98000003 cycles: 226032203 heartbeat IPC: 0.471156 cumulative IPC: 0.444265 (Simulation time: 0 hr 14 min 41 sec) 
Heartbeat CPU 0 instructions: 99000000 cycles: 229070097 heartbeat IPC: 0.329174 cumulative IPC: 0.442526 (Simulation time: 0 hr 14 min 53 sec) 
Heartbeat CPU 0 instructions: 100000002 cycles: 230296708 heartbeat IPC: 0.815256 cumulative IPC: 0.444786 (Simulation time: 0 hr 14 min 59 sec) 
Heartbeat CPU 0 instructions: 101000003 cycles: 231955635 heartbeat IPC: 0.6028 cumulative IPC: 0.446071 (Simulation time: 0 hr 15 min 6 sec) 
Heartbeat CPU 0 instructions: 102000002 cycles: 234154271 heartbeat IPC: 0.454827 cumulative IPC: 0.446164 (Simulation time: 0 hr 15 min 15 sec) 
Heartbeat CPU 0 instructions: 103000003 cycles: 235849356 heartbeat IPC: 0.589942 cumulative IPC: 0.447336 (Simulation time: 0 hr 15 min 22 sec) 
Heartbeat CPU 0 instructions: 104000003 cycles: 242011357 heartbeat IPC: 0.162285 cumulative IPC: 0.439131 (Simulation time: 0 hr 15 min 34 sec) 
Heartbeat CPU 0 instructions: 105000000 cycles: 243775068 heartbeat IPC: 0.566985 cumulative IPC: 0.440176 (Simulation time: 0 hr 15 min 47 sec) 
Heartbeat CPU 0 instructions: 106000003 cycles: 246805700 heartbeat IPC: 0.329965 cumulative IPC: 0.438649 (Simulation time: 0 hr 15 min 59 sec) 
Heartbeat CPU 0 instructions: 107000000 cycles: 249793849 heartbeat IPC: 0.334654 cumulative IPC: 0.437249 (Simulation time: 0 hr 16 min 9 sec) 
Heartbeat CPU 0 instructions: 108000001 cycles: 252310046 heartbeat IPC: 0.397426 cumulative IPC: 0.436802 (Simulation time: 0 hr 16 min 18 sec) 
Heartbeat CPU 0 instructions: 109000000 cycles: 255177991 heartbeat IPC: 0.348681 cumulative IPC: 0.43569 (Simulation time: 0 hr 16 min 30 sec) 
Heartbeat CPU 0 instructions: 110000000 cycles: 258070144 heartbeat IPC: 0.345763 cumulative IPC: 0.43456 (Simulation time: 0 hr 16 min 37 sec) 
Heartbeat CPU 0 instructions: 111000000 cycles: 260696976 heartbeat IPC: 0.380687 cumulative IPC: 0.433952 (Simulation time: 0 hr 16 min 46 sec) 
Heartbeat CPU 0 instructions: 112000002 cycles: 262776665 heartbeat IPC: 0.480842 cumulative IPC: 0.434367 (Simulation time: 0 hr 16 min 54 sec) 
Heartbeat CPU 0 instructions: 113000000 cycles: 265209609 heartbeat IPC: 0.411024 cumulative IPC: 0.434127 (Simulation time: 0 hr 17 min 2 sec) 
Heartbeat CPU 0 instructions: 114000002 cycles: 266539661 heartbeat IPC: 0.751852 cumulative IPC: 0.435899 (Simulation time: 0 hr 17 min 10 sec) 
Heartbeat CPU 0 instructions: 115000003 cycles: 267738928 heartbeat IPC: 0.833844 cumulative IPC: 0.437889 (Simulation time: 0 hr 17 min 18 sec) 
Heartbeat CPU 0 instructions: 116000001 cycles: 269870730 heartbeat IPC: 0.469086 cumulative IPC: 0.438164 (Simulation time: 0 hr 17 min 26 sec) 
Heartbeat CPU 0 instructions: 117000002 cycles: 272472148 heartbeat IPC: 0.384406 cumulative IPC: 0.437592 (Simulation time: 0 hr 17 min 36 sec) 
Heartbeat CPU 0 instructions: 118000003 cycles: 275012716 heartbeat IPC: 0.393613 cumulative IPC: 0.43714 (Simulation time: 0 hr 17 min 47 sec) 
Heartbeat CPU 0 instructions: 119000000 cycles: 276741750 heartbeat IPC: 0.578356 cumulative IPC: 0.438121 (Simulation time: 0 hr 17 min 56 sec) 
Heartbeat CPU 0 instructions: 120000002 cycles: 278854737 heartbeat IPC: 0.473265 cumulative IPC: 0.438417 (Simulation time: 0 hr 18 min 5 sec) 
Heartbeat CPU 0 instructions: 121000000 cycles: 280470734 heartbeat IPC: 0.618812 cumulative IPC: 0.439572 (Simulation time: 0 hr 18 min 14 sec) 
Heartbeat CPU 0 instructions: 122000000 cycles: 284118454 heartbeat IPC: 0.274144 cumulative IPC: 0.437216 (Simulation time: 0 hr 18 min 30 sec) 
Heartbeat CPU 0 instructions: 123000000 cycles: 285408632 heartbeat IPC: 0.775087 cumulative IPC: 0.438909 (Simulation time: 0 hr 18 min 35 sec) 
Heartbeat CPU 0 instructions: 124000000 cycles: 286574710 heartbeat IPC: 0.857576 cumulative IPC: 0.440797 (Simulation time: 0 hr 18 min 41 sec) 
Heartbeat CPU 0 instructions: 125000001 cycles: 288794654 heartbeat IPC: 0.450462 cumulative IPC: 0.440879 (Simulation time: 0 hr 18 min 51 sec) 
Heartbeat CPU 0 instructions: 126000000 cycles: 292013989 heartbeat IPC: 0.310623 cumulative IPC: 0.439291 (Simulation time: 0 hr 19 min 2 sec) 
Heartbeat CPU 0 instructions: 127000001 cycles: 293820934 heartbeat IPC: 0.553421 cumulative IPC: 0.440067 (Simulation time: 0 hr 19 min 10 sec) 
Heartbeat CPU 0 instructions: 128000002 cycles: 296363865 heartbeat IPC: 0.393247 cumulative IPC: 0.439623 (Simulation time: 0 hr 19 min 22 sec) 
Heartbeat CPU 0 instructions: 129000001 cycles: 298901264 heartbeat IPC: 0.394104 cumulative IPC: 0.439197 (Simulation time: 0 hr 19 min 33 sec) 
Heartbeat CPU 0 instructions: 130000000 cycles: 300139205 heartbeat IPC: 0.807792 cumulative IPC: 0.440873 (Simulation time: 0 hr 19 min 39 sec) 
Heartbeat CPU 0 instructions: 131000002 cycles: 302224567 heartbeat IPC: 0.479534 cumulative IPC: 0.441167 (Simulation time: 0 hr 19 min 47 sec) 
Heartbeat CPU 0 instructions: 132000000 cycles: 304390104 heartbeat IPC: 0.461778 cumulative IPC: 0.441329 (Simulation time: 0 hr 19 min 56 sec) 
Heartbeat CPU 0 instructions: 133000001 cycles: 306437080 heartbeat IPC: 0.488526 cumulative IPC: 0.441676 (Simulation time: 0 hr 20 min 5 sec) 
Heartbeat CPU 0 instructions: 134000003 cycles: 307765935 heartbeat IPC: 0.752529 cumulative IPC: 0.443152 (Simulation time: 0 hr 20 min 13 sec) 
Heartbeat CPU 0 instructions: 135000003 cycles: 311400643 heartbeat IPC: 0.275125 cumulative IPC: 0.440997 (Simulation time: 0 hr 20 min 29 sec) 
Heartbeat CPU 0 instructions: 136000001 cycles: 313045093 heartbeat IPC: 0.608105 cumulative IPC: 0.441961 (Simulation time: 0 hr 20 min 36 sec) 
Heartbeat CPU 0 instructions: 137000002 cycles: 314252823 heartbeat IPC: 0.828 cumulative IPC: 0.44359 (Simulation time: 0 hr 20 min 41 sec) 
Heartbeat CPU 0 instructions: 138000002 cycles: 316518040 heartbeat IPC: 0.441459 cumulative IPC: 0.443573 (Simulation time: 0 hr 20 min 50 sec) 
Heartbeat CPU 0 instructions: 139000001 cycles: 318721336 heartbeat IPC: 0.453865 cumulative IPC: 0.443651 (Simulation time: 0 hr 21 min 0 sec) 
Heartbeat CPU 0 instructions: 140000001 cycles: 320319044 heartbeat IPC: 0.625897 cumulative IPC: 0.444647 (Simulation time: 0 hr 21 min 7 sec) 
Heartbeat CPU 0 instructions: 141000000 cycles: 321764407 heartbeat IPC: 0.691867 cumulative IPC: 0.445863 (Simulation time: 0 hr 21 min 15 sec) 
Heartbeat CPU 0 instructions: 142000001 cycles: 325139233 heartbeat IPC: 0.296312 cumulative IPC: 0.444165 (Simulation time: 0 hr 21 min 30 sec) 
Heartbeat CPU 0 instructions: 143000000 cycles: 327009272 heartbeat IPC: 0.534748 cumulative IPC: 0.444731 (Simulation time: 0 hr 21 min 37 sec) 
Heartbeat CPU 0 instructions: 144000002 cycles: 328223479 heartbeat IPC: 0.823584 cumulative IPC: 0.446263 (Simulation time: 0 hr 21 min 43 sec) 
Heartbeat CPU 0 instructions: 145000001 cycles: 330496723 heartbeat IPC: 0.4399 cumulative IPC: 0.446215 (Simulation time: 0 hr 21 min 52 sec) 
Heartbeat CPU 0 instructions: 146000000 cycles: 332952989 heartbeat IPC: 0.407122 cumulative IPC: 0.4459 (Simulation time: 0 hr 22 min 1 sec) 
Heartbeat CPU 0 instructions: 147000000 cycles: 334546705 heartbeat IPC: 0.627464 cumulative IPC: 0.446844 (Simulation time: 0 hr 22 min 7 sec) 
Heartbeat CPU 0 instructions: 148000002 cycles: 335848367 heartbeat IPC: 0.76825 cumulative IPC: 0.448203 (Simulation time: 0 hr 22 min 14 sec) 
Heartbeat CPU 0 instructions: 149000000 cycles: 339570979 heartbeat IPC: 0.268628 cumulative IPC: 0.446058 (Simulation time: 0 hr 22 min 29 sec) 
Heartbeat CPU 0 instructions: 150000003 cycles: 341153854 heartbeat IPC: 0.631764 cumulative IPC: 0.446996 (Simulation time: 0 hr 22 min 36 sec) 
Heartbeat CPU 0 instructions: 151000001 cycles: 342357054 heartbeat IPC: 0.831115 cumulative IPC: 0.448466 (Simulation time: 0 hr 22 min 41 sec) 
Heartbeat CPU 0 instructions: 152000001 cycles: 344584416 heartbeat IPC: 0.448962 cumulative IPC: 0.44847 (Simulation time: 0 hr 22 min 49 sec) 
Heartbeat CPU 0 instructions: 153000000 cycles: 347038401 heartbeat IPC: 0.4075 cumulative IPC: 0.448155 (Simulation time: 0 hr 22 min 58 sec) 
Heartbeat CPU 0 instructions: 154000000 cycles: 348718032 heartbeat IPC: 0.595369 cumulative IPC: 0.448925 (Simulation time: 0 hr 23 min 5 sec) 
Heartbeat CPU 0 instructions: 155000002 cycles: 350199309 heartbeat IPC: 0.675095 cumulative IPC: 0.449965 (Simulation time: 0 hr 23 min 13 sec) 
Heartbeat CPU 0 instructions: 156000002 cycles: 353865216 heartbeat IPC: 0.272784 cumulative IPC: 0.447972 (Simulation time: 0 hr 23 min 28 sec) 
Heartbeat CPU 0 instructions: 157000000 cycles: 355284330 heartbeat IPC: 0.704664 cumulative IPC: 0.449085 (Simulation time: 0 hr 23 min 33 sec) 
Heartbeat CPU 0 instructions: 158000001 cycles: 356456968 heartbeat IPC: 0.852779 cumulative IPC: 0.450526 (Simulation time: 0 hr 23 min 38 sec) 
Heartbeat CPU 0 instructions: 159000000 cycles: 358676781 heartbeat IPC: 0.450488 cumulative IPC: 0.450526 (Simulation time: 0 hr 23 min 47 sec) 
Heartbeat CPU 0 instructions: 160000001 cycles: 361129594 heartbeat IPC: 0.407696 cumulative IPC: 0.450211 (Simulation time: 0 hr 23 min 56 sec) 
Heartbeat CPU 0 instructions: 161000000 cycles: 362858740 heartbeat IPC: 0.57832 cumulative IPC: 0.450872 (Simulation time: 0 hr 24 min 3 sec) 
Heartbeat CPU 0 instructions: 162000000 cycles: 364422989 heartbeat IPC: 0.639284 cumulative IPC: 0.451748 (Simulation time: 0 hr 24 min 11 sec) 
Heartbeat CPU 0 instructions: 163000001 cycles: 368109513 heartbeat IPC: 0.271259 cumulative IPC: 0.449792 (Simulation time: 0 hr 24 min 26 sec) 
Heartbeat CPU 0 instructions: 164000001 cycles: 369387477 heartbeat IPC: 0.782495 cumulative IPC: 0.451037 (Simulation time: 0 hr 24 min 31 sec) 
Heartbeat CPU 0 instructions: 165000000 cycles: 370548872 heartbeat IPC: 0.861033 cumulative IPC: 0.452427 (Simulation time: 0 hr 24 min 36 sec) 
Heartbeat CPU 0 instructions: 166000002 cycles: 372740784 heartbeat IPC: 0.456224 cumulative IPC: 0.452451 (Simulation time: 0 hr 24 min 45 sec) 
Heartbeat CPU 0 instructions: 167000003 cycles: 375187991 heartbeat IPC: 0.40863 cumulative IPC: 0.452142 (Simulation time: 0 hr 24 min 54 sec) 
Heartbeat CPU 0 instructions: 168000001 cycles: 376960758 heartbeat IPC: 0.564089 cumulative IPC: 0.452711 (Simulation time: 0 hr 25 min 1 sec) 
Heartbeat CPU 0 instructions: 169000001 cycles: 378664948 heartbeat IPC: 0.586789 cumulative IPC: 0.453362 (Simulation time: 0 hr 25 min 10 sec) 
Heartbeat CPU 0 instructions: 170000000 cycles: 382211535 heartbeat IPC: 0.281961 cumulative IPC: 0.451646 (Simulation time: 0 hr 25 min 24 sec) 
Heartbeat CPU 0 instructions: 171000000 cycles: 383481080 heartbeat IPC: 0.787684 cumulative IPC: 0.452846 (Simulation time: 0 hr 25 min 29 sec) 
Heartbeat CPU 0 instructions: 172000003 cycles: 384652642 heartbeat IPC: 0.853564 cumulative IPC: 0.454163 (Simulation time: 0 hr 25 min 34 sec) 
Heartbeat CPU 0 instructions: 173000000 cycles: 386793925 heartbeat IPC: 0.467008 cumulative IPC: 0.454239 (Simulation time: 0 hr 25 min 43 sec) 
Heartbeat CPU 0 instructions: 174000002 cycles: 389218863 heartbeat IPC: 0.412383 cumulative IPC: 0.453958 (Simulation time: 0 hr 25 min 52 sec) 
Heartbeat CPU 0 instructions: 175000002 cycles: 391049584 heartbeat IPC: 0.546233 cumulative IPC: 0.454423 (Simulation time: 0 hr 25 min 59 sec) 
Heartbeat CPU 0 instructions: 176000000 cycles: 392890191 heartbeat IPC: 0.543298 cumulative IPC: 0.454872 (Simulation time: 0 hr 26 min 8 sec) 
Heartbeat CPU 0 instructions: 177000002 cycles: 396270136 heartbeat IPC: 0.295863 cumulative IPC: 0.453413 (Simulation time: 0 hr 26 min 22 sec) 
Heartbeat CPU 0 instructions: 178000000 cycles: 397530187 heartbeat IPC: 0.793617 cumulative IPC: 0.454572 (Simulation time: 0 hr 26 min 27 sec) 
Heartbeat CPU 0 instructions: 179000001 cycles: 398862622 heartbeat IPC: 0.750506 cumulative IPC: 0.455636 (Simulation time: 0 hr 26 min 33 sec) 
Heartbeat CPU 0 instructions: 180000000 cycles: 401072956 heartbeat IPC: 0.45242 cumulative IPC: 0.455616 (Simulation time: 0 hr 26 min 41 sec) 
Heartbeat CPU 0 instructions: 181000003 cycles: 403235599 heartbeat IPC: 0.462399 cumulative IPC: 0.455656 (Simulation time: 0 hr 26 min 49 sec) 
Heartbeat CPU 0 instructions: 182000000 cycles: 405134778 heartbeat IPC: 0.526542 cumulative IPC: 0.456012 (Simulation time: 0 hr 26 min 57 sec) 
Heartbeat CPU 0 instructions: 183000002 cycles: 407134377 heartbeat IPC: 0.500101 cumulative IPC: 0.456245 (Simulation time: 0 hr 27 min 7 sec) 
Heartbeat CPU 0 instructions: 184000002 cycles: 410345363 heartbeat IPC: 0.311431 cumulative IPC: 0.455029 (Simulation time: 0 hr 27 min 19 sec) 
Heartbeat CPU 0 instructions: 185000000 cycles: 411598123 heartbeat IPC: 0.798236 cumulative IPC: 0.45615 (Simulation time: 0 hr 27 min 25 sec) 
Heartbeat CPU 0 instructions: 186000003 cycles: 413080865 heartbeat IPC: 0.674428 cumulative IPC: 0.45699 (Simulation time: 0 hr 27 min 31 sec) 
Heartbeat CPU 0 instructions: 187000000 cycles: 415341212 heartbeat IPC: 0.442409 cumulative IPC: 0.456905 (Simulation time: 0 hr 27 min 40 sec) 
Heartbeat CPU 0 instructions: 188000001 cycles: 417282735 heartbeat IPC: 0.51506 cumulative IPC: 0.457195 (Simulation time: 0 hr 27 min 47 sec) 
Heartbeat CPU 0 instructions: 189000003 cycles: 423191951 heartbeat IPC: 0.169228 cumulative IPC: 0.45289 (Simulation time: 0 hr 27 min 57 sec) 
Heartbeat CPU 0 instructions: 190000000 cycles: 425963504 heartbeat IPC: 0.360807 cumulative IPC: 0.452248 (Simulation time: 0 hr 28 min 11 sec) 
Heartbeat CPU 0 instructions: 191000001 cycles: 428118819 heartbeat IPC: 0.46397 cumulative IPC: 0.452311 (Simulation time: 0 hr 28 min 24 sec) 
Heartbeat CPU 0 instructions: 192000003 cycles: 431222421 heartbeat IPC: 0.322207 cumulative IPC: 0.45131 (Simulation time: 0 hr 28 min 34 sec) 
Heartbeat CPU 0 instructions: 193000000 cycles: 433874253 heartbeat IPC: 0.377097 cumulative IPC: 0.450825 (Simulation time: 0 hr 28 min 44 sec) 
Heartbeat CPU 0 instructions: 194000003 cycles: 436301207 heartbeat IPC: 0.41204 cumulative IPC: 0.450595 (Simulation time: 0 hr 28 min 53 sec) 
Heartbeat CPU 0 instructions: 195000001 cycles: 439633813 heartbeat IPC: 0.300065 cumulative IPC: 0.449376 (Simulation time: 0 hr 29 min 2 sec) 
Heartbeat CPU 0 instructions: 196000001 cycles: 442280350 heartbeat IPC: 0.377852 cumulative IPC: 0.448919 (Simulation time: 0 hr 29 min 10 sec) 
Heartbeat CPU 0 instructions: 197000000 cycles: 444603292 heartbeat IPC: 0.430488 cumulative IPC: 0.448817 (Simulation time: 0 hr 29 min 17 sec) 
Heartbeat CPU 0 instructions: 198000000 cycles: 446739051 heartbeat IPC: 0.468218 cumulative IPC: 0.448916 (Simulation time: 0 hr 29 min 24 sec) 
Heartbeat CPU 0 instructions: 199000003 cycles: 448582243 heartbeat IPC: 0.542539 cumulative IPC: 0.449326 (Simulation time: 0 hr 29 min 32 sec) 
Heartbeat CPU 0 instructions: 200000001 cycles: 449983857 heartbeat IPC: 0.713462 cumulative IPC: 0.450203 (Simulation time: 0 hr 29 min 39 sec) 
Heartbeat CPU 0 instructions: 201000000 cycles: 451639710 heartbeat IPC: 0.603918 cumulative IPC: 0.450804 (Simulation time: 0 hr 29 min 46 sec) 
Heartbeat CPU 0 instructions: 202000000 cycles: 453535078 heartbeat IPC: 0.527602 cumulative IPC: 0.451146 (Simulation time: 0 hr 29 min 54 sec) 
Heartbeat CPU 0 instructions: 203000002 cycles: 456500036 heartbeat IPC: 0.337274 cumulative IPC: 0.450358 (Simulation time: 0 hr 30 min 4 sec) 
Heartbeat CPU 0 instructions: 204000003 cycles: 458663273 heartbeat IPC: 0.462271 cumulative IPC: 0.450418 (Simulation time: 0 hr 30 min 13 sec) 
Heartbeat CPU 0 instructions: 205000002 cycles: 460615715 heartbeat IPC: 0.512179 cumulative IPC: 0.450697 (Simulation time: 0 hr 30 min 22 sec) 
Heartbeat CPU 0 instructions: 206000002 cycles: 462373279 heartbeat IPC: 0.568969 cumulative IPC: 0.451175 (Simulation time: 0 hr 30 min 29 sec) 
Heartbeat CPU 0 instructions: 207000000 cycles: 465154092 heartbeat IPC: 0.359606 cumulative IPC: 0.450593 (Simulation time: 0 hr 30 min 41 sec) 
Heartbeat CPU 0 instructions: 208000001 cycles: 467565508 heartbeat IPC: 0.414695 cumulative IPC: 0.450396 (Simulation time: 0 hr 30 min 50 sec) 
Heartbeat CPU 0 instructions: 209000000 cycles: 468821947 heartbeat IPC: 0.795899 cumulative IPC: 0.45138 (Simulation time: 0 hr 30 min 55 sec) 
Heartbeat CPU 0 instructions: 210000003 cycles: 471058559 heartbeat IPC: 0.447106 cumulative IPC: 0.451359 (Simulation time: 0 hr 31 min 3 sec) 
Heartbeat CPU 0 instructions: 211000000 cycles: 473557503 heartbeat IPC: 0.400168 cumulative IPC: 0.451072 (Simulation time: 0 hr 31 min 12 sec) 
Heartbeat CPU 0 instructions: 212000002 cycles: 475829623 heartbeat IPC: 0.440118 cumulative IPC: 0.451016 (Simulation time: 0 hr 31 min 20 sec) 
Heartbeat CPU 0 instructions: 213000000 cycles: 477217281 heartbeat IPC: 0.720637 cumulative IPC: 0.451849 (Simulation time: 0 hr 31 min 28 sec) 
Heartbeat CPU 0 instructions: 214000001 cycles: 480893125 heartbeat IPC: 0.272047 cumulative IPC: 0.45039 (Simulation time: 0 hr 31 min 42 sec) 
Heartbeat CPU 0 instructions: 215000000 cycles: 482381066 heartbeat IPC: 0.672069 cumulative IPC: 0.451116 (Simulation time: 0 hr 31 min 48 sec) 
Heartbeat CPU 0 instructions: 216000000 cycles: 483571294 heartbeat IPC: 0.840175 cumulative IPC: 0.452132 (Simulation time: 0 hr 31 min 53 sec) 
Heartbeat CPU 0 instructions: 217000003 cycles: 485801071 heartbeat IPC: 0.448477 cumulative IPC: 0.452114 (Simulation time: 0 hr 32 min 2 sec) 
Heartbeat CPU 0 instructions: 218000002 cycles: 488134300 heartbeat IPC: 0.42859 cumulative IPC: 0.451995 (Simulation time: 0 hr 32 min 11 sec) 
Heartbeat CPU 0 instructions: 219000000 cycles: 490026587 heartbeat IPC: 0.52846 cumulative IPC: 0.452308 (Simulation time: 0 hr 32 min 18 sec) 
Heartbeat CPU 0 instructions: 220000000 cycles: 492213893 heartbeat IPC: 0.457183 cumulative IPC: 0.452331 (Simulation time: 0 hr 32 min 28 sec) 
Heartbeat CPU 0 instructions: 221000001 cycles: 495221395 heartbeat IPC: 0.332502 cumulative IPC: 0.45156 (Simulation time: 0 hr 32 min 40 sec) 
Heartbeat CPU 0 instructions: 222000001 cycles: 496462057 heartbeat IPC: 0.806021 cumulative IPC: 0.452498 (Simulation time: 0 hr 32 min 45 sec) 
Heartbeat CPU 0 instructions: 223000001 cycles: 498159772 heartbeat IPC: 0.589027 cumulative IPC: 0.452991 (Simulation time: 0 hr 32 min 51 sec) 
Heartbeat CPU 0 instructions: 224000001 cycles: 500323537 heartbeat IPC: 0.462157 cumulative IPC: 0.453033 (Simulation time: 0 hr 33 min 0 sec) 
Heartbeat CPU 0 instructions: 225000000 cycles: 502224207 heartbeat IPC: 0.52613 cumulative IPC: 0.453326 (Simulation time: 0 hr 33 min 9 sec) 
Heartbeat CPU 0 instructions: 226000001 cycles: 504107984 heartbeat IPC: 0.530849 cumulative IPC: 0.453633 (Simulation time: 0 hr 33 min 16 sec) 
Heartbeat CPU 0 instructions: 227000003 cycles: 506660731 heartbeat IPC: 0.391736 cumulative IPC: 0.453303 (Simulation time: 0 hr 33 min 27 sec) 
Heartbeat CPU 0 instructions: 228000003 cycles: 509223799 heartbeat IPC: 0.390157 cumulative IPC: 0.452967 (Simulation time: 0 hr 33 min 37 sec) 
Heartbeat CPU 0 instructions: 229000003 cycles: 510470221 heartbeat IPC: 0.802297 cumulative IPC: 0.453869 (Simulation time: 0 hr 33 min 42 sec) 
Heartbeat CPU 0 instructions: 230000000 cycles: 512509572 heartbeat IPC: 0.490351 cumulative IPC: 0.454023 (Simulation time: 0 hr 33 min 50 sec) 
Heartbeat CPU 0 instructions: 231000000 cycles: 514618089 heartbeat IPC: 0.474267 cumulative IPC: 0.45411 (Simulation time: 0 hr 33 min 58 sec) 
Heartbeat CPU 0 instructions: 232000001 cycles: 516665141 heartbeat IPC: 0.488508 cumulative IPC: 0.454254 (Simulation time: 0 hr 34 min 6 sec) 
Heartbeat CPU 0 instructions: 233000000 cycles: 518115222 heartbeat IPC: 0.689616 cumulative IPC: 0.454951 (Simulation time: 0 hr 34 min 13 sec) 
Heartbeat CPU 0 instructions: 234000000 cycles: 521344737 heartbeat IPC: 0.309644 cumulative IPC: 0.453999 (Simulation time: 0 hr 34 min 27 sec) 
Heartbeat CPU 0 instructions: 235000003 cycles: 523334261 heartbeat IPC: 0.502634 cumulative IPC: 0.454195 (Simulation time: 0 hr 34 min 35 sec) 
Heartbeat CPU 0 instructions: 236000001 cycles: 524557227 heartbeat IPC: 0.817683 cumulative IPC: 0.45509 (Simulation time: 0 hr 34 min 40 sec) 
Heartbeat CPU 0 instructions: 237000001 cycles: 526805972 heartbeat IPC: 0.444692 cumulative IPC: 0.455043 (Simulation time: 0 hr 34 min 48 sec) 
Heartbeat CPU 0 instructions: 238000001 cycles: 528976483 heartbeat IPC: 0.460721 cumulative IPC: 0.455068 (Simulation time: 0 hr 34 min 57 sec) 
Heartbeat CPU 0 instructions: 239000001 cycles: 530763633 heartbeat IPC: 0.55955 cumulative IPC: 0.455439 (Simulation time: 0 hr 35 min 4 sec) 
Heartbeat CPU 0 instructions: 240000002 cycles: 532055716 heartbeat IPC: 0.773945 cumulative IPC: 0.456255 (Simulation time: 0 hr 35 min 11 sec) 
Heartbeat CPU 0 instructions: 241000003 cycles: 535784209 heartbeat IPC: 0.268205 cumulative IPC: 0.454875 (Simulation time: 0 hr 35 min 26 sec) 
Heartbeat CPU 0 instructions: 242000000 cycles: 537356980 heartbeat IPC: 0.635819 cumulative IPC: 0.455433 (Simulation time: 0 hr 35 min 32 sec) 
Heartbeat CPU 0 instructions: 243000000 cycles: 538555831 heartbeat IPC: 0.834132 cumulative IPC: 0.456323 (Simulation time: 0 hr 35 min 37 sec) 
Heartbeat CPU 0 instructions: 244000001 cycles: 540875683 heartbeat IPC: 0.431062 cumulative IPC: 0.456208 (Simulation time: 0 hr 35 min 46 sec) 
Heartbeat CPU 0 instructions: 245000003 cycles: 543181809 heartbeat IPC: 0.433629 cumulative IPC: 0.456107 (Simulation time: 0 hr 35 min 55 sec) 
Heartbeat CPU 0 instructions: 246000000 cycles: 545148562 heartbeat IPC: 0.508451 cumulative IPC: 0.456306 (Simulation time: 0 hr 36 min 3 sec) 
Heartbeat CPU 0 instructions: 247000003 cycles: 547088050 heartbeat IPC: 0.515602 cumulative IPC: 0.456528 (Simulation time: 0 hr 36 min 12 sec) 
Heartbeat CPU 0 instructions: 248000000 cycles: 550342667 heartbeat IPC: 0.307255 cumulative IPC: 0.455598 (Simulation time: 0 hr 36 min 25 sec) 
Heartbeat CPU 0 instructions: 249000000 cycles: 551594132 heartbeat IPC: 0.799064 cumulative IPC: 0.456419 (Simulation time: 0 hr 36 min 31 sec) 
Heartbeat CPU 0 instructions: 250000001 cycles: 553011307 heartbeat IPC: 0.70563 cumulative IPC: 0.457091 (Simulation time: 0 hr 36 min 37 sec) 
Heartbeat CPU 0 instructions: 251000003 cycles: 555285295 heartbeat IPC: 0.439757 cumulative IPC: 0.457017 (Simulation time: 0 hr 36 min 46 sec) 
Heartbeat CPU 0 instructions: 252000003 cycles: 557613337 heartbeat IPC: 0.429546 cumulative IPC: 0.456896 (Simulation time: 0 hr 36 min 56 sec) 
Heartbeat CPU 0 instructions: 253000000 cycles: 559278180 heartbeat IPC: 0.600655 cumulative IPC: 0.457346 (Simulation time: 0 hr 37 min 4 sec) 
Heartbeat CPU 0 instructions: 254000001 cycles: 562160728 heartbeat IPC: 0.346916 cumulative IPC: 0.45675 (Simulation time: 0 hr 37 min 17 sec) 
Heartbeat CPU 0 instructions: 255000001 cycles: 564440846 heartbeat IPC: 0.438574 cumulative IPC: 0.456673 (Simulation time: 0 hr 37 min 27 sec) 
Heartbeat CPU 0 instructions: 256000001 cycles: 565682535 heartbeat IPC: 0.805355 cumulative IPC: 0.457478 (Simulation time: 0 hr 37 min 32 sec) 
Heartbeat CPU 0 instructions: 257000001 cycles: 567972279 heartbeat IPC: 0.43673 cumulative IPC: 0.45739 (Simulation time: 0 hr 37 min 41 sec) 
Heartbeat CPU 0 instructions: 258000001 cycles: 570021040 heartbeat IPC: 0.4881 cumulative IPC: 0.457506 (Simulation time: 0 hr 37 min 50 sec) 
Heartbeat CPU 0 instructions: 259000000 cycles: 571989031 heartbeat IPC: 0.508132 cumulative IPC: 0.45769 (Simulation time: 0 hr 37 min 58 sec) 
Heartbeat CPU 0 instructions: 260000002 cycles: 573398121 heartbeat IPC: 0.709679 cumulative IPC: 0.45834 (Simulation time: 0 hr 38 min 6 sec) 
Heartbeat CPU 0 instructions: 261000000 cycles: 577067816 heartbeat IPC: 0.272502 cumulative IPC: 0.457099 (Simulation time: 0 hr 38 min 22 sec) 
Heartbeat CPU 0 instructions: 262000001 cycles: 578536552 heartbeat IPC: 0.680858 cumulative IPC: 0.457695 (Simulation time: 0 hr 38 min 27 sec) 
Heartbeat CPU 0 instructions: 263000002 cycles: 579718529 heartbeat IPC: 0.846041 cumulative IPC: 0.458527 (Simulation time: 0 hr 38 min 32 sec) 
Heartbeat CPU 0 instructions: 264000000 cycles: 582004314 heartbeat IPC: 0.437486 cumulative IPC: 0.458441 (Simulation time: 0 hr 38 min 41 sec) 
Heartbeat CPU 0 instructions: 265000000 cycles: 584215737 heartbeat IPC: 0.452198 cumulative IPC: 0.458416 (Simulation time: 0 hr 38 min 50 sec) 
Heartbeat CPU 0 instructions: 266000001 cycles: 586161646 heartbeat IPC: 0.513899 cumulative IPC: 0.458609 (Simulation time: 0 hr 38 min 58 sec) 
Heartbeat CPU 0 instructions: 267000000 cycles: 588229194 heartbeat IPC: 0.483664 cumulative IPC: 0.458702 (Simulation time: 0 hr 39 min 7 sec) 
Heartbeat CPU 0 instructions: 268000001 cycles: 591355208 heartbeat IPC: 0.319897 cumulative IPC: 0.457931 (Simulation time: 0 hr 39 min 19 sec) 
Heartbeat CPU 0 instructions: 269000002 cycles: 592596424 heartbeat IPC: 0.805662 cumulative IPC: 0.458696 (Simulation time: 0 hr 39 min 24 sec) 
Heartbeat CPU 0 instructions: 270000003 cycles: 594113706 heartbeat IPC: 0.659074 cumulative IPC: 0.459233 (Simulation time: 0 hr 39 min 30 sec) 
Heartbeat CPU 0 instructions: 271000000 cycles: 596353182 heartbeat IPC: 0.446532 cumulative IPC: 0.459183 (Simulation time: 0 hr 39 min 39 sec) 
Heartbeat CPU 0 instructions: 272000002 cycles: 598044923 heartbeat IPC: 0.591108 cumulative IPC: 0.459574 (Simulation time: 0 hr 39 min 46 sec) 
Heartbeat CPU 0 instructions: 273000003 cycles: 604016664 heartbeat IPC: 0.167456 cumulative IPC: 0.456546 (Simulation time: 0 hr 39 min 56 sec) 
Heartbeat CPU 0 instructions: 274000000 cycles: 606773385 heartbeat IPC: 0.362749 cumulative IPC: 0.456099 (Simulation time: 0 hr 40 min 11 sec) 
Heartbeat CPU 0 instructions: 275000000 cycles: 608953587 heartbeat IPC: 0.458673 cumulative IPC: 0.456109 (Simulation time: 0 hr 40 min 24 sec) 
Heartbeat CPU 0 instructions: 276000000 cycles: 612059757 heartbeat IPC: 0.32194 cumulative IPC: 0.455396 (Simulation time: 0 hr 40 min 35 sec) 
Heartbeat CPU 0 instructions: 277000002 cycles: 614697681 heartbeat IPC: 0.379087 cumulative IPC: 0.455052 (Simulation time: 0 hr 40 min 45 sec) 
Heartbeat CPU 0 instructions: 278000000 cycles: 617131480 heartbeat IPC: 0.410879 cumulative IPC: 0.45487 (Simulation time: 0 hr 40 min 55 sec) 
Heartbeat CPU 0 instructions: 279000002 cycles: 620504956 heartbeat IPC: 0.296431 cumulative IPC: 0.453968 (Simulation time: 0 hr 41 min 5 sec) 
Heartbeat CPU 0 instructions: 280000002 cycles: 623178338 heartbeat IPC: 0.374058 cumulative IPC: 0.453609 (Simulation time: 0 hr 41 min 13 sec) 
Heartbeat CPU 0 instructions: 281000001 cycles: 625501611 heartbeat IPC: 0.430427 cumulative IPC: 0.453519 (Simulation time: 0 hr 41 min 21 sec) 
Heartbeat CPU 0 instructions: 282000002 cycles: 627668085 heartbeat IPC: 0.46158 cumulative IPC: 0.453548 (Simulation time: 0 hr 41 min 29 sec) 
Heartbeat CPU 0 instructions: 283000001 cycles: 629501238 heartbeat IPC: 0.545508 cumulative IPC: 0.453828 (Simulation time: 0 hr 41 min 37 sec) 
Heartbeat CPU 0 instructions: 284000002 cycles: 630908011 heartbeat IPC: 0.710847 cumulative IPC: 0.454428 (Simulation time: 0 hr 41 min 45 sec) 
Heartbeat CPU 0 instructions: 285000003 cycles: 632613478 heartbeat IPC: 0.58635 cumulative IPC: 0.4548 (Simulation time: 0 hr 41 min 52 sec) 
Heartbeat CPU 0 instructions: 286000000 cycles: 634474613 heartbeat IPC: 0.537305 cumulative IPC: 0.455053 (Simulation time: 0 hr 42 min 1 sec) 
Heartbeat CPU 0 instructions: 287000002 cycles: 637467361 heartbeat IPC: 0.334142 cumulative IPC: 0.45446 (Simulation time: 0 hr 42 min 12 sec) 
Heartbeat CPU 0 instructions: 288000001 cycles: 639615314 heartbeat IPC: 0.465559 cumulative IPC: 0.454498 (Simulation time: 0 hr 42 min 21 sec) 
Heartbeat CPU 0 instructions: 289000001 cycles: 641544520 heartbeat IPC: 0.518348 cumulative IPC: 0.454699 (Simulation time: 0 hr 42 min 31 sec) 
Heartbeat CPU 0 instructions: 290000001 cycles: 643277506 heartbeat IPC: 0.577039 cumulative IPC: 0.455044 (Simulation time: 0 hr 42 min 39 sec) 
Heartbeat CPU 0 instructions: 291000001 cycles: 646094110 heartbeat IPC: 0.355037 cumulative IPC: 0.454588 (Simulation time: 0 hr 42 min 51 sec) 
Heartbeat CPU 0 instructions: 292000003 cycles: 648491894 heartbeat IPC: 0.417053 cumulative IPC: 0.454443 (Simulation time: 0 hr 43 min 1 sec) 
Heartbeat CPU 0 instructions: 293000000 cycles: 649748649 heartbeat IPC: 0.795698 cumulative IPC: 0.455133 (Simulation time: 0 hr 43 min 7 sec) 
Heartbeat CPU 0 instructions: 294000000 cycles: 652011431 heartbeat IPC: 0.441934 cumulative IPC: 0.455085 (Simulation time: 0 hr 43 min 15 sec) 
Heartbeat CPU 0 instructions: 295000000 cycles: 654489384 heartbeat IPC: 0.403559 cumulative IPC: 0.454881 (Simulation time: 0 hr 43 min 25 sec) 
Heartbeat CPU 0 instructions: 296000003 cycles: 656789491 heartbeat IPC: 0.434764 cumulative IPC: 0.454808 (Simulation time: 0 hr 43 min 33 sec) 
Heartbeat CPU 0 instructions: 297000000 cycles: 658161620 heartbeat IPC: 0.728792 cumulative IPC: 0.455404 (Simulation time: 0 hr 43 min 41 sec) 
Heartbeat CPU 0 instructions: 298000000 cycles: 661849832 heartbeat IPC: 0.271134 cumulative IPC: 0.454332 (Simulation time: 0 hr 43 min 57 sec) 
Heartbeat CPU 0 instructions: 299000000 cycles: 663332386 heartbeat IPC: 0.674512 cumulative IPC: 0.454846 (Simulation time: 0 hr 44 min 3 sec) 
Heartbeat CPU 0 instructions: 300000003 cycles: 664517504 heartbeat IPC: 0.8438 cumulative IPC: 0.45557 (Simulation time: 0 hr 44 min 9 sec) 
Heartbeat CPU 0 instructions: 301000003 cycles: 666801361 heartbeat IPC: 0.437856 cumulative IPC: 0.455507 (Simulation time: 0 hr 44 min 18 sec) 
Heartbeat CPU 0 instructions: 302000000 cycles: 669022271 heartbeat IPC: 0.450265 cumulative IPC: 0.455488 (Simulation time: 0 hr 44 min 27 sec) 
Heartbeat CPU 0 instructions: 303000002 cycles: 671003922 heartbeat IPC: 0.504631 cumulative IPC: 0.45564 (Simulation time: 0 hr 44 min 35 sec) 
Heartbeat CPU 0 instructions: 304000000 cycles: 672908433 heartbeat IPC: 0.525068 cumulative IPC: 0.455845 (Simulation time: 0 hr 44 min 45 sec) 
Heartbeat CPU 0 instructions: 305000000 cycles: 676216951 heartbeat IPC: 0.30225 cumulative IPC: 0.455061 (Simulation time: 0 hr 44 min 59 sec) 
Heartbeat CPU 0 instructions: 306000001 cycles: 677472049 heartbeat IPC: 0.796751 cumulative IPC: 0.455721 (Simulation time: 0 hr 45 min 4 sec) 
Heartbeat CPU 0 instructions: 307000002 cycles: 678888250 heartbeat IPC: 0.706115 cumulative IPC: 0.456266 (Simulation time: 0 hr 45 min 10 sec) 
Heartbeat CPU 0 instructions: 308000000 cycles: 681169281 heartbeat IPC: 0.438397 cumulative IPC: 0.456204 (Simulation time: 0 hr 45 min 19 sec) 
Heartbeat CPU 0 instructions: 309000001 cycles: 683934592 heartbeat IPC: 0.361623 cumulative IPC: 0.455805 (Simulation time: 0 hr 45 min 30 sec) 
Heartbeat CPU 0 instructions: 310000001 cycles: 685818969 heartbeat IPC: 0.530679 cumulative IPC: 0.456019 (Simulation time: 0 hr 45 min 38 sec) 
Heartbeat CPU 0 instructions: 311000000 cycles: 687547697 heartbeat IPC: 0.578459 cumulative IPC: 0.45634 (Simulation time: 0 hr 45 min 46 sec) 
Heartbeat CPU 0 instructions: 312000003 cycles: 691072922 heartbeat IPC: 0.283671 cumulative IPC: 0.455422 (Simulation time: 0 hr 46 min 0 sec) 
Heartbeat CPU 0 instructions: 313000001 cycles: 692344267 heartbeat IPC: 0.786567 cumulative IPC: 0.456056 (Simulation time: 0 hr 46 min 5 sec) 
Heartbeat CPU 0 instructions: 314000002 cycles: 693530331 heartbeat IPC: 0.843126 cumulative IPC: 0.456746 (Simulation time: 0 hr 46 min 11 sec) 
Heartbeat CPU 0 instructions: 315000000 cycles: 695837369 heartbeat IPC: 0.433455 cumulative IPC: 0.456665 (Simulation time: 0 hr 46 min 19 sec) 
Heartbeat CPU 0 instructions: 316000000 cycles: 698944641 heartbeat IPC: 0.321826 cumulative IPC: 0.456041 (Simulation time: 0 hr 46 min 31 sec) 
Heartbeat CPU 0 instructions: 317000000 cycles: 701147595 heartbeat IPC: 0.453936 cumulative IPC: 0.456034 (Simulation time: 0 hr 46 min 39 sec) 
Heartbeat CPU 0 instructions: 318000002 cycles: 702733235 heartbeat IPC: 0.630661 cumulative IPC: 0.456444 (Simulation time: 0 hr 46 min 47 sec) 
Heartbeat CPU 0 instructions: 319000000 cycles: 706406150 heartbeat IPC: 0.272263 cumulative IPC: 0.455447 (Simulation time: 0 hr 47 min 2 sec) 
Heartbeat CPU 0 instructions: 320000002 cycles: 707678968 heartbeat IPC: 0.78566 cumulative IPC: 0.456066 (Simulation time: 0 hr 47 min 7 sec) 
Heartbeat CPU 0 instructions: 321000000 cycles: 708837291 heartbeat IPC: 0.863315 cumulative IPC: 0.456758 (Simulation time: 0 hr 47 min 12 sec) 
Heartbeat CPU 0 instructions: 322000001 cycles: 711116423 heartbeat IPC: 0.438764 cumulative IPC: 0.456698 (Simulation time: 0 hr 47 min 21 sec) 
Heartbeat CPU 0 instructions: 323000000 cycles: 713744807 heartbeat IPC: 0.380462 cumulative IPC: 0.456406 (Simulation time: 0 hr 47 min 31 sec) 
Heartbeat CPU 0 instructions: 324000002 cycles: 715397364 heartbeat IPC: 0.605124 cumulative IPC: 0.456764 (Simulation time: 0 hr 47 min 38 sec) 
Heartbeat CPU 0 instructions: 325000003 cycles: 718237522 heartbeat IPC: 0.352093 cumulative IPC: 0.456333 (Simulation time: 0 hr 47 min 50 sec) 
Heartbeat CPU 0 instructions: 326000000 cycles: 720548675 heartbeat IPC: 0.432683 cumulative IPC: 0.456254 (Simulation time: 0 hr 47 min 59 sec) 
Heartbeat CPU 0 instructions: 327000000 cycles: 721791353 heartbeat IPC: 0.804714 cumulative IPC: 0.456878 (Simulation time: 0 hr 48 min 4 sec) 
Heartbeat CPU 0 instructions: 328000001 cycles: 724028380 heartbeat IPC: 0.447022 cumulative IPC: 0.456847 (Simulation time: 0 hr 48 min 12 sec) 
Heartbeat CPU 0 instructions: 329000000 cycles: 726024198 heartbeat IPC: 0.501047 cumulative IPC: 0.456973 (Simulation time: 0 hr 48 min 21 sec) 
Heartbeat CPU 0 instructions: 330000000 cycles: 728155598 heartbeat IPC: 0.469175 cumulative IPC: 0.45701 (Simulation time: 0 hr 48 min 31 sec) 
Heartbeat CPU 0 instructions: 331000002 cycles: 729992659 heartbeat IPC: 0.544349 cumulative IPC: 0.457239 (Simulation time: 0 hr 48 min 39 sec) 
Heartbeat CPU 0 instructions: 332000002 cycles: 732723272 heartbeat IPC: 0.366218 cumulative IPC: 0.456886 (Simulation time: 0 hr 48 min 51 sec) 
Heartbeat CPU 0 instructions: 333000001 cycles: 735134195 heartbeat IPC: 0.414779 cumulative IPC: 0.456742 (Simulation time: 0 hr 49 min 0 sec) 
Heartbeat CPU 0 instructions: 334000000 cycles: 736365279 heartbeat IPC: 0.812291 cumulative IPC: 0.45736 (Simulation time: 0 hr 49 min 5 sec) 
Heartbeat CPU 0 instructions: 335000003 cycles: 738659909 heartbeat IPC: 0.435801 cumulative IPC: 0.457291 (Simulation time: 0 hr 49 min 13 sec) 
Heartbeat CPU 0 instructions: 336000000 cycles: 740852233 heartbeat IPC: 0.456136 cumulative IPC: 0.457287 (Simulation time: 0 hr 49 min 22 sec) 
Heartbeat CPU 0 instructions: 337000001 cycles: 742335448 heartbeat IPC: 0.674212 cumulative IPC: 0.457737 (Simulation time: 0 hr 49 min 29 sec) 
Heartbeat CPU 0 instructions: 338000003 cycles: 744067009 heartbeat IPC: 0.577515 cumulative IPC: 0.458027 (Simulation time: 0 hr 49 min 37 sec) 
Heartbeat CPU 0 instructions: 339000000 cycles: 746919895 heartbeat IPC: 0.350521 cumulative IPC: 0.4576 (Simulation time: 0 hr 49 min 49 sec) 
Heartbeat CPU 0 instructions: 340000000 cycles: 749232155 heartbeat IPC: 0.432477 cumulative IPC: 0.45752 (Simulation time: 0 hr 49 min 58 sec) 
Heartbeat CPU 0 instructions: 341000000 cycles: 750470149 heartbeat IPC: 0.807758 cumulative IPC: 0.45812 (Simulation time: 0 hr 50 min 3 sec) 
Heartbeat CPU 0 instructions: 342000003 cycles: 752694907 heartbeat IPC: 0.449488 cumulative IPC: 0.458094 (Simulation time: 0 hr 50 min 11 sec) 
Heartbeat CPU 0 instructions: 343000002 cycles: 754937930 heartbeat IPC: 0.445826 cumulative IPC: 0.458056 (Simulation time: 0 hr 50 min 20 sec) 
Heartbeat CPU 0 instructions: 344000002 cycles: 756440621 heartbeat IPC: 0.665473 cumulative IPC: 0.458484 (Simulation time: 0 hr 50 min 27 sec) 
Heartbeat CPU 0 instructions: 345000003 cycles: 758120665 heartbeat IPC: 0.595223 cumulative IPC: 0.458798 (Simulation time: 0 hr 50 min 35 sec) 
Heartbeat CPU 0 instructions: 346000001 cycles: 761065828 heartbeat IPC: 0.339539 cumulative IPC: 0.458319 (Simulation time: 0 hr 50 min 47 sec) 
Heartbeat CPU 0 instructions: 347000000 cycles: 763300590 heartbeat IPC: 0.447475 cumulative IPC: 0.458286 (Simulation time: 0 hr 50 min 56 sec) 
Heartbeat CPU 0 instructions: 348000002 cycles: 764544602 heartbeat IPC: 0.803852 cumulative IPC: 0.45887 (Simulation time: 0 hr 51 min 2 sec) 
Heartbeat CPU 0 instructions: 349000001 cycles: 766775957 heartbeat IPC: 0.448158 cumulative IPC: 0.458837 (Simulation time: 0 hr 51 min 11 sec) 
Heartbeat CPU 0 instructions: 350000000 cycles: 769069794 heartbeat IPC: 0.43595 cumulative IPC: 0.458767 (Simulation time: 0 hr 51 min 20 sec) 
Heartbeat CPU 0 instructions: 351000001 cycles: 770542902 heartbeat IPC: 0.678838 cumulative IPC: 0.459203 (Simulation time: 0 hr 51 min 28 sec) 
Heartbeat CPU 0 instructions: 352000000 cycles: 772163365 heartbeat IPC: 0.617107 cumulative IPC: 0.459547 (Simulation time: 0 hr 51 min 36 sec) 
Heartbeat CPU 0 instructions: 353000001 cycles: 775196910 heartbeat IPC: 0.329648 cumulative IPC: 0.45902 (Simulation time: 0 hr 51 min 49 sec) 
Heartbeat CPU 0 instructions: 354000000 cycles: 777365703 heartbeat IPC: 0.461085 cumulative IPC: 0.459026 (Simulation time: 0 hr 51 min 58 sec) 
Heartbeat CPU 0 instructions: 355000003 cycles: 778597365 heartbeat IPC: 0.811913 cumulative IPC: 0.459605 (Simulation time: 0 hr 52 min 3 sec) 
Heartbeat CPU 0 instructions: 356000000 cycles: 780817154 heartbeat IPC: 0.450492 cumulative IPC: 0.459578 (Simulation time: 0 hr 52 min 11 sec) 
Heartbeat CPU 0 instructions: 357000001 cycles: 783163056 heartbeat IPC: 0.426276 cumulative IPC: 0.459474 (Simulation time: 0 hr 52 min 20 sec) 
Heartbeat CPU 0 instructions: 358000001 cycles: 785771783 heartbeat IPC: 0.383329 cumulative IPC: 0.459212 (Simulation time: 0 hr 52 min 27 sec) 
Heartbeat CPU 0 instructions: 359000002 cycles: 790794706 heartbeat IPC: 0.199087 cumulative IPC: 0.457499 (Simulation time: 0 hr 52 min 38 sec) 
Heartbeat CPU 0 instructions: 360000001 cycles: 793107678 heartbeat IPC: 0.432344 cumulative IPC: 0.457423 (Simulation time: 0 hr 52 min 52 sec) 
Heartbeat CPU 0 instructions: 361000003 cycles: 796002005 heartbeat IPC: 0.345504 cumulative IPC: 0.457002 (Simulation time: 0 hr 53 min 4 sec) 
Heartbeat CPU 0 instructions: 362000002 cycles: 799039997 heartbeat IPC: 0.329164 cumulative IPC: 0.456498 (Simulation time: 0 hr 53 min 14 sec) 
Heartbeat CPU 0 instructions: 363000000 cycles: 801550182 heartbeat IPC: 0.398376 cumulative IPC: 0.456309 (Simulation time: 0 hr 53 min 23 sec) 
Heartbeat CPU 0 instructions: 364000000 cycles: 804168839 heartbeat IPC: 0.381875 cumulative IPC: 0.456058 (Simulation time: 0 hr 53 min 33 sec) 
Heartbeat CPU 0 instructions: 365000001 cycles: 807232399 heartbeat IPC: 0.326418 cumulative IPC: 0.455549 (Simulation time: 0 hr 53 min 40 sec) 
Heartbeat CPU 0 instructions: 366000000 cycles: 809925758 heartbeat IPC: 0.371283 cumulative IPC: 0.455258 (Simulation time: 0 hr 53 min 49 sec) 
Heartbeat CPU 0 instructions: 367000001 cycles: 812003920 heartbeat IPC: 0.481195 cumulative IPC: 0.455327 (Simulation time: 0 hr 53 min 55 sec) 
Heartbeat CPU 0 instructions: 368000003 cycles: 814508102 heartbeat IPC: 0.399333 cumulative IPC: 0.455149 (Simulation time: 0 hr 54 min 3 sec) 
Heartbeat CPU 0 instructions: 369000002 cycles: 815929819 heartbeat IPC: 0.703374 cumulative IPC: 0.455597 (Simulation time: 0 hr 54 min 10 sec) 
Heartbeat CPU 0 instructions: 370000000 cycles: 817341106 heartbeat IPC: 0.708572 cumulative IPC: 0.456049 (Simulation time: 0 hr 54 min 18 sec) 
Heartbeat CPU 0 instructions: 371000000 cycles: 819375373 heartbeat IPC: 0.491578 cumulative IPC: 0.45614 (Simulation time: 0 hr 54 min 25 sec) 
Heartbeat CPU 0 instructions: 372000001 cycles: 821733121 heartbeat IPC: 0.424134 cumulative IPC: 0.456045 (Simulation time: 0 hr 54 min 34 sec) 
Heartbeat CPU 0 instructions: 373000002 cycles: 824452163 heartbeat IPC: 0.367777 cumulative IPC: 0.455744 (Simulation time: 0 hr 54 min 44 sec) 
Heartbeat CPU 0 instructions: 374000000 cycles: 826333269 heartbeat IPC: 0.531601 cumulative IPC: 0.455923 (Simulation time: 0 hr 54 min 52 sec) 
Heartbeat CPU 0 instructions: 375000002 cycles: 828505978 heartbeat IPC: 0.460256 cumulative IPC: 0.455934 (Simulation time: 0 hr 55 min 1 sec) 
Heartbeat CPU 0 instructions: 376000002 cycles: 830043815 heartbeat IPC: 0.650264 cumulative IPC: 0.456307 (Simulation time: 0 hr 55 min 9 sec) 
Heartbeat CPU 0 instructions: 377000000 cycles: 833781815 heartbeat IPC: 0.267522 cumulative IPC: 0.455431 (Simulation time: 0 hr 55 min 24 sec) 
Heartbeat CPU 0 instructions: 378000000 cycles: 835110905 heartbeat IPC: 0.752394 cumulative IPC: 0.45592 (Simulation time: 0 hr 55 min 29 sec) 
Heartbeat CPU 0 instructions: 379000001 cycles: 836284085 heartbeat IPC: 0.852385 cumulative IPC: 0.456496 (Simulation time: 0 hr 55 min 34 sec) 
Heartbeat CPU 0 instructions: 380000001 cycles: 838557658 heartbeat IPC: 0.439836 cumulative IPC: 0.456449 (Simulation time: 0 hr 55 min 43 sec) 
Heartbeat CPU 0 instructions: 381000001 cycles: 841377324 heartbeat IPC: 0.354652 cumulative IPC: 0.456096 (Simulation time: 0 hr 55 min 52 sec) 
Heartbeat CPU 0 instructions: 382000000 cycles: 843276683 heartbeat IPC: 0.526493 cumulative IPC: 0.45626 (Simulation time: 0 hr 56 min 0 sec) 
Heartbeat CPU 0 instructions: 383000001 cycles: 845468349 heartbeat IPC: 0.456274 cumulative IPC: 0.45626 (Simulation time: 0 hr 56 min 10 sec) 
Heartbeat CPU 0 instructions: 384000001 cycles: 848488865 heartbeat IPC: 0.331069 cumulative IPC: 0.455799 (Simulation time: 0 hr 56 min 21 sec) 
Heartbeat CPU 0 instructions: 385000000 cycles: 849728051 heartbeat IPC: 0.806981 cumulative IPC: 0.456329 (Simulation time: 0 hr 56 min 27 sec) 
Heartbeat CPU 0 instructions: 386000003 cycles: 851393516 heartbeat IPC: 0.600435 cumulative IPC: 0.45662 (Simulation time: 0 hr 56 min 33 sec) 
Heartbeat CPU 0 instructions: 387000003 cycles: 853530396 heartbeat IPC: 0.467972 cumulative IPC: 0.45665 (Simulation time: 0 hr 56 min 42 sec) 
Heartbeat CPU 0 instructions: 388000001 cycles: 855588526 heartbeat IPC: 0.485877 cumulative IPC: 0.456722 (Simulation time: 0 hr 56 min 50 sec) 
Heartbeat CPU 0 instructions: 389000002 cycles: 857293554 heartbeat IPC: 0.586501 cumulative IPC: 0.456989 (Simulation time: 0 hr 56 min 58 sec) 
Heartbeat CPU 0 instructions: 390000003 cycles: 860220162 heartbeat IPC: 0.341693 cumulative IPC: 0.456584 (Simulation time: 0 hr 57 min 10 sec) 
Heartbeat CPU 0 instructions: 391000001 cycles: 862480436 heartbeat IPC: 0.442423 cumulative IPC: 0.456545 (Simulation time: 0 hr 57 min 19 sec) 
Heartbeat CPU 0 instructions: 392000002 cycles: 863724323 heartbeat IPC: 0.803932 cumulative IPC: 0.457062 (Simulation time: 0 hr 57 min 24 sec) 
Heartbeat CPU 0 instructions: 393000001 cycles: 865962196 heartbeat IPC: 0.446852 cumulative IPC: 0.457035 (Simulation time: 0 hr 57 min 32 sec) 
Heartbeat CPU 0 instructions: 394000000 cycles: 867995979 heartbeat IPC: 0.491694 cumulative IPC: 0.457119 (Simulation time: 0 hr 57 min 41 sec) 
Heartbeat CPU 0 instructions: 395000002 cycles: 869926608 heartbeat IPC: 0.517967 cumulative IPC: 0.457259 (Simulation time: 0 hr 57 min 48 sec) 
Heartbeat CPU 0 instructions: 396000000 cycles: 871258408 heartbeat IPC: 0.750862 cumulative IPC: 0.457722 (Simulation time: 0 hr 57 min 55 sec) 
Heartbeat CPU 0 instructions: 397000002 cycles: 874969037 heartbeat IPC: 0.269497 cumulative IPC: 0.456898 (Simulation time: 0 hr 58 min 10 sec) 
Heartbeat CPU 0 instructions: 398000003 cycles: 876484996 heartbeat IPC: 0.659649 cumulative IPC: 0.45726 (Simulation time: 0 hr 58 min 16 sec) 
Heartbeat CPU 0 instructions: 399000002 cycles: 877667833 heartbeat IPC: 0.845424 cumulative IPC: 0.4578 (Simulation time: 0 hr 58 min 22 sec) 
Heartbeat CPU 0 instructions: 400000000 cycles: 879895653 heartbeat IPC: 0.448868 cumulative IPC: 0.457777 (Simulation time: 0 hr 58 min 30 sec) 
Heartbeat CPU 0 instructions: 401000001 cycles: 882085510 heartbeat IPC: 0.456651 cumulative IPC: 0.457774 (Simulation time: 0 hr 58 min 39 sec) 
Heartbeat CPU 0 instructions: 402000003 cycles: 883936710 heartbeat IPC: 0.540191 cumulative IPC: 0.457952 (Simulation time: 0 hr 58 min 47 sec) 
Heartbeat CPU 0 instructions: 403000001 cycles: 885821984 heartbeat IPC: 0.530426 cumulative IPC: 0.458111 (Simulation time: 0 hr 58 min 56 sec) 
Heartbeat CPU 0 instructions: 404000002 cycles: 889173159 heartbeat IPC: 0.298403 cumulative IPC: 0.45749 (Simulation time: 0 hr 59 min 9 sec) 
Heartbeat CPU 0 instructions: 405000002 cycles: 890425378 heartbeat IPC: 0.798582 cumulative IPC: 0.457985 (Simulation time: 0 hr 59 min 14 sec) 
Heartbeat CPU 0 instructions: 406000002 cycles: 891783370 heartbeat IPC: 0.736381 cumulative IPC: 0.458423 (Simulation time: 0 hr 59 min 20 sec) 
Heartbeat CPU 0 instructions: 407000000 cycles: 893864011 heartbeat IPC: 0.48062 cumulative IPC: 0.458476 (Simulation time: 0 hr 59 min 29 sec) 
Heartbeat CPU 0 instructions: 408000002 cycles: 896103831 heartbeat IPC: 0.446465 cumulative IPC: 0.458445 (Simulation time: 0 hr 59 min 37 sec) 
Heartbeat CPU 0 instructions: 409000000 cycles: 897971520 heartbeat IPC: 0.53542 cumulative IPC: 0.45861 (Simulation time: 0 hr 59 min 46 sec) 
Heartbeat CPU 0 instructions: 410000000 cycles: 900531435 heartbeat IPC: 0.390638 cumulative IPC: 0.458411 (Simulation time: 0 hr 59 min 56 sec) 
Heartbeat CPU 0 instructions: 411000001 cycles: 903098764 heartbeat IPC: 0.38951 cumulative IPC: 0.458209 (Simulation time: 1 hr 0 min 7 sec) 
Heartbeat CPU 0 instructions: 412000002 cycles: 904333341 heartbeat IPC: 0.809995 cumulative IPC: 0.458705 (Simulation time: 1 hr 0 min 12 sec) 
Heartbeat CPU 0 instructions: 413000002 cycles: 906351598 heartbeat IPC: 0.495477 cumulative IPC: 0.458789 (Simulation time: 1 hr 0 min 19 sec) 
Heartbeat CPU 0 instructions: 414000002 cycles: 908294484 heartbeat IPC: 0.514698 cumulative IPC: 0.458912 (Simulation time: 1 hr 0 min 28 sec) 
Heartbeat CPU 0 instructions: 415000001 cycles: 910263743 heartbeat IPC: 0.507805 cumulative IPC: 0.459021 (Simulation time: 1 hr 0 min 36 sec) 
Heartbeat CPU 0 instructions: 416000000 cycles: 911759735 heartbeat IPC: 0.668452 cumulative IPC: 0.459376 (Simulation time: 1 hr 0 min 43 sec) 
Heartbeat CPU 0 instructions: 417000002 cycles: 915057183 heartbeat IPC: 0.303265 cumulative IPC: 0.458796 (Simulation time: 1 hr 0 min 57 sec) 
Heartbeat CPU 0 instructions: 418000000 cycles: 917019511 heartbeat IPC: 0.509598 cumulative IPC: 0.458908 (Simulation time: 1 hr 1 min 4 sec) 
Heartbeat CPU 0 instructions: 419000000 cycles: 918241593 heartbeat IPC: 0.818276 cumulative IPC: 0.459401 (Simulation time: 1 hr 1 min 10 sec) 
Heartbeat CPU 0 instructions: 420000003 cycles: 920457858 heartbeat IPC: 0.451211 cumulative IPC: 0.459381 (Simulation time: 1 hr 1 min 18 sec) 
Heartbeat CPU 0 instructions: 421000001 cycles: 922607309 heartbeat IPC: 0.465234 cumulative IPC: 0.459395 (Simulation time: 1 hr 1 min 27 sec) 
Heartbeat CPU 0 instructions: 422000000 cycles: 924408292 heartbeat IPC: 0.555252 cumulative IPC: 0.459587 (Simulation time: 1 hr 1 min 34 sec) 
Heartbeat CPU 0 instructions: 423000001 cycles: 925982352 heartbeat IPC: 0.6353 cumulative IPC: 0.459895 (Simulation time: 1 hr 1 min 42 sec) 
Heartbeat CPU 0 instructions: 424000002 cycles: 929678571 heartbeat IPC: 0.270547 cumulative IPC: 0.459119 (Simulation time: 1 hr 1 min 57 sec) 
Heartbeat CPU 0 instructions: 425000002 cycles: 930948695 heartbeat IPC: 0.787325 cumulative IPC: 0.459581 (Simulation time: 1 hr 2 min 2 sec) 
Heartbeat CPU 0 instructions: 426000000 cycles: 932105226 heartbeat IPC: 0.864653 cumulative IPC: 0.460099 (Simulation time: 1 hr 2 min 7 sec) 
Heartbeat CPU 0 instructions: 427000001 cycles: 934278233 heartbeat IPC: 0.460192 cumulative IPC: 0.460099 (Simulation time: 1 hr 2 min 16 sec) 
Heartbeat CPU 0 instructions: 428000002 cycles: 936452401 heartbeat IPC: 0.459947 cumulative IPC: 0.460099 (Simulation time: 1 hr 2 min 25 sec) 
Heartbeat CPU 0 instructions: 429000000 cycles: 938360266 heartbeat IPC: 0.524145 cumulative IPC: 0.460233 (Simulation time: 1 hr 2 min 33 sec) 
Heartbeat CPU 0 instructions: 430000001 cycles: 940507184 heartbeat IPC: 0.465784 cumulative IPC: 0.460246 (Simulation time: 1 hr 2 min 43 sec) 
Heartbeat CPU 0 instructions: 431000000 cycles: 943583672 heartbeat IPC: 0.325046 cumulative IPC: 0.459792 (Simulation time: 1 hr 2 min 55 sec) 
Heartbeat CPU 0 instructions: 432000000 cycles: 944819671 heartbeat IPC: 0.809062 cumulative IPC: 0.460263 (Simulation time: 1 hr 3 min 0 sec) 
Heartbeat CPU 0 instructions: 433000002 cycles: 946408583 heartbeat IPC: 0.629363 cumulative IPC: 0.460555 (Simulation time: 1 hr 3 min 6 sec) 
Heartbeat CPU 0 instructions: 434000000 cycles: 948512435 heartbeat IPC: 0.475318 cumulative IPC: 0.460589 (Simulation time: 1 hr 3 min 15 sec) 
Heartbeat CPU 0 instructions: 435000003 cycles: 951271921 heartbeat IPC: 0.362387 cumulative IPC: 0.460296 (Simulation time: 1 hr 3 min 26 sec) 
Heartbeat CPU 0 instructions: 436000000 cycles: 953070003 heartbeat IPC: 0.556147 cumulative IPC: 0.460482 (Simulation time: 1 hr 3 min 34 sec) 
Heartbeat CPU 0 instructions: 437000003 cycles: 954655665 heartbeat IPC: 0.630653 cumulative IPC: 0.460773 (Simulation time: 1 hr 3 min 42 sec) 
Heartbeat CPU 0 instructions: 438000002 cycles: 958351008 heartbeat IPC: 0.270611 cumulative IPC: 0.460018 (Simulation time: 1 hr 3 min 57 sec) 
Heartbeat CPU 0 instructions: 439000000 cycles: 959627565 heartbeat IPC: 0.783356 cumulative IPC: 0.460461 (Simulation time: 1 hr 4 min 2 sec) 
Heartbeat CPU 0 instructions: 440000000 cycles: 960782204 heartbeat IPC: 0.866072 cumulative IPC: 0.460963 (Simulation time: 1 hr 4 min 7 sec) 
Heartbeat CPU 0 instructions: 441000001 cycles: 963065012 heartbeat IPC: 0.438057 cumulative IPC: 0.460907 (Simulation time: 1 hr 4 min 16 sec) 
Heartbeat CPU 0 instructions: 442000000 cycles: 965535052 heartbeat IPC: 0.404851 cumulative IPC: 0.460759 (Simulation time: 1 hr 4 min 25 sec) 
Heartbeat CPU 0 instructions: 443000002 cycles: 970121497 heartbeat IPC: 0.218034 cumulative IPC: 0.459578 (Simulation time: 1 hr 4 min 33 sec) 
Heartbeat CPU 0 instructions: 444000000 cycles: 973865027 heartbeat IPC: 0.267127 cumulative IPC: 0.458816 (Simulation time: 1 hr 4 min 46 sec) 
Heartbeat CPU 0 instructions: 445000002 cycles: 975763346 heartbeat IPC: 0.526783 cumulative IPC: 0.458952 (Simulation time: 1 hr 4 min 59 sec) 
Heartbeat CPU 0 instructions: 446000003 cycles: 978932560 heartbeat IPC: 0.315536 cumulative IPC: 0.458474 (Simulation time: 1 hr 5 min 10 sec) 
Heartbeat CPU 0 instructions: 447000001 cycles: 981778720 heartbeat IPC: 0.35135 cumulative IPC: 0.458155 (Simulation time: 1 hr 5 min 19 sec) 
Heartbeat CPU 0 instructions: 448000000 cycles: 984247030 heartbeat IPC: 0.405135 cumulative IPC: 0.458018 (Simulation time: 1 hr 5 min 29 sec) 
Heartbeat CPU 0 instructions: 449000000 cycles: 987403089 heartbeat IPC: 0.316851 cumulative IPC: 0.457553 (Simulation time: 1 hr 5 min 39 sec) 
Heartbeat CPU 0 instructions: 450000001 cycles: 990106389 heartbeat IPC: 0.369919 cumulative IPC: 0.457307 (Simulation time: 1 hr 5 min 46 sec) 
Heartbeat CPU 0 instructions: 451000000 cycles: 992562499 heartbeat IPC: 0.407147 cumulative IPC: 0.457179 (Simulation time: 1 hr 5 min 54 sec) 
Heartbeat CPU 0 instructions: 452000002 cycles: 994613692 heartbeat IPC: 0.487522 cumulative IPC: 0.457244 (Simulation time: 1 hr 6 min 0 sec) 
Heartbeat CPU 0 instructions: 453000003 cycles: 996978941 heartbeat IPC: 0.422789 cumulative IPC: 0.45716 (Simulation time: 1 hr 6 min 9 sec) 
Heartbeat CPU 0 instructions: 454000003 cycles: 998301856 heartbeat IPC: 0.755906 cumulative IPC: 0.457567 (Simulation time: 1 hr 6 min 15 sec) 
Heartbeat CPU 0 instructions: 455000000 cycles: 999635716 heartbeat IPC: 0.749702 cumulative IPC: 0.457968 (Simulation time: 1 hr 6 min 23 sec) 
Heartbeat CPU 0 instructions: 456000003 cycles: 1001611378 heartbeat IPC: 0.506161 cumulative IPC: 0.458066 (Simulation time: 1 hr 6 min 30 sec) 
Heartbeat CPU 0 instructions: 457000000 cycles: 1004374403 heartbeat IPC: 0.361921 cumulative IPC: 0.457794 (Simulation time: 1 hr 6 min 40 sec) 
Heartbeat CPU 0 instructions: 458000000 cycles: 1006911549 heartbeat IPC: 0.394144 cumulative IPC: 0.457629 (Simulation time: 1 hr 6 min 50 sec) 
Heartbeat CPU 0 instructions: 459000001 cycles: 1008609636 heartbeat IPC: 0.588899 cumulative IPC: 0.457856 (Simulation time: 1 hr 6 min 58 sec) 
Heartbeat CPU 0 instructions: 460000001 cycles: 1010448423 heartbeat IPC: 0.543837 cumulative IPC: 0.458017 (Simulation time: 1 hr 7 min 6 sec) 
Heartbeat CPU 0 instructions: 461000000 cycles: 1012701320 heartbeat IPC: 0.443872 cumulative IPC: 0.457985 (Simulation time: 1 hr 7 min 16 sec) 
Heartbeat CPU 0 instructions: 462000000 cycles: 1015731955 heartbeat IPC: 0.329964 cumulative IPC: 0.457592 (Simulation time: 1 hr 7 min 28 sec) 
Heartbeat CPU 0 instructions: 463000000 cycles: 1016984133 heartbeat IPC: 0.798608 cumulative IPC: 0.458024 (Simulation time: 1 hr 7 min 33 sec) 
Heartbeat CPU 0 instructions: 464000001 cycles: 1018660126 heartbeat IPC: 0.596662 cumulative IPC: 0.458258 (Simulation time: 1 hr 7 min 39 sec) 
Heartbeat CPU 0 instructions: 465000002 cycles: 1020793289 heartbeat IPC: 0.468788 cumulative IPC: 0.458281 (Simulation time: 1 hr 7 min 48 sec) 
Heartbeat CPU 0 instructions: 466000001 cycles: 1024057399 heartbeat IPC: 0.306362 cumulative IPC: 0.457783 (Simulation time: 1 hr 8 min 0 sec) 
Heartbeat CPU 0 instructions: 467000003 cycles: 1025859094 heartbeat IPC: 0.555034 cumulative IPC: 0.457959 (Simulation time: 1 hr 8 min 7 sec) 
Heartbeat CPU 0 instructions: 468000001 cycles: 1027420053 heartbeat IPC: 0.640631 cumulative IPC: 0.458244 (Simulation time: 1 hr 8 min 15 sec) 
Heartbeat CPU 0 instructions: 469000000 cycles: 1031136245 heartbeat IPC: 0.269092 cumulative IPC: 0.457543 (Simulation time: 1 hr 8 min 30 sec) 
Heartbeat CPU 0 instructions: 470000000 cycles: 1032462552 heartbeat IPC: 0.753973 cumulative IPC: 0.457934 (Simulation time: 1 hr 8 min 35 sec) 
Heartbeat CPU 0 instructions: 471000001 cycles: 1033633758 heartbeat IPC: 0.853822 cumulative IPC: 0.458396 (Simulation time: 1 hr 8 min 40 sec) 
Heartbeat CPU 0 instructions: 472000000 cycles: 1035940267 heartbeat IPC: 0.433555 cumulative IPC: 0.458339 (Simulation time: 1 hr 8 min 49 sec) 
Heartbeat CPU 0 instructions: 473000000 cycles: 1038369155 heartbeat IPC: 0.411711 cumulative IPC: 0.458227 (Simulation time: 1 hr 8 min 58 sec) 
Heartbeat CPU 0 instructions: 474000000 cycles: 1040245099 heartbeat IPC: 0.533065 cumulative IPC: 0.458365 (Simulation time: 1 hr 9 min 6 sec) 
Heartbeat CPU 0 instructions: 475000003 cycles: 1042420774 heartbeat IPC: 0.459629 cumulative IPC: 0.458368 (Simulation time: 1 hr 9 min 16 sec) 
Heartbeat CPU 0 instructions: 476000000 cycles: 1045484466 heartbeat IPC: 0.326403 cumulative IPC: 0.457971 (Simulation time: 1 hr 9 min 28 sec) 
Heartbeat CPU 0 instructions: 477000002 cycles: 1046730206 heartbeat IPC: 0.802737 cumulative IPC: 0.458392 (Simulation time: 1 hr 9 min 33 sec) 
Heartbeat CPU 0 instructions: 478000003 cycles: 1048340433 heartbeat IPC: 0.621031 cumulative IPC: 0.458649 (Simulation time: 1 hr 9 min 39 sec) 
Heartbeat CPU 0 instructions: 479000002 cycles: 1050378244 heartbeat IPC: 0.490722 cumulative IPC: 0.458713 (Simulation time: 1 hr 9 min 48 sec) 
Heartbeat CPU 0 instructions: 480000002 cycles: 1053022492 heartbeat IPC: 0.378179 cumulative IPC: 0.458505 (Simulation time: 1 hr 9 min 59 sec) 
Heartbeat CPU 0 instructions: 481000002 cycles: 1054784853 heartbeat IPC: 0.567421 cumulative IPC: 0.458692 (Simulation time: 1 hr 10 min 6 sec) 
Heartbeat CPU 0 instructions: 482000000 cycles: 1056379560 heartbeat IPC: 0.627073 cumulative IPC: 0.458953 (Simulation time: 1 hr 10 min 15 sec) 
Heartbeat CPU 0 instructions: 483000000 cycles: 1060091958 heartbeat IPC: 0.269368 cumulative IPC: 0.458271 (Simulation time: 1 hr 10 min 29 sec) 
Heartbeat CPU 0 instructions: 484000000 cycles: 1061370935 heartbeat IPC: 0.781875 cumulative IPC: 0.458672 (Simulation time: 1 hr 10 min 34 sec) 
Heartbeat CPU 0 instructions: 485000002 cycles: 1062523210 heartbeat IPC: 0.86785 cumulative IPC: 0.459127 (Simulation time: 1 hr 10 min 40 sec) 
Heartbeat CPU 0 instructions: 486000003 cycles: 1064811688 heartbeat IPC: 0.436972 cumulative IPC: 0.459079 (Simulation time: 1 hr 10 min 49 sec) 
Heartbeat CPU 0 instructions: 487000002 cycles: 1067255256 heartbeat IPC: 0.409237 cumulative IPC: 0.458961 (Simulation time: 1 hr 10 min 57 sec) 
Heartbeat CPU 0 instructions: 488000003 cycles: 1069003778 heartbeat IPC: 0.571912 cumulative IPC: 0.459151 (Simulation time: 1 hr 11 min 5 sec) 
Heartbeat CPU 0 instructions: 489000002 cycles: 1070588798 heartbeat IPC: 0.630906 cumulative IPC: 0.459412 (Simulation time: 1 hr 11 min 13 sec) 
Heartbeat CPU 0 instructions: 490000001 cycles: 1074298883 heartbeat IPC: 0.269535 cumulative IPC: 0.458739 (Simulation time: 1 hr 11 min 28 sec) 
Heartbeat CPU 0 instructions: 491000001 cycles: 1075579238 heartbeat IPC: 0.781033 cumulative IPC: 0.459133 (Simulation time: 1 hr 11 min 33 sec) 
Heartbeat CPU 0 instructions: 492000000 cycles: 1076733208 heartbeat IPC: 0.866573 cumulative IPC: 0.459581 (Simulation time: 1 hr 11 min 38 sec) 
Heartbeat CPU 0 instructions: 493000002 cycles: 1078923539 heartbeat IPC: 0.456553 cumulative IPC: 0.459575 (Simulation time: 1 hr 11 min 47 sec) 
Heartbeat CPU 0 instructions: 494000002 cycles: 1081312750 heartbeat IPC: 0.418548 cumulative IPC: 0.459482 (Simulation time: 1 hr 11 min 56 sec) 
Heartbeat CPU 0 instructions: 495000000 cycles: 1083063873 heartbeat IPC: 0.571061 cumulative IPC: 0.459667 (Simulation time: 1 hr 12 min 3 sec) 
Heartbeat CPU 0 instructions: 496000003 cycles: 1084631382 heartbeat IPC: 0.637957 cumulative IPC: 0.459931 (Simulation time: 1 hr 12 min 11 sec) 
Heartbeat CPU 0 instructions: 497000000 cycles: 1088364147 heartbeat IPC: 0.267897 cumulative IPC: 0.459255 (Simulation time: 1 hr 12 min 26 sec) 
Heartbeat CPU 0 instructions: 498000000 cycles: 1089641346 heartbeat IPC: 0.782963 cumulative IPC: 0.459645 (Simulation time: 1 hr 12 min 31 sec) 
Heartbeat CPU 0 instructions: 499000001 cycles: 1090797657 heartbeat IPC: 0.86482 cumulative IPC: 0.460086 (Simulation time: 1 hr 12 min 36 sec) 
Heartbeat CPU 0 instructions: 500000000 cycles: 1092978229 heartbeat IPC: 0.458595 cumulative IPC: 0.460083 (Simulation time: 1 hr 12 min 45 sec) 
Heartbeat CPU 0 instructions: 501000003 cycles: 1095361239 heartbeat IPC: 0.419639 cumulative IPC: 0.459992 (Simulation time: 1 hr 12 min 54 sec) 
Heartbeat CPU 0 instructions: 502000002 cycles: 1097104921 heartbeat IPC: 0.573498 cumulative IPC: 0.460177 (Simulation time: 1 hr 13 min 1 sec) 
Heartbeat CPU 0 instructions: 503000000 cycles: 1098658565 heartbeat IPC: 0.643647 cumulative IPC: 0.460444 (Simulation time: 1 hr 13 min 9 sec) 
Heartbeat CPU 0 instructions: 504000002 cycles: 1102380003 heartbeat IPC: 0.268714 cumulative IPC: 0.45978 (Simulation time: 1 hr 13 min 24 sec) 
Heartbeat CPU 0 instructions: 505000001 cycles: 1103677397 heartbeat IPC: 0.770775 cumulative IPC: 0.460155 (Simulation time: 1 hr 13 min 29 sec) 
Heartbeat CPU 0 instructions: 506000000 cycles: 1104833832 heartbeat IPC: 0.864726 cumulative IPC: 0.460589 (Simulation time: 1 hr 13 min 34 sec) 
Heartbeat CPU 0 instructions: 507000003 cycles: 1107019650 heartbeat IPC: 0.457496 cumulative IPC: 0.460583 (Simulation time: 1 hr 13 min 43 sec) 
Heartbeat CPU 0 instructions: 508000000 cycles: 1109394048 heartbeat IPC: 0.421158 cumulative IPC: 0.460496 (Simulation time: 1 hr 13 min 52 sec) 
Heartbeat CPU 0 instructions: 509000001 cycles: 1111115982 heartbeat IPC: 0.580743 cumulative IPC: 0.460687 (Simulation time: 1 hr 13 min 59 sec) 
Heartbeat CPU 0 instructions: 510000000 cycles: 1112653865 heartbeat IPC: 0.650244 cumulative IPC: 0.460956 (Simulation time: 1 hr 14 min 7 sec) 
Finished CPU 0 instructions: 500000001 cycles: 1084701748 cumulative IPC: 0.460956 (Simulation time: 1 hr 14 min 7 sec) 

ChampSim completed all CPUs

Region of Interest Statistics

CPU 0 cumulative IPC: 0.460956 instructions: 500000001 cycles: 1084701748
L1D TOTAL     ACCESS:   98842427  HIT:   70905593  MISS:   27936834
L1D LOAD      ACCESS:   67689477  HIT:   44383630  MISS:   23305847
L1D RFO       ACCESS:   31152950  HIT:   26521963  MISS:    4630987
L1D PREFETCH  ACCESS:          0  HIT:          0  MISS:          0
L1D WRITEBACK ACCESS:          0  HIT:          0  MISS:          0
L1D PREFETCH  REQUESTED:          0  ISSUED:          0  USEFUL:          0  USELESS:          0  UAC CORRECT:          0
L1D AVERAGE MISS LATENCY: 118.948 cycles
L1I TOTAL     ACCESS:   94916721  HIT:   94915475  MISS:       1246
L1I LOAD      ACCESS:   94916721  HIT:   94915475  MISS:       1246
L1I RFO       ACCESS:          0  HIT:          0  MISS:          0
L1I PREFETCH  ACCESS:          0  HIT:          0  MISS:          0
L1I WRITEBACK ACCESS:          0  HIT:          0  MISS:          0
L1I PREFETCH  REQUESTED:          0  ISSUED:          0  USEFUL:          0  USELESS:          0  UAC CORRECT:          0
L1I AVERAGE MISS LATENCY: 279.351 cycles
L2C TOTAL     ACCESS:   40340458  HIT:   18837534  MISS:   21502924
L2C LOAD      ACCESS:   23304812  HIT:    5589397  MISS:   17715415
L2C RFO       ACCESS:    4630494  HIT:     843508  MISS:    3786986
L2C PREFETCH  ACCESS:          0  HIT:          0  MISS:          0
L2C WRITEBACK ACCESS:   12405152  HIT:   12404629  MISS:        523
L2C PREFETCH  REQUESTED:          0  ISSUED:          0  USEFUL:          0  USELESS:          0  UAC CORRECT:          0
L2C AVERAGE MISS LATENCY: 134.508 cycles
LLC TOTAL     ACCESS:   43810887  HIT:   26210499  MISS:   17600388
LLC LOAD      ACCESS:   17715290  HIT:    9782538  MISS:    7932752
LLC RFO       ACCESS:    3786955  HIT:     965862  MISS:    2821093
LLC PREFETCH  ACCESS:   13242440  HIT:    6397312  MISS:    6845128
LLC WRITEBACK ACCESS:    9066202  HIT:    9064787  MISS:       1415
LLC PREFETCH  REQUESTED:   17647388  ISSUED:   17625219  USEFUL:    5843960  USELESS:     999295  UAC CORRECT:    4236410
LLC AVERAGE MISS LATENCY: 203.849 cycles
Major fault: 0 Minor fault: 14406
performance stats:
mapping cache size: 430838
divergence: 9585450

DRAM Statistics
 CHANNEL 0
 RQ ROW_BUFFER_HIT:    5030263  ROW_BUFFER_MISS:    3756455
 DBUS_CONGESTED:   12392377
 WQ ROW_BUFFER_HIT:    2909781  ROW_BUFFER_MISS:     489072  FULL:          0

 CHANNEL 1
 RQ ROW_BUFFER_HIT:    5016029  ROW_BUFFER_MISS:    3786224
 DBUS_CONGESTED:   12392377
 WQ ROW_BUFFER_HIT:    2922856  ROW_BUFFER_MISS:     483527  FULL:          0

 AVG_CONGESTED_CYCLE: 20

CPU 0 Branch Prediction Accuracy: 96.891% MPKI: 6.5403 Average ROB Occupancy at Mispredict: 77.136

Branch types
NOT_BRANCH: 394817665 78.9635%
BRANCH_DIRECT_JUMP: 1226814 0.245363%
BRANCH_INDIRECT: 321 6.42e-05%
BRANCH_CONDITIONAL: 103758327 20.7517%
BRANCH_DIRECT_CALL: 97236 0.0194472%
BRANCH_INDIRECT_CALL: 1055 0.000211%
BRANCH_RETURN: 98292 0.0196584%
BRANCH_OTHER: 0 0%


gzip: stdout: Broken pipe
