
*** ChampSim Multicore Out-of-Order Simulator ***

Warmup Instructions: 1000000
Prefetch Warmup Instructions: 10000000
Simulation Instructions: 500000000
Stat Printing Period: 1000000
Number of CPUs: 1
LLC sets: 2048
LLC ways: 16
Off-chip DRAM Size: 32768 MB Channels: 2 Width: 64-bit Data Rate: 1024 MT/s

CPU 0 runs /scratch/cluster/cmolder/ML-DPC/ChampSimTraces/spec06/450.soplex-s1.trace.gz
Read seed: 982
Heartbeat CPU 0 instructions: 1000000 cycles: 368190 heartbeat IPC: 2.71599 cumulative IPC: 2.71599 (Simulation time: 0 hr 0 min 14 sec) 

Warmup complete CPU 0 instructions: 1000003 cycles: 368191 (Simulation time: 0 hr 0 min 14 sec) 

Heartbeat CPU 0 instructions: 2000000 cycles: 3189757 heartbeat IPC: 0.354413 cumulative IPC: 0.354412 (Simulation time: 0 hr 0 min 29 sec) 
Heartbeat CPU 0 instructions: 3000001 cycles: 6010008 heartbeat IPC: 0.354579 cumulative IPC: 0.354495 (Simulation time: 0 hr 0 min 46 sec) 
Heartbeat CPU 0 instructions: 4000002 cycles: 10565939 heartbeat IPC: 0.219494 cumulative IPC: 0.294183 (Simulation time: 0 hr 1 min 7 sec) 
Heartbeat CPU 0 instructions: 5000002 cycles: 12220082 heartbeat IPC: 0.604543 cumulative IPC: 0.337499 (Simulation time: 0 hr 1 min 16 sec) 
Heartbeat CPU 0 instructions: 6000001 cycles: 13846284 heartbeat IPC: 0.614929 cumulative IPC: 0.370972 (Simulation time: 0 hr 1 min 27 sec) 
Heartbeat CPU 0 instructions: 7000003 cycles: 17620864 heartbeat IPC: 0.264931 cumulative IPC: 0.347772 (Simulation time: 0 hr 1 min 43 sec) 
Heartbeat CPU 0 instructions: 8000003 cycles: 20880907 heartbeat IPC: 0.306744 cumulative IPC: 0.341252 (Simulation time: 0 hr 2 min 0 sec) 
Heartbeat CPU 0 instructions: 9000002 cycles: 24619954 heartbeat IPC: 0.267448 cumulative IPC: 0.329873 (Simulation time: 0 hr 2 min 21 sec) 
Heartbeat CPU 0 instructions: 10000001 cycles: 26328618 heartbeat IPC: 0.585252 cumulative IPC: 0.346681 (Simulation time: 0 hr 2 min 34 sec) 

Warmup complete CPU 0 instructions: 10000001 cycles: 26328618 (Simulation time: 0 hr 2 min 34 sec) 

Heartbeat CPU 0 instructions: 11000000 cycles: 30395341 heartbeat IPC: 0.245898 cumulative IPC: 0.245898 (Simulation time: 0 hr 2 min 59 sec) 
Heartbeat CPU 0 instructions: 12000000 cycles: 32926373 heartbeat IPC: 0.395096 cumulative IPC: 0.303133 (Simulation time: 0 hr 3 min 15 sec) 
Heartbeat CPU 0 instructions: 13000000 cycles: 33941975 heartbeat IPC: 0.984638 cumulative IPC: 0.394044 (Simulation time: 0 hr 3 min 23 sec) 
Heartbeat CPU 0 instructions: 14000000 cycles: 36318847 heartbeat IPC: 0.420721 cumulative IPC: 0.400391 (Simulation time: 0 hr 3 min 35 sec) 
Heartbeat CPU 0 instructions: 15000002 cycles: 38307836 heartbeat IPC: 0.502769 cumulative IPC: 0.41739 (Simulation time: 0 hr 3 min 50 sec) 
Heartbeat CPU 0 instructions: 16000000 cycles: 41876710 heartbeat IPC: 0.2802 cumulative IPC: 0.385899 (Simulation time: 0 hr 4 min 14 sec) 
Heartbeat CPU 0 instructions: 17000003 cycles: 44578647 heartbeat IPC: 0.370106 cumulative IPC: 0.383561 (Simulation time: 0 hr 4 min 27 sec) 
Heartbeat CPU 0 instructions: 18000003 cycles: 47202108 heartbeat IPC: 0.381176 cumulative IPC: 0.383261 (Simulation time: 0 hr 4 min 45 sec) 
Heartbeat CPU 0 instructions: 19000001 cycles: 50984945 heartbeat IPC: 0.264351 cumulative IPC: 0.365018 (Simulation time: 0 hr 5 min 7 sec) 
Heartbeat CPU 0 instructions: 20000000 cycles: 52001664 heartbeat IPC: 0.983555 cumulative IPC: 0.389514 (Simulation time: 0 hr 5 min 16 sec) 
Heartbeat CPU 0 instructions: 21000000 cycles: 53136785 heartbeat IPC: 0.880963 cumulative IPC: 0.410323 (Simulation time: 0 hr 5 min 25 sec) 
Heartbeat CPU 0 instructions: 22000000 cycles: 55932034 heartbeat IPC: 0.35775 cumulative IPC: 0.405359 (Simulation time: 0 hr 5 min 40 sec) 
Heartbeat CPU 0 instructions: 23000000 cycles: 58847987 heartbeat IPC: 0.342941 cumulative IPC: 0.399762 (Simulation time: 0 hr 5 min 56 sec) 
Heartbeat CPU 0 instructions: 24000000 cycles: 62482110 heartbeat IPC: 0.27517 cumulative IPC: 0.387238 (Simulation time: 0 hr 6 min 20 sec) 
Heartbeat CPU 0 instructions: 25000002 cycles: 64004674 heartbeat IPC: 0.656788 cumulative IPC: 0.398131 (Simulation time: 0 hr 6 min 33 sec) 
Heartbeat CPU 0 instructions: 26000001 cycles: 68190425 heartbeat IPC: 0.238906 cumulative IPC: 0.38221 (Simulation time: 0 hr 6 min 59 sec) 
Heartbeat CPU 0 instructions: 27000003 cycles: 70586874 heartbeat IPC: 0.417285 cumulative IPC: 0.384109 (Simulation time: 0 hr 7 min 13 sec) 
Heartbeat CPU 0 instructions: 28000002 cycles: 71593855 heartbeat IPC: 0.993066 cumulative IPC: 0.397656 (Simulation time: 0 hr 7 min 21 sec) 
Heartbeat CPU 0 instructions: 29000000 cycles: 74172323 heartbeat IPC: 0.387826 cumulative IPC: 0.397126 (Simulation time: 0 hr 7 min 34 sec) 
Heartbeat CPU 0 instructions: 30000003 cycles: 76191806 heartbeat IPC: 0.495178 cumulative IPC: 0.401098 (Simulation time: 0 hr 7 min 48 sec) 
Heartbeat CPU 0 instructions: 31000001 cycles: 79396080 heartbeat IPC: 0.312083 cumulative IPC: 0.395723 (Simulation time: 0 hr 8 min 4 sec) 
Heartbeat CPU 0 instructions: 32000001 cycles: 81438771 heartbeat IPC: 0.48955 cumulative IPC: 0.3992 (Simulation time: 0 hr 8 min 17 sec) 
Heartbeat CPU 0 instructions: 33000000 cycles: 85167894 heartbeat IPC: 0.268159 cumulative IPC: 0.390895 (Simulation time: 0 hr 8 min 41 sec) 
Heartbeat CPU 0 instructions: 34000001 cycles: 88042564 heartbeat IPC: 0.347866 cumulative IPC: 0.388891 (Simulation time: 0 hr 8 min 58 sec) 
Heartbeat CPU 0 instructions: 35000003 cycles: 89078785 heartbeat IPC: 0.965047 cumulative IPC: 0.398405 (Simulation time: 0 hr 9 min 7 sec) 
Heartbeat CPU 0 instructions: 36000000 cycles: 91080317 heartbeat IPC: 0.499616 cumulative IPC: 0.401534 (Simulation time: 0 hr 9 min 18 sec) 
Heartbeat CPU 0 instructions: 37000003 cycles: 93202764 heartbeat IPC: 0.471156 cumulative IPC: 0.403744 (Simulation time: 0 hr 9 min 33 sec) 
Heartbeat CPU 0 instructions: 38000001 cycles: 96380333 heartbeat IPC: 0.314705 cumulative IPC: 0.399705 (Simulation time: 0 hr 9 min 51 sec) 
Heartbeat CPU 0 instructions: 39000000 cycles: 98916041 heartbeat IPC: 0.394367 cumulative IPC: 0.399518 (Simulation time: 0 hr 10 min 5 sec) 
Heartbeat CPU 0 instructions: 40000002 cycles: 102134546 heartbeat IPC: 0.310704 cumulative IPC: 0.395747 (Simulation time: 0 hr 10 min 27 sec) 
Heartbeat CPU 0 instructions: 41000001 cycles: 105363521 heartbeat IPC: 0.309695 cumulative IPC: 0.392232 (Simulation time: 0 hr 10 min 48 sec) 
Heartbeat CPU 0 instructions: 42000003 cycles: 106375390 heartbeat IPC: 0.988272 cumulative IPC: 0.399766 (Simulation time: 0 hr 10 min 56 sec) 
Heartbeat CPU 0 instructions: 43000002 cycles: 107937558 heartbeat IPC: 0.640135 cumulative IPC: 0.404367 (Simulation time: 0 hr 11 min 6 sec) 
Heartbeat CPU 0 instructions: 44000000 cycles: 110289754 heartbeat IPC: 0.425134 cumulative IPC: 0.404949 (Simulation time: 0 hr 11 min 17 sec) 
Heartbeat CPU 0 instructions: 45000000 cycles: 113543398 heartbeat IPC: 0.307348 cumulative IPC: 0.401308 (Simulation time: 0 hr 11 min 35 sec) 
Heartbeat CPU 0 instructions: 46000001 cycles: 116760988 heartbeat IPC: 0.310792 cumulative IPC: 0.398088 (Simulation time: 0 hr 11 min 57 sec) 
Heartbeat CPU 0 instructions: 47000002 cycles: 118516424 heartbeat IPC: 0.56966 cumulative IPC: 0.401355 (Simulation time: 0 hr 12 min 10 sec) 
Heartbeat CPU 0 instructions: 48000000 cycles: 122423436 heartbeat IPC: 0.25595 cumulative IPC: 0.395443 (Simulation time: 0 hr 12 min 35 sec) 
Heartbeat CPU 0 instructions: 49000000 cycles: 124991850 heartbeat IPC: 0.389345 cumulative IPC: 0.395284 (Simulation time: 0 hr 12 min 51 sec) 
Heartbeat CPU 0 instructions: 50000002 cycles: 125998520 heartbeat IPC: 0.993376 cumulative IPC: 0.401325 (Simulation time: 0 hr 12 min 59 sec) 
Heartbeat CPU 0 instructions: 51000000 cycles: 128318619 heartbeat IPC: 0.431015 cumulative IPC: 0.402 (Simulation time: 0 hr 13 min 12 sec) 
Heartbeat CPU 0 instructions: 52000002 cycles: 130356248 heartbeat IPC: 0.490767 cumulative IPC: 0.403739 (Simulation time: 0 hr 13 min 26 sec) 
Heartbeat CPU 0 instructions: 53000000 cycles: 133544849 heartbeat IPC: 0.313617 cumulative IPC: 0.401059 (Simulation time: 0 hr 13 min 44 sec) 
Heartbeat CPU 0 instructions: 54000001 cycles: 135823925 heartbeat IPC: 0.438775 cumulative IPC: 0.401844 (Simulation time: 0 hr 13 min 57 sec) 
Heartbeat CPU 0 instructions: 55000000 cycles: 139341053 heartbeat IPC: 0.284323 cumulative IPC: 0.398186 (Simulation time: 0 hr 14 min 20 sec) 
Heartbeat CPU 0 instructions: 56000000 cycles: 142287761 heartbeat IPC: 0.339362 cumulative IPC: 0.396691 (Simulation time: 0 hr 14 min 39 sec) 
Heartbeat CPU 0 instructions: 57000000 cycles: 143302003 heartbeat IPC: 0.985958 cumulative IPC: 0.401801 (Simulation time: 0 hr 14 min 47 sec) 
Heartbeat CPU 0 instructions: 58000000 cycles: 145174533 heartbeat IPC: 0.534037 cumulative IPC: 0.403884 (Simulation time: 0 hr 14 min 59 sec) 
Heartbeat CPU 0 instructions: 59000002 cycles: 147234344 heartbeat IPC: 0.485482 cumulative IPC: 0.405274 (Simulation time: 0 hr 15 min 13 sec) 
Heartbeat CPU 0 instructions: 60000003 cycles: 150222409 heartbeat IPC: 0.334665 cumulative IPC: 0.403571 (Simulation time: 0 hr 15 min 31 sec) 
Heartbeat CPU 0 instructions: 61000001 cycles: 152997266 heartbeat IPC: 0.360378 cumulative IPC: 0.402625 (Simulation time: 0 hr 15 min 46 sec) 
Heartbeat CPU 0 instructions: 62000003 cycles: 155744779 heartbeat IPC: 0.363966 cumulative IPC: 0.401805 (Simulation time: 0 hr 16 min 5 sec) 
Heartbeat CPU 0 instructions: 63000001 cycles: 159424017 heartbeat IPC: 0.271795 cumulative IPC: 0.398211 (Simulation time: 0 hr 16 min 28 sec) 
Heartbeat CPU 0 instructions: 64000002 cycles: 160416324 heartbeat IPC: 1.00775 cumulative IPC: 0.402721 (Simulation time: 0 hr 16 min 36 sec) 
Heartbeat CPU 0 instructions: 65000002 cycles: 161633759 heartbeat IPC: 0.821399 cumulative IPC: 0.406489 (Simulation time: 0 hr 16 min 45 sec) 
Heartbeat CPU 0 instructions: 66000000 cycles: 164260679 heartbeat IPC: 0.380673 cumulative IPC: 0.405997 (Simulation time: 0 hr 17 min 0 sec) 
Heartbeat CPU 0 instructions: 67000001 cycles: 167036294 heartbeat IPC: 0.360281 cumulative IPC: 0.405095 (Simulation time: 0 hr 17 min 16 sec) 
Heartbeat CPU 0 instructions: 68000000 cycles: 173190148 heartbeat IPC: 0.1625 cumulative IPC: 0.39493 (Simulation time: 0 hr 17 min 32 sec) 
Heartbeat CPU 0 instructions: 69000001 cycles: 177362125 heartbeat IPC: 0.239695 cumulative IPC: 0.390642 (Simulation time: 0 hr 17 min 48 sec) 
Heartbeat CPU 0 instructions: 70000000 cycles: 181727957 heartbeat IPC: 0.229051 cumulative IPC: 0.386102 (Simulation time: 0 hr 18 min 10 sec) 
Heartbeat CPU 0 instructions: 71000001 cycles: 186902843 heartbeat IPC: 0.193241 cumulative IPC: 0.379887 (Simulation time: 0 hr 18 min 32 sec) 
Heartbeat CPU 0 instructions: 72000000 cycles: 190496183 heartbeat IPC: 0.278292 cumulative IPC: 0.377663 (Simulation time: 0 hr 18 min 50 sec) 
Heartbeat CPU 0 instructions: 73000000 cycles: 194077115 heartbeat IPC: 0.279257 cumulative IPC: 0.375562 (Simulation time: 0 hr 19 min 10 sec) 
Heartbeat CPU 0 instructions: 74000001 cycles: 197130875 heartbeat IPC: 0.327465 cumulative IPC: 0.374702 (Simulation time: 0 hr 19 min 21 sec) 
Heartbeat CPU 0 instructions: 75000003 cycles: 199964357 heartbeat IPC: 0.352923 cumulative IPC: 0.374347 (Simulation time: 0 hr 19 min 36 sec) 
Heartbeat CPU 0 instructions: 76000003 cycles: 202018878 heartbeat IPC: 0.486731 cumulative IPC: 0.375661 (Simulation time: 0 hr 19 min 47 sec) 
Heartbeat CPU 0 instructions: 77000000 cycles: 204429680 heartbeat IPC: 0.414798 cumulative IPC: 0.376191 (Simulation time: 0 hr 20 min 1 sec) 
Heartbeat CPU 0 instructions: 78000000 cycles: 205970150 heartbeat IPC: 0.649153 cumulative IPC: 0.378532 (Simulation time: 0 hr 20 min 13 sec) 
Heartbeat CPU 0 instructions: 79000002 cycles: 207369343 heartbeat IPC: 0.714699 cumulative IPC: 0.38113 (Simulation time: 0 hr 20 min 27 sec) 
Heartbeat CPU 0 instructions: 80000000 cycles: 208685610 heartbeat IPC: 0.759723 cumulative IPC: 0.383862 (Simulation time: 0 hr 20 min 39 sec) 
Heartbeat CPU 0 instructions: 81000000 cycles: 210530280 heartbeat IPC: 0.542102 cumulative IPC: 0.385447 (Simulation time: 0 hr 20 min 53 sec) 
Heartbeat CPU 0 instructions: 82000002 cycles: 213395452 heartbeat IPC: 0.34902 cumulative IPC: 0.384889 (Simulation time: 0 hr 21 min 8 sec) 
Heartbeat CPU 0 instructions: 83000003 cycles: 215817286 heartbeat IPC: 0.412911 cumulative IPC: 0.385247 (Simulation time: 0 hr 21 min 22 sec) 
Heartbeat CPU 0 instructions: 84000000 cycles: 218799370 heartbeat IPC: 0.335335 cumulative IPC: 0.384474 (Simulation time: 0 hr 21 min 40 sec) 
Heartbeat CPU 0 instructions: 85000001 cycles: 220460168 heartbeat IPC: 0.602121 cumulative IPC: 0.386336 (Simulation time: 0 hr 21 min 53 sec) 
Heartbeat CPU 0 instructions: 86000003 cycles: 224467568 heartbeat IPC: 0.249539 cumulative IPC: 0.383569 (Simulation time: 0 hr 22 min 18 sec) 
Heartbeat CPU 0 instructions: 87000001 cycles: 227079162 heartbeat IPC: 0.382907 cumulative IPC: 0.383561 (Simulation time: 0 hr 22 min 34 sec) 
Heartbeat CPU 0 instructions: 88000000 cycles: 228119985 heartbeat IPC: 0.960777 cumulative IPC: 0.386538 (Simulation time: 0 hr 22 min 42 sec) 
Heartbeat CPU 0 instructions: 89000003 cycles: 230437591 heartbeat IPC: 0.431481 cumulative IPC: 0.387048 (Simulation time: 0 hr 22 min 54 sec) 
Heartbeat CPU 0 instructions: 90000003 cycles: 232492979 heartbeat IPC: 0.486526 cumulative IPC: 0.38804 (Simulation time: 0 hr 23 min 9 sec) 
Heartbeat CPU 0 instructions: 91000002 cycles: 235708778 heartbeat IPC: 0.310964 cumulative IPC: 0.386856 (Simulation time: 0 hr 23 min 24 sec) 
Heartbeat CPU 0 instructions: 92000002 cycles: 237893332 heartbeat IPC: 0.457759 cumulative IPC: 0.387588 (Simulation time: 0 hr 23 min 37 sec) 
Heartbeat CPU 0 instructions: 93000000 cycles: 241501448 heartbeat IPC: 0.277152 cumulative IPC: 0.385736 (Simulation time: 0 hr 23 min 58 sec) 
Heartbeat CPU 0 instructions: 94000000 cycles: 244404887 heartbeat IPC: 0.344419 cumulative IPC: 0.385186 (Simulation time: 0 hr 24 min 16 sec) 
Heartbeat CPU 0 instructions: 95000000 cycles: 245418616 heartbeat IPC: 0.986457 cumulative IPC: 0.387968 (Simulation time: 0 hr 24 min 24 sec) 
Heartbeat CPU 0 instructions: 96000000 cycles: 247314621 heartbeat IPC: 0.527425 cumulative IPC: 0.389165 (Simulation time: 0 hr 24 min 36 sec) 
Heartbeat CPU 0 instructions: 97000001 cycles: 249277661 heartbeat IPC: 0.509414 cumulative IPC: 0.390224 (Simulation time: 0 hr 24 min 50 sec) 
Heartbeat CPU 0 instructions: 98000000 cycles: 252991124 heartbeat IPC: 0.26929 cumulative IPC: 0.388242 (Simulation time: 0 hr 25 min 11 sec) 
Heartbeat CPU 0 instructions: 99000000 cycles: 256118156 heartbeat IPC: 0.319792 cumulative IPC: 0.387311 (Simulation time: 0 hr 25 min 29 sec) 
Heartbeat CPU 0 instructions: 100000000 cycles: 258226695 heartbeat IPC: 0.474262 cumulative IPC: 0.388102 (Simulation time: 0 hr 25 min 45 sec) 
Heartbeat CPU 0 instructions: 101000000 cycles: 262580919 heartbeat IPC: 0.229662 cumulative IPC: 0.385181 (Simulation time: 0 hr 26 min 12 sec) 
Heartbeat CPU 0 instructions: 102000001 cycles: 263866205 heartbeat IPC: 0.778038 cumulative IPC: 0.387307 (Simulation time: 0 hr 26 min 22 sec) 
Heartbeat CPU 0 instructions: 103000002 cycles: 264845505 heartbeat IPC: 1.02114 cumulative IPC: 0.38991 (Simulation time: 0 hr 26 min 30 sec) 
Heartbeat CPU 0 instructions: 104000000 cycles: 267669616 heartbeat IPC: 0.354093 cumulative IPC: 0.38949 (Simulation time: 0 hr 26 min 45 sec) 
Heartbeat CPU 0 instructions: 105000000 cycles: 270014678 heartbeat IPC: 0.426428 cumulative IPC: 0.389846 (Simulation time: 0 hr 27 min 0 sec) 
Heartbeat CPU 0 instructions: 106000001 cycles: 273010513 heartbeat IPC: 0.333797 cumulative IPC: 0.389165 (Simulation time: 0 hr 27 min 16 sec) 
Heartbeat CPU 0 instructions: 107000000 cycles: 274857886 heartbeat IPC: 0.541309 cumulative IPC: 0.390296 (Simulation time: 0 hr 27 min 30 sec) 
Heartbeat CPU 0 instructions: 108000000 cycles: 279194012 heartbeat IPC: 0.230621 cumulative IPC: 0.387558 (Simulation time: 0 hr 27 min 58 sec) 
Heartbeat CPU 0 instructions: 109000001 cycles: 280937493 heartbeat IPC: 0.573566 cumulative IPC: 0.388832 (Simulation time: 0 hr 28 min 9 sec) 
Heartbeat CPU 0 instructions: 110000000 cycles: 281921669 heartbeat IPC: 1.01608 cumulative IPC: 0.391247 (Simulation time: 0 hr 28 min 17 sec) 
Heartbeat CPU 0 instructions: 111000000 cycles: 284740501 heartbeat IPC: 0.354757 cumulative IPC: 0.390849 (Simulation time: 0 hr 28 min 32 sec) 
Heartbeat CPU 0 instructions: 112000002 cycles: 286772087 heartbeat IPC: 0.492227 cumulative IPC: 0.39164 (Simulation time: 0 hr 28 min 47 sec) 
Heartbeat CPU 0 instructions: 113000000 cycles: 289982884 heartbeat IPC: 0.311449 cumulative IPC: 0.390663 (Simulation time: 0 hr 29 min 3 sec) 
Heartbeat CPU 0 instructions: 114000003 cycles: 291615065 heartbeat IPC: 0.612679 cumulative IPC: 0.392029 (Simulation time: 0 hr 29 min 14 sec) 
Heartbeat CPU 0 instructions: 115000001 cycles: 295851359 heartbeat IPC: 0.236055 cumulative IPC: 0.389578 (Simulation time: 0 hr 29 min 41 sec) 
Heartbeat CPU 0 instructions: 116000003 cycles: 297879163 heartbeat IPC: 0.493145 cumulative IPC: 0.390351 (Simulation time: 0 hr 29 min 54 sec) 
Heartbeat CPU 0 instructions: 117000000 cycles: 298882519 heartbeat IPC: 0.996652 cumulative IPC: 0.392583 (Simulation time: 0 hr 30 min 2 sec) 
Heartbeat CPU 0 instructions: 118000003 cycles: 301473609 heartbeat IPC: 0.385939 cumulative IPC: 0.39252 (Simulation time: 0 hr 30 min 15 sec) 
Heartbeat CPU 0 instructions: 119000003 cycles: 303366114 heartbeat IPC: 0.5284 cumulative IPC: 0.393449 (Simulation time: 0 hr 30 min 30 sec) 
Heartbeat CPU 0 instructions: 120000003 cycles: 306765917 heartbeat IPC: 0.294135 cumulative IPC: 0.392245 (Simulation time: 0 hr 30 min 47 sec) 
Heartbeat CPU 0 instructions: 121000000 cycles: 308394797 heartbeat IPC: 0.613917 cumulative IPC: 0.393525 (Simulation time: 0 hr 31 min 0 sec) 
Heartbeat CPU 0 instructions: 122000001 cycles: 312367092 heartbeat IPC: 0.251744 cumulative IPC: 0.391556 (Simulation time: 0 hr 31 min 25 sec) 
Heartbeat CPU 0 instructions: 123000000 cycles: 314921734 heartbeat IPC: 0.391444 cumulative IPC: 0.391555 (Simulation time: 0 hr 31 min 41 sec) 
Heartbeat CPU 0 instructions: 124000000 cycles: 315950148 heartbeat IPC: 0.972371 cumulative IPC: 0.393617 (Simulation time: 0 hr 31 min 49 sec) 
Heartbeat CPU 0 instructions: 125000000 cycles: 318199317 heartbeat IPC: 0.444609 cumulative IPC: 0.39401 (Simulation time: 0 hr 32 min 2 sec) 
Heartbeat CPU 0 instructions: 126000001 cycles: 320195344 heartbeat IPC: 0.500996 cumulative IPC: 0.394737 (Simulation time: 0 hr 32 min 16 sec) 
Heartbeat CPU 0 instructions: 127000000 cycles: 322488032 heartbeat IPC: 0.436169 cumulative IPC: 0.395057 (Simulation time: 0 hr 32 min 30 sec) 
Heartbeat CPU 0 instructions: 128000003 cycles: 325273155 heartbeat IPC: 0.359052 cumulative IPC: 0.394722 (Simulation time: 0 hr 32 min 46 sec) 
Heartbeat CPU 0 instructions: 129000003 cycles: 327446229 heartbeat IPC: 0.460178 cumulative IPC: 0.395194 (Simulation time: 0 hr 33 min 2 sec) 
Heartbeat CPU 0 instructions: 130000001 cycles: 331885103 heartbeat IPC: 0.225282 cumulative IPC: 0.392726 (Simulation time: 0 hr 33 min 29 sec) 
Heartbeat CPU 0 instructions: 131000002 cycles: 333039384 heartbeat IPC: 0.866341 cumulative IPC: 0.394508 (Simulation time: 0 hr 33 min 37 sec) 
Heartbeat CPU 0 instructions: 132000000 cycles: 334016611 heartbeat IPC: 1.0233 cumulative IPC: 0.396506 (Simulation time: 0 hr 33 min 46 sec) 
Heartbeat CPU 0 instructions: 133000003 cycles: 336826515 heartbeat IPC: 0.355885 cumulative IPC: 0.396138 (Simulation time: 0 hr 34 min 1 sec) 
Heartbeat CPU 0 instructions: 134000003 cycles: 339236046 heartbeat IPC: 0.415019 cumulative IPC: 0.396283 (Simulation time: 0 hr 34 min 17 sec) 
Heartbeat CPU 0 instructions: 135000003 cycles: 342134510 heartbeat IPC: 0.34501 cumulative IPC: 0.395813 (Simulation time: 0 hr 34 min 32 sec) 
Heartbeat CPU 0 instructions: 136000001 cycles: 344061439 heartbeat IPC: 0.518959 cumulative IPC: 0.39656 (Simulation time: 0 hr 34 min 47 sec) 
Heartbeat CPU 0 instructions: 137000000 cycles: 348347286 heartbeat IPC: 0.233326 cumulative IPC: 0.394387 (Simulation time: 0 hr 35 min 15 sec) 
Heartbeat CPU 0 instructions: 138000003 cycles: 349876994 heartbeat IPC: 0.653722 cumulative IPC: 0.395613 (Simulation time: 0 hr 35 min 25 sec) 
Heartbeat CPU 0 instructions: 139000001 cycles: 350862440 heartbeat IPC: 1.01477 cumulative IPC: 0.397493 (Simulation time: 0 hr 35 min 33 sec) 
Heartbeat CPU 0 instructions: 140000001 cycles: 353661474 heartbeat IPC: 0.357266 cumulative IPC: 0.397149 (Simulation time: 0 hr 35 min 48 sec) 
Heartbeat CPU 0 instructions: 141000002 cycles: 355800329 heartbeat IPC: 0.46754 cumulative IPC: 0.397606 (Simulation time: 0 hr 36 min 3 sec) 
Heartbeat CPU 0 instructions: 142000002 cycles: 358937172 heartbeat IPC: 0.318792 cumulative IPC: 0.396863 (Simulation time: 0 hr 36 min 20 sec) 
Heartbeat CPU 0 instructions: 143000000 cycles: 360649261 heartbeat IPC: 0.584081 cumulative IPC: 0.397822 (Simulation time: 0 hr 36 min 33 sec) 
Heartbeat CPU 0 instructions: 144000001 cycles: 364940080 heartbeat IPC: 0.233056 cumulative IPC: 0.395734 (Simulation time: 0 hr 37 min 0 sec) 
Heartbeat CPU 0 instructions: 145000002 cycles: 366925473 heartbeat IPC: 0.503679 cumulative IPC: 0.396363 (Simulation time: 0 hr 37 min 13 sec) 
Heartbeat CPU 0 instructions: 146000001 cycles: 367922766 heartbeat IPC: 1.00271 cumulative IPC: 0.398133 (Simulation time: 0 hr 37 min 21 sec) 
Heartbeat CPU 0 instructions: 147000000 cycles: 370574150 heartbeat IPC: 0.377161 cumulative IPC: 0.397972 (Simulation time: 0 hr 37 min 35 sec) 
Heartbeat CPU 0 instructions: 148000001 cycles: 372427062 heartbeat IPC: 0.539692 cumulative IPC: 0.39873 (Simulation time: 0 hr 37 min 50 sec) 
Heartbeat CPU 0 instructions: 149000000 cycles: 375833262 heartbeat IPC: 0.293582 cumulative IPC: 0.397706 (Simulation time: 0 hr 38 min 7 sec) 
Heartbeat CPU 0 instructions: 150000001 cycles: 377366872 heartbeat IPC: 0.652057 cumulative IPC: 0.398817 (Simulation time: 0 hr 38 min 19 sec) 
Heartbeat CPU 0 instructions: 151000000 cycles: 381456572 heartbeat IPC: 0.244516 cumulative IPC: 0.39704 (Simulation time: 0 hr 38 min 46 sec) 
Heartbeat CPU 0 instructions: 152000001 cycles: 383885906 heartbeat IPC: 0.411636 cumulative IPC: 0.397139 (Simulation time: 0 hr 39 min 0 sec) 
Heartbeat CPU 0 instructions: 153000000 cycles: 384888213 heartbeat IPC: 0.997697 cumulative IPC: 0.398818 (Simulation time: 0 hr 39 min 8 sec) 
Heartbeat CPU 0 instructions: 154000000 cycles: 387310529 heartbeat IPC: 0.412828 cumulative IPC: 0.398912 (Simulation time: 0 hr 39 min 21 sec) 
Heartbeat CPU 0 instructions: 155000002 cycles: 389272780 heartbeat IPC: 0.50962 cumulative IPC: 0.399511 (Simulation time: 0 hr 39 min 36 sec) 
Heartbeat CPU 0 instructions: 156000002 cycles: 391435212 heartbeat IPC: 0.462442 cumulative IPC: 0.399883 (Simulation time: 0 hr 39 min 49 sec) 
Heartbeat CPU 0 instructions: 157000002 cycles: 400855369 heartbeat IPC: 0.106155 cumulative IPC: 0.392495 (Simulation time: 0 hr 40 min 11 sec) 
Heartbeat CPU 0 instructions: 158000003 cycles: 402984626 heartbeat IPC: 0.469648 cumulative IPC: 0.392931 (Simulation time: 0 hr 40 min 30 sec) 
Heartbeat CPU 0 instructions: 159000000 cycles: 408086520 heartbeat IPC: 0.196005 cumulative IPC: 0.3903 (Simulation time: 0 hr 40 min 52 sec) 
Heartbeat CPU 0 instructions: 160000003 cycles: 412550221 heartbeat IPC: 0.22403 cumulative IPC: 0.388378 (Simulation time: 0 hr 41 min 12 sec) 
Heartbeat CPU 0 instructions: 161000001 cycles: 415985421 heartbeat IPC: 0.291103 cumulative IPC: 0.38752 (Simulation time: 0 hr 41 min 30 sec) 
Heartbeat CPU 0 instructions: 162000000 cycles: 419766398 heartbeat IPC: 0.264482 cumulative IPC: 0.386338 (Simulation time: 0 hr 41 min 48 sec) 
Heartbeat CPU 0 instructions: 163000001 cycles: 422526977 heartbeat IPC: 0.362243 cumulative IPC: 0.38617 (Simulation time: 0 hr 41 min 59 sec) 
Heartbeat CPU 0 instructions: 164000000 cycles: 425134036 heartbeat IPC: 0.383574 cumulative IPC: 0.386153 (Simulation time: 0 hr 42 min 13 sec) 
Heartbeat CPU 0 instructions: 165000000 cycles: 427165221 heartbeat IPC: 0.492323 cumulative IPC: 0.386691 (Simulation time: 0 hr 42 min 25 sec) 
Heartbeat CPU 0 instructions: 166000001 cycles: 429440572 heartbeat IPC: 0.439493 cumulative IPC: 0.386989 (Simulation time: 0 hr 42 min 39 sec) 
Heartbeat CPU 0 instructions: 167000000 cycles: 430991167 heartbeat IPC: 0.644913 cumulative IPC: 0.387978 (Simulation time: 0 hr 42 min 53 sec) 
Heartbeat CPU 0 instructions: 168000003 cycles: 431995350 heartbeat IPC: 0.995837 cumulative IPC: 0.389482 (Simulation time: 0 hr 43 min 3 sec) 
Heartbeat CPU 0 instructions: 169000003 cycles: 433288030 heartbeat IPC: 0.773587 cumulative IPC: 0.390702 (Simulation time: 0 hr 43 min 15 sec) 
Heartbeat CPU 0 instructions: 170000001 cycles: 436280123 heartbeat IPC: 0.334214 cumulative IPC: 0.39029 (Simulation time: 0 hr 43 min 32 sec) 
Heartbeat CPU 0 instructions: 171000000 cycles: 438932089 heartbeat IPC: 0.377078 cumulative IPC: 0.390205 (Simulation time: 0 hr 43 min 49 sec) 
Heartbeat CPU 0 instructions: 172000001 cycles: 441238524 heartbeat IPC: 0.43357 cumulative IPC: 0.390446 (Simulation time: 0 hr 44 min 5 sec) 
Heartbeat CPU 0 instructions: 173000001 cycles: 444060165 heartbeat IPC: 0.354404 cumulative IPC: 0.390203 (Simulation time: 0 hr 44 min 19 sec) 
Heartbeat CPU 0 instructions: 174000003 cycles: 446163170 heartbeat IPC: 0.475511 cumulative IPC: 0.39063 (Simulation time: 0 hr 44 min 35 sec) 
Heartbeat CPU 0 instructions: 175000003 cycles: 450638090 heartbeat IPC: 0.223468 cumulative IPC: 0.388867 (Simulation time: 0 hr 45 min 1 sec) 
Heartbeat CPU 0 instructions: 176000000 cycles: 451994713 heartbeat IPC: 0.737122 cumulative IPC: 0.389977 (Simulation time: 0 hr 45 min 10 sec) 
Heartbeat CPU 0 instructions: 177000000 cycles: 452991088 heartbeat IPC: 1.00364 cumulative IPC: 0.39141 (Simulation time: 0 hr 45 min 18 sec) 
Heartbeat CPU 0 instructions: 178000000 cycles: 455899992 heartbeat IPC: 0.343772 cumulative IPC: 0.391088 (Simulation time: 0 hr 45 min 33 sec) 
Heartbeat CPU 0 instructions: 179000001 cycles: 458544422 heartbeat IPC: 0.378154 cumulative IPC: 0.391008 (Simulation time: 0 hr 45 min 49 sec) 
Heartbeat CPU 0 instructions: 180000002 cycles: 461654987 heartbeat IPC: 0.321485 cumulative IPC: 0.390512 (Simulation time: 0 hr 46 min 4 sec) 
Heartbeat CPU 0 instructions: 181000001 cycles: 463228537 heartbeat IPC: 0.635505 cumulative IPC: 0.391394 (Simulation time: 0 hr 46 min 17 sec) 
Heartbeat CPU 0 instructions: 182000000 cycles: 467393929 heartbeat IPC: 0.240073 cumulative IPC: 0.389965 (Simulation time: 0 hr 46 min 44 sec) 
Heartbeat CPU 0 instructions: 183000002 cycles: 469684582 heartbeat IPC: 0.436558 cumulative IPC: 0.390206 (Simulation time: 0 hr 46 min 58 sec) 
Heartbeat CPU 0 instructions: 184000002 cycles: 470699070 heartbeat IPC: 0.985719 cumulative IPC: 0.391565 (Simulation time: 0 hr 47 min 6 sec) 
Heartbeat CPU 0 instructions: 185000000 cycles: 473225725 heartbeat IPC: 0.395779 cumulative IPC: 0.391589 (Simulation time: 0 hr 47 min 19 sec) 
Heartbeat CPU 0 instructions: 186000000 cycles: 475353289 heartbeat IPC: 0.470021 cumulative IPC: 0.391961 (Simulation time: 0 hr 47 min 34 sec) 
Heartbeat CPU 0 instructions: 187000000 cycles: 478801633 heartbeat IPC: 0.289994 cumulative IPC: 0.391184 (Simulation time: 0 hr 47 min 51 sec) 
Heartbeat CPU 0 instructions: 188000002 cycles: 480732973 heartbeat IPC: 0.517776 cumulative IPC: 0.391722 (Simulation time: 0 hr 48 min 4 sec) 
Heartbeat CPU 0 instructions: 189000003 cycles: 484053122 heartbeat IPC: 0.301192 cumulative IPC: 0.391065 (Simulation time: 0 hr 48 min 25 sec) 
Heartbeat CPU 0 instructions: 190000001 cycles: 487128350 heartbeat IPC: 0.325179 cumulative IPC: 0.390625 (Simulation time: 0 hr 48 min 44 sec) 
Heartbeat CPU 0 instructions: 191000003 cycles: 488146726 heartbeat IPC: 0.981958 cumulative IPC: 0.391929 (Simulation time: 0 hr 48 min 52 sec) 
Heartbeat CPU 0 instructions: 192000002 cycles: 489923923 heartbeat IPC: 0.562683 cumulative IPC: 0.392584 (Simulation time: 0 hr 49 min 3 sec) 
Heartbeat CPU 0 instructions: 193000001 cycles: 492120154 heartbeat IPC: 0.455325 cumulative IPC: 0.39288 (Simulation time: 0 hr 49 min 18 sec) 
Heartbeat CPU 0 instructions: 194000001 cycles: 495265152 heartbeat IPC: 0.317965 cumulative IPC: 0.392377 (Simulation time: 0 hr 49 min 36 sec) 
Heartbeat CPU 0 instructions: 195000000 cycles: 498182765 heartbeat IPC: 0.342746 cumulative IPC: 0.39207 (Simulation time: 0 hr 49 min 51 sec) 
Heartbeat CPU 0 instructions: 196000002 cycles: 500770565 heartbeat IPC: 0.386429 cumulative IPC: 0.39204 (Simulation time: 0 hr 50 min 8 sec) 
Heartbeat CPU 0 instructions: 197000000 cycles: 504577505 heartbeat IPC: 0.262678 cumulative IPC: 0.39101 (Simulation time: 0 hr 50 min 31 sec) 
Heartbeat CPU 0 instructions: 198000000 cycles: 505578192 heartbeat IPC: 0.999313 cumulative IPC: 0.39228 (Simulation time: 0 hr 50 min 39 sec) 
Heartbeat CPU 0 instructions: 199000000 cycles: 506651810 heartbeat IPC: 0.93143 cumulative IPC: 0.393485 (Simulation time: 0 hr 50 min 49 sec) 
Heartbeat CPU 0 instructions: 200000001 cycles: 509409869 heartbeat IPC: 0.362574 cumulative IPC: 0.393309 (Simulation time: 0 hr 51 min 4 sec) 
Heartbeat CPU 0 instructions: 201000002 cycles: 512338423 heartbeat IPC: 0.341466 cumulative IPC: 0.392996 (Simulation time: 0 hr 51 min 21 sec) 
Heartbeat CPU 0 instructions: 202000002 cycles: 515238787 heartbeat IPC: 0.344784 cumulative IPC: 0.39271 (Simulation time: 0 hr 51 min 36 sec) 
Heartbeat CPU 0 instructions: 203000001 cycles: 517319012 heartbeat IPC: 0.480717 cumulative IPC: 0.393083 (Simulation time: 0 hr 51 min 51 sec) 
Heartbeat CPU 0 instructions: 204000000 cycles: 521665420 heartbeat IPC: 0.230075 cumulative IPC: 0.391653 (Simulation time: 0 hr 52 min 18 sec) 
Heartbeat CPU 0 instructions: 205000000 cycles: 522953407 heartbeat IPC: 0.776405 cumulative IPC: 0.392651 (Simulation time: 0 hr 52 min 27 sec) 
Heartbeat CPU 0 instructions: 206000000 cycles: 523933099 heartbeat IPC: 1.02073 cumulative IPC: 0.393887 (Simulation time: 0 hr 52 min 35 sec) 
Heartbeat CPU 0 instructions: 207000003 cycles: 526766471 heartbeat IPC: 0.352937 cumulative IPC: 0.393655 (Simulation time: 0 hr 52 min 50 sec) 
Heartbeat CPU 0 instructions: 208000000 cycles: 529278371 heartbeat IPC: 0.398104 cumulative IPC: 0.393678 (Simulation time: 0 hr 53 min 6 sec) 
Heartbeat CPU 0 instructions: 209000000 cycles: 532337631 heartbeat IPC: 0.326876 cumulative IPC: 0.393274 (Simulation time: 0 hr 53 min 22 sec) 
Heartbeat CPU 0 instructions: 210000002 cycles: 533947975 heartbeat IPC: 0.620987 cumulative IPC: 0.393996 (Simulation time: 0 hr 53 min 34 sec) 
Heartbeat CPU 0 instructions: 211000002 cycles: 538227516 heartbeat IPC: 0.23367 cumulative IPC: 0.392656 (Simulation time: 0 hr 54 min 1 sec) 
Heartbeat CPU 0 instructions: 212000000 cycles: 540419559 heartbeat IPC: 0.456195 cumulative IPC: 0.392927 (Simulation time: 0 hr 54 min 14 sec) 
Heartbeat CPU 0 instructions: 213000003 cycles: 541424312 heartbeat IPC: 0.995272 cumulative IPC: 0.394102 (Simulation time: 0 hr 54 min 23 sec) 
Heartbeat CPU 0 instructions: 214000002 cycles: 543976761 heartbeat IPC: 0.39178 cumulative IPC: 0.39409 (Simulation time: 0 hr 54 min 36 sec) 
Heartbeat CPU 0 instructions: 215000003 cycles: 546046244 heartbeat IPC: 0.483213 cumulative IPC: 0.394445 (Simulation time: 0 hr 54 min 51 sec) 
Heartbeat CPU 0 instructions: 216000002 cycles: 549465188 heartbeat IPC: 0.292488 cumulative IPC: 0.393779 (Simulation time: 0 hr 55 min 8 sec) 
Heartbeat CPU 0 instructions: 217000000 cycles: 551441390 heartbeat IPC: 0.50602 cumulative IPC: 0.394201 (Simulation time: 0 hr 55 min 22 sec) 
Heartbeat CPU 0 instructions: 218000001 cycles: 554943274 heartbeat IPC: 0.285561 cumulative IPC: 0.393481 (Simulation time: 0 hr 55 min 43 sec) 
Heartbeat CPU 0 instructions: 219000000 cycles: 558026694 heartbeat IPC: 0.324315 cumulative IPC: 0.39308 (Simulation time: 0 hr 56 min 3 sec) 
Heartbeat CPU 0 instructions: 220000000 cycles: 559056805 heartbeat IPC: 0.970769 cumulative IPC: 0.394197 (Simulation time: 0 hr 56 min 11 sec) 
Heartbeat CPU 0 instructions: 221000002 cycles: 560825776 heartbeat IPC: 0.565302 cumulative IPC: 0.394764 (Simulation time: 0 hr 56 min 22 sec) 
Heartbeat CPU 0 instructions: 222000003 cycles: 562998339 heartbeat IPC: 0.460286 cumulative IPC: 0.395029 (Simulation time: 0 hr 56 min 37 sec) 
Heartbeat CPU 0 instructions: 223000002 cycles: 566127979 heartbeat IPC: 0.319525 cumulative IPC: 0.394591 (Simulation time: 0 hr 56 min 55 sec) 
Heartbeat CPU 0 instructions: 224000000 cycles: 569046522 heartbeat IPC: 0.342636 cumulative IPC: 0.394312 (Simulation time: 0 hr 57 min 10 sec) 
Heartbeat CPU 0 instructions: 225000002 cycles: 571693740 heartbeat IPC: 0.377756 cumulative IPC: 0.394231 (Simulation time: 0 hr 57 min 28 sec) 
Heartbeat CPU 0 instructions: 226000000 cycles: 575409857 heartbeat IPC: 0.269098 cumulative IPC: 0.393384 (Simulation time: 0 hr 57 min 50 sec) 
Heartbeat CPU 0 instructions: 227000000 cycles: 576413864 heartbeat IPC: 0.996009 cumulative IPC: 0.394484 (Simulation time: 0 hr 57 min 59 sec) 
Heartbeat CPU 0 instructions: 228000000 cycles: 577494513 heartbeat IPC: 0.92537 cumulative IPC: 0.395525 (Simulation time: 0 hr 58 min 8 sec) 
Heartbeat CPU 0 instructions: 229000002 cycles: 580234849 heartbeat IPC: 0.364919 cumulative IPC: 0.395374 (Simulation time: 0 hr 58 min 23 sec) 
Heartbeat CPU 0 instructions: 230000000 cycles: 583195800 heartbeat IPC: 0.337729 cumulative IPC: 0.395067 (Simulation time: 0 hr 58 min 40 sec) 
Heartbeat CPU 0 instructions: 231000000 cycles: 586092698 heartbeat IPC: 0.345197 cumulative IPC: 0.394809 (Simulation time: 0 hr 58 min 55 sec) 
Heartbeat CPU 0 instructions: 232000003 cycles: 588200680 heartbeat IPC: 0.474389 cumulative IPC: 0.395108 (Simulation time: 0 hr 59 min 11 sec) 
Heartbeat CPU 0 instructions: 233000000 cycles: 592579065 heartbeat IPC: 0.228394 cumulative IPC: 0.393819 (Simulation time: 0 hr 59 min 38 sec) 
Heartbeat CPU 0 instructions: 234000000 cycles: 593841896 heartbeat IPC: 0.791872 cumulative IPC: 0.394704 (Simulation time: 0 hr 59 min 47 sec) 
Heartbeat CPU 0 instructions: 235000001 cycles: 594830741 heartbeat IPC: 1.01128 cumulative IPC: 0.395777 (Simulation time: 0 hr 59 min 56 sec) 
Heartbeat CPU 0 instructions: 236000002 cycles: 597619431 heartbeat IPC: 0.358592 cumulative IPC: 0.395595 (Simulation time: 1 hr 0 min 11 sec) 
Heartbeat CPU 0 instructions: 237000002 cycles: 600156013 heartbeat IPC: 0.394231 cumulative IPC: 0.395589 (Simulation time: 1 hr 0 min 27 sec) 
Heartbeat CPU 0 instructions: 238000000 cycles: 603203925 heartbeat IPC: 0.328093 cumulative IPC: 0.395233 (Simulation time: 1 hr 0 min 42 sec) 
Heartbeat CPU 0 instructions: 239000002 cycles: 604799739 heartbeat IPC: 0.626641 cumulative IPC: 0.395871 (Simulation time: 1 hr 0 min 55 sec) 
Heartbeat CPU 0 instructions: 240000001 cycles: 608955253 heartbeat IPC: 0.240644 cumulative IPC: 0.394764 (Simulation time: 1 hr 1 min 22 sec) 
Heartbeat CPU 0 instructions: 241000003 cycles: 611158881 heartbeat IPC: 0.453798 cumulative IPC: 0.394986 (Simulation time: 1 hr 1 min 36 sec) 
Heartbeat CPU 0 instructions: 242000000 cycles: 612185350 heartbeat IPC: 0.974211 cumulative IPC: 0.396001 (Simulation time: 1 hr 1 min 44 sec) 
Heartbeat CPU 0 instructions: 243000003 cycles: 614736411 heartbeat IPC: 0.391995 cumulative IPC: 0.395984 (Simulation time: 1 hr 1 min 57 sec) 
Heartbeat CPU 0 instructions: 244000000 cycles: 616779799 heartbeat IPC: 0.489382 cumulative IPC: 0.396307 (Simulation time: 1 hr 2 min 12 sec) 
Heartbeat CPU 0 instructions: 245000000 cycles: 618746467 heartbeat IPC: 0.508474 cumulative IPC: 0.396679 (Simulation time: 1 hr 2 min 25 sec) 
Heartbeat CPU 0 instructions: 246000000 cycles: 628215499 heartbeat IPC: 0.105607 cumulative IPC: 0.3921 (Simulation time: 1 hr 2 min 47 sec) 
Heartbeat CPU 0 instructions: 247000002 cycles: 630399909 heartbeat IPC: 0.45779 cumulative IPC: 0.392338 (Simulation time: 1 hr 3 min 8 sec) 
Heartbeat CPU 0 instructions: 248000002 cycles: 635639873 heartbeat IPC: 0.190841 cumulative IPC: 0.390605 (Simulation time: 1 hr 3 min 29 sec) 
Heartbeat CPU 0 instructions: 249000001 cycles: 639832915 heartbeat IPC: 0.23849 cumulative IPC: 0.389565 (Simulation time: 1 hr 3 min 49 sec) 
Heartbeat CPU 0 instructions: 250000000 cycles: 643048810 heartbeat IPC: 0.310955 cumulative IPC: 0.389155 (Simulation time: 1 hr 4 min 7 sec) 
Heartbeat CPU 0 instructions: 251000000 cycles: 646929264 heartbeat IPC: 0.257702 cumulative IPC: 0.388333 (Simulation time: 1 hr 4 min 24 sec) 
Heartbeat CPU 0 instructions: 252000000 cycles: 649591009 heartbeat IPC: 0.375693 cumulative IPC: 0.388279 (Simulation time: 1 hr 4 min 37 sec) 
Heartbeat CPU 0 instructions: 253000000 cycles: 652102533 heartbeat IPC: 0.398165 cumulative IPC: 0.388319 (Simulation time: 1 hr 4 min 50 sec) 
Heartbeat CPU 0 instructions: 254000000 cycles: 654180739 heartbeat IPC: 0.481184 cumulative IPC: 0.388627 (Simulation time: 1 hr 5 min 2 sec) 
Heartbeat CPU 0 instructions: 255000003 cycles: 656282892 heartbeat IPC: 0.475704 cumulative IPC: 0.388917 (Simulation time: 1 hr 5 min 15 sec) 
Heartbeat CPU 0 instructions: 256000001 cycles: 657830757 heartbeat IPC: 0.64605 cumulative IPC: 0.389547 (Simulation time: 1 hr 5 min 29 sec) 
Heartbeat CPU 0 instructions: 257000000 cycles: 658912860 heartbeat IPC: 0.924125 cumulative IPC: 0.390462 (Simulation time: 1 hr 5 min 40 sec) 
Heartbeat CPU 0 instructions: 258000003 cycles: 660216894 heartbeat IPC: 0.766853 cumulative IPC: 0.391236 (Simulation time: 1 hr 5 min 52 sec) 
Heartbeat CPU 0 instructions: 259000002 cycles: 663348816 heartbeat IPC: 0.319292 cumulative IPC: 0.390882 (Simulation time: 1 hr 6 min 8 sec) 
Heartbeat CPU 0 instructions: 260000000 cycles: 665831471 heartbeat IPC: 0.402794 cumulative IPC: 0.390929 (Simulation time: 1 hr 6 min 25 sec) 
Heartbeat CPU 0 instructions: 261000002 cycles: 668206821 heartbeat IPC: 0.420991 cumulative IPC: 0.39104 (Simulation time: 1 hr 6 min 42 sec) 
Heartbeat CPU 0 instructions: 262000000 cycles: 670985275 heartbeat IPC: 0.359912 cumulative IPC: 0.390906 (Simulation time: 1 hr 6 min 56 sec) 
Heartbeat CPU 0 instructions: 263000000 cycles: 673268300 heartbeat IPC: 0.438015 cumulative IPC: 0.391072 (Simulation time: 1 hr 7 min 12 sec) 
Heartbeat CPU 0 instructions: 264000000 cycles: 677686147 heartbeat IPC: 0.226355 cumulative IPC: 0.389955 (Simulation time: 1 hr 7 min 39 sec) 
Heartbeat CPU 0 instructions: 265000003 cycles: 678753237 heartbeat IPC: 0.937131 cumulative IPC: 0.39085 (Simulation time: 1 hr 7 min 47 sec) 
Heartbeat CPU 0 instructions: 266000003 cycles: 679753494 heartbeat IPC: 0.999743 cumulative IPC: 0.391782 (Simulation time: 1 hr 7 min 55 sec) 
Heartbeat CPU 0 instructions: 267000003 cycles: 682727686 heartbeat IPC: 0.336226 cumulative IPC: 0.39153 (Simulation time: 1 hr 8 min 10 sec) 
Heartbeat CPU 0 instructions: 268000003 cycles: 685530024 heartbeat IPC: 0.356845 cumulative IPC: 0.391383 (Simulation time: 1 hr 8 min 26 sec) 
Heartbeat CPU 0 instructions: 269000001 cycles: 688517179 heartbeat IPC: 0.334766 cumulative IPC: 0.391127 (Simulation time: 1 hr 8 min 41 sec) 
Heartbeat CPU 0 instructions: 270000001 cycles: 690203677 heartbeat IPC: 0.592945 cumulative IPC: 0.39164 (Simulation time: 1 hr 8 min 55 sec) 
Heartbeat CPU 0 instructions: 271000002 cycles: 694487106 heartbeat IPC: 0.233458 cumulative IPC: 0.390626 (Simulation time: 1 hr 9 min 22 sec) 
Heartbeat CPU 0 instructions: 272000002 cycles: 696412579 heartbeat IPC: 0.519353 cumulative IPC: 0.390996 (Simulation time: 1 hr 9 min 34 sec) 
Heartbeat CPU 0 instructions: 273000000 cycles: 697417659 heartbeat IPC: 0.994944 cumulative IPC: 0.3919 (Simulation time: 1 hr 9 min 42 sec) 
Heartbeat CPU 0 instructions: 274000000 cycles: 700160334 heartbeat IPC: 0.364608 cumulative IPC: 0.391789 (Simulation time: 1 hr 9 min 55 sec) 
Heartbeat CPU 0 instructions: 275000000 cycles: 702352161 heartbeat IPC: 0.45624 cumulative IPC: 0.391998 (Simulation time: 1 hr 10 min 10 sec) 
Heartbeat CPU 0 instructions: 276000000 cycles: 705632965 heartbeat IPC: 0.304803 cumulative IPC: 0.391577 (Simulation time: 1 hr 10 min 27 sec) 
Heartbeat CPU 0 instructions: 277000002 cycles: 707492372 heartbeat IPC: 0.537807 cumulative IPC: 0.391976 (Simulation time: 1 hr 10 min 40 sec) 
Heartbeat CPU 0 instructions: 278000002 cycles: 711175045 heartbeat IPC: 0.271542 cumulative IPC: 0.391329 (Simulation time: 1 hr 11 min 3 sec) 
Heartbeat CPU 0 instructions: 279000000 cycles: 714074875 heartbeat IPC: 0.344847 cumulative IPC: 0.391133 (Simulation time: 1 hr 11 min 20 sec) 
Heartbeat CPU 0 instructions: 280000003 cycles: 715098382 heartbeat IPC: 0.977036 cumulative IPC: 0.392003 (Simulation time: 1 hr 11 min 29 sec) 
Heartbeat CPU 0 instructions: 281000001 cycles: 717115246 heartbeat IPC: 0.495818 cumulative IPC: 0.392306 (Simulation time: 1 hr 11 min 40 sec) 
Heartbeat CPU 0 instructions: 282000001 cycles: 719387879 heartbeat IPC: 0.440018 cumulative IPC: 0.392463 (Simulation time: 1 hr 11 min 55 sec) 
Heartbeat CPU 0 instructions: 283000003 cycles: 722104665 heartbeat IPC: 0.368083 cumulative IPC: 0.392368 (Simulation time: 1 hr 12 min 10 sec) 
Heartbeat CPU 0 instructions: 284000002 cycles: 724979497 heartbeat IPC: 0.347846 cumulative IPC: 0.392184 (Simulation time: 1 hr 12 min 25 sec) 
Heartbeat CPU 0 instructions: 285000001 cycles: 727065403 heartbeat IPC: 0.479408 cumulative IPC: 0.392444 (Simulation time: 1 hr 12 min 39 sec) 
Heartbeat CPU 0 instructions: 286000000 cycles: 731451062 heartbeat IPC: 0.228016 cumulative IPC: 0.391421 (Simulation time: 1 hr 13 min 7 sec) 
Heartbeat CPU 0 instructions: 287000000 cycles: 732587833 heartbeat IPC: 0.879685 cumulative IPC: 0.392207 (Simulation time: 1 hr 13 min 15 sec) 
Heartbeat CPU 0 instructions: 288000000 cycles: 733557840 heartbeat IPC: 1.03092 cumulative IPC: 0.393083 (Simulation time: 1 hr 13 min 24 sec) 
Heartbeat CPU 0 instructions: 289000000 cycles: 736514523 heartbeat IPC: 0.338217 cumulative IPC: 0.392855 (Simulation time: 1 hr 13 min 38 sec) 
Heartbeat CPU 0 instructions: 290000003 cycles: 739108836 heartbeat IPC: 0.38546 cumulative IPC: 0.392828 (Simulation time: 1 hr 13 min 53 sec) 
Heartbeat CPU 0 instructions: 291000001 cycles: 741665999 heartbeat IPC: 0.391058 cumulative IPC: 0.392822 (Simulation time: 1 hr 14 min 13 sec) 
Heartbeat CPU 0 instructions: 292000000 cycles: 744497284 heartbeat IPC: 0.353196 cumulative IPC: 0.392665 (Simulation time: 1 hr 14 min 28 sec) 
Heartbeat CPU 0 instructions: 293000003 cycles: 746352250 heartbeat IPC: 0.539095 cumulative IPC: 0.393043 (Simulation time: 1 hr 14 min 42 sec) 
Heartbeat CPU 0 instructions: 294000001 cycles: 750703195 heartbeat IPC: 0.229835 cumulative IPC: 0.392062 (Simulation time: 1 hr 15 min 10 sec) 
Heartbeat CPU 0 instructions: 295000002 cycles: 752295302 heartbeat IPC: 0.628099 cumulative IPC: 0.39258 (Simulation time: 1 hr 15 min 21 sec) 
Heartbeat CPU 0 instructions: 296000002 cycles: 753275233 heartbeat IPC: 1.02048 cumulative IPC: 0.393426 (Simulation time: 1 hr 15 min 29 sec) 
Heartbeat CPU 0 instructions: 297000000 cycles: 756133745 heartbeat IPC: 0.349832 cumulative IPC: 0.393256 (Simulation time: 1 hr 15 min 43 sec) 
Heartbeat CPU 0 instructions: 298000002 cycles: 758497307 heartbeat IPC: 0.423091 cumulative IPC: 0.393352 (Simulation time: 1 hr 15 min 57 sec) 
Heartbeat CPU 0 instructions: 299000003 cycles: 761338185 heartbeat IPC: 0.352004 cumulative IPC: 0.393192 (Simulation time: 1 hr 16 min 13 sec) 
Heartbeat CPU 0 instructions: 300000000 cycles: 762954374 heartbeat IPC: 0.618738 cumulative IPC: 0.393687 (Simulation time: 1 hr 16 min 25 sec) 
Heartbeat CPU 0 instructions: 301000001 cycles: 767066919 heartbeat IPC: 0.243159 cumulative IPC: 0.392851 (Simulation time: 1 hr 16 min 51 sec) 
Heartbeat CPU 0 instructions: 302000001 cycles: 769460557 heartbeat IPC: 0.417774 cumulative IPC: 0.392932 (Simulation time: 1 hr 17 min 7 sec) 
Heartbeat CPU 0 instructions: 303000000 cycles: 770466912 heartbeat IPC: 0.993684 cumulative IPC: 0.393744 (Simulation time: 1 hr 17 min 15 sec) 
Heartbeat CPU 0 instructions: 304000002 cycles: 772859057 heartbeat IPC: 0.418036 cumulative IPC: 0.393822 (Simulation time: 1 hr 17 min 27 sec) 
Heartbeat CPU 0 instructions: 305000001 cycles: 774926618 heartbeat IPC: 0.483661 cumulative IPC: 0.39407 (Simulation time: 1 hr 17 min 42 sec) 
Heartbeat CPU 0 instructions: 306000000 cycles: 778241717 heartbeat IPC: 0.30165 cumulative IPC: 0.393663 (Simulation time: 1 hr 18 min 4 sec) 
Heartbeat CPU 0 instructions: 307000001 cycles: 780964891 heartbeat IPC: 0.367219 cumulative IPC: 0.393567 (Simulation time: 1 hr 18 min 19 sec) 
Heartbeat CPU 0 instructions: 308000000 cycles: 783185247 heartbeat IPC: 0.450378 cumulative IPC: 0.393734 (Simulation time: 1 hr 18 min 35 sec) 
Heartbeat CPU 0 instructions: 309000000 cycles: 787532275 heartbeat IPC: 0.230042 cumulative IPC: 0.392799 (Simulation time: 1 hr 19 min 3 sec) 
Heartbeat CPU 0 instructions: 310000003 cycles: 788547129 heartbeat IPC: 0.985366 cumulative IPC: 0.393588 (Simulation time: 1 hr 19 min 11 sec) 
Heartbeat CPU 0 instructions: 311000000 cycles: 789503625 heartbeat IPC: 1.04548 cumulative IPC: 0.394405 (Simulation time: 1 hr 19 min 19 sec) 
Heartbeat CPU 0 instructions: 312000002 cycles: 792356441 heartbeat IPC: 0.350532 cumulative IPC: 0.394242 (Simulation time: 1 hr 19 min 35 sec) 
Heartbeat CPU 0 instructions: 313000002 cycles: 795014833 heartbeat IPC: 0.376167 cumulative IPC: 0.394179 (Simulation time: 1 hr 19 min 51 sec) 
Heartbeat CPU 0 instructions: 314000000 cycles: 798374764 heartbeat IPC: 0.297625 cumulative IPC: 0.393759 (Simulation time: 1 hr 20 min 14 sec) 
Heartbeat CPU 0 instructions: 315000001 cycles: 800275172 heartbeat IPC: 0.526203 cumulative IPC: 0.394084 (Simulation time: 1 hr 20 min 27 sec) 
Heartbeat CPU 0 instructions: 316000000 cycles: 804027479 heartbeat IPC: 0.266502 cumulative IPC: 0.393468 (Simulation time: 1 hr 20 min 51 sec) 
Heartbeat CPU 0 instructions: 317000001 cycles: 806624886 heartbeat IPC: 0.385 cumulative IPC: 0.39344 (Simulation time: 1 hr 21 min 8 sec) 
Heartbeat CPU 0 instructions: 318000000 cycles: 807655525 heartbeat IPC: 0.970271 cumulative IPC: 0.394201 (Simulation time: 1 hr 21 min 16 sec) 
Heartbeat CPU 0 instructions: 319000000 cycles: 809806721 heartbeat IPC: 0.464858 cumulative IPC: 0.394395 (Simulation time: 1 hr 21 min 28 sec) 
Heartbeat CPU 0 instructions: 320000002 cycles: 811952409 heartbeat IPC: 0.466052 cumulative IPC: 0.394591 (Simulation time: 1 hr 21 min 43 sec) 
Heartbeat CPU 0 instructions: 321000001 cycles: 815573847 heartbeat IPC: 0.276133 cumulative IPC: 0.394047 (Simulation time: 1 hr 22 min 6 sec) 
Heartbeat CPU 0 instructions: 322000001 cycles: 818251824 heartbeat IPC: 0.373416 cumulative IPC: 0.393978 (Simulation time: 1 hr 22 min 21 sec) 
Heartbeat CPU 0 instructions: 323000000 cycles: 820506071 heartbeat IPC: 0.443607 cumulative IPC: 0.394118 (Simulation time: 1 hr 22 min 38 sec) 
Heartbeat CPU 0 instructions: 324000000 cycles: 824884711 heartbeat IPC: 0.228381 cumulative IPC: 0.39321 (Simulation time: 1 hr 23 min 5 sec) 
Heartbeat CPU 0 instructions: 325000000 cycles: 825895754 heartbeat IPC: 0.989078 cumulative IPC: 0.393963 (Simulation time: 1 hr 23 min 13 sec) 
Heartbeat CPU 0 instructions: 326000000 cycles: 826839079 heartbeat IPC: 1.06008 cumulative IPC: 0.394748 (Simulation time: 1 hr 23 min 21 sec) 
Heartbeat CPU 0 instructions: 327000003 cycles: 829677744 heartbeat IPC: 0.352279 cumulative IPC: 0.394598 (Simulation time: 1 hr 23 min 37 sec) 
Heartbeat CPU 0 instructions: 328000002 cycles: 832376651 heartbeat IPC: 0.37052 cumulative IPC: 0.394517 (Simulation time: 1 hr 23 min 53 sec) 
Heartbeat CPU 0 instructions: 329000000 cycles: 835667955 heartbeat IPC: 0.30383 cumulative IPC: 0.394149 (Simulation time: 1 hr 24 min 16 sec) 
Heartbeat CPU 0 instructions: 330000000 cycles: 837688340 heartbeat IPC: 0.494955 cumulative IPC: 0.3944 (Simulation time: 1 hr 24 min 29 sec) 
Heartbeat CPU 0 instructions: 331000002 cycles: 841400545 heartbeat IPC: 0.269382 cumulative IPC: 0.39383 (Simulation time: 1 hr 24 min 53 sec) 
Heartbeat CPU 0 instructions: 332000000 cycles: 844071587 heartbeat IPC: 0.374385 cumulative IPC: 0.393767 (Simulation time: 1 hr 25 min 9 sec) 
Heartbeat CPU 0 instructions: 333000000 cycles: 845087133 heartbeat IPC: 0.984692 cumulative IPC: 0.3945 (Simulation time: 1 hr 25 min 17 sec) 
Heartbeat CPU 0 instructions: 334000002 cycles: 847106833 heartbeat IPC: 0.495124 cumulative IPC: 0.394747 (Simulation time: 1 hr 25 min 29 sec) 
Heartbeat CPU 0 instructions: 335000001 cycles: 849240300 heartbeat IPC: 0.46872 cumulative IPC: 0.394939 (Simulation time: 1 hr 25 min 44 sec) 
Heartbeat CPU 0 instructions: 336000001 cycles: 852851329 heartbeat IPC: 0.276929 cumulative IPC: 0.394424 (Simulation time: 1 hr 26 min 7 sec) 
Heartbeat CPU 0 instructions: 337000001 cycles: 858997055 heartbeat IPC: 0.162715 cumulative IPC: 0.392713 (Simulation time: 1 hr 26 min 27 sec) 
Heartbeat CPU 0 instructions: 338000002 cycles: 863311407 heartbeat IPC: 0.231785 cumulative IPC: 0.391884 (Simulation time: 1 hr 26 min 45 sec) 
Heartbeat CPU 0 instructions: 339000000 cycles: 867511081 heartbeat IPC: 0.238113 cumulative IPC: 0.391116 (Simulation time: 1 hr 27 min 8 sec) 
Heartbeat CPU 0 instructions: 340000001 cycles: 872642600 heartbeat IPC: 0.194874 cumulative IPC: 0.389926 (Simulation time: 1 hr 27 min 29 sec) 
Heartbeat CPU 0 instructions: 341000000 cycles: 876130957 heartbeat IPC: 0.286668 cumulative IPC: 0.389502 (Simulation time: 1 hr 27 min 46 sec) 
Heartbeat CPU 0 instructions: 342000002 cycles: 879551061 heartbeat IPC: 0.292389 cumulative IPC: 0.389113 (Simulation time: 1 hr 28 min 6 sec) 
Heartbeat CPU 0 instructions: 343000000 cycles: 882353673 heartbeat IPC: 0.356809 cumulative IPC: 0.389007 (Simulation time: 1 hr 28 min 17 sec) 
Heartbeat CPU 0 instructions: 344000003 cycles: 885096108 heartbeat IPC: 0.364641 cumulative IPC: 0.388929 (Simulation time: 1 hr 28 min 31 sec) 
Heartbeat CPU 0 instructions: 345000000 cycles: 887189937 heartbeat IPC: 0.477592 cumulative IPC: 0.389145 (Simulation time: 1 hr 28 min 43 sec) 
Heartbeat CPU 0 instructions: 346000000 cycles: 889571434 heartbeat IPC: 0.419904 cumulative IPC: 0.38923 (Simulation time: 1 hr 28 min 56 sec) 
Heartbeat CPU 0 instructions: 347000003 cycles: 891068883 heartbeat IPC: 0.667804 cumulative IPC: 0.389712 (Simulation time: 1 hr 29 min 8 sec) 
Heartbeat CPU 0 instructions: 348000001 cycles: 892466663 heartbeat IPC: 0.715419 cumulative IPC: 0.390238 (Simulation time: 1 hr 29 min 20 sec) 
Heartbeat CPU 0 instructions: 349000003 cycles: 893783491 heartbeat IPC: 0.759402 cumulative IPC: 0.390798 (Simulation time: 1 hr 29 min 32 sec) 
Heartbeat CPU 0 instructions: 350000002 cycles: 895571885 heartbeat IPC: 0.55916 cumulative IPC: 0.391145 (Simulation time: 1 hr 29 min 45 sec) 
Heartbeat CPU 0 instructions: 351000002 cycles: 898421180 heartbeat IPC: 0.350964 cumulative IPC: 0.391014 (Simulation time: 1 hr 30 min 3 sec) 
Heartbeat CPU 0 instructions: 352000000 cycles: 900770275 heartbeat IPC: 0.425695 cumulative IPC: 0.391107 (Simulation time: 1 hr 30 min 17 sec) 
Heartbeat CPU 0 instructions: 353000002 cycles: 903706118 heartbeat IPC: 0.340618 cumulative IPC: 0.390938 (Simulation time: 1 hr 30 min 35 sec) 
Heartbeat CPU 0 instructions: 354000002 cycles: 905389962 heartbeat IPC: 0.593879 cumulative IPC: 0.391327 (Simulation time: 1 hr 30 min 47 sec) 
Heartbeat CPU 0 instructions: 355000001 cycles: 909404013 heartbeat IPC: 0.249125 cumulative IPC: 0.39068 (Simulation time: 1 hr 31 min 13 sec) 
Heartbeat CPU 0 instructions: 356000003 cycles: 911970362 heartbeat IPC: 0.389659 cumulative IPC: 0.390677 (Simulation time: 1 hr 31 min 28 sec) 
Heartbeat CPU 0 instructions: 357000000 cycles: 912980921 heartbeat IPC: 0.989548 cumulative IPC: 0.39136 (Simulation time: 1 hr 31 min 36 sec) 
Heartbeat CPU 0 instructions: 358000000 cycles: 915389594 heartbeat IPC: 0.415166 cumulative IPC: 0.391424 (Simulation time: 1 hr 31 min 48 sec) 
Heartbeat CPU 0 instructions: 359000002 cycles: 917458240 heartbeat IPC: 0.483409 cumulative IPC: 0.391638 (Simulation time: 1 hr 32 min 3 sec) 
Heartbeat CPU 0 instructions: 360000001 cycles: 921115397 heartbeat IPC: 0.273436 cumulative IPC: 0.391155 (Simulation time: 1 hr 32 min 27 sec) 
Heartbeat CPU 0 instructions: 361000000 cycles: 923793232 heartbeat IPC: 0.373436 cumulative IPC: 0.391102 (Simulation time: 1 hr 32 min 40 sec) 
Heartbeat CPU 0 instructions: 362000001 cycles: 926430092 heartbeat IPC: 0.379239 cumulative IPC: 0.391067 (Simulation time: 1 hr 32 min 58 sec) 
Heartbeat CPU 0 instructions: 363000000 cycles: 930196398 heartbeat IPC: 0.265512 cumulative IPC: 0.390544 (Simulation time: 1 hr 33 min 21 sec) 
Heartbeat CPU 0 instructions: 364000002 cycles: 931219030 heartbeat IPC: 0.977871 cumulative IPC: 0.391208 (Simulation time: 1 hr 33 min 29 sec) 
Heartbeat CPU 0 instructions: 365000002 cycles: 932349024 heartbeat IPC: 0.88496 cumulative IPC: 0.391823 (Simulation time: 1 hr 33 min 39 sec) 
Heartbeat CPU 0 instructions: 366000001 cycles: 934930204 heartbeat IPC: 0.387419 cumulative IPC: 0.391811 (Simulation time: 1 hr 33 min 53 sec) 
Heartbeat CPU 0 instructions: 367000003 cycles: 938080291 heartbeat IPC: 0.317452 cumulative IPC: 0.391554 (Simulation time: 1 hr 34 min 9 sec) 
Heartbeat CPU 0 instructions: 368000002 cycles: 941469466 heartbeat IPC: 0.295057 cumulative IPC: 0.391197 (Simulation time: 1 hr 34 min 30 sec) 
Heartbeat CPU 0 instructions: 369000000 cycles: 943302604 heartbeat IPC: 0.545512 cumulative IPC: 0.391505 (Simulation time: 1 hr 34 min 45 sec) 
Heartbeat CPU 0 instructions: 370000002 cycles: 947695797 heartbeat IPC: 0.227625 cumulative IPC: 0.390724 (Simulation time: 1 hr 35 min 12 sec) 
Heartbeat CPU 0 instructions: 371000003 cycles: 949325397 heartbeat IPC: 0.613648 cumulative IPC: 0.391117 (Simulation time: 1 hr 35 min 22 sec) 
Heartbeat CPU 0 instructions: 372000000 cycles: 950304222 heartbeat IPC: 1.02163 cumulative IPC: 0.391785 (Simulation time: 1 hr 35 min 30 sec) 
Heartbeat CPU 0 instructions: 373000003 cycles: 953036482 heartbeat IPC: 0.365998 cumulative IPC: 0.391709 (Simulation time: 1 hr 35 min 45 sec) 
Heartbeat CPU 0 instructions: 374000000 cycles: 955281218 heartbeat IPC: 0.445485 cumulative IPC: 0.391839 (Simulation time: 1 hr 36 min 0 sec) 
Heartbeat CPU 0 instructions: 375000002 cycles: 958254719 heartbeat IPC: 0.336305 cumulative IPC: 0.391662 (Simulation time: 1 hr 36 min 23 sec) 
Heartbeat CPU 0 instructions: 376000000 cycles: 960929352 heartbeat IPC: 0.373882 cumulative IPC: 0.391611 (Simulation time: 1 hr 36 min 37 sec) 
Heartbeat CPU 0 instructions: 377000000 cycles: 964164249 heartbeat IPC: 0.309129 cumulative IPC: 0.391327 (Simulation time: 1 hr 36 min 57 sec) 
Heartbeat CPU 0 instructions: 378000003 cycles: 967387274 heartbeat IPC: 0.310268 cumulative IPC: 0.391049 (Simulation time: 1 hr 37 min 18 sec) 
Heartbeat CPU 0 instructions: 379000000 cycles: 968408274 heartbeat IPC: 0.979429 cumulative IPC: 0.391687 (Simulation time: 1 hr 37 min 25 sec) 
Heartbeat CPU 0 instructions: 380000000 cycles: 969986521 heartbeat IPC: 0.633614 cumulative IPC: 0.392091 (Simulation time: 1 hr 37 min 36 sec) 
Heartbeat CPU 0 instructions: 381000003 cycles: 972149561 heartbeat IPC: 0.462314 cumulative IPC: 0.392252 (Simulation time: 1 hr 37 min 50 sec) 
Heartbeat CPU 0 instructions: 382000001 cycles: 975764408 heartbeat IPC: 0.276636 cumulative IPC: 0.391812 (Simulation time: 1 hr 38 min 11 sec) 
Heartbeat CPU 0 instructions: 383000000 cycles: 978769795 heartbeat IPC: 0.332736 cumulative IPC: 0.391625 (Simulation time: 1 hr 38 min 29 sec) 
Heartbeat CPU 0 instructions: 384000003 cycles: 980845123 heartbeat IPC: 0.481853 cumulative IPC: 0.391821 (Simulation time: 1 hr 38 min 44 sec) 
Heartbeat CPU 0 instructions: 385000000 cycles: 985278731 heartbeat IPC: 0.225549 cumulative IPC: 0.391053 (Simulation time: 1 hr 39 min 11 sec) 
Heartbeat CPU 0 instructions: 386000000 cycles: 986646780 heartbeat IPC: 0.730968 cumulative IPC: 0.391537 (Simulation time: 1 hr 39 min 20 sec) 
Heartbeat CPU 0 instructions: 387000001 cycles: 987594971 heartbeat IPC: 1.05464 cumulative IPC: 0.392191 (Simulation time: 1 hr 39 min 29 sec) 
Heartbeat CPU 0 instructions: 388000002 cycles: 990425488 heartbeat IPC: 0.353293 cumulative IPC: 0.392077 (Simulation time: 1 hr 39 min 44 sec) 
Heartbeat CPU 0 instructions: 389000000 cycles: 992837640 heartbeat IPC: 0.414567 cumulative IPC: 0.392133 (Simulation time: 1 hr 39 min 59 sec) 
Heartbeat CPU 0 instructions: 390000000 cycles: 995926811 heartbeat IPC: 0.323711 cumulative IPC: 0.391915 (Simulation time: 1 hr 40 min 22 sec) 
Heartbeat CPU 0 instructions: 391000003 cycles: 998517900 heartbeat IPC: 0.385939 cumulative IPC: 0.391899 (Simulation time: 1 hr 40 min 36 sec) 
Heartbeat CPU 0 instructions: 392000002 cycles: 1001690172 heartbeat IPC: 0.315231 cumulative IPC: 0.39165 (Simulation time: 1 hr 40 min 57 sec) 
Heartbeat CPU 0 instructions: 393000002 cycles: 1004888172 heartbeat IPC: 0.312695 cumulative IPC: 0.391392 (Simulation time: 1 hr 41 min 17 sec) 
Heartbeat CPU 0 instructions: 394000000 cycles: 1005904830 heartbeat IPC: 0.983613 cumulative IPC: 0.392006 (Simulation time: 1 hr 41 min 25 sec) 
Heartbeat CPU 0 instructions: 395000002 cycles: 1007513415 heartbeat IPC: 0.621666 cumulative IPC: 0.392383 (Simulation time: 1 hr 41 min 36 sec) 
Heartbeat CPU 0 instructions: 396000000 cycles: 1009557086 heartbeat IPC: 0.489315 cumulative IPC: 0.392584 (Simulation time: 1 hr 41 min 50 sec) 
Heartbeat CPU 0 instructions: 397000003 cycles: 1013062071 heartbeat IPC: 0.285309 cumulative IPC: 0.392203 (Simulation time: 1 hr 42 min 10 sec) 
Heartbeat CPU 0 instructions: 398000000 cycles: 1016150561 heartbeat IPC: 0.323782 cumulative IPC: 0.39199 (Simulation time: 1 hr 42 min 28 sec) 
Heartbeat CPU 0 instructions: 399000003 cycles: 1018201850 heartbeat IPC: 0.4875 cumulative IPC: 0.392187 (Simulation time: 1 hr 42 min 44 sec) 
Heartbeat CPU 0 instructions: 400000001 cycles: 1022566885 heartbeat IPC: 0.229093 cumulative IPC: 0.391473 (Simulation time: 1 hr 43 min 11 sec) 
Heartbeat CPU 0 instructions: 401000001 cycles: 1023947434 heartbeat IPC: 0.724349 cumulative IPC: 0.391933 (Simulation time: 1 hr 43 min 20 sec) 
Heartbeat CPU 0 instructions: 402000000 cycles: 1024874007 heartbeat IPC: 1.07924 cumulative IPC: 0.392571 (Simulation time: 1 hr 43 min 28 sec) 
Heartbeat CPU 0 instructions: 403000002 cycles: 1027659752 heartbeat IPC: 0.358971 cumulative IPC: 0.392478 (Simulation time: 1 hr 43 min 43 sec) 
Heartbeat CPU 0 instructions: 404000001 cycles: 1030069160 heartbeat IPC: 0.415039 cumulative IPC: 0.392532 (Simulation time: 1 hr 43 min 58 sec) 
Heartbeat CPU 0 instructions: 405000002 cycles: 1033378637 heartbeat IPC: 0.302163 cumulative IPC: 0.392235 (Simulation time: 1 hr 44 min 22 sec) 
Heartbeat CPU 0 instructions: 406000002 cycles: 1035798281 heartbeat IPC: 0.413284 cumulative IPC: 0.392285 (Simulation time: 1 hr 44 min 36 sec) 
Heartbeat CPU 0 instructions: 407000000 cycles: 1039094704 heartbeat IPC: 0.303359 cumulative IPC: 0.391996 (Simulation time: 1 hr 44 min 58 sec) 
Heartbeat CPU 0 instructions: 408000002 cycles: 1042270533 heartbeat IPC: 0.314879 cumulative IPC: 0.391755 (Simulation time: 1 hr 45 min 17 sec) 
Heartbeat CPU 0 instructions: 409000001 cycles: 1043276863 heartbeat IPC: 0.993709 cumulative IPC: 0.39235 (Simulation time: 1 hr 45 min 26 sec) 
Heartbeat CPU 0 instructions: 410000000 cycles: 1044986416 heartbeat IPC: 0.584948 cumulative IPC: 0.392674 (Simulation time: 1 hr 45 min 37 sec) 
Heartbeat CPU 0 instructions: 411000001 cycles: 1046970734 heartbeat IPC: 0.503952 cumulative IPC: 0.39289 (Simulation time: 1 hr 45 min 50 sec) 
Heartbeat CPU 0 instructions: 412000000 cycles: 1050346465 heartbeat IPC: 0.296232 cumulative IPC: 0.392571 (Simulation time: 1 hr 46 min 9 sec) 
Heartbeat CPU 0 instructions: 413000000 cycles: 1053715018 heartbeat IPC: 0.296863 cumulative IPC: 0.392257 (Simulation time: 1 hr 46 min 29 sec) 
Heartbeat CPU 0 instructions: 414000001 cycles: 1055635487 heartbeat IPC: 0.520707 cumulative IPC: 0.392497 (Simulation time: 1 hr 46 min 44 sec) 
Heartbeat CPU 0 instructions: 415000000 cycles: 1059971617 heartbeat IPC: 0.23062 cumulative IPC: 0.391818 (Simulation time: 1 hr 47 min 11 sec) 
Heartbeat CPU 0 instructions: 416000000 cycles: 1061557037 heartbeat IPC: 0.630748 cumulative IPC: 0.392184 (Simulation time: 1 hr 47 min 22 sec) 
Heartbeat CPU 0 instructions: 417000002 cycles: 1062549436 heartbeat IPC: 1.00766 cumulative IPC: 0.392773 (Simulation time: 1 hr 47 min 30 sec) 
Heartbeat CPU 0 instructions: 418000000 cycles: 1065346675 heartbeat IPC: 0.357495 cumulative IPC: 0.392678 (Simulation time: 1 hr 47 min 45 sec) 
Heartbeat CPU 0 instructions: 419000000 cycles: 1067354912 heartbeat IPC: 0.497949 cumulative IPC: 0.392882 (Simulation time: 1 hr 47 min 59 sec) 
Heartbeat CPU 0 instructions: 420000001 cycles: 1070753967 heartbeat IPC: 0.2942 cumulative IPC: 0.39256 (Simulation time: 1 hr 48 min 23 sec) 
Heartbeat CPU 0 instructions: 421000003 cycles: 1073401933 heartbeat IPC: 0.377649 cumulative IPC: 0.392523 (Simulation time: 1 hr 48 min 37 sec) 
Heartbeat CPU 0 instructions: 422000000 cycles: 1076471668 heartbeat IPC: 0.32576 cumulative IPC: 0.392327 (Simulation time: 1 hr 48 min 58 sec) 
Heartbeat CPU 0 instructions: 423000000 cycles: 1079841593 heartbeat IPC: 0.296742 cumulative IPC: 0.392022 (Simulation time: 1 hr 49 min 18 sec) 
Heartbeat CPU 0 instructions: 424000003 cycles: 1080892895 heartbeat IPC: 0.951204 cumulative IPC: 0.392579 (Simulation time: 1 hr 49 min 26 sec) 
Heartbeat CPU 0 instructions: 425000000 cycles: 1082157657 heartbeat IPC: 0.79066 cumulative IPC: 0.393056 (Simulation time: 1 hr 49 min 36 sec) 
Heartbeat CPU 0 instructions: 426000000 cycles: 1085636854 heartbeat IPC: 0.287423 cumulative IPC: 0.392709 (Simulation time: 1 hr 49 min 51 sec) 
Heartbeat CPU 0 instructions: 427000002 cycles: 1088121199 heartbeat IPC: 0.402521 cumulative IPC: 0.392732 (Simulation time: 1 hr 50 min 6 sec) 
Heartbeat CPU 0 instructions: 428000000 cycles: 1091067606 heartbeat IPC: 0.339396 cumulative IPC: 0.392584 (Simulation time: 1 hr 50 min 31 sec) 
Heartbeat CPU 0 instructions: 429000000 cycles: 1099027194 heartbeat IPC: 0.125635 cumulative IPC: 0.390604 (Simulation time: 1 hr 50 min 50 sec) 
Heartbeat CPU 0 instructions: 430000003 cycles: 1101458384 heartbeat IPC: 0.411322 cumulative IPC: 0.390651 (Simulation time: 1 hr 51 min 9 sec) 
Heartbeat CPU 0 instructions: 431000003 cycles: 1106359257 heartbeat IPC: 0.204045 cumulative IPC: 0.389804 (Simulation time: 1 hr 51 min 33 sec) 
Heartbeat CPU 0 instructions: 432000003 cycles: 1110974076 heartbeat IPC: 0.216693 cumulative IPC: 0.389067 (Simulation time: 1 hr 51 min 52 sec) 
Heartbeat CPU 0 instructions: 433000000 cycles: 1114377153 heartbeat IPC: 0.293851 cumulative IPC: 0.388769 (Simulation time: 1 hr 52 min 10 sec) 
Heartbeat CPU 0 instructions: 434000003 cycles: 1118152136 heartbeat IPC: 0.264903 cumulative IPC: 0.388341 (Simulation time: 1 hr 52 min 29 sec) 
Heartbeat CPU 0 instructions: 435000002 cycles: 1120897169 heartbeat IPC: 0.364294 cumulative IPC: 0.388281 (Simulation time: 1 hr 52 min 40 sec) 
Heartbeat CPU 0 instructions: 436000000 cycles: 1123504045 heartbeat IPC: 0.3836 cumulative IPC: 0.38827 (Simulation time: 1 hr 52 min 54 sec) 
Heartbeat CPU 0 instructions: 437000001 cycles: 1125522388 heartbeat IPC: 0.495456 cumulative IPC: 0.388467 (Simulation time: 1 hr 53 min 5 sec) 
Heartbeat CPU 0 instructions: 438000003 cycles: 1127975914 heartbeat IPC: 0.407578 cumulative IPC: 0.388509 (Simulation time: 1 hr 53 min 19 sec) 
Heartbeat CPU 0 instructions: 439000003 cycles: 1129362572 heartbeat IPC: 0.721158 cumulative IPC: 0.388927 (Simulation time: 1 hr 53 min 30 sec) 
Heartbeat CPU 0 instructions: 440000000 cycles: 1130517000 heartbeat IPC: 0.866227 cumulative IPC: 0.389426 (Simulation time: 1 hr 53 min 43 sec) 
Heartbeat CPU 0 instructions: 441000003 cycles: 1131937324 heartbeat IPC: 0.704067 cumulative IPC: 0.38983 (Simulation time: 1 hr 53 min 55 sec) 
Heartbeat CPU 0 instructions: 442000002 cycles: 1134217238 heartbeat IPC: 0.438613 cumulative IPC: 0.389931 (Simulation time: 1 hr 54 min 10 sec) 
Heartbeat CPU 0 instructions: 443000000 cycles: 1136988605 heartbeat IPC: 0.360832 cumulative IPC: 0.389858 (Simulation time: 1 hr 54 min 28 sec) 
Heartbeat CPU 0 instructions: 444000002 cycles: 1139243660 heartbeat IPC: 0.443449 cumulative IPC: 0.389967 (Simulation time: 1 hr 54 min 42 sec) 
Heartbeat CPU 0 instructions: 445000002 cycles: 1142364047 heartbeat IPC: 0.320473 cumulative IPC: 0.389773 (Simulation time: 1 hr 55 min 0 sec) 
Heartbeat CPU 0 instructions: 446000003 cycles: 1144060088 heartbeat IPC: 0.589609 cumulative IPC: 0.390076 (Simulation time: 1 hr 55 min 13 sec) 
Heartbeat CPU 0 instructions: 447000002 cycles: 1148421354 heartbeat IPC: 0.229291 cumulative IPC: 0.389451 (Simulation time: 1 hr 55 min 39 sec) 
Heartbeat CPU 0 instructions: 448000000 cycles: 1150491956 heartbeat IPC: 0.48295 cumulative IPC: 0.389623 (Simulation time: 1 hr 55 min 52 sec) 
Heartbeat CPU 0 instructions: 449000001 cycles: 1151514319 heartbeat IPC: 0.978127 cumulative IPC: 0.390158 (Simulation time: 1 hr 56 min 1 sec) 
Heartbeat CPU 0 instructions: 450000001 cycles: 1153880883 heartbeat IPC: 0.422554 cumulative IPC: 0.390226 (Simulation time: 1 hr 56 min 12 sec) 
Heartbeat CPU 0 instructions: 451000000 cycles: 1156305994 heartbeat IPC: 0.412352 cumulative IPC: 0.390273 (Simulation time: 1 hr 56 min 26 sec) 
Heartbeat CPU 0 instructions: 452000003 cycles: 1159615977 heartbeat IPC: 0.302117 cumulative IPC: 0.390016 (Simulation time: 1 hr 56 min 44 sec) 
Heartbeat CPU 0 instructions: 453000003 cycles: 1163123124 heartbeat IPC: 0.285132 cumulative IPC: 0.389692 (Simulation time: 1 hr 57 min 7 sec) 
Heartbeat CPU 0 instructions: 454000001 cycles: 1164696229 heartbeat IPC: 0.635684 cumulative IPC: 0.390032 (Simulation time: 1 hr 57 min 20 sec) 
Heartbeat CPU 0 instructions: 455000003 cycles: 1168972628 heartbeat IPC: 0.233842 cumulative IPC: 0.389448 (Simulation time: 1 hr 57 min 46 sec) 
Heartbeat CPU 0 instructions: 456000003 cycles: 1171206594 heartbeat IPC: 0.447634 cumulative IPC: 0.389561 (Simulation time: 1 hr 58 min 0 sec) 
Heartbeat CPU 0 instructions: 457000002 cycles: 1172234940 heartbeat IPC: 0.972434 cumulative IPC: 0.390084 (Simulation time: 1 hr 58 min 9 sec) 
Heartbeat CPU 0 instructions: 458000000 cycles: 1174421914 heartbeat IPC: 0.457252 cumulative IPC: 0.390212 (Simulation time: 1 hr 58 min 20 sec) 
Heartbeat CPU 0 instructions: 459000000 cycles: 1176887292 heartbeat IPC: 0.405617 cumulative IPC: 0.390245 (Simulation time: 1 hr 58 min 34 sec) 
Heartbeat CPU 0 instructions: 460000001 cycles: 1180091409 heartbeat IPC: 0.312099 cumulative IPC: 0.390028 (Simulation time: 1 hr 58 min 52 sec) 
Heartbeat CPU 0 instructions: 461000001 cycles: 1183648736 heartbeat IPC: 0.28111 cumulative IPC: 0.389693 (Simulation time: 1 hr 59 min 16 sec) 
Heartbeat CPU 0 instructions: 462000000 cycles: 1185253437 heartbeat IPC: 0.623168 cumulative IPC: 0.390017 (Simulation time: 1 hr 59 min 29 sec) 
Heartbeat CPU 0 instructions: 463000002 cycles: 1189423373 heartbeat IPC: 0.239812 cumulative IPC: 0.389478 (Simulation time: 1 hr 59 min 54 sec) 
Heartbeat CPU 0 instructions: 464000003 cycles: 1191834993 heartbeat IPC: 0.414659 cumulative IPC: 0.38953 (Simulation time: 2 hr 0 min 10 sec) 
Heartbeat CPU 0 instructions: 465000000 cycles: 1192875285 heartbeat IPC: 0.961266 cumulative IPC: 0.39004 (Simulation time: 2 hr 0 min 18 sec) 
Heartbeat CPU 0 instructions: 466000000 cycles: 1194936480 heartbeat IPC: 0.485155 cumulative IPC: 0.390208 (Simulation time: 2 hr 0 min 30 sec) 
Heartbeat CPU 0 instructions: 467000001 cycles: 1197552172 heartbeat IPC: 0.382308 cumulative IPC: 0.39019 (Simulation time: 2 hr 0 min 43 sec) 
Heartbeat CPU 0 instructions: 468000001 cycles: 1200561491 heartbeat IPC: 0.332301 cumulative IPC: 0.390042 (Simulation time: 2 hr 1 min 0 sec) 
Heartbeat CPU 0 instructions: 469000000 cycles: 1204052180 heartbeat IPC: 0.286476 cumulative IPC: 0.389735 (Simulation time: 2 hr 1 min 25 sec) 
Heartbeat CPU 0 instructions: 470000002 cycles: 1205922467 heartbeat IPC: 0.534678 cumulative IPC: 0.389965 (Simulation time: 2 hr 1 min 38 sec) 
Heartbeat CPU 0 instructions: 471000000 cycles: 1209792422 heartbeat IPC: 0.2584 cumulative IPC: 0.389535 (Simulation time: 2 hr 2 min 3 sec) 
Heartbeat CPU 0 instructions: 472000002 cycles: 1212476237 heartbeat IPC: 0.372605 cumulative IPC: 0.389496 (Simulation time: 2 hr 2 min 20 sec) 
Heartbeat CPU 0 instructions: 473000000 cycles: 1213498240 heartbeat IPC: 0.978469 cumulative IPC: 0.390003 (Simulation time: 2 hr 2 min 28 sec) 
Heartbeat CPU 0 instructions: 474000000 cycles: 1215308800 heartbeat IPC: 0.552315 cumulative IPC: 0.39025 (Simulation time: 2 hr 2 min 39 sec) 
Heartbeat CPU 0 instructions: 475000000 cycles: 1218098482 heartbeat IPC: 0.358464 cumulative IPC: 0.390176 (Simulation time: 2 hr 2 min 53 sec) 
Heartbeat CPU 0 instructions: 476000002 cycles: 1220979207 heartbeat IPC: 0.347136 cumulative IPC: 0.390072 (Simulation time: 2 hr 3 min 10 sec) 
Heartbeat CPU 0 instructions: 477000003 cycles: 1224309152 heartbeat IPC: 0.300306 cumulative IPC: 0.389823 (Simulation time: 2 hr 3 min 34 sec) 
Heartbeat CPU 0 instructions: 478000001 cycles: 1226346372 heartbeat IPC: 0.490864 cumulative IPC: 0.389994 (Simulation time: 2 hr 3 min 48 sec) 
Heartbeat CPU 0 instructions: 479000002 cycles: 1230150853 heartbeat IPC: 0.262848 cumulative IPC: 0.389592 (Simulation time: 2 hr 4 min 11 sec) 
Heartbeat CPU 0 instructions: 480000000 cycles: 1232909097 heartbeat IPC: 0.362549 cumulative IPC: 0.389531 (Simulation time: 2 hr 4 min 29 sec) 
Heartbeat CPU 0 instructions: 481000001 cycles: 1233952947 heartbeat IPC: 0.957993 cumulative IPC: 0.390022 (Simulation time: 2 hr 4 min 37 sec) 
Heartbeat CPU 0 instructions: 482000002 cycles: 1235665491 heartbeat IPC: 0.583927 cumulative IPC: 0.390297 (Simulation time: 2 hr 4 min 48 sec) 
Heartbeat CPU 0 instructions: 483000002 cycles: 1238550998 heartbeat IPC: 0.34656 cumulative IPC: 0.390192 (Simulation time: 2 hr 5 min 3 sec) 
Heartbeat CPU 0 instructions: 484000000 cycles: 1241392808 heartbeat IPC: 0.351888 cumulative IPC: 0.390103 (Simulation time: 2 hr 5 min 19 sec) 
Heartbeat CPU 0 instructions: 485000003 cycles: 1244164940 heartbeat IPC: 0.360734 cumulative IPC: 0.390036 (Simulation time: 2 hr 5 min 35 sec) 
Heartbeat CPU 0 instructions: 486000000 cycles: 1246180418 heartbeat IPC: 0.496159 cumulative IPC: 0.390211 (Simulation time: 2 hr 5 min 50 sec) 
Heartbeat CPU 0 instructions: 487000001 cycles: 1250552273 heartbeat IPC: 0.228736 cumulative IPC: 0.389635 (Simulation time: 2 hr 6 min 15 sec) 
Heartbeat CPU 0 instructions: 488000000 cycles: 1252010861 heartbeat IPC: 0.685594 cumulative IPC: 0.389987 (Simulation time: 2 hr 6 min 25 sec) 
Heartbeat CPU 0 instructions: 489000000 cycles: 1253014706 heartbeat IPC: 0.99617 cumulative IPC: 0.390483 (Simulation time: 2 hr 6 min 34 sec) 
Heartbeat CPU 0 instructions: 490000002 cycles: 1255906638 heartbeat IPC: 0.34579 cumulative IPC: 0.390378 (Simulation time: 2 hr 6 min 46 sec) 
Heartbeat CPU 0 instructions: 491000000 cycles: 1258127237 heartbeat IPC: 0.450328 cumulative IPC: 0.390486 (Simulation time: 2 hr 7 min 0 sec) 
Heartbeat CPU 0 instructions: 492000001 cycles: 1261651048 heartbeat IPC: 0.283784 cumulative IPC: 0.390182 (Simulation time: 2 hr 7 min 21 sec) 
Heartbeat CPU 0 instructions: 493000000 cycles: 1264946656 heartbeat IPC: 0.303434 cumulative IPC: 0.389951 (Simulation time: 2 hr 7 min 42 sec) 
Heartbeat CPU 0 instructions: 494000002 cycles: 1266700536 heartbeat IPC: 0.570166 cumulative IPC: 0.390206 (Simulation time: 2 hr 7 min 56 sec) 
Heartbeat CPU 0 instructions: 495000000 cycles: 1271010962 heartbeat IPC: 0.231995 cumulative IPC: 0.389658 (Simulation time: 2 hr 8 min 23 sec) 
Heartbeat CPU 0 instructions: 496000000 cycles: 1272905651 heartbeat IPC: 0.527791 cumulative IPC: 0.389868 (Simulation time: 2 hr 8 min 36 sec) 
Heartbeat CPU 0 instructions: 497000000 cycles: 1273912914 heartbeat IPC: 0.992789 cumulative IPC: 0.390354 (Simulation time: 2 hr 8 min 45 sec) 
Heartbeat CPU 0 instructions: 498000000 cycles: 1276266024 heartbeat IPC: 0.424969 cumulative IPC: 0.39042 (Simulation time: 2 hr 8 min 56 sec) 
Heartbeat CPU 0 instructions: 499000002 cycles: 1278536286 heartbeat IPC: 0.440479 cumulative IPC: 0.39051 (Simulation time: 2 hr 9 min 10 sec) 
Heartbeat CPU 0 instructions: 500000000 cycles: 1281914555 heartbeat IPC: 0.296009 cumulative IPC: 0.390256 (Simulation time: 2 hr 9 min 27 sec) 
Heartbeat CPU 0 instructions: 501000003 cycles: 1285457925 heartbeat IPC: 0.282218 cumulative IPC: 0.389952 (Simulation time: 2 hr 9 min 50 sec) 
Heartbeat CPU 0 instructions: 502000002 cycles: 1287000368 heartbeat IPC: 0.648322 cumulative IPC: 0.390268 (Simulation time: 2 hr 10 min 3 sec) 
Heartbeat CPU 0 instructions: 503000002 cycles: 1291344606 heartbeat IPC: 0.23019 cumulative IPC: 0.389718 (Simulation time: 2 hr 10 min 30 sec) 
Heartbeat CPU 0 instructions: 504000000 cycles: 1293623527 heartbeat IPC: 0.438803 cumulative IPC: 0.389807 (Simulation time: 2 hr 10 min 44 sec) 
Heartbeat CPU 0 instructions: 505000003 cycles: 1294656458 heartbeat IPC: 0.968122 cumulative IPC: 0.390278 (Simulation time: 2 hr 10 min 53 sec) 
Heartbeat CPU 0 instructions: 506000000 cycles: 1296770115 heartbeat IPC: 0.473112 cumulative IPC: 0.390415 (Simulation time: 2 hr 11 min 4 sec) 
Heartbeat CPU 0 instructions: 507000002 cycles: 1299338104 heartbeat IPC: 0.389411 cumulative IPC: 0.390413 (Simulation time: 2 hr 11 min 18 sec) 
Heartbeat CPU 0 instructions: 508000001 cycles: 1302351992 heartbeat IPC: 0.331797 cumulative IPC: 0.390275 (Simulation time: 2 hr 11 min 36 sec) 
Heartbeat CPU 0 instructions: 509000000 cycles: 1305781021 heartbeat IPC: 0.291627 cumulative IPC: 0.390011 (Simulation time: 2 hr 12 min 1 sec) 
Heartbeat CPU 0 instructions: 510000000 cycles: 1307688821 heartbeat IPC: 0.524164 cumulative IPC: 0.39021 (Simulation time: 2 hr 12 min 14 sec) 
Finished CPU 0 instructions: 500000003 cycles: 1281360204 cumulative IPC: 0.39021 (Simulation time: 2 hr 12 min 14 sec) 

ChampSim completed all CPUs

Region of Interest Statistics

CPU 0 cumulative IPC: 0.39021 instructions: 500000003 cycles: 1281360204
L1D TOTAL     ACCESS:   97438517  HIT:   68894218  MISS:   28544299
L1D LOAD      ACCESS:   67656915  HIT:   43285252  MISS:   24371663
L1D RFO       ACCESS:   29781602  HIT:   25608966  MISS:    4172636
L1D PREFETCH  ACCESS:          0  HIT:          0  MISS:          0
L1D WRITEBACK ACCESS:          0  HIT:          0  MISS:          0
L1D PREFETCH  REQUESTED:          0  ISSUED:          0  USEFUL:          0  USELESS:          0  UAC CORRECT:          0
L1D AVERAGE MISS LATENCY: 125.93 cycles
L1I TOTAL     ACCESS:   93186393  HIT:   93185204  MISS:       1189
L1I LOAD      ACCESS:   93186393  HIT:   93185204  MISS:       1189
L1I RFO       ACCESS:          0  HIT:          0  MISS:          0
L1I PREFETCH  ACCESS:          0  HIT:          0  MISS:          0
L1I WRITEBACK ACCESS:          0  HIT:          0  MISS:          0
L1I PREFETCH  REQUESTED:          0  ISSUED:          0  USEFUL:          0  USELESS:          0  UAC CORRECT:          0
L1I AVERAGE MISS LATENCY: 271.264 cycles
L2C TOTAL     ACCESS:   40927250  HIT:   18555226  MISS:   22372024
L2C LOAD      ACCESS:   24370684  HIT:    5546869  MISS:   18823815
L2C RFO       ACCESS:    4172362  HIT:     624634  MISS:    3547728
L2C PREFETCH  ACCESS:          0  HIT:          0  MISS:          0
L2C WRITEBACK ACCESS:   12384204  HIT:   12383723  MISS:        481
L2C PREFETCH  REQUESTED:          0  ISSUED:          0  USEFUL:          0  USELESS:          0  UAC CORRECT:          0
L2C AVERAGE MISS LATENCY: 141.137 cycles
LLC TOTAL     ACCESS:   43804525  HIT:   22460812  MISS:   21343713
LLC LOAD      ACCESS:   18823741  HIT:    9487895  MISS:    9335846
LLC RFO       ACCESS:    3547712  HIT:     907628  MISS:    2640084
LLC PREFETCH  ACCESS:   12250787  HIT:    2885789  MISS:    9364998
LLC WRITEBACK ACCESS:    9182285  HIT:    9179500  MISS:       2785
LLC PREFETCH  REQUESTED:   15564694  ISSUED:   13734734  USEFUL:    6237938  USELESS:    3126712  UAC CORRECT:     430087
LLC AVERAGE MISS LATENCY: 200.534 cycles
Major fault: 0 Minor fault: 12959

DRAM Statistics
 CHANNEL 0
 RQ ROW_BUFFER_HIT:    6694412  ROW_BUFFER_MISS:    3979197
 DBUS_CONGESTED:   14724622
 WQ ROW_BUFFER_HIT:    2974618  ROW_BUFFER_MISS:     560968  FULL:          0

 CHANNEL 1
 RQ ROW_BUFFER_HIT:    6720915  ROW_BUFFER_MISS:    3941114
 DBUS_CONGESTED:   14724622
 WQ ROW_BUFFER_HIT:    2963531  ROW_BUFFER_MISS:     570289  FULL:          0

 AVG_CONGESTED_CYCLE: 19

CPU 0 Branch Prediction Accuracy: 96.5714% MPKI: 7.12875 Average ROB Occupancy at Mispredict: 70.3723

Branch types
NOT_BRANCH: 396041059 79.2082%
BRANCH_DIRECT_JUMP: 1163961 0.232792%
BRANCH_INDIRECT: 278 5.56e-05%
BRANCH_CONDITIONAL: 102616882 20.5234%
BRANCH_DIRECT_CALL: 87895 0.017579%
BRANCH_INDIRECT_CALL: 1019 0.0002038%
BRANCH_RETURN: 88914 0.0177828%
BRANCH_OTHER: 0 0%


gzip: stdout: Broken pipe
