
*** ChampSim Multicore Out-of-Order Simulator ***

Warmup Instructions: 1000000
Prefetch Warmup Instructions: 10000000
Simulation Instructions: 500000000
Stat Printing Period: 1000000
Number of CPUs: 1
LLC sets: 2048
LLC ways: 16
Off-chip DRAM Size: 32768 MB Channels: 2 Width: 64-bit Data Rate: 1024 MT/s

CPU 0 runs /scratch/cluster/cmolder/ML-DPC/ChampSimTraces/spec06/450.soplex-s0.trace.gz
Read seed: 979
Heartbeat CPU 0 instructions: 1000003 cycles: 365170 heartbeat IPC: 2.73846 cumulative IPC: 2.73846 (Simulation time: 0 hr 0 min 5 sec) 

Warmup complete CPU 0 instructions: 1000003 cycles: 365170 (Simulation time: 0 hr 0 min 5 sec) 

Heartbeat CPU 0 instructions: 2000000 cycles: 3514764 heartbeat IPC: 0.3175 cumulative IPC: 0.3175 (Simulation time: 0 hr 0 min 14 sec) 
Heartbeat CPU 0 instructions: 3000000 cycles: 7716974 heartbeat IPC: 0.23797 cumulative IPC: 0.272042 (Simulation time: 0 hr 0 min 27 sec) 
Heartbeat CPU 0 instructions: 4000001 cycles: 10684344 heartbeat IPC: 0.336999 cumulative IPC: 0.290721 (Simulation time: 0 hr 0 min 35 sec) 
Heartbeat CPU 0 instructions: 5000002 cycles: 13448781 heartbeat IPC: 0.361738 cumulative IPC: 0.305726 (Simulation time: 0 hr 0 min 44 sec) 
Heartbeat CPU 0 instructions: 6000000 cycles: 17567999 heartbeat IPC: 0.242764 cumulative IPC: 0.29065 (Simulation time: 0 hr 0 min 55 sec) 
Heartbeat CPU 0 instructions: 7000001 cycles: 19117428 heartbeat IPC: 0.6454 cumulative IPC: 0.319961 (Simulation time: 0 hr 1 min 1 sec) 
Heartbeat CPU 0 instructions: 8000000 cycles: 21525920 heartbeat IPC: 0.415197 cumulative IPC: 0.330801 (Simulation time: 0 hr 1 min 8 sec) 
Heartbeat CPU 0 instructions: 9000003 cycles: 24525638 heartbeat IPC: 0.333366 cumulative IPC: 0.331119 (Simulation time: 0 hr 1 min 17 sec) 
Heartbeat CPU 0 instructions: 10000003 cycles: 27952118 heartbeat IPC: 0.291845 cumulative IPC: 0.326241 (Simulation time: 0 hr 1 min 28 sec) 

Warmup complete CPU 0 instructions: 10000003 cycles: 27952118 (Simulation time: 0 hr 1 min 28 sec) 

Heartbeat CPU 0 instructions: 11000000 cycles: 30910790 heartbeat IPC: 0.337988 cumulative IPC: 0.337988 (Simulation time: 0 hr 1 min 37 sec) 
Heartbeat CPU 0 instructions: 12000001 cycles: 33264988 heartbeat IPC: 0.424774 cumulative IPC: 0.376444 (Simulation time: 0 hr 1 min 47 sec) 
Heartbeat CPU 0 instructions: 13000002 cycles: 37197149 heartbeat IPC: 0.254313 cumulative IPC: 0.324499 (Simulation time: 0 hr 2 min 0 sec) 
Heartbeat CPU 0 instructions: 14000000 cycles: 38209402 heartbeat IPC: 0.987893 cumulative IPC: 0.389966 (Simulation time: 0 hr 2 min 4 sec) 
Heartbeat CPU 0 instructions: 15000001 cycles: 39642369 heartbeat IPC: 0.697853 cumulative IPC: 0.427707 (Simulation time: 0 hr 2 min 10 sec) 
Heartbeat CPU 0 instructions: 16000002 cycles: 42121306 heartbeat IPC: 0.403399 cumulative IPC: 0.423454 (Simulation time: 0 hr 2 min 19 sec) 
Heartbeat CPU 0 instructions: 17000001 cycles: 45586081 heartbeat IPC: 0.288619 cumulative IPC: 0.396961 (Simulation time: 0 hr 2 min 32 sec) 
Heartbeat CPU 0 instructions: 18000000 cycles: 52572887 heartbeat IPC: 0.143127 cumulative IPC: 0.324929 (Simulation time: 0 hr 2 min 42 sec) 
Heartbeat CPU 0 instructions: 19000000 cycles: 56833404 heartbeat IPC: 0.234713 cumulative IPC: 0.31162 (Simulation time: 0 hr 2 min 55 sec) 
Heartbeat CPU 0 instructions: 20000000 cycles: 58715827 heartbeat IPC: 0.53123 cumulative IPC: 0.325058 (Simulation time: 0 hr 3 min 8 sec) 
Heartbeat CPU 0 instructions: 21000002 cycles: 63833706 heartbeat IPC: 0.195394 cumulative IPC: 0.306564 (Simulation time: 0 hr 3 min 21 sec) 
Heartbeat CPU 0 instructions: 22000000 cycles: 68553259 heartbeat IPC: 0.211884 cumulative IPC: 0.295558 (Simulation time: 0 hr 3 min 33 sec) 
Heartbeat CPU 0 instructions: 23000003 cycles: 71911988 heartbeat IPC: 0.297733 cumulative IPC: 0.295724 (Simulation time: 0 hr 3 min 43 sec) 
Heartbeat CPU 0 instructions: 24000000 cycles: 75558572 heartbeat IPC: 0.274228 cumulative IPC: 0.294078 (Simulation time: 0 hr 3 min 54 sec) 
Heartbeat CPU 0 instructions: 25000003 cycles: 78258709 heartbeat IPC: 0.370353 cumulative IPC: 0.298172 (Simulation time: 0 hr 4 min 0 sec) 
Heartbeat CPU 0 instructions: 26000003 cycles: 80950051 heartbeat IPC: 0.371562 cumulative IPC: 0.301899 (Simulation time: 0 hr 4 min 9 sec) 
Heartbeat CPU 0 instructions: 27000000 cycles: 82983424 heartbeat IPC: 0.491792 cumulative IPC: 0.308915 (Simulation time: 0 hr 4 min 15 sec) 
Heartbeat CPU 0 instructions: 28000003 cycles: 85276361 heartbeat IPC: 0.436123 cumulative IPC: 0.314003 (Simulation time: 0 hr 4 min 23 sec) 
Heartbeat CPU 0 instructions: 29000003 cycles: 86830960 heartbeat IPC: 0.643253 cumulative IPC: 0.322697 (Simulation time: 0 hr 4 min 31 sec) 
Heartbeat CPU 0 instructions: 30000003 cycles: 87841713 heartbeat IPC: 0.989361 cumulative IPC: 0.333948 (Simulation time: 0 hr 4 min 37 sec) 
Heartbeat CPU 0 instructions: 31000000 cycles: 89114358 heartbeat IPC: 0.785763 cumulative IPC: 0.343349 (Simulation time: 0 hr 4 min 44 sec) 
Heartbeat CPU 0 instructions: 32000000 cycles: 92297587 heartbeat IPC: 0.314146 cumulative IPC: 0.341904 (Simulation time: 0 hr 4 min 54 sec) 
Heartbeat CPU 0 instructions: 33000000 cycles: 94953606 heartbeat IPC: 0.376503 cumulative IPC: 0.343276 (Simulation time: 0 hr 5 min 4 sec) 
Heartbeat CPU 0 instructions: 34000003 cycles: 97303663 heartbeat IPC: 0.425523 cumulative IPC: 0.346063 (Simulation time: 0 hr 5 min 13 sec) 
Heartbeat CPU 0 instructions: 35000000 cycles: 100198218 heartbeat IPC: 0.345475 cumulative IPC: 0.346039 (Simulation time: 0 hr 5 min 21 sec) 
Heartbeat CPU 0 instructions: 36000002 cycles: 102670843 heartbeat IPC: 0.404429 cumulative IPC: 0.347972 (Simulation time: 0 hr 5 min 31 sec) 
Heartbeat CPU 0 instructions: 37000000 cycles: 106482714 heartbeat IPC: 0.262338 cumulative IPC: 0.343815 (Simulation time: 0 hr 5 min 44 sec) 
Heartbeat CPU 0 instructions: 38000000 cycles: 107488298 heartbeat IPC: 0.994447 cumulative IPC: 0.352041 (Simulation time: 0 hr 5 min 48 sec) 
Heartbeat CPU 0 instructions: 39000003 cycles: 109166706 heartbeat IPC: 0.595804 cumulative IPC: 0.357079 (Simulation time: 0 hr 5 min 55 sec) 
Heartbeat CPU 0 instructions: 40000000 cycles: 111732376 heartbeat IPC: 0.389761 cumulative IPC: 0.35808 (Simulation time: 0 hr 6 min 4 sec) 
Heartbeat CPU 0 instructions: 41000000 cycles: 115307973 heartbeat IPC: 0.279674 cumulative IPC: 0.35487 (Simulation time: 0 hr 6 min 13 sec) 
Heartbeat CPU 0 instructions: 42000002 cycles: 117337257 heartbeat IPC: 0.492786 cumulative IPC: 0.358001 (Simulation time: 0 hr 6 min 21 sec) 
Heartbeat CPU 0 instructions: 43000002 cycles: 121214961 heartbeat IPC: 0.257885 cumulative IPC: 0.353839 (Simulation time: 0 hr 6 min 34 sec) 
Heartbeat CPU 0 instructions: 44000000 cycles: 123408058 heartbeat IPC: 0.455975 cumulative IPC: 0.356185 (Simulation time: 0 hr 6 min 42 sec) 
Heartbeat CPU 0 instructions: 45000001 cycles: 124399976 heartbeat IPC: 1.00815 cumulative IPC: 0.36289 (Simulation time: 0 hr 6 min 47 sec) 
Heartbeat CPU 0 instructions: 46000002 cycles: 126871830 heartbeat IPC: 0.404555 cumulative IPC: 0.363932 (Simulation time: 0 hr 6 min 55 sec) 
Heartbeat CPU 0 instructions: 47000001 cycles: 129782709 heartbeat IPC: 0.343538 cumulative IPC: 0.363349 (Simulation time: 0 hr 7 min 4 sec) 
Heartbeat CPU 0 instructions: 48000003 cycles: 132800696 heartbeat IPC: 0.331347 cumulative IPC: 0.362427 (Simulation time: 0 hr 7 min 16 sec) 
Heartbeat CPU 0 instructions: 49000002 cycles: 135117237 heartbeat IPC: 0.431678 cumulative IPC: 0.363924 (Simulation time: 0 hr 7 min 23 sec) 
Heartbeat CPU 0 instructions: 50000003 cycles: 138667220 heartbeat IPC: 0.281692 cumulative IPC: 0.361288 (Simulation time: 0 hr 7 min 36 sec) 
Heartbeat CPU 0 instructions: 51000000 cycles: 141036637 heartbeat IPC: 0.422043 cumulative IPC: 0.362561 (Simulation time: 0 hr 7 min 45 sec) 
Heartbeat CPU 0 instructions: 52000001 cycles: 141997714 heartbeat IPC: 1.0405 cumulative IPC: 0.368274 (Simulation time: 0 hr 7 min 49 sec) 
Heartbeat CPU 0 instructions: 53000000 cycles: 144442021 heartbeat IPC: 0.409113 cumulative IPC: 0.369131 (Simulation time: 0 hr 7 min 58 sec) 
Heartbeat CPU 0 instructions: 54000002 cycles: 147222564 heartbeat IPC: 0.359643 cumulative IPC: 0.368909 (Simulation time: 0 hr 8 min 7 sec) 
Heartbeat CPU 0 instructions: 55000000 cycles: 150649063 heartbeat IPC: 0.291842 cumulative IPC: 0.366757 (Simulation time: 0 hr 8 min 19 sec) 
Heartbeat CPU 0 instructions: 56000002 cycles: 152693632 heartbeat IPC: 0.489102 cumulative IPC: 0.368763 (Simulation time: 0 hr 8 min 26 sec) 
Heartbeat CPU 0 instructions: 57000000 cycles: 156487019 heartbeat IPC: 0.263616 cumulative IPC: 0.365659 (Simulation time: 0 hr 8 min 40 sec) 
Heartbeat CPU 0 instructions: 58000001 cycles: 158662082 heartbeat IPC: 0.459757 cumulative IPC: 0.367225 (Simulation time: 0 hr 8 min 48 sec) 
Heartbeat CPU 0 instructions: 59000002 cycles: 159650049 heartbeat IPC: 1.01218 cumulative IPC: 0.372064 (Simulation time: 0 hr 8 min 53 sec) 
Heartbeat CPU 0 instructions: 60000003 cycles: 162191513 heartbeat IPC: 0.393474 cumulative IPC: 0.372469 (Simulation time: 0 hr 9 min 1 sec) 
Heartbeat CPU 0 instructions: 61000000 cycles: 165050199 heartbeat IPC: 0.34981 cumulative IPC: 0.371996 (Simulation time: 0 hr 9 min 10 sec) 
Heartbeat CPU 0 instructions: 62000003 cycles: 168587401 heartbeat IPC: 0.28271 cumulative IPC: 0.369751 (Simulation time: 0 hr 9 min 22 sec) 
Heartbeat CPU 0 instructions: 63000002 cycles: 170390886 heartbeat IPC: 0.554481 cumulative IPC: 0.37209 (Simulation time: 0 hr 9 min 29 sec) 
Heartbeat CPU 0 instructions: 64000000 cycles: 174680026 heartbeat IPC: 0.233147 cumulative IPC: 0.368028 (Simulation time: 0 hr 9 min 44 sec) 
Heartbeat CPU 0 instructions: 65000002 cycles: 176365211 heartbeat IPC: 0.593408 cumulative IPC: 0.370587 (Simulation time: 0 hr 9 min 51 sec) 
Heartbeat CPU 0 instructions: 66000000 cycles: 177327661 heartbeat IPC: 1.03901 cumulative IPC: 0.374894 (Simulation time: 0 hr 9 min 56 sec) 
Heartbeat CPU 0 instructions: 67000002 cycles: 179794023 heartbeat IPC: 0.405456 cumulative IPC: 0.37539 (Simulation time: 0 hr 10 min 4 sec) 
Heartbeat CPU 0 instructions: 68000001 cycles: 182867057 heartbeat IPC: 0.325411 cumulative IPC: 0.374399 (Simulation time: 0 hr 10 min 14 sec) 
Heartbeat CPU 0 instructions: 69000002 cycles: 185858502 heartbeat IPC: 0.334287 cumulative IPC: 0.373639 (Simulation time: 0 hr 10 min 25 sec) 
Heartbeat CPU 0 instructions: 70000000 cycles: 187959117 heartbeat IPC: 0.47605 cumulative IPC: 0.374984 (Simulation time: 0 hr 10 min 33 sec) 
Heartbeat CPU 0 instructions: 71000002 cycles: 191734090 heartbeat IPC: 0.264903 cumulative IPC: 0.372446 (Simulation time: 0 hr 10 min 47 sec) 
Heartbeat CPU 0 instructions: 72000001 cycles: 193854744 heartbeat IPC: 0.471552 cumulative IPC: 0.373713 (Simulation time: 0 hr 10 min 54 sec) 
Heartbeat CPU 0 instructions: 73000000 cycles: 194833338 heartbeat IPC: 1.02187 cumulative IPC: 0.377514 (Simulation time: 0 hr 10 min 59 sec) 
Heartbeat CPU 0 instructions: 74000000 cycles: 197351403 heartbeat IPC: 0.39713 cumulative IPC: 0.377806 (Simulation time: 0 hr 11 min 7 sec) 
Heartbeat CPU 0 instructions: 75000000 cycles: 200203312 heartbeat IPC: 0.350642 cumulative IPC: 0.377356 (Simulation time: 0 hr 11 min 17 sec) 
Heartbeat CPU 0 instructions: 76000001 cycles: 203763559 heartbeat IPC: 0.28088 cumulative IPC: 0.375402 (Simulation time: 0 hr 11 min 29 sec) 
Heartbeat CPU 0 instructions: 77000000 cycles: 205505309 heartbeat IPC: 0.574135 cumulative IPC: 0.377352 (Simulation time: 0 hr 11 min 36 sec) 
Heartbeat CPU 0 instructions: 78000002 cycles: 209892241 heartbeat IPC: 0.22795 cumulative IPC: 0.373749 (Simulation time: 0 hr 11 min 51 sec) 
Heartbeat CPU 0 instructions: 79000003 cycles: 211441678 heartbeat IPC: 0.645396 cumulative IPC: 0.376043 (Simulation time: 0 hr 11 min 57 sec) 
Heartbeat CPU 0 instructions: 80000003 cycles: 212408642 heartbeat IPC: 1.03416 cumulative IPC: 0.379493 (Simulation time: 0 hr 12 min 2 sec) 
Heartbeat CPU 0 instructions: 81000000 cycles: 214916648 heartbeat IPC: 0.398722 cumulative IPC: 0.379751 (Simulation time: 0 hr 12 min 10 sec) 
Heartbeat CPU 0 instructions: 82000001 cycles: 218052139 heartbeat IPC: 0.31893 cumulative IPC: 0.378748 (Simulation time: 0 hr 12 min 20 sec) 
Heartbeat CPU 0 instructions: 83000001 cycles: 221623106 heartbeat IPC: 0.280036 cumulative IPC: 0.376928 (Simulation time: 0 hr 12 min 32 sec) 
Heartbeat CPU 0 instructions: 84000000 cycles: 223468609 heartbeat IPC: 0.541857 cumulative IPC: 0.378485 (Simulation time: 0 hr 12 min 39 sec) 
Heartbeat CPU 0 instructions: 85000000 cycles: 227956509 heartbeat IPC: 0.222821 cumulative IPC: 0.374992 (Simulation time: 0 hr 12 min 55 sec) 
Heartbeat CPU 0 instructions: 86000000 cycles: 229124680 heartbeat IPC: 0.856039 cumulative IPC: 0.377785 (Simulation time: 0 hr 13 min 0 sec) 
Heartbeat CPU 0 instructions: 87000000 cycles: 230056008 heartbeat IPC: 1.07374 cumulative IPC: 0.380992 (Simulation time: 0 hr 13 min 5 sec) 
Heartbeat CPU 0 instructions: 88000000 cycles: 232557242 heartbeat IPC: 0.399803 cumulative IPC: 0.381222 (Simulation time: 0 hr 13 min 13 sec) 
Heartbeat CPU 0 instructions: 89000002 cycles: 235930678 heartbeat IPC: 0.296434 cumulative IPC: 0.379847 (Simulation time: 0 hr 13 min 24 sec) 
Heartbeat CPU 0 instructions: 90000003 cycles: 239271715 heartbeat IPC: 0.299309 cumulative IPC: 0.378574 (Simulation time: 0 hr 13 min 34 sec) 
Heartbeat CPU 0 instructions: 91000000 cycles: 241366217 heartbeat IPC: 0.477439 cumulative IPC: 0.379544 (Simulation time: 0 hr 13 min 43 sec) 
Heartbeat CPU 0 instructions: 92000000 cycles: 245582638 heartbeat IPC: 0.237168 cumulative IPC: 0.376785 (Simulation time: 0 hr 13 min 58 sec) 
Heartbeat CPU 0 instructions: 93000000 cycles: 246611131 heartbeat IPC: 0.972296 cumulative IPC: 0.379586 (Simulation time: 0 hr 14 min 2 sec) 
Heartbeat CPU 0 instructions: 94000002 cycles: 247640831 heartbeat IPC: 0.971159 cumulative IPC: 0.382359 (Simulation time: 0 hr 14 min 7 sec) 
Heartbeat CPU 0 instructions: 95000002 cycles: 250146342 heartbeat IPC: 0.39912 cumulative IPC: 0.382548 (Simulation time: 0 hr 14 min 16 sec) 
Heartbeat CPU 0 instructions: 96000000 cycles: 252898767 heartbeat IPC: 0.363315 cumulative IPC: 0.382313 (Simulation time: 0 hr 14 min 25 sec) 
Heartbeat CPU 0 instructions: 97000000 cycles: 255967246 heartbeat IPC: 0.325894 cumulative IPC: 0.381554 (Simulation time: 0 hr 14 min 34 sec) 
Heartbeat CPU 0 instructions: 98000003 cycles: 258385511 heartbeat IPC: 0.413521 cumulative IPC: 0.381889 (Simulation time: 0 hr 14 min 44 sec) 
Heartbeat CPU 0 instructions: 99000000 cycles: 262129920 heartbeat IPC: 0.267064 cumulative IPC: 0.380053 (Simulation time: 0 hr 14 min 56 sec) 
Heartbeat CPU 0 instructions: 100000002 cycles: 263110165 heartbeat IPC: 1.02016 cumulative IPC: 0.382721 (Simulation time: 0 hr 15 min 1 sec) 
Heartbeat CPU 0 instructions: 101000001 cycles: 264776647 heartbeat IPC: 0.600066 cumulative IPC: 0.384251 (Simulation time: 0 hr 15 min 7 sec) 
Heartbeat CPU 0 instructions: 102000002 cycles: 267223802 heartbeat IPC: 0.408638 cumulative IPC: 0.3845 (Simulation time: 0 hr 15 min 16 sec) 
Heartbeat CPU 0 instructions: 103000003 cycles: 269422219 heartbeat IPC: 0.454873 cumulative IPC: 0.385141 (Simulation time: 0 hr 15 min 24 sec) 
Heartbeat CPU 0 instructions: 104000003 cycles: 278891567 heartbeat IPC: 0.105604 cumulative IPC: 0.374592 (Simulation time: 0 hr 15 min 36 sec) 
Heartbeat CPU 0 instructions: 105000000 cycles: 280561252 heartbeat IPC: 0.598914 cumulative IPC: 0.376075 (Simulation time: 0 hr 15 min 48 sec) 
Heartbeat CPU 0 instructions: 106000003 cycles: 284878687 heartbeat IPC: 0.23162 cumulative IPC: 0.373648 (Simulation time: 0 hr 16 min 2 sec) 
Heartbeat CPU 0 instructions: 107000000 cycles: 289984822 heartbeat IPC: 0.195842 cumulative IPC: 0.370183 (Simulation time: 0 hr 16 min 14 sec) 
Heartbeat CPU 0 instructions: 108000001 cycles: 293584846 heartbeat IPC: 0.277776 cumulative IPC: 0.36893 (Simulation time: 0 hr 16 min 24 sec) 
Heartbeat CPU 0 instructions: 109000000 cycles: 297184664 heartbeat IPC: 0.277792 cumulative IPC: 0.367712 (Simulation time: 0 hr 16 min 35 sec) 
Heartbeat CPU 0 instructions: 110000000 cycles: 300165934 heartbeat IPC: 0.335428 cumulative IPC: 0.367358 (Simulation time: 0 hr 16 min 42 sec) 
Heartbeat CPU 0 instructions: 111000000 cycles: 303029782 heartbeat IPC: 0.349181 cumulative IPC: 0.367169 (Simulation time: 0 hr 16 min 50 sec) 
Heartbeat CPU 0 instructions: 112000002 cycles: 305183311 heartbeat IPC: 0.464355 cumulative IPC: 0.367924 (Simulation time: 0 hr 16 min 57 sec) 
Heartbeat CPU 0 instructions: 113000000 cycles: 307565512 heartbeat IPC: 0.419779 cumulative IPC: 0.368366 (Simulation time: 0 hr 17 min 5 sec) 
Heartbeat CPU 0 instructions: 114000002 cycles: 308973364 heartbeat IPC: 0.710303 cumulative IPC: 0.370079 (Simulation time: 0 hr 17 min 12 sec) 
Heartbeat CPU 0 instructions: 115000003 cycles: 310115688 heartbeat IPC: 0.875409 cumulative IPC: 0.372125 (Simulation time: 0 hr 17 min 19 sec) 
Heartbeat CPU 0 instructions: 116000001 cycles: 311543500 heartbeat IPC: 0.700371 cumulative IPC: 0.373777 (Simulation time: 0 hr 17 min 26 sec) 
Heartbeat CPU 0 instructions: 117000002 cycles: 314149281 heartbeat IPC: 0.383762 cumulative IPC: 0.373868 (Simulation time: 0 hr 17 min 35 sec) 
Heartbeat CPU 0 instructions: 118000003 cycles: 316982229 heartbeat IPC: 0.35299 cumulative IPC: 0.373663 (Simulation time: 0 hr 17 min 45 sec) 
Heartbeat CPU 0 instructions: 119000000 cycles: 319143777 heartbeat IPC: 0.46263 cumulative IPC: 0.374324 (Simulation time: 0 hr 17 min 54 sec) 
Heartbeat CPU 0 instructions: 120000002 cycles: 322200810 heartbeat IPC: 0.327115 cumulative IPC: 0.373833 (Simulation time: 0 hr 18 min 3 sec) 
Heartbeat CPU 0 instructions: 121000000 cycles: 324158144 heartbeat IPC: 0.510898 cumulative IPC: 0.374739 (Simulation time: 0 hr 18 min 12 sec) 
Heartbeat CPU 0 instructions: 122000000 cycles: 328636097 heartbeat IPC: 0.223316 cumulative IPC: 0.372484 (Simulation time: 0 hr 18 min 27 sec) 
Heartbeat CPU 0 instructions: 123000000 cycles: 329671345 heartbeat IPC: 0.965952 cumulative IPC: 0.37452 (Simulation time: 0 hr 18 min 31 sec) 
Heartbeat CPU 0 instructions: 124000001 cycles: 330616982 heartbeat IPC: 1.05749 cumulative IPC: 0.376654 (Simulation time: 0 hr 18 min 36 sec) 
Heartbeat CPU 0 instructions: 125000001 cycles: 333105477 heartbeat IPC: 0.401849 cumulative IPC: 0.37686 (Simulation time: 0 hr 18 min 45 sec) 
Heartbeat CPU 0 instructions: 126000000 cycles: 336633725 heartbeat IPC: 0.283426 cumulative IPC: 0.375792 (Simulation time: 0 hr 18 min 56 sec) 
Heartbeat CPU 0 instructions: 127000001 cycles: 339543294 heartbeat IPC: 0.343694 cumulative IPC: 0.375492 (Simulation time: 0 hr 19 min 4 sec) 
Heartbeat CPU 0 instructions: 128000002 cycles: 342453752 heartbeat IPC: 0.343589 cumulative IPC: 0.375197 (Simulation time: 0 hr 19 min 15 sec) 
Heartbeat CPU 0 instructions: 129000001 cycles: 345419354 heartbeat IPC: 0.337199 cumulative IPC: 0.374842 (Simulation time: 0 hr 19 min 25 sec) 
Heartbeat CPU 0 instructions: 130000000 cycles: 346409471 heartbeat IPC: 1.00998 cumulative IPC: 0.376817 (Simulation time: 0 hr 19 min 30 sec) 
Heartbeat CPU 0 instructions: 131000002 cycles: 348618238 heartbeat IPC: 0.452742 cumulative IPC: 0.37734 (Simulation time: 0 hr 19 min 37 sec) 
Heartbeat CPU 0 instructions: 132000000 cycles: 351161296 heartbeat IPC: 0.393227 cumulative IPC: 0.377465 (Simulation time: 0 hr 19 min 46 sec) 
Heartbeat CPU 0 instructions: 133000001 cycles: 354311329 heartbeat IPC: 0.317457 cumulative IPC: 0.376885 (Simulation time: 0 hr 19 min 55 sec) 
Heartbeat CPU 0 instructions: 134000003 cycles: 356083867 heartbeat IPC: 0.564164 cumulative IPC: 0.377897 (Simulation time: 0 hr 20 min 2 sec) 
Heartbeat CPU 0 instructions: 135000002 cycles: 360419416 heartbeat IPC: 0.230651 cumulative IPC: 0.375977 (Simulation time: 0 hr 20 min 18 sec) 
Heartbeat CPU 0 instructions: 136000001 cycles: 362107270 heartbeat IPC: 0.592468 cumulative IPC: 0.37707 (Simulation time: 0 hr 20 min 24 sec) 
Heartbeat CPU 0 instructions: 137000002 cycles: 363061330 heartbeat IPC: 1.04815 cumulative IPC: 0.378981 (Simulation time: 0 hr 20 min 28 sec) 
Heartbeat CPU 0 instructions: 138000002 cycles: 365536775 heartbeat IPC: 0.403968 cumulative IPC: 0.379164 (Simulation time: 0 hr 20 min 37 sec) 
Heartbeat CPU 0 instructions: 139000001 cycles: 368530469 heartbeat IPC: 0.334035 cumulative IPC: 0.378767 (Simulation time: 0 hr 20 min 46 sec) 
Heartbeat CPU 0 instructions: 140000001 cycles: 370539483 heartbeat IPC: 0.497757 cumulative IPC: 0.379465 (Simulation time: 0 hr 20 min 53 sec) 
Heartbeat CPU 0 instructions: 141000000 cycles: 372585049 heartbeat IPC: 0.488862 cumulative IPC: 0.380115 (Simulation time: 0 hr 21 min 1 sec) 
Heartbeat CPU 0 instructions: 142000001 cycles: 376582043 heartbeat IPC: 0.250188 cumulative IPC: 0.378625 (Simulation time: 0 hr 21 min 15 sec) 
Heartbeat CPU 0 instructions: 143000000 cycles: 378543955 heartbeat IPC: 0.509706 cumulative IPC: 0.379359 (Simulation time: 0 hr 21 min 22 sec) 
Heartbeat CPU 0 instructions: 144000002 cycles: 379488085 heartbeat IPC: 1.05918 cumulative IPC: 0.381184 (Simulation time: 0 hr 21 min 27 sec) 
Heartbeat CPU 0 instructions: 145000001 cycles: 381912881 heartbeat IPC: 0.412405 cumulative IPC: 0.381398 (Simulation time: 0 hr 21 min 35 sec) 
Heartbeat CPU 0 instructions: 146000000 cycles: 384803109 heartbeat IPC: 0.345993 cumulative IPC: 0.381111 (Simulation time: 0 hr 21 min 45 sec) 
Heartbeat CPU 0 instructions: 147000000 cycles: 386973902 heartbeat IPC: 0.460661 cumulative IPC: 0.381592 (Simulation time: 0 hr 21 min 52 sec) 
Heartbeat CPU 0 instructions: 148000002 cycles: 388689557 heartbeat IPC: 0.582869 cumulative IPC: 0.38255 (Simulation time: 0 hr 21 min 59 sec) 
Heartbeat CPU 0 instructions: 149000002 cycles: 393065148 heartbeat IPC: 0.228541 cumulative IPC: 0.380704 (Simulation time: 0 hr 22 min 15 sec) 
Heartbeat CPU 0 instructions: 150000003 cycles: 394646741 heartbeat IPC: 0.632275 cumulative IPC: 0.381789 (Simulation time: 0 hr 22 min 21 sec) 
Heartbeat CPU 0 instructions: 151000001 cycles: 395604620 heartbeat IPC: 1.04397 cumulative IPC: 0.383514 (Simulation time: 0 hr 22 min 25 sec) 
Heartbeat CPU 0 instructions: 152000001 cycles: 398026427 heartbeat IPC: 0.412915 cumulative IPC: 0.383707 (Simulation time: 0 hr 22 min 34 sec) 
Heartbeat CPU 0 instructions: 153000000 cycles: 400987244 heartbeat IPC: 0.337744 cumulative IPC: 0.383342 (Simulation time: 0 hr 22 min 43 sec) 
Heartbeat CPU 0 instructions: 154000000 cycles: 403326139 heartbeat IPC: 0.427552 cumulative IPC: 0.383617 (Simulation time: 0 hr 22 min 51 sec) 
Heartbeat CPU 0 instructions: 155000002 cycles: 405169395 heartbeat IPC: 0.542519 cumulative IPC: 0.384394 (Simulation time: 0 hr 22 min 59 sec) 
Heartbeat CPU 0 instructions: 156000002 cycles: 409622362 heartbeat IPC: 0.224569 cumulative IPC: 0.382529 (Simulation time: 0 hr 23 min 14 sec) 
Heartbeat CPU 0 instructions: 157000000 cycles: 410887411 heartbeat IPC: 0.790482 cumulative IPC: 0.383877 (Simulation time: 0 hr 23 min 19 sec) 
Heartbeat CPU 0 instructions: 158000001 cycles: 411803165 heartbeat IPC: 1.092 cumulative IPC: 0.385566 (Simulation time: 0 hr 23 min 24 sec) 
Heartbeat CPU 0 instructions: 159000000 cycles: 414247990 heartbeat IPC: 0.409027 cumulative IPC: 0.385715 (Simulation time: 0 hr 23 min 33 sec) 
Heartbeat CPU 0 instructions: 160000001 cycles: 417203924 heartbeat IPC: 0.338303 cumulative IPC: 0.385355 (Simulation time: 0 hr 23 min 42 sec) 
Heartbeat CPU 0 instructions: 161000002 cycles: 419625338 heartbeat IPC: 0.412982 cumulative IPC: 0.385525 (Simulation time: 0 hr 23 min 50 sec) 
Heartbeat CPU 0 instructions: 162000000 cycles: 421529842 heartbeat IPC: 0.52507 cumulative IPC: 0.386201 (Simulation time: 0 hr 23 min 58 sec) 
Heartbeat CPU 0 instructions: 163000001 cycles: 426110414 heartbeat IPC: 0.218314 cumulative IPC: 0.384269 (Simulation time: 0 hr 24 min 14 sec) 
Heartbeat CPU 0 instructions: 164000001 cycles: 427148835 heartbeat IPC: 0.963001 cumulative IPC: 0.385775 (Simulation time: 0 hr 24 min 18 sec) 
Heartbeat CPU 0 instructions: 165000000 cycles: 428085548 heartbeat IPC: 1.06756 cumulative IPC: 0.387371 (Simulation time: 0 hr 24 min 23 sec) 
Heartbeat CPU 0 instructions: 166000002 cycles: 430487406 heartbeat IPC: 0.416345 cumulative IPC: 0.387544 (Simulation time: 0 hr 24 min 32 sec) 
Heartbeat CPU 0 instructions: 167000003 cycles: 433425825 heartbeat IPC: 0.340319 cumulative IPC: 0.387201 (Simulation time: 0 hr 24 min 41 sec) 
Heartbeat CPU 0 instructions: 168000001 cycles: 435957192 heartbeat IPC: 0.395043 cumulative IPC: 0.38725 (Simulation time: 0 hr 24 min 49 sec) 
Heartbeat CPU 0 instructions: 169000001 cycles: 437983443 heartbeat IPC: 0.493522 cumulative IPC: 0.387775 (Simulation time: 0 hr 24 min 58 sec) 
Heartbeat CPU 0 instructions: 170000000 cycles: 442246256 heartbeat IPC: 0.234587 cumulative IPC: 0.386199 (Simulation time: 0 hr 25 min 12 sec) 
Heartbeat CPU 0 instructions: 171000000 cycles: 443259462 heartbeat IPC: 0.986966 cumulative IPC: 0.387665 (Simulation time: 0 hr 25 min 17 sec) 
Heartbeat CPU 0 instructions: 172000000 cycles: 444223311 heartbeat IPC: 1.03751 cumulative IPC: 0.389169 (Simulation time: 0 hr 25 min 22 sec) 
Heartbeat CPU 0 instructions: 173000000 cycles: 446526949 heartbeat IPC: 0.434096 cumulative IPC: 0.389417 (Simulation time: 0 hr 25 min 31 sec) 
Heartbeat CPU 0 instructions: 174000002 cycles: 449444711 heartbeat IPC: 0.342729 cumulative IPC: 0.389093 (Simulation time: 0 hr 25 min 40 sec) 
Heartbeat CPU 0 instructions: 175000002 cycles: 452093173 heartbeat IPC: 0.377578 cumulative IPC: 0.389022 (Simulation time: 0 hr 25 min 48 sec) 
Heartbeat CPU 0 instructions: 176000000 cycles: 454270284 heartbeat IPC: 0.459323 cumulative IPC: 0.389381 (Simulation time: 0 hr 25 min 57 sec) 
Heartbeat CPU 0 instructions: 177000002 cycles: 458303917 heartbeat IPC: 0.247916 cumulative IPC: 0.388055 (Simulation time: 0 hr 26 min 11 sec) 
Heartbeat CPU 0 instructions: 178000000 cycles: 459321058 heartbeat IPC: 0.983146 cumulative IPC: 0.389458 (Simulation time: 0 hr 26 min 16 sec) 
Heartbeat CPU 0 instructions: 179000003 cycles: 460522619 heartbeat IPC: 0.832253 cumulative IPC: 0.390688 (Simulation time: 0 hr 26 min 21 sec) 
Heartbeat CPU 0 instructions: 180000000 cycles: 462874114 heartbeat IPC: 0.42526 cumulative IPC: 0.390875 (Simulation time: 0 hr 26 min 30 sec) 
Heartbeat CPU 0 instructions: 181000003 cycles: 465459876 heartbeat IPC: 0.386734 cumulative IPC: 0.39085 (Simulation time: 0 hr 26 min 39 sec) 
Heartbeat CPU 0 instructions: 182000000 cycles: 468216914 heartbeat IPC: 0.362707 cumulative IPC: 0.390674 (Simulation time: 0 hr 26 min 47 sec) 
Heartbeat CPU 0 instructions: 183000002 cycles: 470543647 heartbeat IPC: 0.429788 cumulative IPC: 0.39088 (Simulation time: 0 hr 26 min 57 sec) 
Heartbeat CPU 0 instructions: 184000002 cycles: 474361291 heartbeat IPC: 0.261942 cumulative IPC: 0.389777 (Simulation time: 0 hr 27 min 10 sec) 
Heartbeat CPU 0 instructions: 185000000 cycles: 475369303 heartbeat IPC: 0.99205 cumulative IPC: 0.391134 (Simulation time: 0 hr 27 min 15 sec) 
Heartbeat CPU 0 instructions: 186000001 cycles: 476763049 heartbeat IPC: 0.717492 cumulative IPC: 0.392147 (Simulation time: 0 hr 27 min 21 sec) 
Heartbeat CPU 0 instructions: 187000000 cycles: 479159143 heartbeat IPC: 0.417345 cumulative IPC: 0.392281 (Simulation time: 0 hr 27 min 30 sec) 
Heartbeat CPU 0 instructions: 188000001 cycles: 481505393 heartbeat IPC: 0.426212 cumulative IPC: 0.392457 (Simulation time: 0 hr 27 min 38 sec) 
Heartbeat CPU 0 instructions: 189000000 cycles: 490565694 heartbeat IPC: 0.110372 cumulative IPC: 0.386932 (Simulation time: 0 hr 27 min 49 sec) 
Heartbeat CPU 0 instructions: 190000000 cycles: 493244642 heartbeat IPC: 0.373281 cumulative IPC: 0.386853 (Simulation time: 0 hr 28 min 3 sec) 
Heartbeat CPU 0 instructions: 191000001 cycles: 495799758 heartbeat IPC: 0.391372 cumulative IPC: 0.386878 (Simulation time: 0 hr 28 min 16 sec) 
Heartbeat CPU 0 instructions: 192000003 cycles: 501036373 heartbeat IPC: 0.190963 cumulative IPC: 0.384709 (Simulation time: 0 hr 28 min 29 sec) 
Heartbeat CPU 0 instructions: 193000000 cycles: 504884059 heartbeat IPC: 0.259896 cumulative IPC: 0.383703 (Simulation time: 0 hr 28 min 39 sec) 
Heartbeat CPU 0 instructions: 194000003 cycles: 508136764 heartbeat IPC: 0.307437 cumulative IPC: 0.383186 (Simulation time: 0 hr 28 min 50 sec) 
Heartbeat CPU 0 instructions: 195000001 cycles: 511865656 heartbeat IPC: 0.268176 cumulative IPC: 0.3823 (Simulation time: 0 hr 29 min 0 sec) 
Heartbeat CPU 0 instructions: 196000001 cycles: 514630537 heartbeat IPC: 0.361679 cumulative IPC: 0.382183 (Simulation time: 0 hr 29 min 7 sec) 
Heartbeat CPU 0 instructions: 197000000 cycles: 517192583 heartbeat IPC: 0.390313 cumulative IPC: 0.382225 (Simulation time: 0 hr 29 min 15 sec) 
Heartbeat CPU 0 instructions: 198000000 cycles: 519207399 heartbeat IPC: 0.496323 cumulative IPC: 0.382693 (Simulation time: 0 hr 29 min 21 sec) 
Heartbeat CPU 0 instructions: 199000003 cycles: 521067875 heartbeat IPC: 0.537498 cumulative IPC: 0.383277 (Simulation time: 0 hr 29 min 29 sec) 
Heartbeat CPU 0 instructions: 200000001 cycles: 522493087 heartbeat IPC: 0.701649 cumulative IPC: 0.384195 (Simulation time: 0 hr 29 min 36 sec) 
Heartbeat CPU 0 instructions: 201000000 cycles: 523744475 heartbeat IPC: 0.799112 cumulative IPC: 0.385242 (Simulation time: 0 hr 29 min 43 sec) 
Heartbeat CPU 0 instructions: 202000000 cycles: 525149015 heartbeat IPC: 0.711977 cumulative IPC: 0.386165 (Simulation time: 0 hr 29 min 50 sec) 
Heartbeat CPU 0 instructions: 203000002 cycles: 528519061 heartbeat IPC: 0.296732 cumulative IPC: 0.385563 (Simulation time: 0 hr 30 min 0 sec) 
Heartbeat CPU 0 instructions: 204000003 cycles: 530769992 heartbeat IPC: 0.444261 cumulative IPC: 0.385826 (Simulation time: 0 hr 30 min 9 sec) 
Heartbeat CPU 0 instructions: 205000002 cycles: 533486733 heartbeat IPC: 0.368088 cumulative IPC: 0.38573 (Simulation time: 0 hr 30 min 19 sec) 
Heartbeat CPU 0 instructions: 206000002 cycles: 536073133 heartbeat IPC: 0.386638 cumulative IPC: 0.385735 (Simulation time: 0 hr 30 min 27 sec) 
Heartbeat CPU 0 instructions: 207000000 cycles: 539366265 heartbeat IPC: 0.303662 cumulative IPC: 0.385206 (Simulation time: 0 hr 30 min 39 sec) 
Heartbeat CPU 0 instructions: 208000001 cycles: 542127872 heartbeat IPC: 0.362108 cumulative IPC: 0.385082 (Simulation time: 0 hr 30 min 48 sec) 
Heartbeat CPU 0 instructions: 209000000 cycles: 543131142 heartbeat IPC: 0.99674 cumulative IPC: 0.386273 (Simulation time: 0 hr 30 min 53 sec) 
Heartbeat CPU 0 instructions: 210000003 cycles: 545523518 heartbeat IPC: 0.417996 cumulative IPC: 0.38642 (Simulation time: 0 hr 31 min 1 sec) 
Heartbeat CPU 0 instructions: 211000000 cycles: 548137637 heartbeat IPC: 0.382537 cumulative IPC: 0.386401 (Simulation time: 0 hr 31 min 10 sec) 
Heartbeat CPU 0 instructions: 212000002 cycles: 551334200 heartbeat IPC: 0.312837 cumulative IPC: 0.385951 (Simulation time: 0 hr 31 min 19 sec) 
Heartbeat CPU 0 instructions: 213000000 cycles: 553110132 heartbeat IPC: 0.563083 cumulative IPC: 0.38655 (Simulation time: 0 hr 31 min 26 sec) 
Heartbeat CPU 0 instructions: 214000001 cycles: 557550664 heartbeat IPC: 0.225198 cumulative IPC: 0.385197 (Simulation time: 0 hr 31 min 42 sec) 
Heartbeat CPU 0 instructions: 215000000 cycles: 559006057 heartbeat IPC: 0.687099 cumulative IPC: 0.386025 (Simulation time: 0 hr 31 min 47 sec) 
Heartbeat CPU 0 instructions: 216000000 cycles: 559947959 heartbeat IPC: 1.06168 cumulative IPC: 0.387221 (Simulation time: 0 hr 31 min 52 sec) 
Heartbeat CPU 0 instructions: 217000003 cycles: 562440428 heartbeat IPC: 0.40121 cumulative IPC: 0.387286 (Simulation time: 0 hr 32 min 1 sec) 
Heartbeat CPU 0 instructions: 218000001 cycles: 565678382 heartbeat IPC: 0.308836 cumulative IPC: 0.386814 (Simulation time: 0 hr 32 min 11 sec) 
Heartbeat CPU 0 instructions: 219000000 cycles: 568650476 heartbeat IPC: 0.336463 cumulative IPC: 0.386537 (Simulation time: 0 hr 32 min 19 sec) 
Heartbeat CPU 0 instructions: 220000000 cycles: 571153789 heartbeat IPC: 0.399471 cumulative IPC: 0.386597 (Simulation time: 0 hr 32 min 29 sec) 
Heartbeat CPU 0 instructions: 221000001 cycles: 574840104 heartbeat IPC: 0.271274 cumulative IPC: 0.385819 (Simulation time: 0 hr 32 min 41 sec) 
Heartbeat CPU 0 instructions: 222000001 cycles: 575820220 heartbeat IPC: 1.02029 cumulative IPC: 0.386954 (Simulation time: 0 hr 32 min 46 sec) 
Heartbeat CPU 0 instructions: 223000003 cycles: 577540151 heartbeat IPC: 0.58142 cumulative IPC: 0.387563 (Simulation time: 0 hr 32 min 53 sec) 
Heartbeat CPU 0 instructions: 224000001 cycles: 579980277 heartbeat IPC: 0.409814 cumulative IPC: 0.387661 (Simulation time: 0 hr 33 min 1 sec) 
Heartbeat CPU 0 instructions: 225000000 cycles: 582495809 heartbeat IPC: 0.39753 cumulative IPC: 0.387706 (Simulation time: 0 hr 33 min 10 sec) 
Heartbeat CPU 0 instructions: 226000001 cycles: 585528654 heartbeat IPC: 0.329724 cumulative IPC: 0.387391 (Simulation time: 0 hr 33 min 19 sec) 
Heartbeat CPU 0 instructions: 227000003 cycles: 588464895 heartbeat IPC: 0.340572 cumulative IPC: 0.387145 (Simulation time: 0 hr 33 min 30 sec) 
Heartbeat CPU 0 instructions: 228000003 cycles: 591464116 heartbeat IPC: 0.33342 cumulative IPC: 0.38686 (Simulation time: 0 hr 33 min 40 sec) 
Heartbeat CPU 0 instructions: 229000003 cycles: 592464591 heartbeat IPC: 0.999525 cumulative IPC: 0.387945 (Simulation time: 0 hr 33 min 45 sec) 
Heartbeat CPU 0 instructions: 230000000 cycles: 594658359 heartbeat IPC: 0.455835 cumulative IPC: 0.388208 (Simulation time: 0 hr 33 min 52 sec) 
Heartbeat CPU 0 instructions: 231000000 cycles: 597159844 heartbeat IPC: 0.399763 cumulative IPC: 0.388259 (Simulation time: 0 hr 34 min 1 sec) 
Heartbeat CPU 0 instructions: 232000001 cycles: 600063572 heartbeat IPC: 0.344385 cumulative IPC: 0.388036 (Simulation time: 0 hr 34 min 10 sec) 
Heartbeat CPU 0 instructions: 233000000 cycles: 602101218 heartbeat IPC: 0.490762 cumulative IPC: 0.388401 (Simulation time: 0 hr 34 min 18 sec) 
Heartbeat CPU 0 instructions: 234000001 cycles: 605932674 heartbeat IPC: 0.260998 cumulative IPC: 0.387556 (Simulation time: 0 hr 34 min 31 sec) 
Heartbeat CPU 0 instructions: 235000003 cycles: 608089023 heartbeat IPC: 0.463748 cumulative IPC: 0.387839 (Simulation time: 0 hr 34 min 39 sec) 
Heartbeat CPU 0 instructions: 236000001 cycles: 609069817 heartbeat IPC: 1.01958 cumulative IPC: 0.388906 (Simulation time: 0 hr 34 min 44 sec) 
Heartbeat CPU 0 instructions: 237000001 cycles: 611481123 heartbeat IPC: 0.414713 cumulative IPC: 0.389012 (Simulation time: 0 hr 34 min 52 sec) 
Heartbeat CPU 0 instructions: 238000001 cycles: 614320523 heartbeat IPC: 0.352187 cumulative IPC: 0.388834 (Simulation time: 0 hr 35 min 1 sec) 
Heartbeat CPU 0 instructions: 239000001 cycles: 616837459 heartbeat IPC: 0.397308 cumulative IPC: 0.38887 (Simulation time: 0 hr 35 min 9 sec) 
Heartbeat CPU 0 instructions: 240000002 cycles: 618555736 heartbeat IPC: 0.581979 cumulative IPC: 0.389432 (Simulation time: 0 hr 35 min 16 sec) 
Heartbeat CPU 0 instructions: 241000001 cycles: 622971191 heartbeat IPC: 0.226477 cumulative IPC: 0.388223 (Simulation time: 0 hr 35 min 32 sec) 
Heartbeat CPU 0 instructions: 242000000 cycles: 624504290 heartbeat IPC: 0.652273 cumulative IPC: 0.388901 (Simulation time: 0 hr 35 min 38 sec) 
Heartbeat CPU 0 instructions: 243000000 cycles: 625459356 heartbeat IPC: 1.04705 cumulative IPC: 0.389953 (Simulation time: 0 hr 35 min 43 sec) 
Heartbeat CPU 0 instructions: 244000001 cycles: 627987798 heartbeat IPC: 0.395501 cumulative IPC: 0.389977 (Simulation time: 0 hr 35 min 51 sec) 
Heartbeat CPU 0 instructions: 245000003 cycles: 630970121 heartbeat IPC: 0.33531 cumulative IPC: 0.389706 (Simulation time: 0 hr 36 min 1 sec) 
Heartbeat CPU 0 instructions: 246000000 cycles: 633965320 heartbeat IPC: 0.333867 cumulative IPC: 0.38943 (Simulation time: 0 hr 36 min 9 sec) 
Heartbeat CPU 0 instructions: 247000002 cycles: 636251717 heartbeat IPC: 0.43737 cumulative IPC: 0.389611 (Simulation time: 0 hr 36 min 19 sec) 
Heartbeat CPU 0 instructions: 248000000 cycles: 640159549 heartbeat IPC: 0.255896 cumulative IPC: 0.388757 (Simulation time: 0 hr 36 min 32 sec) 
Heartbeat CPU 0 instructions: 249000000 cycles: 641174349 heartbeat IPC: 0.985416 cumulative IPC: 0.389745 (Simulation time: 0 hr 36 min 37 sec) 
Heartbeat CPU 0 instructions: 250000001 cycles: 642498690 heartbeat IPC: 0.755093 cumulative IPC: 0.390532 (Simulation time: 0 hr 36 min 42 sec) 
Heartbeat CPU 0 instructions: 251000003 cycles: 645003163 heartbeat IPC: 0.399286 cumulative IPC: 0.390567 (Simulation time: 0 hr 36 min 51 sec) 
Heartbeat CPU 0 instructions: 252000003 cycles: 648250020 heartbeat IPC: 0.30799 cumulative IPC: 0.390135 (Simulation time: 0 hr 37 min 1 sec) 
Heartbeat CPU 0 instructions: 253000000 cycles: 650842174 heartbeat IPC: 0.385778 cumulative IPC: 0.390117 (Simulation time: 0 hr 37 min 9 sec) 
Heartbeat CPU 0 instructions: 254000001 cycles: 654222115 heartbeat IPC: 0.295863 cumulative IPC: 0.389608 (Simulation time: 0 hr 37 min 22 sec) 
Heartbeat CPU 0 instructions: 255000001 cycles: 656837919 heartbeat IPC: 0.382292 cumulative IPC: 0.389578 (Simulation time: 0 hr 37 min 31 sec) 
Heartbeat CPU 0 instructions: 256000001 cycles: 657834735 heartbeat IPC: 1.00319 cumulative IPC: 0.390549 (Simulation time: 0 hr 37 min 36 sec) 
Heartbeat CPU 0 instructions: 257000001 cycles: 660320397 heartbeat IPC: 0.402307 cumulative IPC: 0.390595 (Simulation time: 0 hr 37 min 43 sec) 
Heartbeat CPU 0 instructions: 258000001 cycles: 662862562 heartbeat IPC: 0.393366 cumulative IPC: 0.390606 (Simulation time: 0 hr 37 min 52 sec) 
Heartbeat CPU 0 instructions: 259000002 cycles: 665889640 heartbeat IPC: 0.330352 cumulative IPC: 0.39032 (Simulation time: 0 hr 38 min 1 sec) 
Heartbeat CPU 0 instructions: 260000001 cycles: 667693971 heartbeat IPC: 0.554222 cumulative IPC: 0.390783 (Simulation time: 0 hr 38 min 9 sec) 
Heartbeat CPU 0 instructions: 261000003 cycles: 672086256 heartbeat IPC: 0.227672 cumulative IPC: 0.38967 (Simulation time: 0 hr 38 min 25 sec) 
Heartbeat CPU 0 instructions: 262000001 cycles: 673440278 heartbeat IPC: 0.738539 cumulative IPC: 0.390402 (Simulation time: 0 hr 38 min 30 sec) 
Heartbeat CPU 0 instructions: 263000002 cycles: 674391650 heartbeat IPC: 1.05111 cumulative IPC: 0.391375 (Simulation time: 0 hr 38 min 35 sec) 
Heartbeat CPU 0 instructions: 264000000 cycles: 676916533 heartbeat IPC: 0.396057 cumulative IPC: 0.391393 (Simulation time: 0 hr 38 min 43 sec) 
Heartbeat CPU 0 instructions: 265000000 cycles: 679942335 heartbeat IPC: 0.330491 cumulative IPC: 0.39111 (Simulation time: 0 hr 38 min 53 sec) 
Heartbeat CPU 0 instructions: 266000001 cycles: 682953137 heartbeat IPC: 0.332138 cumulative IPC: 0.390839 (Simulation time: 0 hr 39 min 2 sec) 
Heartbeat CPU 0 instructions: 267000000 cycles: 685338495 heartbeat IPC: 0.419224 cumulative IPC: 0.390942 (Simulation time: 0 hr 39 min 11 sec) 
Heartbeat CPU 0 instructions: 268000001 cycles: 689073457 heartbeat IPC: 0.267741 cumulative IPC: 0.390246 (Simulation time: 0 hr 39 min 24 sec) 
Heartbeat CPU 0 instructions: 269000002 cycles: 690073794 heartbeat IPC: 0.999664 cumulative IPC: 0.391167 (Simulation time: 0 hr 39 min 29 sec) 
Heartbeat CPU 0 instructions: 270000000 cycles: 691576172 heartbeat IPC: 0.66561 cumulative IPC: 0.391788 (Simulation time: 0 hr 39 min 35 sec) 
Heartbeat CPU 0 instructions: 271000000 cycles: 694050859 heartbeat IPC: 0.404092 cumulative IPC: 0.391834 (Simulation time: 0 hr 39 min 44 sec) 
Heartbeat CPU 0 instructions: 272000002 cycles: 696407576 heartbeat IPC: 0.42432 cumulative IPC: 0.391948 (Simulation time: 0 hr 39 min 51 sec) 
Heartbeat CPU 0 instructions: 273000001 cycles: 705746312 heartbeat IPC: 0.107081 cumulative IPC: 0.388023 (Simulation time: 0 hr 40 min 4 sec) 
Heartbeat CPU 0 instructions: 274000000 cycles: 708309430 heartbeat IPC: 0.390149 cumulative IPC: 0.388031 (Simulation time: 0 hr 40 min 17 sec) 
Heartbeat CPU 0 instructions: 275000000 cycles: 710945262 heartbeat IPC: 0.379387 cumulative IPC: 0.387998 (Simulation time: 0 hr 40 min 31 sec) 
Heartbeat CPU 0 instructions: 276000000 cycles: 716154128 heartbeat IPC: 0.19198 cumulative IPC: 0.386514 (Simulation time: 0 hr 40 min 43 sec) 
Heartbeat CPU 0 instructions: 277000001 cycles: 720350993 heartbeat IPC: 0.238273 cumulative IPC: 0.385616 (Simulation time: 0 hr 40 min 54 sec) 
Heartbeat CPU 0 instructions: 278000001 cycles: 723551759 heartbeat IPC: 0.312425 cumulative IPC: 0.385279 (Simulation time: 0 hr 41 min 4 sec) 
Heartbeat CPU 0 instructions: 279000002 cycles: 727116679 heartbeat IPC: 0.280511 cumulative IPC: 0.384745 (Simulation time: 0 hr 41 min 13 sec) 
Heartbeat CPU 0 instructions: 280000002 cycles: 729862480 heartbeat IPC: 0.364192 cumulative IPC: 0.384665 (Simulation time: 0 hr 41 min 20 sec) 
Heartbeat CPU 0 instructions: 281000001 cycles: 732408229 heartbeat IPC: 0.392811 cumulative IPC: 0.384694 (Simulation time: 0 hr 41 min 28 sec) 
Heartbeat CPU 0 instructions: 282000002 cycles: 734492558 heartbeat IPC: 0.479771 cumulative IPC: 0.384974 (Simulation time: 0 hr 41 min 35 sec) 
Heartbeat CPU 0 instructions: 283000001 cycles: 736356569 heartbeat IPC: 0.536477 cumulative IPC: 0.385373 (Simulation time: 0 hr 41 min 42 sec) 
Heartbeat CPU 0 instructions: 284000002 cycles: 737760769 heartbeat IPC: 0.71215 cumulative IPC: 0.38602 (Simulation time: 0 hr 41 min 50 sec) 
Heartbeat CPU 0 instructions: 285000003 cycles: 739005790 heartbeat IPC: 0.8032 cumulative IPC: 0.38675 (Simulation time: 0 hr 41 min 56 sec) 
Heartbeat CPU 0 instructions: 286000000 cycles: 740411872 heartbeat IPC: 0.711194 cumulative IPC: 0.38739 (Simulation time: 0 hr 42 min 4 sec) 
Heartbeat CPU 0 instructions: 287000002 cycles: 743787756 heartbeat IPC: 0.296219 cumulative IPC: 0.38696 (Simulation time: 0 hr 42 min 14 sec) 
Heartbeat CPU 0 instructions: 288000001 cycles: 746105501 heartbeat IPC: 0.431453 cumulative IPC: 0.387104 (Simulation time: 0 hr 42 min 23 sec) 
Heartbeat CPU 0 instructions: 289000001 cycles: 748823067 heartbeat IPC: 0.367976 cumulative IPC: 0.387032 (Simulation time: 0 hr 42 min 33 sec) 
Heartbeat CPU 0 instructions: 290000001 cycles: 751334060 heartbeat IPC: 0.398249 cumulative IPC: 0.387071 (Simulation time: 0 hr 42 min 40 sec) 
Heartbeat CPU 0 instructions: 291000003 cycles: 754675785 heartbeat IPC: 0.299247 cumulative IPC: 0.386667 (Simulation time: 0 hr 42 min 52 sec) 
Heartbeat CPU 0 instructions: 292000003 cycles: 757395773 heartbeat IPC: 0.367649 cumulative IPC: 0.386596 (Simulation time: 0 hr 43 min 1 sec) 
Heartbeat CPU 0 instructions: 293000000 cycles: 758399220 heartbeat IPC: 0.996562 cumulative IPC: 0.387434 (Simulation time: 0 hr 43 min 6 sec) 
Heartbeat CPU 0 instructions: 294000000 cycles: 760841116 heartbeat IPC: 0.409518 cumulative IPC: 0.387508 (Simulation time: 0 hr 43 min 14 sec) 
Heartbeat CPU 0 instructions: 295000000 cycles: 763376059 heartbeat IPC: 0.394486 cumulative IPC: 0.387532 (Simulation time: 0 hr 43 min 23 sec) 
Heartbeat CPU 0 instructions: 296000003 cycles: 766570015 heartbeat IPC: 0.313092 cumulative IPC: 0.38721 (Simulation time: 0 hr 43 min 32 sec) 
Heartbeat CPU 0 instructions: 297000000 cycles: 768330485 heartbeat IPC: 0.568028 cumulative IPC: 0.38764 (Simulation time: 0 hr 43 min 39 sec) 
Heartbeat CPU 0 instructions: 298000001 cycles: 772781687 heartbeat IPC: 0.224659 cumulative IPC: 0.386666 (Simulation time: 0 hr 43 min 54 sec) 
Heartbeat CPU 0 instructions: 299000000 cycles: 774161588 heartbeat IPC: 0.724689 cumulative IPC: 0.387291 (Simulation time: 0 hr 43 min 59 sec) 
Heartbeat CPU 0 instructions: 300000003 cycles: 775088413 heartbeat IPC: 1.07896 cumulative IPC: 0.388149 (Simulation time: 0 hr 44 min 4 sec) 
Heartbeat CPU 0 instructions: 301000003 cycles: 777640292 heartbeat IPC: 0.391868 cumulative IPC: 0.388161 (Simulation time: 0 hr 44 min 13 sec) 
Heartbeat CPU 0 instructions: 302000000 cycles: 780749489 heartbeat IPC: 0.321626 cumulative IPC: 0.387887 (Simulation time: 0 hr 44 min 22 sec) 
Heartbeat CPU 0 instructions: 303000002 cycles: 783705736 heartbeat IPC: 0.338267 cumulative IPC: 0.387692 (Simulation time: 0 hr 44 min 31 sec) 
Heartbeat CPU 0 instructions: 304000001 cycles: 785948079 heartbeat IPC: 0.445962 cumulative IPC: 0.387865 (Simulation time: 0 hr 44 min 40 sec) 
Heartbeat CPU 0 instructions: 305000000 cycles: 789932540 heartbeat IPC: 0.250975 cumulative IPC: 0.387149 (Simulation time: 0 hr 44 min 53 sec) 
Heartbeat CPU 0 instructions: 306000001 cycles: 790938284 heartbeat IPC: 0.99429 cumulative IPC: 0.387949 (Simulation time: 0 hr 44 min 58 sec) 
Heartbeat CPU 0 instructions: 307000002 cycles: 792272738 heartbeat IPC: 0.749371 cumulative IPC: 0.38858 (Simulation time: 0 hr 45 min 4 sec) 
Heartbeat CPU 0 instructions: 308000000 cycles: 794794310 heartbeat IPC: 0.396577 cumulative IPC: 0.388607 (Simulation time: 0 hr 45 min 12 sec) 
Heartbeat CPU 0 instructions: 309000001 cycles: 798484420 heartbeat IPC: 0.270995 cumulative IPC: 0.388043 (Simulation time: 0 hr 45 min 25 sec) 
Heartbeat CPU 0 instructions: 310000001 cycles: 801224321 heartbeat IPC: 0.364977 cumulative IPC: 0.387962 (Simulation time: 0 hr 45 min 33 sec) 
Heartbeat CPU 0 instructions: 311000000 cycles: 803304325 heartbeat IPC: 0.480768 cumulative IPC: 0.388211 (Simulation time: 0 hr 45 min 42 sec) 
Heartbeat CPU 0 instructions: 312000003 cycles: 807569208 heartbeat IPC: 0.234474 cumulative IPC: 0.38737 (Simulation time: 0 hr 45 min 56 sec) 
Heartbeat CPU 0 instructions: 313000001 cycles: 808606683 heartbeat IPC: 0.963877 cumulative IPC: 0.388136 (Simulation time: 0 hr 46 min 1 sec) 
Heartbeat CPU 0 instructions: 314000000 cycles: 809584828 heartbeat IPC: 1.02234 cumulative IPC: 0.388929 (Simulation time: 0 hr 46 min 6 sec) 
Heartbeat CPU 0 instructions: 315000000 cycles: 812042999 heartbeat IPC: 0.406807 cumulative IPC: 0.388986 (Simulation time: 0 hr 46 min 15 sec) 
Heartbeat CPU 0 instructions: 316000002 cycles: 815991674 heartbeat IPC: 0.25325 cumulative IPC: 0.388305 (Simulation time: 0 hr 46 min 27 sec) 
Heartbeat CPU 0 instructions: 317000000 cycles: 818938434 heartbeat IPC: 0.339355 cumulative IPC: 0.388123 (Simulation time: 0 hr 46 min 37 sec) 
Heartbeat CPU 0 instructions: 318000002 cycles: 820858242 heartbeat IPC: 0.520886 cumulative IPC: 0.388444 (Simulation time: 0 hr 46 min 45 sec) 
Heartbeat CPU 0 instructions: 319000000 cycles: 825382586 heartbeat IPC: 0.221026 cumulative IPC: 0.387495 (Simulation time: 0 hr 47 min 0 sec) 
Heartbeat CPU 0 instructions: 320000002 cycles: 826433006 heartbeat IPC: 0.952002 cumulative IPC: 0.388237 (Simulation time: 0 hr 47 min 5 sec) 
Heartbeat CPU 0 instructions: 321000003 cycles: 827374516 heartbeat IPC: 1.06212 cumulative IPC: 0.389031 (Simulation time: 0 hr 47 min 10 sec) 
Heartbeat CPU 0 instructions: 322000001 cycles: 829783588 heartbeat IPC: 0.415097 cumulative IPC: 0.389109 (Simulation time: 0 hr 47 min 18 sec) 
Heartbeat CPU 0 instructions: 323000000 cycles: 833045525 heartbeat IPC: 0.306566 cumulative IPC: 0.388775 (Simulation time: 0 hr 47 min 29 sec) 
Heartbeat CPU 0 instructions: 324000002 cycles: 835681487 heartbeat IPC: 0.379369 cumulative IPC: 0.388744 (Simulation time: 0 hr 47 min 37 sec) 
Heartbeat CPU 0 instructions: 325000002 cycles: 839068537 heartbeat IPC: 0.295242 cumulative IPC: 0.388354 (Simulation time: 0 hr 47 min 49 sec) 
Heartbeat CPU 0 instructions: 326000001 cycles: 841721051 heartbeat IPC: 0.377 cumulative IPC: 0.388317 (Simulation time: 0 hr 47 min 58 sec) 
Heartbeat CPU 0 instructions: 327000001 cycles: 842680894 heartbeat IPC: 1.04184 cumulative IPC: 0.389087 (Simulation time: 0 hr 48 min 3 sec) 
Heartbeat CPU 0 instructions: 328000001 cycles: 845035182 heartbeat IPC: 0.424757 cumulative IPC: 0.389189 (Simulation time: 0 hr 48 min 11 sec) 
Heartbeat CPU 0 instructions: 329000000 cycles: 847557466 heartbeat IPC: 0.396466 cumulative IPC: 0.389212 (Simulation time: 0 hr 48 min 20 sec) 
Heartbeat CPU 0 instructions: 330000000 cycles: 850195133 heartbeat IPC: 0.379123 cumulative IPC: 0.389179 (Simulation time: 0 hr 48 min 32 sec) 
Heartbeat CPU 0 instructions: 331000002 cycles: 852975654 heartbeat IPC: 0.359646 cumulative IPC: 0.38908 (Simulation time: 0 hr 48 min 40 sec) 
Heartbeat CPU 0 instructions: 332000000 cycles: 856130138 heartbeat IPC: 0.317008 cumulative IPC: 0.388805 (Simulation time: 0 hr 48 min 52 sec) 
Heartbeat CPU 0 instructions: 333000001 cycles: 858987404 heartbeat IPC: 0.349985 cumulative IPC: 0.388672 (Simulation time: 0 hr 49 min 2 sec) 
Heartbeat CPU 0 instructions: 334000000 cycles: 859973427 heartbeat IPC: 1.01417 cumulative IPC: 0.389413 (Simulation time: 0 hr 49 min 6 sec) 
Heartbeat CPU 0 instructions: 335000003 cycles: 862269944 heartbeat IPC: 0.435443 cumulative IPC: 0.38954 (Simulation time: 0 hr 49 min 14 sec) 
Heartbeat CPU 0 instructions: 336000000 cycles: 864694957 heartbeat IPC: 0.412368 cumulative IPC: 0.389606 (Simulation time: 0 hr 49 min 23 sec) 
Heartbeat CPU 0 instructions: 337000001 cycles: 866492894 heartbeat IPC: 0.556194 cumulative IPC: 0.389963 (Simulation time: 0 hr 49 min 31 sec) 
Heartbeat CPU 0 instructions: 338000003 cycles: 869223018 heartbeat IPC: 0.366284 cumulative IPC: 0.389886 (Simulation time: 0 hr 49 min 39 sec) 
Heartbeat CPU 0 instructions: 339000000 cycles: 872563648 heartbeat IPC: 0.299344 cumulative IPC: 0.389528 (Simulation time: 0 hr 49 min 51 sec) 
Heartbeat CPU 0 instructions: 340000000 cycles: 875171878 heartbeat IPC: 0.383402 cumulative IPC: 0.389509 (Simulation time: 0 hr 50 min 0 sec) 
Heartbeat CPU 0 instructions: 341000000 cycles: 876143813 heartbeat IPC: 1.02888 cumulative IPC: 0.390242 (Simulation time: 0 hr 50 min 5 sec) 
Heartbeat CPU 0 instructions: 342000003 cycles: 878505191 heartbeat IPC: 0.423483 cumulative IPC: 0.390334 (Simulation time: 0 hr 50 min 13 sec) 
Heartbeat CPU 0 instructions: 343000002 cycles: 881047696 heartbeat IPC: 0.393313 cumulative IPC: 0.390343 (Simulation time: 0 hr 50 min 22 sec) 
Heartbeat CPU 0 instructions: 344000002 cycles: 882771209 heartbeat IPC: 0.58021 cumulative IPC: 0.390726 (Simulation time: 0 hr 50 min 29 sec) 
Heartbeat CPU 0 instructions: 345000003 cycles: 885393696 heartbeat IPC: 0.381318 cumulative IPC: 0.390697 (Simulation time: 0 hr 50 min 38 sec) 
Heartbeat CPU 0 instructions: 346000003 cycles: 888882774 heartbeat IPC: 0.286609 cumulative IPC: 0.390275 (Simulation time: 0 hr 50 min 50 sec) 
Heartbeat CPU 0 instructions: 347000000 cycles: 891410566 heartbeat IPC: 0.395601 cumulative IPC: 0.390291 (Simulation time: 0 hr 50 min 59 sec) 
Heartbeat CPU 0 instructions: 348000002 cycles: 892392492 heartbeat IPC: 1.01841 cumulative IPC: 0.391004 (Simulation time: 0 hr 51 min 4 sec) 
Heartbeat CPU 0 instructions: 349000001 cycles: 894814569 heartbeat IPC: 0.412868 cumulative IPC: 0.391066 (Simulation time: 0 hr 51 min 12 sec) 
Heartbeat CPU 0 instructions: 350000000 cycles: 897390746 heartbeat IPC: 0.388172 cumulative IPC: 0.391057 (Simulation time: 0 hr 51 min 21 sec) 
Heartbeat CPU 0 instructions: 351000001 cycles: 899131827 heartbeat IPC: 0.574356 cumulative IPC: 0.391423 (Simulation time: 0 hr 51 min 28 sec) 
Heartbeat CPU 0 instructions: 352000000 cycles: 901619839 heartbeat IPC: 0.401927 cumulative IPC: 0.391453 (Simulation time: 0 hr 51 min 36 sec) 
Heartbeat CPU 0 instructions: 353000000 cycles: 905164269 heartbeat IPC: 0.282133 cumulative IPC: 0.391011 (Simulation time: 0 hr 51 min 49 sec) 
Heartbeat CPU 0 instructions: 354000000 cycles: 907576547 heartbeat IPC: 0.414546 cumulative IPC: 0.391076 (Simulation time: 0 hr 51 min 58 sec) 
Heartbeat CPU 0 instructions: 355000003 cycles: 908571983 heartbeat IPC: 1.00459 cumulative IPC: 0.391769 (Simulation time: 0 hr 52 min 3 sec) 
Heartbeat CPU 0 instructions: 356000000 cycles: 910891198 heartbeat IPC: 0.431179 cumulative IPC: 0.391873 (Simulation time: 0 hr 52 min 11 sec) 
Heartbeat CPU 0 instructions: 357000001 cycles: 913527748 heartbeat IPC: 0.379284 cumulative IPC: 0.391836 (Simulation time: 0 hr 52 min 20 sec) 
Heartbeat CPU 0 instructions: 358000001 cycles: 917261271 heartbeat IPC: 0.267844 cumulative IPC: 0.391315 (Simulation time: 0 hr 52 min 28 sec) 
Heartbeat CPU 0 instructions: 359000003 cycles: 924579030 heartbeat IPC: 0.136654 cumulative IPC: 0.389237 (Simulation time: 0 hr 52 min 41 sec) 
Heartbeat CPU 0 instructions: 360000001 cycles: 926531989 heartbeat IPC: 0.512043 cumulative IPC: 0.389503 (Simulation time: 0 hr 52 min 54 sec) 
Heartbeat CPU 0 instructions: 361000003 cycles: 930686173 heartbeat IPC: 0.240722 cumulative IPC: 0.388819 (Simulation time: 0 hr 53 min 7 sec) 
Heartbeat CPU 0 instructions: 362000002 cycles: 935694009 heartbeat IPC: 0.199687 cumulative IPC: 0.387775 (Simulation time: 0 hr 53 min 19 sec) 
Heartbeat CPU 0 instructions: 363000000 cycles: 939181400 heartbeat IPC: 0.286747 cumulative IPC: 0.387389 (Simulation time: 0 hr 53 min 29 sec) 
Heartbeat CPU 0 instructions: 364000000 cycles: 942499032 heartbeat IPC: 0.30142 cumulative IPC: 0.387077 (Simulation time: 0 hr 53 min 40 sec) 
Heartbeat CPU 0 instructions: 365000001 cycles: 945720390 heartbeat IPC: 0.310428 cumulative IPC: 0.386808 (Simulation time: 0 hr 53 min 47 sec) 
Heartbeat CPU 0 instructions: 366000000 cycles: 948591724 heartbeat IPC: 0.34827 cumulative IPC: 0.386688 (Simulation time: 0 hr 53 min 55 sec) 
Heartbeat CPU 0 instructions: 367000001 cycles: 950724412 heartbeat IPC: 0.468892 cumulative IPC: 0.386878 (Simulation time: 0 hr 54 min 2 sec) 
Heartbeat CPU 0 instructions: 368000003 cycles: 953149222 heartbeat IPC: 0.412404 cumulative IPC: 0.386945 (Simulation time: 0 hr 54 min 10 sec) 
Heartbeat CPU 0 instructions: 369000002 cycles: 954617962 heartbeat IPC: 0.680855 cumulative IPC: 0.38741 (Simulation time: 0 hr 54 min 17 sec) 
Heartbeat CPU 0 instructions: 370000000 cycles: 955990022 heartbeat IPC: 0.72883 cumulative IPC: 0.387915 (Simulation time: 0 hr 54 min 24 sec) 
Heartbeat CPU 0 instructions: 371000000 cycles: 957368818 heartbeat IPC: 0.72527 cumulative IPC: 0.388416 (Simulation time: 0 hr 54 min 31 sec) 
Heartbeat CPU 0 instructions: 372000000 cycles: 959472640 heartbeat IPC: 0.475325 cumulative IPC: 0.388612 (Simulation time: 0 hr 54 min 40 sec) 
Heartbeat CPU 0 instructions: 373000002 cycles: 962441255 heartbeat IPC: 0.336858 cumulative IPC: 0.388448 (Simulation time: 0 hr 54 min 50 sec) 
Heartbeat CPU 0 instructions: 374000000 cycles: 964663630 heartbeat IPC: 0.449968 cumulative IPC: 0.388593 (Simulation time: 0 hr 54 min 58 sec) 
Heartbeat CPU 0 instructions: 375000000 cycles: 967819416 heartbeat IPC: 0.316878 cumulative IPC: 0.388353 (Simulation time: 0 hr 55 min 8 sec) 
Heartbeat CPU 0 instructions: 376000001 cycles: 969685901 heartbeat IPC: 0.535767 cumulative IPC: 0.388645 (Simulation time: 0 hr 55 min 16 sec) 
Heartbeat CPU 0 instructions: 377000000 cycles: 974374895 heartbeat IPC: 0.213265 cumulative IPC: 0.387776 (Simulation time: 0 hr 55 min 31 sec) 
Heartbeat CPU 0 instructions: 378000000 cycles: 975504285 heartbeat IPC: 0.885434 cumulative IPC: 0.388369 (Simulation time: 0 hr 55 min 36 sec) 
Heartbeat CPU 0 instructions: 379000002 cycles: 976428114 heartbeat IPC: 1.08245 cumulative IPC: 0.389045 (Simulation time: 0 hr 55 min 41 sec) 
Heartbeat CPU 0 instructions: 380000001 cycles: 978911639 heartbeat IPC: 0.402653 cumulative IPC: 0.389081 (Simulation time: 0 hr 55 min 49 sec) 
Heartbeat CPU 0 instructions: 381000001 cycles: 981966042 heartbeat IPC: 0.327396 cumulative IPC: 0.388883 (Simulation time: 0 hr 55 min 59 sec) 
Heartbeat CPU 0 instructions: 382000000 cycles: 984873511 heartbeat IPC: 0.343941 cumulative IPC: 0.388747 (Simulation time: 0 hr 56 min 7 sec) 
Heartbeat CPU 0 instructions: 383000002 cycles: 987387128 heartbeat IPC: 0.397834 cumulative IPC: 0.38877 (Simulation time: 0 hr 56 min 17 sec) 
Heartbeat CPU 0 instructions: 384000001 cycles: 990972542 heartbeat IPC: 0.278908 cumulative IPC: 0.388361 (Simulation time: 0 hr 56 min 30 sec) 
Heartbeat CPU 0 instructions: 385000000 cycles: 991963301 heartbeat IPC: 1.00933 cumulative IPC: 0.389 (Simulation time: 0 hr 56 min 35 sec) 
Heartbeat CPU 0 instructions: 386000000 cycles: 993579656 heartbeat IPC: 0.618676 cumulative IPC: 0.389384 (Simulation time: 0 hr 56 min 41 sec) 
Heartbeat CPU 0 instructions: 387000003 cycles: 995927479 heartbeat IPC: 0.425928 cumulative IPC: 0.389473 (Simulation time: 0 hr 56 min 49 sec) 
Heartbeat CPU 0 instructions: 388000001 cycles: 998627347 heartbeat IPC: 0.370388 cumulative IPC: 0.38942 (Simulation time: 0 hr 56 min 59 sec) 
Heartbeat CPU 0 instructions: 389000002 cycles: 1001331473 heartbeat IPC: 0.369806 cumulative IPC: 0.389365 (Simulation time: 0 hr 57 min 7 sec) 
Heartbeat CPU 0 instructions: 390000000 cycles: 1004713575 heartbeat IPC: 0.295674 cumulative IPC: 0.389041 (Simulation time: 0 hr 57 min 19 sec) 
Heartbeat CPU 0 instructions: 391000001 cycles: 1007274981 heartbeat IPC: 0.390411 cumulative IPC: 0.389044 (Simulation time: 0 hr 57 min 28 sec) 
Heartbeat CPU 0 instructions: 392000002 cycles: 1008246905 heartbeat IPC: 1.02889 cumulative IPC: 0.389679 (Simulation time: 0 hr 57 min 33 sec) 
Heartbeat CPU 0 instructions: 393000001 cycles: 1010676404 heartbeat IPC: 0.411607 cumulative IPC: 0.389733 (Simulation time: 0 hr 57 min 41 sec) 
Heartbeat CPU 0 instructions: 394000000 cycles: 1013246819 heartbeat IPC: 0.389042 cumulative IPC: 0.389731 (Simulation time: 0 hr 57 min 50 sec) 
Heartbeat CPU 0 instructions: 395000002 cycles: 1016000108 heartbeat IPC: 0.363203 cumulative IPC: 0.389657 (Simulation time: 0 hr 57 min 58 sec) 
Heartbeat CPU 0 instructions: 396000000 cycles: 1017712393 heartbeat IPC: 0.584014 cumulative IPC: 0.389993 (Simulation time: 0 hr 58 min 6 sec) 
Heartbeat CPU 0 instructions: 397000002 cycles: 1022145901 heartbeat IPC: 0.225555 cumulative IPC: 0.38926 (Simulation time: 0 hr 58 min 22 sec) 
Heartbeat CPU 0 instructions: 398000003 cycles: 1023616727 heartbeat IPC: 0.679891 cumulative IPC: 0.389689 (Simulation time: 0 hr 58 min 27 sec) 
Heartbeat CPU 0 instructions: 399000002 cycles: 1024560060 heartbeat IPC: 1.06007 cumulative IPC: 0.390324 (Simulation time: 0 hr 58 min 32 sec) 
Heartbeat CPU 0 instructions: 400000000 cycles: 1026926843 heartbeat IPC: 0.422514 cumulative IPC: 0.3904 (Simulation time: 0 hr 58 min 41 sec) 
Heartbeat CPU 0 instructions: 401000001 cycles: 1029787259 heartbeat IPC: 0.3496 cumulative IPC: 0.390284 (Simulation time: 0 hr 58 min 50 sec) 
Heartbeat CPU 0 instructions: 402000003 cycles: 1032490554 heartbeat IPC: 0.36992 cumulative IPC: 0.390229 (Simulation time: 0 hr 58 min 58 sec) 
Heartbeat CPU 0 instructions: 403000001 cycles: 1034716692 heartbeat IPC: 0.449208 cumulative IPC: 0.390359 (Simulation time: 0 hr 59 min 8 sec) 
Heartbeat CPU 0 instructions: 404000002 cycles: 1038737080 heartbeat IPC: 0.248732 cumulative IPC: 0.389796 (Simulation time: 0 hr 59 min 22 sec) 
Heartbeat CPU 0 instructions: 405000002 cycles: 1039746424 heartbeat IPC: 0.990743 cumulative IPC: 0.390396 (Simulation time: 0 hr 59 min 27 sec) 
Heartbeat CPU 0 instructions: 406000002 cycles: 1040966918 heartbeat IPC: 0.81934 cumulative IPC: 0.390912 (Simulation time: 0 hr 59 min 32 sec) 
Heartbeat CPU 0 instructions: 407000000 cycles: 1043212308 heartbeat IPC: 0.445356 cumulative IPC: 0.391033 (Simulation time: 0 hr 59 min 41 sec) 
Heartbeat CPU 0 instructions: 408000002 cycles: 1046144571 heartbeat IPC: 0.341034 cumulative IPC: 0.390889 (Simulation time: 0 hr 59 min 50 sec) 
Heartbeat CPU 0 instructions: 409000000 cycles: 1049028318 heartbeat IPC: 0.34677 cumulative IPC: 0.390764 (Simulation time: 0 hr 59 min 59 sec) 
Heartbeat CPU 0 instructions: 410000003 cycles: 1051979668 heartbeat IPC: 0.338829 cumulative IPC: 0.390614 (Simulation time: 1 hr 0 min 11 sec) 
Heartbeat CPU 0 instructions: 411000001 cycles: 1054930458 heartbeat IPC: 0.338892 cumulative IPC: 0.390466 (Simulation time: 1 hr 0 min 21 sec) 
Heartbeat CPU 0 instructions: 412000002 cycles: 1055907200 heartbeat IPC: 1.02381 cumulative IPC: 0.391068 (Simulation time: 1 hr 0 min 26 sec) 
Heartbeat CPU 0 instructions: 413000000 cycles: 1058011532 heartbeat IPC: 0.475209 cumulative IPC: 0.39124 (Simulation time: 1 hr 0 min 33 sec) 
Heartbeat CPU 0 instructions: 414000002 cycles: 1060259218 heartbeat IPC: 0.444903 cumulative IPC: 0.391356 (Simulation time: 1 hr 0 min 42 sec) 
Heartbeat CPU 0 instructions: 415000001 cycles: 1062913009 heartbeat IPC: 0.376819 cumulative IPC: 0.391319 (Simulation time: 1 hr 0 min 51 sec) 
Heartbeat CPU 0 instructions: 416000000 cycles: 1065098223 heartbeat IPC: 0.457621 cumulative IPC: 0.391459 (Simulation time: 1 hr 0 min 58 sec) 
Heartbeat CPU 0 instructions: 417000002 cycles: 1068955658 heartbeat IPC: 0.25924 cumulative IPC: 0.390969 (Simulation time: 1 hr 1 min 12 sec) 
Heartbeat CPU 0 instructions: 418000000 cycles: 1071093882 heartbeat IPC: 0.467677 cumulative IPC: 0.391126 (Simulation time: 1 hr 1 min 20 sec) 
Heartbeat CPU 0 instructions: 419000000 cycles: 1072053656 heartbeat IPC: 1.04191 cumulative IPC: 0.391724 (Simulation time: 1 hr 1 min 24 sec) 
Heartbeat CPU 0 instructions: 420000003 cycles: 1074489944 heartbeat IPC: 0.410462 cumulative IPC: 0.391768 (Simulation time: 1 hr 1 min 33 sec) 
Heartbeat CPU 0 instructions: 421000001 cycles: 1077294401 heartbeat IPC: 0.356575 cumulative IPC: 0.391674 (Simulation time: 1 hr 1 min 42 sec) 
Heartbeat CPU 0 instructions: 422000000 cycles: 1079932976 heartbeat IPC: 0.378992 cumulative IPC: 0.391642 (Simulation time: 1 hr 1 min 51 sec) 
Heartbeat CPU 0 instructions: 423000001 cycles: 1081815405 heartbeat IPC: 0.531229 cumulative IPC: 0.391891 (Simulation time: 1 hr 1 min 59 sec) 
Heartbeat CPU 0 instructions: 424000002 cycles: 1086311358 heartbeat IPC: 0.222422 cumulative IPC: 0.391172 (Simulation time: 1 hr 2 min 14 sec) 
Heartbeat CPU 0 instructions: 425000002 cycles: 1087332113 heartbeat IPC: 0.979667 cumulative IPC: 0.391739 (Simulation time: 1 hr 2 min 19 sec) 
Heartbeat CPU 0 instructions: 426000000 cycles: 1088252297 heartbeat IPC: 1.08674 cumulative IPC: 0.392342 (Simulation time: 1 hr 2 min 24 sec) 
Heartbeat CPU 0 instructions: 427000001 cycles: 1090577757 heartbeat IPC: 0.430023 cumulative IPC: 0.392424 (Simulation time: 1 hr 2 min 33 sec) 
Heartbeat CPU 0 instructions: 428000002 cycles: 1093501154 heartbeat IPC: 0.342068 cumulative IPC: 0.392286 (Simulation time: 1 hr 2 min 42 sec) 
Heartbeat CPU 0 instructions: 429000000 cycles: 1096326759 heartbeat IPC: 0.353906 cumulative IPC: 0.392185 (Simulation time: 1 hr 2 min 51 sec) 
Heartbeat CPU 0 instructions: 430000000 cycles: 1098766768 heartbeat IPC: 0.409835 cumulative IPC: 0.392225 (Simulation time: 1 hr 3 min 1 sec) 
Heartbeat CPU 0 instructions: 431000000 cycles: 1102426339 heartbeat IPC: 0.273256 cumulative IPC: 0.39182 (Simulation time: 1 hr 3 min 13 sec) 
Heartbeat CPU 0 instructions: 432000000 cycles: 1103406876 heartbeat IPC: 1.01985 cumulative IPC: 0.392392 (Simulation time: 1 hr 3 min 18 sec) 
Heartbeat CPU 0 instructions: 433000002 cycles: 1104975986 heartbeat IPC: 0.637305 cumulative IPC: 0.392749 (Simulation time: 1 hr 3 min 24 sec) 
Heartbeat CPU 0 instructions: 434000000 cycles: 1107222109 heartbeat IPC: 0.445211 cumulative IPC: 0.392858 (Simulation time: 1 hr 3 min 33 sec) 
Heartbeat CPU 0 instructions: 435000003 cycles: 1110789900 heartbeat IPC: 0.280286 cumulative IPC: 0.392487 (Simulation time: 1 hr 3 min 46 sec) 
Heartbeat CPU 0 instructions: 436000000 cycles: 1113265425 heartbeat IPC: 0.403953 cumulative IPC: 0.392513 (Simulation time: 1 hr 3 min 53 sec) 
Heartbeat CPU 0 instructions: 437000001 cycles: 1115177135 heartbeat IPC: 0.523092 cumulative IPC: 0.392743 (Simulation time: 1 hr 4 min 2 sec) 
Heartbeat CPU 0 instructions: 438000002 cycles: 1119686160 heartbeat IPC: 0.221778 cumulative IPC: 0.392037 (Simulation time: 1 hr 4 min 18 sec) 
Heartbeat CPU 0 instructions: 439000000 cycles: 1120743064 heartbeat IPC: 0.946158 cumulative IPC: 0.392573 (Simulation time: 1 hr 4 min 22 sec) 
Heartbeat CPU 0 instructions: 440000000 cycles: 1121656828 heartbeat IPC: 1.09437 cumulative IPC: 0.393159 (Simulation time: 1 hr 4 min 27 sec) 
Heartbeat CPU 0 instructions: 441000001 cycles: 1124020553 heartbeat IPC: 0.423061 cumulative IPC: 0.393224 (Simulation time: 1 hr 4 min 36 sec) 
Heartbeat CPU 0 instructions: 442000000 cycles: 1126925792 heartbeat IPC: 0.344205 cumulative IPC: 0.393094 (Simulation time: 1 hr 4 min 45 sec) 
Heartbeat CPU 0 instructions: 443000000 cycles: 1133927841 heartbeat IPC: 0.142815 cumulative IPC: 0.39151 (Simulation time: 1 hr 4 min 55 sec) 
Heartbeat CPU 0 instructions: 444000001 cycles: 1138360621 heartbeat IPC: 0.225592 cumulative IPC: 0.390847 (Simulation time: 1 hr 5 min 8 sec) 
Heartbeat CPU 0 instructions: 445000002 cycles: 1140240133 heartbeat IPC: 0.532054 cumulative IPC: 0.391086 (Simulation time: 1 hr 5 min 21 sec) 
Heartbeat CPU 0 instructions: 446000003 cycles: 1145152203 heartbeat IPC: 0.20358 cumulative IPC: 0.390261 (Simulation time: 1 hr 5 min 34 sec) 
Heartbeat CPU 0 instructions: 447000001 cycles: 1149748751 heartbeat IPC: 0.217554 cumulative IPC: 0.389554 (Simulation time: 1 hr 5 min 45 sec) 
Heartbeat CPU 0 instructions: 448000000 cycles: 1153114346 heartbeat IPC: 0.297124 cumulative IPC: 0.389277 (Simulation time: 1 hr 5 min 55 sec) 
Heartbeat CPU 0 instructions: 449000000 cycles: 1156899064 heartbeat IPC: 0.26422 cumulative IPC: 0.388858 (Simulation time: 1 hr 6 min 6 sec) 
Heartbeat CPU 0 instructions: 450000001 cycles: 1159596318 heartbeat IPC: 0.370748 cumulative IPC: 0.388815 (Simulation time: 1 hr 6 min 13 sec) 
Heartbeat CPU 0 instructions: 451000000 cycles: 1162272027 heartbeat IPC: 0.373732 cumulative IPC: 0.388779 (Simulation time: 1 hr 6 min 21 sec) 
Heartbeat CPU 0 instructions: 452000002 cycles: 1164275484 heartbeat IPC: 0.499138 cumulative IPC: 0.388974 (Simulation time: 1 hr 6 min 27 sec) 
Heartbeat CPU 0 instructions: 453000003 cycles: 1166625534 heartbeat IPC: 0.425523 cumulative IPC: 0.389049 (Simulation time: 1 hr 6 min 35 sec) 
Heartbeat CPU 0 instructions: 454000003 cycles: 1168012433 heartbeat IPC: 0.721033 cumulative IPC: 0.389453 (Simulation time: 1 hr 6 min 42 sec) 
Heartbeat CPU 0 instructions: 455000000 cycles: 1169163007 heartbeat IPC: 0.869129 cumulative IPC: 0.389937 (Simulation time: 1 hr 6 min 49 sec) 
Heartbeat CPU 0 instructions: 456000003 cycles: 1170440736 heartbeat IPC: 0.782641 cumulative IPC: 0.390376 (Simulation time: 1 hr 6 min 56 sec) 
Heartbeat CPU 0 instructions: 457000000 cycles: 1173321930 heartbeat IPC: 0.347077 cumulative IPC: 0.390267 (Simulation time: 1 hr 7 min 5 sec) 
Heartbeat CPU 0 instructions: 458000000 cycles: 1175923632 heartbeat IPC: 0.384364 cumulative IPC: 0.390254 (Simulation time: 1 hr 7 min 15 sec) 
Heartbeat CPU 0 instructions: 459000001 cycles: 1178218574 heartbeat IPC: 0.435741 cumulative IPC: 0.390344 (Simulation time: 1 hr 7 min 24 sec) 
Heartbeat CPU 0 instructions: 460000001 cycles: 1180963876 heartbeat IPC: 0.364259 cumulative IPC: 0.390282 (Simulation time: 1 hr 7 min 32 sec) 
Heartbeat CPU 0 instructions: 461000001 cycles: 1183551813 heartbeat IPC: 0.386408 cumulative IPC: 0.390274 (Simulation time: 1 hr 7 min 43 sec) 
Heartbeat CPU 0 instructions: 462000000 cycles: 1187214261 heartbeat IPC: 0.273041 cumulative IPC: 0.389903 (Simulation time: 1 hr 7 min 55 sec) 
Heartbeat CPU 0 instructions: 463000000 cycles: 1188220961 heartbeat IPC: 0.993345 cumulative IPC: 0.390427 (Simulation time: 1 hr 7 min 59 sec) 
Heartbeat CPU 0 instructions: 464000001 cycles: 1189917027 heartbeat IPC: 0.5896 cumulative IPC: 0.390717 (Simulation time: 1 hr 8 min 6 sec) 
Heartbeat CPU 0 instructions: 465000002 cycles: 1192092694 heartbeat IPC: 0.45963 cumulative IPC: 0.390846 (Simulation time: 1 hr 8 min 14 sec) 
Heartbeat CPU 0 instructions: 466000001 cycles: 1195718851 heartbeat IPC: 0.275774 cumulative IPC: 0.390489 (Simulation time: 1 hr 8 min 27 sec) 
Heartbeat CPU 0 instructions: 467000003 cycles: 1198153259 heartbeat IPC: 0.410778 cumulative IPC: 0.390531 (Simulation time: 1 hr 8 min 34 sec) 
Heartbeat CPU 0 instructions: 468000001 cycles: 1200041862 heartbeat IPC: 0.529491 cumulative IPC: 0.390755 (Simulation time: 1 hr 8 min 42 sec) 
Heartbeat CPU 0 instructions: 469000003 cycles: 1204573260 heartbeat IPC: 0.220683 cumulative IPC: 0.3901 (Simulation time: 1 hr 8 min 58 sec) 
Heartbeat CPU 0 instructions: 470000000 cycles: 1205752614 heartbeat IPC: 0.847919 cumulative IPC: 0.390559 (Simulation time: 1 hr 9 min 3 sec) 
Heartbeat CPU 0 instructions: 471000001 cycles: 1206694976 heartbeat IPC: 1.06116 cumulative IPC: 0.391095 (Simulation time: 1 hr 9 min 8 sec) 
Heartbeat CPU 0 instructions: 472000000 cycles: 1209086168 heartbeat IPC: 0.418201 cumulative IPC: 0.391149 (Simulation time: 1 hr 9 min 16 sec) 
Heartbeat CPU 0 instructions: 473000000 cycles: 1211945307 heartbeat IPC: 0.349756 cumulative IPC: 0.39105 (Simulation time: 1 hr 9 min 25 sec) 
Heartbeat CPU 0 instructions: 474000000 cycles: 1214751344 heartbeat IPC: 0.356375 cumulative IPC: 0.390968 (Simulation time: 1 hr 9 min 34 sec) 
Heartbeat CPU 0 instructions: 475000003 cycles: 1217237256 heartbeat IPC: 0.402268 cumulative IPC: 0.390991 (Simulation time: 1 hr 9 min 44 sec) 
Heartbeat CPU 0 instructions: 476000000 cycles: 1220954861 heartbeat IPC: 0.26899 cumulative IPC: 0.390611 (Simulation time: 1 hr 9 min 56 sec) 
Heartbeat CPU 0 instructions: 477000002 cycles: 1221945748 heartbeat IPC: 1.0092 cumulative IPC: 0.391124 (Simulation time: 1 hr 10 min 1 sec) 
Heartbeat CPU 0 instructions: 478000003 cycles: 1223535560 heartbeat IPC: 0.629006 cumulative IPC: 0.391441 (Simulation time: 1 hr 10 min 7 sec) 
Heartbeat CPU 0 instructions: 479000002 cycles: 1225716156 heartbeat IPC: 0.45859 cumulative IPC: 0.391563 (Simulation time: 1 hr 10 min 16 sec) 
Heartbeat CPU 0 instructions: 480000002 cycles: 1229202880 heartbeat IPC: 0.286802 cumulative IPC: 0.391259 (Simulation time: 1 hr 10 min 28 sec) 
Heartbeat CPU 0 instructions: 481000002 cycles: 1231659588 heartbeat IPC: 0.407049 cumulative IPC: 0.391291 (Simulation time: 1 hr 10 min 36 sec) 
Heartbeat CPU 0 instructions: 482000000 cycles: 1233576124 heartbeat IPC: 0.521774 cumulative IPC: 0.391499 (Simulation time: 1 hr 10 min 44 sec) 
Heartbeat CPU 0 instructions: 483000000 cycles: 1238086168 heartbeat IPC: 0.221727 cumulative IPC: 0.390866 (Simulation time: 1 hr 11 min 0 sec) 
Heartbeat CPU 0 instructions: 484000000 cycles: 1239129983 heartbeat IPC: 0.958024 cumulative IPC: 0.391355 (Simulation time: 1 hr 11 min 5 sec) 
Heartbeat CPU 0 instructions: 485000002 cycles: 1240062033 heartbeat IPC: 1.07291 cumulative IPC: 0.391879 (Simulation time: 1 hr 11 min 10 sec) 
Heartbeat CPU 0 instructions: 486000003 cycles: 1242513140 heartbeat IPC: 0.407979 cumulative IPC: 0.391911 (Simulation time: 1 hr 11 min 18 sec) 
Heartbeat CPU 0 instructions: 487000002 cycles: 1245334506 heartbeat IPC: 0.354438 cumulative IPC: 0.391824 (Simulation time: 1 hr 11 min 27 sec) 
Heartbeat CPU 0 instructions: 488000003 cycles: 1247779769 heartbeat IPC: 0.408954 cumulative IPC: 0.391859 (Simulation time: 1 hr 11 min 35 sec) 
Heartbeat CPU 0 instructions: 489000002 cycles: 1249720307 heartbeat IPC: 0.51532 cumulative IPC: 0.392055 (Simulation time: 1 hr 11 min 43 sec) 
Heartbeat CPU 0 instructions: 490000001 cycles: 1254254762 heartbeat IPC: 0.220533 cumulative IPC: 0.391421 (Simulation time: 1 hr 11 min 59 sec) 
Heartbeat CPU 0 instructions: 491000001 cycles: 1255359154 heartbeat IPC: 0.905476 cumulative IPC: 0.391883 (Simulation time: 1 hr 12 min 4 sec) 
Heartbeat CPU 0 instructions: 492000002 cycles: 1256294059 heartbeat IPC: 1.06963 cumulative IPC: 0.392399 (Simulation time: 1 hr 12 min 9 sec) 
Heartbeat CPU 0 instructions: 493000002 cycles: 1258680560 heartbeat IPC: 0.419024 cumulative IPC: 0.392451 (Simulation time: 1 hr 12 min 17 sec) 
Heartbeat CPU 0 instructions: 494000002 cycles: 1261477401 heartbeat IPC: 0.357546 cumulative IPC: 0.392371 (Simulation time: 1 hr 12 min 26 sec) 
Heartbeat CPU 0 instructions: 495000000 cycles: 1263920687 heartbeat IPC: 0.409284 cumulative IPC: 0.392405 (Simulation time: 1 hr 12 min 34 sec) 
Heartbeat CPU 0 instructions: 496000003 cycles: 1265822361 heartbeat IPC: 0.525854 cumulative IPC: 0.39261 (Simulation time: 1 hr 12 min 42 sec) 
Heartbeat CPU 0 instructions: 497000000 cycles: 1270408892 heartbeat IPC: 0.218029 cumulative IPC: 0.391965 (Simulation time: 1 hr 12 min 58 sec) 
Heartbeat CPU 0 instructions: 498000000 cycles: 1271463684 heartbeat IPC: 0.948054 cumulative IPC: 0.392437 (Simulation time: 1 hr 13 min 3 sec) 
Heartbeat CPU 0 instructions: 499000000 cycles: 1272373370 heartbeat IPC: 1.09928 cumulative IPC: 0.392954 (Simulation time: 1 hr 13 min 7 sec) 
Heartbeat CPU 0 instructions: 500000002 cycles: 1274760424 heartbeat IPC: 0.418927 cumulative IPC: 0.393003 (Simulation time: 1 hr 13 min 16 sec) 
Heartbeat CPU 0 instructions: 501000003 cycles: 1277553002 heartbeat IPC: 0.358092 cumulative IPC: 0.392925 (Simulation time: 1 hr 13 min 25 sec) 
Heartbeat CPU 0 instructions: 502000002 cycles: 1279977913 heartbeat IPC: 0.412386 cumulative IPC: 0.392963 (Simulation time: 1 hr 13 min 33 sec) 
Heartbeat CPU 0 instructions: 503000000 cycles: 1281871258 heartbeat IPC: 0.528165 cumulative IPC: 0.393167 (Simulation time: 1 hr 13 min 41 sec) 
Heartbeat CPU 0 instructions: 504000003 cycles: 1286407045 heartbeat IPC: 0.22047 cumulative IPC: 0.392545 (Simulation time: 1 hr 13 min 57 sec) 
Heartbeat CPU 0 instructions: 505000001 cycles: 1287457840 heartbeat IPC: 0.951658 cumulative IPC: 0.393011 (Simulation time: 1 hr 14 min 1 sec) 
Heartbeat CPU 0 instructions: 506000000 cycles: 1288385432 heartbeat IPC: 1.07806 cumulative IPC: 0.393515 (Simulation time: 1 hr 14 min 6 sec) 
Heartbeat CPU 0 instructions: 507000003 cycles: 1290778438 heartbeat IPC: 0.417886 cumulative IPC: 0.393562 (Simulation time: 1 hr 14 min 15 sec) 
Heartbeat CPU 0 instructions: 508000000 cycles: 1293565462 heartbeat IPC: 0.358805 cumulative IPC: 0.393485 (Simulation time: 1 hr 14 min 24 sec) 
Heartbeat CPU 0 instructions: 509000001 cycles: 1295968501 heartbeat IPC: 0.41614 cumulative IPC: 0.393528 (Simulation time: 1 hr 14 min 32 sec) 
Heartbeat CPU 0 instructions: 510000000 cycles: 1297833411 heartbeat IPC: 0.536218 cumulative IPC: 0.393738 (Simulation time: 1 hr 14 min 40 sec) 
Finished CPU 0 instructions: 500000001 cycles: 1269881294 cumulative IPC: 0.393738 (Simulation time: 1 hr 14 min 40 sec) 

ChampSim completed all CPUs

Region of Interest Statistics

CPU 0 cumulative IPC: 0.393738 instructions: 500000001 cycles: 1269881294
L1D TOTAL     ACCESS:   98755081  HIT:   70817277  MISS:   27937804
L1D LOAD      ACCESS:   67680883  HIT:   44374085  MISS:   23306798
L1D RFO       ACCESS:   31074198  HIT:   26443192  MISS:    4631006
L1D PREFETCH  ACCESS:          0  HIT:          0  MISS:          0
L1D WRITEBACK ACCESS:          0  HIT:          0  MISS:          0
L1D PREFETCH  REQUESTED:          0  ISSUED:          0  USEFUL:          0  USELESS:          0  UAC CORRECT:          0
L1D AVERAGE MISS LATENCY: 131.806 cycles
L1I TOTAL     ACCESS:   94812418  HIT:   94811172  MISS:       1246
L1I LOAD      ACCESS:   94812418  HIT:   94811172  MISS:       1246
L1I RFO       ACCESS:          0  HIT:          0  MISS:          0
L1I PREFETCH  ACCESS:          0  HIT:          0  MISS:          0
L1I WRITEBACK ACCESS:          0  HIT:          0  MISS:          0
L1I PREFETCH  REQUESTED:          0  ISSUED:          0  USEFUL:          0  USELESS:          0  UAC CORRECT:          0
L1I AVERAGE MISS LATENCY: 279.404 cycles
L2C TOTAL     ACCESS:   40342293  HIT:   18839425  MISS:   21502868
L2C LOAD      ACCESS:   23305727  HIT:    5590331  MISS:   17715396
L2C RFO       ACCESS:    4630477  HIT:     843528  MISS:    3786949
L2C PREFETCH  ACCESS:          0  HIT:          0  MISS:          0
L2C WRITEBACK ACCESS:   12406089  HIT:   12405566  MISS:        523
L2C PREFETCH  REQUESTED:          0  ISSUED:          0  USEFUL:          0  USELESS:          0  UAC CORRECT:          0
L2C AVERAGE MISS LATENCY: 151.294 cycles
LLC TOTAL     ACCESS:   41438206  HIT:   21424349  MISS:   20013857
LLC LOAD      ACCESS:   17715288  HIT:    8562869  MISS:    9152419
LLC RFO       ACCESS:    3786911  HIT:     913858  MISS:    2873053
LLC PREFETCH  ACCESS:   10869894  HIT:    2884594  MISS:    7985300
LLC WRITEBACK ACCESS:    9066113  HIT:    9063028  MISS:       3085
LLC PREFETCH  REQUESTED:   14172825  ISSUED:   12379335  USEFUL:    5096949  USELESS:    2884762  UAC CORRECT:     407314
LLC AVERAGE MISS LATENCY: 210.032 cycles
Major fault: 0 Minor fault: 14406

DRAM Statistics
 CHANNEL 0
 RQ ROW_BUFFER_HIT:    5996762  ROW_BUFFER_MISS:    4010725
 DBUS_CONGESTED:   14152091
 WQ ROW_BUFFER_HIT:    2820853  ROW_BUFFER_MISS:     673752  FULL:          0

 CHANNEL 1
 RQ ROW_BUFFER_HIT:    6004153  ROW_BUFFER_MISS:    3994287
 DBUS_CONGESTED:   14152091
 WQ ROW_BUFFER_HIT:    2823539  ROW_BUFFER_MISS:     678262  FULL:          0

 AVG_CONGESTED_CYCLE: 19

CPU 0 Branch Prediction Accuracy: 96.891% MPKI: 6.54031 Average ROB Occupancy at Mispredict: 74.3059

Branch types
NOT_BRANCH: 394817720 78.9635%
BRANCH_DIRECT_JUMP: 1226814 0.245363%
BRANCH_INDIRECT: 321 6.42e-05%
BRANCH_CONDITIONAL: 103758335 20.7517%
BRANCH_DIRECT_CALL: 97236 0.0194472%
BRANCH_INDIRECT_CALL: 1055 0.000211%
BRANCH_RETURN: 98292 0.0196584%
BRANCH_OTHER: 0 0%


gzip: stdout: Broken pipe
