
*** ChampSim Multicore Out-of-Order Simulator ***

Warmup Instructions: 1000000
Prefetch Warmup Instructions: 10000000
Simulation Instructions: 500000000
Stat Printing Period: 1000000
Number of CPUs: 1
LLC sets: 2048
LLC ways: 16
Off-chip DRAM Size: 32768 MB Channels: 2 Width: 64-bit Data Rate: 1024 MT/s

CPU 0 runs /scratch/cluster/cmolder/ML-DPC/ChampSimTraces/spec06/471.omnetpp-s2.trace.gz
Read seed: 984
Heartbeat CPU 0 instructions: 1000002 cycles: 367657 heartbeat IPC: 2.71993 cumulative IPC: 2.71993 (Simulation time: 0 hr 0 min 5 sec) 

Warmup complete CPU 0 instructions: 1000002 cycles: 367657 (Simulation time: 0 hr 0 min 5 sec) 

Heartbeat CPU 0 instructions: 2000002 cycles: 2675475 heartbeat IPC: 0.43331 cumulative IPC: 0.43331 (Simulation time: 0 hr 0 min 9 sec) 
Heartbeat CPU 0 instructions: 3000002 cycles: 5085446 heartbeat IPC: 0.414943 cumulative IPC: 0.423927 (Simulation time: 0 hr 0 min 14 sec) 
Heartbeat CPU 0 instructions: 4000001 cycles: 7371155 heartbeat IPC: 0.437501 cumulative IPC: 0.428357 (Simulation time: 0 hr 0 min 18 sec) 
Heartbeat CPU 0 instructions: 5000003 cycles: 9609238 heartbeat IPC: 0.446812 cumulative IPC: 0.432826 (Simulation time: 0 hr 0 min 22 sec) 
Heartbeat CPU 0 instructions: 6000000 cycles: 11863425 heartbeat IPC: 0.443618 cumulative IPC: 0.434942 (Simulation time: 0 hr 0 min 26 sec) 
Heartbeat CPU 0 instructions: 7000001 cycles: 14253199 heartbeat IPC: 0.41845 cumulative IPC: 0.432104 (Simulation time: 0 hr 0 min 30 sec) 
Heartbeat CPU 0 instructions: 8000000 cycles: 17106759 heartbeat IPC: 0.350439 cumulative IPC: 0.418182 (Simulation time: 0 hr 0 min 35 sec) 
Heartbeat CPU 0 instructions: 9000002 cycles: 19638065 heartbeat IPC: 0.395054 cumulative IPC: 0.415144 (Simulation time: 0 hr 0 min 40 sec) 
Heartbeat CPU 0 instructions: 10000001 cycles: 22509598 heartbeat IPC: 0.348246 cumulative IPC: 0.406468 (Simulation time: 0 hr 0 min 44 sec) 

Warmup complete CPU 0 instructions: 10000001 cycles: 22509598 (Simulation time: 0 hr 0 min 44 sec) 

Heartbeat CPU 0 instructions: 11000000 cycles: 25102589 heartbeat IPC: 0.385655 cumulative IPC: 0.385655 (Simulation time: 0 hr 0 min 49 sec) 
Heartbeat CPU 0 instructions: 12000001 cycles: 25586201 heartbeat IPC: 2.06778 cumulative IPC: 0.650068 (Simulation time: 0 hr 0 min 52 sec) 
Heartbeat CPU 0 instructions: 13000000 cycles: 26052119 heartbeat IPC: 2.1463 cumulative IPC: 0.846854 (Simulation time: 0 hr 0 min 55 sec) 
Heartbeat CPU 0 instructions: 14000000 cycles: 26504560 heartbeat IPC: 2.21023 cumulative IPC: 1.00126 (Simulation time: 0 hr 0 min 58 sec) 
Heartbeat CPU 0 instructions: 15000002 cycles: 26966961 heartbeat IPC: 2.16263 cumulative IPC: 1.12174 (Simulation time: 0 hr 1 min 2 sec) 
Heartbeat CPU 0 instructions: 16000003 cycles: 29214295 heartbeat IPC: 0.444972 cumulative IPC: 0.894895 (Simulation time: 0 hr 1 min 6 sec) 
Heartbeat CPU 0 instructions: 17000000 cycles: 31555335 heartbeat IPC: 0.427159 cumulative IPC: 0.773845 (Simulation time: 0 hr 1 min 11 sec) 
Heartbeat CPU 0 instructions: 18000003 cycles: 33762025 heartbeat IPC: 0.453169 cumulative IPC: 0.710958 (Simulation time: 0 hr 1 min 15 sec) 
Heartbeat CPU 0 instructions: 19000000 cycles: 35997742 heartbeat IPC: 0.447282 cumulative IPC: 0.667253 (Simulation time: 0 hr 1 min 19 sec) 
Heartbeat CPU 0 instructions: 20000000 cycles: 38828696 heartbeat IPC: 0.353238 cumulative IPC: 0.612779 (Simulation time: 0 hr 1 min 24 sec) 
Heartbeat CPU 0 instructions: 21000001 cycles: 41649167 heartbeat IPC: 0.354551 cumulative IPC: 0.574726 (Simulation time: 0 hr 1 min 28 sec) 
Heartbeat CPU 0 instructions: 22000000 cycles: 44299048 heartbeat IPC: 0.377375 cumulative IPC: 0.550725 (Simulation time: 0 hr 1 min 32 sec) 
Heartbeat CPU 0 instructions: 23000001 cycles: 46567473 heartbeat IPC: 0.440835 cumulative IPC: 0.540364 (Simulation time: 0 hr 1 min 37 sec) 
Heartbeat CPU 0 instructions: 24000001 cycles: 48789907 heartbeat IPC: 0.449957 cumulative IPC: 0.532718 (Simulation time: 0 hr 1 min 41 sec) 
Heartbeat CPU 0 instructions: 25000001 cycles: 51016144 heartbeat IPC: 0.449188 cumulative IPC: 0.526195 (Simulation time: 0 hr 1 min 46 sec) 
Heartbeat CPU 0 instructions: 26000003 cycles: 53211255 heartbeat IPC: 0.455559 cumulative IPC: 0.521145 (Simulation time: 0 hr 1 min 50 sec) 
Heartbeat CPU 0 instructions: 27000000 cycles: 55433946 heartbeat IPC: 0.449904 cumulative IPC: 0.516335 (Simulation time: 0 hr 1 min 55 sec) 
Heartbeat CPU 0 instructions: 28000000 cycles: 57622850 heartbeat IPC: 0.45685 cumulative IPC: 0.512627 (Simulation time: 0 hr 1 min 59 sec) 
Heartbeat CPU 0 instructions: 29000003 cycles: 59941816 heartbeat IPC: 0.431228 cumulative IPC: 0.507584 (Simulation time: 0 hr 2 min 4 sec) 
Heartbeat CPU 0 instructions: 30000001 cycles: 62179872 heartbeat IPC: 0.446815 cumulative IPC: 0.504156 (Simulation time: 0 hr 2 min 8 sec) 
Heartbeat CPU 0 instructions: 31000003 cycles: 64365212 heartbeat IPC: 0.457596 cumulative IPC: 0.501725 (Simulation time: 0 hr 2 min 12 sec) 
Heartbeat CPU 0 instructions: 32000000 cycles: 66583683 heartbeat IPC: 0.45076 cumulative IPC: 0.49916 (Simulation time: 0 hr 2 min 17 sec) 
Heartbeat CPU 0 instructions: 33000000 cycles: 69197752 heartbeat IPC: 0.382545 cumulative IPC: 0.49263 (Simulation time: 0 hr 2 min 21 sec) 
Heartbeat CPU 0 instructions: 34000002 cycles: 71984704 heartbeat IPC: 0.358816 cumulative IPC: 0.485092 (Simulation time: 0 hr 2 min 26 sec) 
Heartbeat CPU 0 instructions: 35000002 cycles: 74543494 heartbeat IPC: 0.39081 cumulative IPC: 0.480456 (Simulation time: 0 hr 2 min 31 sec) 
Heartbeat CPU 0 instructions: 36000001 cycles: 77288210 heartbeat IPC: 0.364336 cumulative IPC: 0.474638 (Simulation time: 0 hr 2 min 36 sec) 
Heartbeat CPU 0 instructions: 37000002 cycles: 79515276 heartbeat IPC: 0.449022 cumulative IPC: 0.473637 (Simulation time: 0 hr 2 min 40 sec) 
Heartbeat CPU 0 instructions: 38000000 cycles: 82070540 heartbeat IPC: 0.391348 cumulative IPC: 0.470107 (Simulation time: 0 hr 2 min 45 sec) 
Heartbeat CPU 0 instructions: 39000002 cycles: 84024734 heartbeat IPC: 0.511721 cumulative IPC: 0.471429 (Simulation time: 0 hr 2 min 49 sec) 
Heartbeat CPU 0 instructions: 40000003 cycles: 84483321 heartbeat IPC: 2.18061 cumulative IPC: 0.484076 (Simulation time: 0 hr 2 min 52 sec) 
Heartbeat CPU 0 instructions: 41000002 cycles: 84936817 heartbeat IPC: 2.20509 cumulative IPC: 0.496578 (Simulation time: 0 hr 2 min 55 sec) 
Heartbeat CPU 0 instructions: 42000002 cycles: 85394410 heartbeat IPC: 2.18535 cumulative IPC: 0.508867 (Simulation time: 0 hr 2 min 59 sec) 
Heartbeat CPU 0 instructions: 43000000 cycles: 86025389 heartbeat IPC: 1.58484 cumulative IPC: 0.519556 (Simulation time: 0 hr 3 min 2 sec) 
Heartbeat CPU 0 instructions: 44000000 cycles: 88315251 heartbeat IPC: 0.436708 cumulative IPC: 0.516673 (Simulation time: 0 hr 3 min 7 sec) 
Heartbeat CPU 0 instructions: 45000001 cycles: 90644420 heartbeat IPC: 0.429338 cumulative IPC: 0.513687 (Simulation time: 0 hr 3 min 11 sec) 
Heartbeat CPU 0 instructions: 46000001 cycles: 93482346 heartbeat IPC: 0.35237 cumulative IPC: 0.507237 (Simulation time: 0 hr 3 min 16 sec) 
Heartbeat CPU 0 instructions: 47000001 cycles: 96308656 heartbeat IPC: 0.353818 cumulative IPC: 0.501361 (Simulation time: 0 hr 3 min 21 sec) 
Heartbeat CPU 0 instructions: 48000000 cycles: 98908233 heartbeat IPC: 0.384678 cumulative IPC: 0.497391 (Simulation time: 0 hr 3 min 25 sec) 
Heartbeat CPU 0 instructions: 49000001 cycles: 101331818 heartbeat IPC: 0.412612 cumulative IPC: 0.494784 (Simulation time: 0 hr 3 min 30 sec) 
Heartbeat CPU 0 instructions: 50000001 cycles: 103565296 heartbeat IPC: 0.447732 cumulative IPC: 0.493488 (Simulation time: 0 hr 3 min 34 sec) 
Heartbeat CPU 0 instructions: 51000003 cycles: 105786248 heartbeat IPC: 0.450258 cumulative IPC: 0.492335 (Simulation time: 0 hr 3 min 38 sec) 
Heartbeat CPU 0 instructions: 52000000 cycles: 107993223 heartbeat IPC: 0.453108 cumulative IPC: 0.491322 (Simulation time: 0 hr 3 min 43 sec) 
Heartbeat CPU 0 instructions: 53000000 cycles: 110211005 heartbeat IPC: 0.450901 cumulative IPC: 0.4903 (Simulation time: 0 hr 3 min 47 sec) 
Heartbeat CPU 0 instructions: 54000001 cycles: 112423295 heartbeat IPC: 0.452021 cumulative IPC: 0.489358 (Simulation time: 0 hr 3 min 51 sec) 
Heartbeat CPU 0 instructions: 55000000 cycles: 114833804 heartbeat IPC: 0.41485 cumulative IPC: 0.487413 (Simulation time: 0 hr 3 min 56 sec) 
Heartbeat CPU 0 instructions: 56000000 cycles: 117069869 heartbeat IPC: 0.447214 cumulative IPC: 0.486462 (Simulation time: 0 hr 4 min 0 sec) 
Heartbeat CPU 0 instructions: 57000000 cycles: 119274491 heartbeat IPC: 0.453593 cumulative IPC: 0.485713 (Simulation time: 0 hr 4 min 4 sec) 
Heartbeat CPU 0 instructions: 58000002 cycles: 121701391 heartbeat IPC: 0.412049 cumulative IPC: 0.483911 (Simulation time: 0 hr 4 min 8 sec) 
Heartbeat CPU 0 instructions: 59000002 cycles: 124488354 heartbeat IPC: 0.358814 cumulative IPC: 0.480492 (Simulation time: 0 hr 4 min 13 sec) 
Heartbeat CPU 0 instructions: 60000000 cycles: 126901247 heartbeat IPC: 0.414439 cumulative IPC: 0.478966 (Simulation time: 0 hr 4 min 17 sec) 
Heartbeat CPU 0 instructions: 61000002 cycles: 129499893 heartbeat IPC: 0.384817 cumulative IPC: 0.476679 (Simulation time: 0 hr 4 min 22 sec) 
Heartbeat CPU 0 instructions: 62000001 cycles: 132297720 heartbeat IPC: 0.35742 cumulative IPC: 0.47364 (Simulation time: 0 hr 4 min 26 sec) 
Heartbeat CPU 0 instructions: 63000002 cycles: 134553102 heartbeat IPC: 0.443384 cumulative IPC: 0.473031 (Simulation time: 0 hr 4 min 31 sec) 
Heartbeat CPU 0 instructions: 64000000 cycles: 136780830 heartbeat IPC: 0.448887 cumulative IPC: 0.47256 (Simulation time: 0 hr 4 min 35 sec) 
Heartbeat CPU 0 instructions: 65000002 cycles: 138996867 heartbeat IPC: 0.451257 cumulative IPC: 0.472155 (Simulation time: 0 hr 4 min 39 sec) 
Heartbeat CPU 0 instructions: 66000000 cycles: 142602016 heartbeat IPC: 0.27738 cumulative IPC: 0.466308 (Simulation time: 0 hr 4 min 45 sec) 
Heartbeat CPU 0 instructions: 67000000 cycles: 143686667 heartbeat IPC: 0.921956 cumulative IPC: 0.470386 (Simulation time: 0 hr 4 min 49 sec) 
Heartbeat CPU 0 instructions: 68000001 cycles: 144142892 heartbeat IPC: 2.1919 cumulative IPC: 0.476843 (Simulation time: 0 hr 4 min 52 sec) 
Heartbeat CPU 0 instructions: 69000000 cycles: 144599547 heartbeat IPC: 2.18983 cumulative IPC: 0.48325 (Simulation time: 0 hr 4 min 55 sec) 
Heartbeat CPU 0 instructions: 70000000 cycles: 145051712 heartbeat IPC: 2.21158 cumulative IPC: 0.489628 (Simulation time: 0 hr 4 min 58 sec) 
Heartbeat CPU 0 instructions: 71000000 cycles: 145526591 heartbeat IPC: 2.1058 cumulative IPC: 0.495866 (Simulation time: 0 hr 5 min 1 sec) 
Heartbeat CPU 0 instructions: 72000001 cycles: 148314559 heartbeat IPC: 0.358685 cumulative IPC: 0.492826 (Simulation time: 0 hr 5 min 6 sec) 
Heartbeat CPU 0 instructions: 73000001 cycles: 151185423 heartbeat IPC: 0.348327 cumulative IPC: 0.489602 (Simulation time: 0 hr 5 min 10 sec) 
Heartbeat CPU 0 instructions: 74000002 cycles: 153993381 heartbeat IPC: 0.356131 cumulative IPC: 0.486752 (Simulation time: 0 hr 5 min 15 sec) 
Heartbeat CPU 0 instructions: 75000000 cycles: 156316897 heartbeat IPC: 0.430381 cumulative IPC: 0.485773 (Simulation time: 0 hr 5 min 20 sec) 
Heartbeat CPU 0 instructions: 76000001 cycles: 158547418 heartbeat IPC: 0.448326 cumulative IPC: 0.485159 (Simulation time: 0 hr 5 min 24 sec) 
Heartbeat CPU 0 instructions: 77000000 cycles: 160774791 heartbeat IPC: 0.448959 cumulative IPC: 0.484576 (Simulation time: 0 hr 5 min 28 sec) 
Heartbeat CPU 0 instructions: 78000000 cycles: 163013951 heartbeat IPC: 0.446596 cumulative IPC: 0.483971 (Simulation time: 0 hr 5 min 32 sec) 
Heartbeat CPU 0 instructions: 79000000 cycles: 165246788 heartbeat IPC: 0.447861 cumulative IPC: 0.483406 (Simulation time: 0 hr 5 min 37 sec) 
Heartbeat CPU 0 instructions: 80000002 cycles: 167462601 heartbeat IPC: 0.451303 cumulative IPC: 0.482915 (Simulation time: 0 hr 5 min 41 sec) 
Heartbeat CPU 0 instructions: 81000003 cycles: 169810289 heartbeat IPC: 0.425951 cumulative IPC: 0.482007 (Simulation time: 0 hr 5 min 45 sec) 
Heartbeat CPU 0 instructions: 82000002 cycles: 172048263 heartbeat IPC: 0.446832 cumulative IPC: 0.481481 (Simulation time: 0 hr 5 min 49 sec) 
Heartbeat CPU 0 instructions: 83000000 cycles: 174294253 heartbeat IPC: 0.445237 cumulative IPC: 0.480945 (Simulation time: 0 hr 5 min 54 sec) 
Heartbeat CPU 0 instructions: 84000000 cycles: 176562321 heartbeat IPC: 0.440904 cumulative IPC: 0.480355 (Simulation time: 0 hr 5 min 58 sec) 
Heartbeat CPU 0 instructions: 85000000 cycles: 179360034 heartbeat IPC: 0.357435 cumulative IPC: 0.478163 (Simulation time: 0 hr 6 min 2 sec) 
Heartbeat CPU 0 instructions: 86000000 cycles: 182140706 heartbeat IPC: 0.359625 cumulative IPC: 0.476098 (Simulation time: 0 hr 6 min 7 sec) 
Heartbeat CPU 0 instructions: 87000001 cycles: 184697284 heartbeat IPC: 0.391148 cumulative IPC: 0.474759 (Simulation time: 0 hr 6 min 12 sec) 
Heartbeat CPU 0 instructions: 88000000 cycles: 187123327 heartbeat IPC: 0.412193 cumulative IPC: 0.473837 (Simulation time: 0 hr 6 min 16 sec) 
Heartbeat CPU 0 instructions: 89000001 cycles: 189633793 heartbeat IPC: 0.398333 cumulative IPC: 0.472702 (Simulation time: 0 hr 6 min 21 sec) 
Heartbeat CPU 0 instructions: 90000000 cycles: 191875391 heartbeat IPC: 0.44611 cumulative IPC: 0.47235 (Simulation time: 0 hr 6 min 26 sec) 
Heartbeat CPU 0 instructions: 91000002 cycles: 194126657 heartbeat IPC: 0.444195 cumulative IPC: 0.471981 (Simulation time: 0 hr 6 min 30 sec) 
Heartbeat CPU 0 instructions: 92000002 cycles: 196538533 heartbeat IPC: 0.414615 cumulative IPC: 0.471186 (Simulation time: 0 hr 6 min 35 sec) 
Heartbeat CPU 0 instructions: 93000001 cycles: 198780054 heartbeat IPC: 0.446125 cumulative IPC: 0.470867 (Simulation time: 0 hr 6 min 39 sec) 
Heartbeat CPU 0 instructions: 94000001 cycles: 202823578 heartbeat IPC: 0.247309 cumulative IPC: 0.465854 (Simulation time: 0 hr 6 min 44 sec) 
Heartbeat CPU 0 instructions: 95000001 cycles: 203335923 heartbeat IPC: 1.95181 cumulative IPC: 0.470064 (Simulation time: 0 hr 6 min 47 sec) 
Heartbeat CPU 0 instructions: 96000000 cycles: 203796391 heartbeat IPC: 2.1717 cumulative IPC: 0.474386 (Simulation time: 0 hr 6 min 51 sec) 
Heartbeat CPU 0 instructions: 97000002 cycles: 204246194 heartbeat IPC: 2.2232 cumulative IPC: 0.478715 (Simulation time: 0 hr 6 min 54 sec) 
Heartbeat CPU 0 instructions: 98000002 cycles: 204705378 heartbeat IPC: 2.17778 cumulative IPC: 0.482997 (Simulation time: 0 hr 6 min 57 sec) 
Heartbeat CPU 0 instructions: 99000000 cycles: 205948469 heartbeat IPC: 0.804445 cumulative IPC: 0.485175 (Simulation time: 0 hr 7 min 1 sec) 
Heartbeat CPU 0 instructions: 100000000 cycles: 208857167 heartbeat IPC: 0.343796 cumulative IPC: 0.482968 (Simulation time: 0 hr 7 min 6 sec) 
Heartbeat CPU 0 instructions: 101000000 cycles: 211397273 heartbeat IPC: 0.393684 cumulative IPC: 0.481768 (Simulation time: 0 hr 7 min 10 sec) 
Heartbeat CPU 0 instructions: 102000000 cycles: 213828200 heartbeat IPC: 0.411366 cumulative IPC: 0.480873 (Simulation time: 0 hr 7 min 15 sec) 
Heartbeat CPU 0 instructions: 103000001 cycles: 216067231 heartbeat IPC: 0.446622 cumulative IPC: 0.480477 (Simulation time: 0 hr 7 min 19 sec) 
Heartbeat CPU 0 instructions: 104000002 cycles: 218307713 heartbeat IPC: 0.446333 cumulative IPC: 0.480086 (Simulation time: 0 hr 7 min 23 sec) 
Heartbeat CPU 0 instructions: 105000002 cycles: 220536418 heartbeat IPC: 0.448691 cumulative IPC: 0.479733 (Simulation time: 0 hr 7 min 27 sec) 
Heartbeat CPU 0 instructions: 106000000 cycles: 222889296 heartbeat IPC: 0.425011 cumulative IPC: 0.47909 (Simulation time: 0 hr 7 min 32 sec) 
Heartbeat CPU 0 instructions: 107000001 cycles: 225140000 heartbeat IPC: 0.444306 cumulative IPC: 0.478704 (Simulation time: 0 hr 7 min 36 sec) 
Heartbeat CPU 0 instructions: 108000003 cycles: 227389301 heartbeat IPC: 0.444583 cumulative IPC: 0.478329 (Simulation time: 0 hr 7 min 41 sec) 
Heartbeat CPU 0 instructions: 109000000 cycles: 229623046 heartbeat IPC: 0.447677 cumulative IPC: 0.477999 (Simulation time: 0 hr 7 min 45 sec) 
Heartbeat CPU 0 instructions: 110000000 cycles: 231885005 heartbeat IPC: 0.442095 cumulative IPC: 0.477611 (Simulation time: 0 hr 7 min 50 sec) 
Heartbeat CPU 0 instructions: 111000002 cycles: 234309143 heartbeat IPC: 0.412519 cumulative IPC: 0.476866 (Simulation time: 0 hr 7 min 54 sec) 
Heartbeat CPU 0 instructions: 112000000 cycles: 237125687 heartbeat IPC: 0.355044 cumulative IPC: 0.475267 (Simulation time: 0 hr 7 min 58 sec) 
Heartbeat CPU 0 instructions: 113000000 cycles: 239701783 heartbeat IPC: 0.388184 cumulative IPC: 0.474234 (Simulation time: 0 hr 8 min 3 sec) 
Heartbeat CPU 0 instructions: 114000002 cycles: 242503196 heartbeat IPC: 0.356963 cumulative IPC: 0.472741 (Simulation time: 0 hr 8 min 8 sec) 
Heartbeat CPU 0 instructions: 115000001 cycles: 245034667 heartbeat IPC: 0.395027 cumulative IPC: 0.471857 (Simulation time: 0 hr 8 min 12 sec) 
Heartbeat CPU 0 instructions: 116000001 cycles: 247291066 heartbeat IPC: 0.443184 cumulative IPC: 0.471569 (Simulation time: 0 hr 8 min 17 sec) 
Heartbeat CPU 0 instructions: 117000002 cycles: 249553898 heartbeat IPC: 0.441925 cumulative IPC: 0.471274 (Simulation time: 0 hr 8 min 21 sec) 
Heartbeat CPU 0 instructions: 118000001 cycles: 251981744 heartbeat IPC: 0.411887 cumulative IPC: 0.470645 (Simulation time: 0 hr 8 min 25 sec) 
Heartbeat CPU 0 instructions: 119000002 cycles: 254233259 heartbeat IPC: 0.444146 cumulative IPC: 0.470388 (Simulation time: 0 hr 8 min 29 sec) 
Heartbeat CPU 0 instructions: 120000003 cycles: 256487847 heartbeat IPC: 0.44354 cumulative IPC: 0.470129 (Simulation time: 0 hr 8 min 33 sec) 
Heartbeat CPU 0 instructions: 121000000 cycles: 258724399 heartbeat IPC: 0.447115 cumulative IPC: 0.469911 (Simulation time: 0 hr 8 min 38 sec) 
Heartbeat CPU 0 instructions: 122000003 cycles: 262785455 heartbeat IPC: 0.246242 cumulative IPC: 0.466131 (Simulation time: 0 hr 8 min 43 sec) 
Heartbeat CPU 0 instructions: 123000002 cycles: 263277871 heartbeat IPC: 2.0308 cumulative IPC: 0.469331 (Simulation time: 0 hr 8 min 46 sec) 
Heartbeat CPU 0 instructions: 124000000 cycles: 263730923 heartbeat IPC: 2.20725 cumulative IPC: 0.472595 (Simulation time: 0 hr 8 min 49 sec) 
Heartbeat CPU 0 instructions: 125000000 cycles: 264187865 heartbeat IPC: 2.18846 cumulative IPC: 0.475839 (Simulation time: 0 hr 8 min 52 sec) 
Heartbeat CPU 0 instructions: 126000000 cycles: 264724027 heartbeat IPC: 1.86511 cumulative IPC: 0.478914 (Simulation time: 0 hr 8 min 55 sec) 
Heartbeat CPU 0 instructions: 127000001 cycles: 266100061 heartbeat IPC: 0.726727 cumulative IPC: 0.480314 (Simulation time: 0 hr 8 min 59 sec) 
Heartbeat CPU 0 instructions: 128000000 cycles: 268973041 heartbeat IPC: 0.34807 cumulative IPC: 0.478773 (Simulation time: 0 hr 9 min 3 sec) 
Heartbeat CPU 0 instructions: 129000001 cycles: 271487767 heartbeat IPC: 0.397658 cumulative IPC: 0.477954 (Simulation time: 0 hr 9 min 8 sec) 
Heartbeat CPU 0 instructions: 130000001 cycles: 273755381 heartbeat IPC: 0.440992 cumulative IPC: 0.47762 (Simulation time: 0 hr 9 min 12 sec) 
Heartbeat CPU 0 instructions: 131000000 cycles: 276012839 heartbeat IPC: 0.442976 cumulative IPC: 0.477311 (Simulation time: 0 hr 9 min 17 sec) 
Heartbeat CPU 0 instructions: 132000000 cycles: 278306845 heartbeat IPC: 0.435919 cumulative IPC: 0.47694 (Simulation time: 0 hr 9 min 21 sec) 
Heartbeat CPU 0 instructions: 133000001 cycles: 280641856 heartbeat IPC: 0.428264 cumulative IPC: 0.4765 (Simulation time: 0 hr 9 min 26 sec) 
Heartbeat CPU 0 instructions: 134000000 cycles: 282886263 heartbeat IPC: 0.445552 cumulative IPC: 0.476233 (Simulation time: 0 hr 9 min 31 sec) 
Heartbeat CPU 0 instructions: 135000000 cycles: 285126727 heartbeat IPC: 0.446336 cumulative IPC: 0.475978 (Simulation time: 0 hr 9 min 35 sec) 
Heartbeat CPU 0 instructions: 136000000 cycles: 287362596 heartbeat IPC: 0.447253 cumulative IPC: 0.475736 (Simulation time: 0 hr 9 min 40 sec) 
Heartbeat CPU 0 instructions: 137000000 cycles: 289606450 heartbeat IPC: 0.445662 cumulative IPC: 0.475483 (Simulation time: 0 hr 9 min 44 sec) 
Heartbeat CPU 0 instructions: 138000002 cycles: 292308296 heartbeat IPC: 0.370118 cumulative IPC: 0.474428 (Simulation time: 0 hr 9 min 49 sec) 
Heartbeat CPU 0 instructions: 139000001 cycles: 294476715 heartbeat IPC: 0.461165 cumulative IPC: 0.474322 (Simulation time: 0 hr 9 min 53 sec) 
Heartbeat CPU 0 instructions: 140000000 cycles: 297326112 heartbeat IPC: 0.350951 cumulative IPC: 0.473043 (Simulation time: 0 hr 9 min 58 sec) 
Heartbeat CPU 0 instructions: 141000000 cycles: 300139231 heartbeat IPC: 0.355477 cumulative IPC: 0.471852 (Simulation time: 0 hr 10 min 3 sec) 
Heartbeat CPU 0 instructions: 142000002 cycles: 302848512 heartbeat IPC: 0.369102 cumulative IPC: 0.470859 (Simulation time: 0 hr 10 min 7 sec) 
Heartbeat CPU 0 instructions: 143000000 cycles: 305108306 heartbeat IPC: 0.442517 cumulative IPC: 0.470632 (Simulation time: 0 hr 10 min 12 sec) 
Heartbeat CPU 0 instructions: 144000003 cycles: 307443642 heartbeat IPC: 0.428205 cumulative IPC: 0.470284 (Simulation time: 0 hr 10 min 16 sec) 
Heartbeat CPU 0 instructions: 145000000 cycles: 309713885 heartbeat IPC: 0.44048 cumulative IPC: 0.470049 (Simulation time: 0 hr 10 min 20 sec) 
Heartbeat CPU 0 instructions: 146000003 cycles: 311966985 heartbeat IPC: 0.443834 cumulative IPC: 0.469845 (Simulation time: 0 hr 10 min 25 sec) 
Heartbeat CPU 0 instructions: 147000001 cycles: 314224452 heartbeat IPC: 0.442973 cumulative IPC: 0.469637 (Simulation time: 0 hr 10 min 29 sec) 
Heartbeat CPU 0 instructions: 148000002 cycles: 316501995 heartbeat IPC: 0.43907 cumulative IPC: 0.4694 (Simulation time: 0 hr 10 min 34 sec) 
Heartbeat CPU 0 instructions: 149000000 cycles: 318771388 heartbeat IPC: 0.440646 cumulative IPC: 0.46918 (Simulation time: 0 hr 10 min 38 sec) 
Heartbeat CPU 0 instructions: 150000001 cycles: 322878197 heartbeat IPC: 0.243498 cumulative IPC: 0.466094 (Simulation time: 0 hr 10 min 43 sec) 
Heartbeat CPU 0 instructions: 151000002 cycles: 323559111 heartbeat IPC: 1.46862 cumulative IPC: 0.468361 (Simulation time: 0 hr 10 min 47 sec) 
Heartbeat CPU 0 instructions: 152000001 cycles: 324012636 heartbeat IPC: 2.20495 cumulative IPC: 0.470974 (Simulation time: 0 hr 10 min 50 sec) 
Heartbeat CPU 0 instructions: 153000000 cycles: 324461011 heartbeat IPC: 2.23027 cumulative IPC: 0.473586 (Simulation time: 0 hr 10 min 54 sec) 
Heartbeat CPU 0 instructions: 154000000 cycles: 324918697 heartbeat IPC: 2.1849 cumulative IPC: 0.476176 (Simulation time: 0 hr 10 min 57 sec) 
Heartbeat CPU 0 instructions: 155000000 cycles: 326465614 heartbeat IPC: 0.646447 cumulative IPC: 0.477043 (Simulation time: 0 hr 11 min 1 sec) 
Heartbeat CPU 0 instructions: 156000001 cycles: 329361819 heartbeat IPC: 0.34528 cumulative IPC: 0.475799 (Simulation time: 0 hr 11 min 6 sec) 
Heartbeat CPU 0 instructions: 157000002 cycles: 331738193 heartbeat IPC: 0.42081 cumulative IPC: 0.475376 (Simulation time: 0 hr 11 min 10 sec) 
Heartbeat CPU 0 instructions: 158000001 cycles: 334020955 heartbeat IPC: 0.438065 cumulative IPC: 0.475103 (Simulation time: 0 hr 11 min 15 sec) 
Heartbeat CPU 0 instructions: 159000002 cycles: 336476031 heartbeat IPC: 0.40732 cumulative IPC: 0.474573 (Simulation time: 0 hr 11 min 20 sec) 
Heartbeat CPU 0 instructions: 160000000 cycles: 338738137 heartbeat IPC: 0.442065 cumulative IPC: 0.47434 (Simulation time: 0 hr 11 min 25 sec) 
Heartbeat CPU 0 instructions: 161000001 cycles: 341007848 heartbeat IPC: 0.440585 cumulative IPC: 0.4741 (Simulation time: 0 hr 11 min 29 sec) 
Heartbeat CPU 0 instructions: 162000000 cycles: 343261221 heartbeat IPC: 0.443779 cumulative IPC: 0.473887 (Simulation time: 0 hr 11 min 34 sec) 
Heartbeat CPU 0 instructions: 163000001 cycles: 345523719 heartbeat IPC: 0.44199 cumulative IPC: 0.473664 (Simulation time: 0 hr 11 min 39 sec) 
Heartbeat CPU 0 instructions: 164000001 cycles: 347966996 heartbeat IPC: 0.409286 cumulative IPC: 0.47318 (Simulation time: 0 hr 11 min 44 sec) 
Heartbeat CPU 0 instructions: 165000000 cycles: 350264035 heartbeat IPC: 0.435343 cumulative IPC: 0.472915 (Simulation time: 0 hr 11 min 48 sec) 
Heartbeat CPU 0 instructions: 166000000 cycles: 352697354 heartbeat IPC: 0.410961 cumulative IPC: 0.472458 (Simulation time: 0 hr 11 min 53 sec) 
Heartbeat CPU 0 instructions: 167000001 cycles: 355127917 heartbeat IPC: 0.411428 cumulative IPC: 0.472012 (Simulation time: 0 hr 11 min 58 sec) 
Heartbeat CPU 0 instructions: 168000002 cycles: 357944452 heartbeat IPC: 0.355047 cumulative IPC: 0.47103 (Simulation time: 0 hr 12 min 2 sec) 
Heartbeat CPU 0 instructions: 169000000 cycles: 360733822 heartbeat IPC: 0.358503 cumulative IPC: 0.470102 (Simulation time: 0 hr 12 min 7 sec) 
Heartbeat CPU 0 instructions: 170000002 cycles: 363408359 heartbeat IPC: 0.373897 cumulative IPC: 0.469348 (Simulation time: 0 hr 12 min 12 sec) 
Heartbeat CPU 0 instructions: 171000002 cycles: 365755696 heartbeat IPC: 0.426015 cumulative IPC: 0.469051 (Simulation time: 0 hr 12 min 17 sec) 
Heartbeat CPU 0 instructions: 172000000 cycles: 368044156 heartbeat IPC: 0.436974 cumulative IPC: 0.468839 (Simulation time: 0 hr 12 min 22 sec) 
Heartbeat CPU 0 instructions: 173000001 cycles: 370307315 heartbeat IPC: 0.441861 cumulative IPC: 0.468663 (Simulation time: 0 hr 12 min 26 sec) 
Heartbeat CPU 0 instructions: 174000001 cycles: 372587747 heartbeat IPC: 0.438513 cumulative IPC: 0.468467 (Simulation time: 0 hr 12 min 31 sec) 
Heartbeat CPU 0 instructions: 175000000 cycles: 374863838 heartbeat IPC: 0.439349 cumulative IPC: 0.468279 (Simulation time: 0 hr 12 min 36 sec) 
Heartbeat CPU 0 instructions: 176000000 cycles: 377224860 heartbeat IPC: 0.423545 cumulative IPC: 0.467981 (Simulation time: 0 hr 12 min 41 sec) 
Heartbeat CPU 0 instructions: 177000002 cycles: 379532662 heartbeat IPC: 0.433314 cumulative IPC: 0.467757 (Simulation time: 0 hr 12 min 46 sec) 
Heartbeat CPU 0 instructions: 178000001 cycles: 383659227 heartbeat IPC: 0.242332 cumulative IPC: 0.465181 (Simulation time: 0 hr 12 min 52 sec) 
Heartbeat CPU 0 instructions: 179000001 cycles: 384151942 heartbeat IPC: 2.02957 cumulative IPC: 0.467313 (Simulation time: 0 hr 12 min 55 sec) 
Heartbeat CPU 0 instructions: 180000002 cycles: 384605051 heartbeat IPC: 2.20698 cumulative IPC: 0.469489 (Simulation time: 0 hr 12 min 58 sec) 
Heartbeat CPU 0 instructions: 181000000 cycles: 385054336 heartbeat IPC: 2.22575 cumulative IPC: 0.471666 (Simulation time: 0 hr 13 min 1 sec) 
Heartbeat CPU 0 instructions: 182000001 cycles: 385512018 heartbeat IPC: 2.18493 cumulative IPC: 0.473826 (Simulation time: 0 hr 13 min 5 sec) 
Heartbeat CPU 0 instructions: 183000001 cycles: 387077148 heartbeat IPC: 0.638925 cumulative IPC: 0.474535 (Simulation time: 0 hr 13 min 9 sec) 
Heartbeat CPU 0 instructions: 184000000 cycles: 389956762 heartbeat IPC: 0.347268 cumulative IPC: 0.473537 (Simulation time: 0 hr 13 min 14 sec) 
Heartbeat CPU 0 instructions: 185000003 cycles: 392538458 heartbeat IPC: 0.387343 cumulative IPC: 0.472936 (Simulation time: 0 hr 13 min 19 sec) 
Heartbeat CPU 0 instructions: 186000002 cycles: 394816888 heartbeat IPC: 0.438898 cumulative IPC: 0.472728 (Simulation time: 0 hr 13 min 24 sec) 
Heartbeat CPU 0 instructions: 187000000 cycles: 397117805 heartbeat IPC: 0.434608 cumulative IPC: 0.472494 (Simulation time: 0 hr 13 min 29 sec) 
Heartbeat CPU 0 instructions: 188000000 cycles: 399390003 heartbeat IPC: 0.440102 cumulative IPC: 0.472298 (Simulation time: 0 hr 13 min 33 sec) 
Heartbeat CPU 0 instructions: 189000000 cycles: 401666617 heartbeat IPC: 0.439249 cumulative IPC: 0.4721 (Simulation time: 0 hr 13 min 38 sec) 
Heartbeat CPU 0 instructions: 190000000 cycles: 404128680 heartbeat IPC: 0.406163 cumulative IPC: 0.471675 (Simulation time: 0 hr 13 min 43 sec) 
Heartbeat CPU 0 instructions: 191000002 cycles: 406431653 heartbeat IPC: 0.434222 cumulative IPC: 0.47145 (Simulation time: 0 hr 13 min 47 sec) 
Heartbeat CPU 0 instructions: 192000002 cycles: 408705463 heartbeat IPC: 0.43979 cumulative IPC: 0.471263 (Simulation time: 0 hr 13 min 52 sec) 
Heartbeat CPU 0 instructions: 193000000 cycles: 410993759 heartbeat IPC: 0.437006 cumulative IPC: 0.471062 (Simulation time: 0 hr 13 min 56 sec) 
Heartbeat CPU 0 instructions: 194000000 cycles: 413302385 heartbeat IPC: 0.433158 cumulative IPC: 0.470838 (Simulation time: 0 hr 14 min 1 sec) 
Heartbeat CPU 0 instructions: 195000000 cycles: 415731274 heartbeat IPC: 0.411711 cumulative IPC: 0.470473 (Simulation time: 0 hr 14 min 6 sec) 
Heartbeat CPU 0 instructions: 196000001 cycles: 418193482 heartbeat IPC: 0.40614 cumulative IPC: 0.470072 (Simulation time: 0 hr 14 min 11 sec) 
Heartbeat CPU 0 instructions: 197000002 cycles: 421019796 heartbeat IPC: 0.353818 cumulative IPC: 0.469248 (Simulation time: 0 hr 14 min 16 sec) 
Heartbeat CPU 0 instructions: 198000000 cycles: 423804222 heartbeat IPC: 0.35914 cumulative IPC: 0.468484 (Simulation time: 0 hr 14 min 21 sec) 
Heartbeat CPU 0 instructions: 199000002 cycles: 426552418 heartbeat IPC: 0.363876 cumulative IPC: 0.467772 (Simulation time: 0 hr 14 min 26 sec) 
Heartbeat CPU 0 instructions: 200000000 cycles: 428866990 heartbeat IPC: 0.432044 cumulative IPC: 0.467569 (Simulation time: 0 hr 14 min 31 sec) 
Heartbeat CPU 0 instructions: 201000001 cycles: 431166989 heartbeat IPC: 0.434783 cumulative IPC: 0.467384 (Simulation time: 0 hr 14 min 36 sec) 
Heartbeat CPU 0 instructions: 202000001 cycles: 433564896 heartbeat IPC: 0.41703 cumulative IPC: 0.46709 (Simulation time: 0 hr 14 min 41 sec) 
Heartbeat CPU 0 instructions: 203000001 cycles: 435883328 heartbeat IPC: 0.431326 cumulative IPC: 0.46689 (Simulation time: 0 hr 14 min 46 sec) 
Heartbeat CPU 0 instructions: 204000000 cycles: 438183253 heartbeat IPC: 0.434796 cumulative IPC: 0.466712 (Simulation time: 0 hr 14 min 51 sec) 
Heartbeat CPU 0 instructions: 205000003 cycles: 440463972 heartbeat IPC: 0.43846 cumulative IPC: 0.466558 (Simulation time: 0 hr 14 min 55 sec) 
Heartbeat CPU 0 instructions: 206000001 cycles: 444583170 heartbeat IPC: 0.242765 cumulative IPC: 0.464374 (Simulation time: 0 hr 15 min 1 sec) 
Heartbeat CPU 0 instructions: 207000000 cycles: 445077730 heartbeat IPC: 2.022 cumulative IPC: 0.466197 (Simulation time: 0 hr 15 min 5 sec) 
Heartbeat CPU 0 instructions: 208000002 cycles: 445538627 heartbeat IPC: 2.16969 cumulative IPC: 0.468053 (Simulation time: 0 hr 15 min 8 sec) 
Heartbeat CPU 0 instructions: 209000000 cycles: 445987980 heartbeat IPC: 2.22542 cumulative IPC: 0.469918 (Simulation time: 0 hr 15 min 12 sec) 
Heartbeat CPU 0 instructions: 210000002 cycles: 446632275 heartbeat IPC: 1.55209 cumulative IPC: 0.471562 (Simulation time: 0 hr 15 min 16 sec) 
Heartbeat CPU 0 instructions: 211000001 cycles: 447491544 heartbeat IPC: 1.16378 cumulative IPC: 0.472961 (Simulation time: 0 hr 15 min 19 sec) 
Heartbeat CPU 0 instructions: 212000000 cycles: 450401317 heartbeat IPC: 0.343669 cumulative IPC: 0.472082 (Simulation time: 0 hr 15 min 25 sec) 
Heartbeat CPU 0 instructions: 213000000 cycles: 453287379 heartbeat IPC: 0.346493 cumulative IPC: 0.471241 (Simulation time: 0 hr 15 min 29 sec) 
Heartbeat CPU 0 instructions: 214000002 cycles: 455834415 heartbeat IPC: 0.392614 cumulative IPC: 0.470778 (Simulation time: 0 hr 15 min 34 sec) 
Heartbeat CPU 0 instructions: 215000002 cycles: 458114400 heartbeat IPC: 0.438599 cumulative IPC: 0.47061 (Simulation time: 0 hr 15 min 38 sec) 
Heartbeat CPU 0 instructions: 216000000 cycles: 460426527 heartbeat IPC: 0.432501 cumulative IPC: 0.470409 (Simulation time: 0 hr 15 min 43 sec) 
Heartbeat CPU 0 instructions: 217000000 cycles: 462922930 heartbeat IPC: 0.400576 cumulative IPC: 0.470013 (Simulation time: 0 hr 15 min 48 sec) 
Heartbeat CPU 0 instructions: 218000002 cycles: 465219063 heartbeat IPC: 0.435516 cumulative IPC: 0.469834 (Simulation time: 0 hr 15 min 53 sec) 
Heartbeat CPU 0 instructions: 219000000 cycles: 467527798 heartbeat IPC: 0.433137 cumulative IPC: 0.469644 (Simulation time: 0 hr 15 min 57 sec) 
Heartbeat CPU 0 instructions: 220000000 cycles: 469834303 heartbeat IPC: 0.433556 cumulative IPC: 0.469458 (Simulation time: 0 hr 16 min 2 sec) 
Heartbeat CPU 0 instructions: 221000003 cycles: 472119558 heartbeat IPC: 0.437589 cumulative IPC: 0.469296 (Simulation time: 0 hr 16 min 6 sec) 
Heartbeat CPU 0 instructions: 222000000 cycles: 474484569 heartbeat IPC: 0.42283 cumulative IPC: 0.469053 (Simulation time: 0 hr 16 min 11 sec) 
Heartbeat CPU 0 instructions: 223000002 cycles: 476832409 heartbeat IPC: 0.425924 cumulative IPC: 0.46883 (Simulation time: 0 hr 16 min 15 sec) 
Heartbeat CPU 0 instructions: 224000000 cycles: 479131625 heartbeat IPC: 0.43493 cumulative IPC: 0.468659 (Simulation time: 0 hr 16 min 20 sec) 
Heartbeat CPU 0 instructions: 225000002 cycles: 481767199 heartbeat IPC: 0.379425 cumulative IPC: 0.468147 (Simulation time: 0 hr 16 min 24 sec) 
Heartbeat CPU 0 instructions: 226000001 cycles: 484554626 heartbeat IPC: 0.358753 cumulative IPC: 0.467487 (Simulation time: 0 hr 16 min 29 sec) 
Heartbeat CPU 0 instructions: 227000001 cycles: 487318933 heartbeat IPC: 0.361754 cumulative IPC: 0.466858 (Simulation time: 0 hr 16 min 34 sec) 
Heartbeat CPU 0 instructions: 228000001 cycles: 489434862 heartbeat IPC: 0.472606 cumulative IPC: 0.466884 (Simulation time: 0 hr 16 min 39 sec) 
Heartbeat CPU 0 instructions: 229000000 cycles: 492257572 heartbeat IPC: 0.354269 cumulative IPC: 0.466207 (Simulation time: 0 hr 16 min 44 sec) 
Heartbeat CPU 0 instructions: 230000000 cycles: 494834046 heartbeat IPC: 0.388127 cumulative IPC: 0.465782 (Simulation time: 0 hr 16 min 49 sec) 
Heartbeat CPU 0 instructions: 231000000 cycles: 497114856 heartbeat IPC: 0.438441 cumulative IPC: 0.46565 (Simulation time: 0 hr 16 min 54 sec) 
Heartbeat CPU 0 instructions: 232000000 cycles: 499411593 heartbeat IPC: 0.4354 cumulative IPC: 0.465504 (Simulation time: 0 hr 16 min 58 sec) 
Heartbeat CPU 0 instructions: 233000000 cycles: 501700256 heartbeat IPC: 0.436936 cumulative IPC: 0.465368 (Simulation time: 0 hr 17 min 3 sec) 
Heartbeat CPU 0 instructions: 234000001 cycles: 505398683 heartbeat IPC: 0.270386 cumulative IPC: 0.463875 (Simulation time: 0 hr 17 min 8 sec) 
Heartbeat CPU 0 instructions: 235000000 cycles: 506514987 heartbeat IPC: 0.895812 cumulative IPC: 0.464871 (Simulation time: 0 hr 17 min 12 sec) 
Heartbeat CPU 0 instructions: 236000002 cycles: 506968815 heartbeat IPC: 2.20348 cumulative IPC: 0.4665 (Simulation time: 0 hr 17 min 16 sec) 
Heartbeat CPU 0 instructions: 237000000 cycles: 507426897 heartbeat IPC: 2.18301 cumulative IPC: 0.468121 (Simulation time: 0 hr 17 min 19 sec) 
Heartbeat CPU 0 instructions: 238000003 cycles: 507877814 heartbeat IPC: 2.21771 cumulative IPC: 0.469746 (Simulation time: 0 hr 17 min 22 sec) 
Heartbeat CPU 0 instructions: 239000000 cycles: 508347266 heartbeat IPC: 2.13014 cumulative IPC: 0.471351 (Simulation time: 0 hr 17 min 26 sec) 
Heartbeat CPU 0 instructions: 240000000 cycles: 511086127 heartbeat IPC: 0.365115 cumulative IPC: 0.470755 (Simulation time: 0 hr 17 min 31 sec) 
Heartbeat CPU 0 instructions: 241000000 cycles: 513982633 heartbeat IPC: 0.345244 cumulative IPC: 0.470016 (Simulation time: 0 hr 17 min 36 sec) 
Heartbeat CPU 0 instructions: 242000000 cycles: 516839212 heartbeat IPC: 0.350069 cumulative IPC: 0.469322 (Simulation time: 0 hr 17 min 41 sec) 
Heartbeat CPU 0 instructions: 243000002 cycles: 519402452 heartbeat IPC: 0.390132 cumulative IPC: 0.468914 (Simulation time: 0 hr 17 min 46 sec) 
Heartbeat CPU 0 instructions: 244000003 cycles: 521888155 heartbeat IPC: 0.402301 cumulative IPC: 0.468582 (Simulation time: 0 hr 17 min 51 sec) 
Heartbeat CPU 0 instructions: 245000001 cycles: 524170728 heartbeat IPC: 0.438101 cumulative IPC: 0.468444 (Simulation time: 0 hr 17 min 55 sec) 
Heartbeat CPU 0 instructions: 246000000 cycles: 526472810 heartbeat IPC: 0.434389 cumulative IPC: 0.468288 (Simulation time: 0 hr 18 min 0 sec) 
Heartbeat CPU 0 instructions: 247000000 cycles: 528772811 heartbeat IPC: 0.434782 cumulative IPC: 0.468136 (Simulation time: 0 hr 18 min 5 sec) 
Heartbeat CPU 0 instructions: 248000003 cycles: 531244525 heartbeat IPC: 0.404579 cumulative IPC: 0.467827 (Simulation time: 0 hr 18 min 10 sec) 
Heartbeat CPU 0 instructions: 249000001 cycles: 533588730 heartbeat IPC: 0.426583 cumulative IPC: 0.467638 (Simulation time: 0 hr 18 min 14 sec) 
Heartbeat CPU 0 instructions: 250000000 cycles: 535897166 heartbeat IPC: 0.433193 cumulative IPC: 0.467483 (Simulation time: 0 hr 18 min 19 sec) 
Heartbeat CPU 0 instructions: 251000000 cycles: 538229158 heartbeat IPC: 0.428818 cumulative IPC: 0.467308 (Simulation time: 0 hr 18 min 24 sec) 
Heartbeat CPU 0 instructions: 252000003 cycles: 540547232 heartbeat IPC: 0.431394 cumulative IPC: 0.467148 (Simulation time: 0 hr 18 min 29 sec) 
Heartbeat CPU 0 instructions: 253000000 cycles: 542865427 heartbeat IPC: 0.431369 cumulative IPC: 0.466988 (Simulation time: 0 hr 18 min 34 sec) 
Heartbeat CPU 0 instructions: 254000000 cycles: 545360159 heartbeat IPC: 0.400845 cumulative IPC: 0.466673 (Simulation time: 0 hr 18 min 39 sec) 
Heartbeat CPU 0 instructions: 255000003 cycles: 547686476 heartbeat IPC: 0.429865 cumulative IPC: 0.466509 (Simulation time: 0 hr 18 min 44 sec) 
Heartbeat CPU 0 instructions: 256000002 cycles: 550107836 heartbeat IPC: 0.412991 cumulative IPC: 0.466264 (Simulation time: 0 hr 18 min 49 sec) 
Heartbeat CPU 0 instructions: 257000000 cycles: 552947555 heartbeat IPC: 0.352147 cumulative IPC: 0.465653 (Simulation time: 0 hr 18 min 54 sec) 
Heartbeat CPU 0 instructions: 258000001 cycles: 555768858 heartbeat IPC: 0.354447 cumulative IPC: 0.465065 (Simulation time: 0 hr 18 min 59 sec) 
Heartbeat CPU 0 instructions: 259000001 cycles: 558567163 heartbeat IPC: 0.357359 cumulative IPC: 0.464502 (Simulation time: 0 hr 19 min 4 sec) 
Heartbeat CPU 0 instructions: 260000001 cycles: 561176126 heartbeat IPC: 0.383294 cumulative IPC: 0.464109 (Simulation time: 0 hr 19 min 10 sec) 
Heartbeat CPU 0 instructions: 261000000 cycles: 563556557 heartbeat IPC: 0.420092 cumulative IPC: 0.463915 (Simulation time: 0 hr 19 min 15 sec) 
Heartbeat CPU 0 instructions: 262000001 cycles: 565917659 heartbeat IPC: 0.423531 cumulative IPC: 0.46374 (Simulation time: 0 hr 19 min 19 sec) 
Heartbeat CPU 0 instructions: 263000000 cycles: 568247583 heartbeat IPC: 0.429198 cumulative IPC: 0.463592 (Simulation time: 0 hr 19 min 24 sec) 
Heartbeat CPU 0 instructions: 264000000 cycles: 568716090 heartbeat IPC: 2.13444 cumulative IPC: 0.465026 (Simulation time: 0 hr 19 min 27 sec) 
Heartbeat CPU 0 instructions: 265000002 cycles: 569168462 heartbeat IPC: 2.21057 cumulative IPC: 0.46647 (Simulation time: 0 hr 19 min 30 sec) 
Heartbeat CPU 0 instructions: 266000002 cycles: 569627995 heartbeat IPC: 2.17612 cumulative IPC: 0.467906 (Simulation time: 0 hr 19 min 33 sec) 
Heartbeat CPU 0 instructions: 267000001 cycles: 570075802 heartbeat IPC: 2.2331 cumulative IPC: 0.46935 (Simulation time: 0 hr 19 min 37 sec) 
Heartbeat CPU 0 instructions: 268000002 cycles: 572424116 heartbeat IPC: 0.425838 cumulative IPC: 0.469164 (Simulation time: 0 hr 19 min 41 sec) 
Heartbeat CPU 0 instructions: 269000002 cycles: 574901216 heartbeat IPC: 0.403698 cumulative IPC: 0.46887 (Simulation time: 0 hr 19 min 46 sec) 
Heartbeat CPU 0 instructions: 270000000 cycles: 577381888 heartbeat IPC: 0.403116 cumulative IPC: 0.468576 (Simulation time: 0 hr 19 min 51 sec) 
Heartbeat CPU 0 instructions: 271000000 cycles: 580237660 heartbeat IPC: 0.350168 cumulative IPC: 0.46797 (Simulation time: 0 hr 19 min 56 sec) 
Heartbeat CPU 0 instructions: 272000000 cycles: 583069743 heartbeat IPC: 0.353097 cumulative IPC: 0.46739 (Simulation time: 0 hr 20 min 1 sec) 
Heartbeat CPU 0 instructions: 273000002 cycles: 585894332 heartbeat IPC: 0.354035 cumulative IPC: 0.466821 (Simulation time: 0 hr 20 min 6 sec) 
Heartbeat CPU 0 instructions: 274000001 cycles: 588296855 heartbeat IPC: 0.416229 cumulative IPC: 0.466606 (Simulation time: 0 hr 20 min 10 sec) 
Heartbeat CPU 0 instructions: 275000000 cycles: 590697658 heartbeat IPC: 0.416527 cumulative IPC: 0.466395 (Simulation time: 0 hr 20 min 15 sec) 
Heartbeat CPU 0 instructions: 276000001 cycles: 593017797 heartbeat IPC: 0.431009 cumulative IPC: 0.466251 (Simulation time: 0 hr 20 min 19 sec) 
Heartbeat CPU 0 instructions: 277000003 cycles: 595333022 heartbeat IPC: 0.431924 cumulative IPC: 0.466112 (Simulation time: 0 hr 20 min 24 sec) 
Heartbeat CPU 0 instructions: 278000000 cycles: 597656562 heartbeat IPC: 0.430376 cumulative IPC: 0.465968 (Simulation time: 0 hr 20 min 29 sec) 
Heartbeat CPU 0 instructions: 279000001 cycles: 599983347 heartbeat IPC: 0.429778 cumulative IPC: 0.465822 (Simulation time: 0 hr 20 min 33 sec) 
Heartbeat CPU 0 instructions: 280000000 cycles: 602412730 heartbeat IPC: 0.411627 cumulative IPC: 0.465595 (Simulation time: 0 hr 20 min 38 sec) 
Heartbeat CPU 0 instructions: 281000000 cycles: 604748909 heartbeat IPC: 0.428049 cumulative IPC: 0.465444 (Simulation time: 0 hr 20 min 43 sec) 
Heartbeat CPU 0 instructions: 282000000 cycles: 607078976 heartbeat IPC: 0.429172 cumulative IPC: 0.4653 (Simulation time: 0 hr 20 min 47 sec) 
Heartbeat CPU 0 instructions: 283000001 cycles: 609395357 heartbeat IPC: 0.431708 cumulative IPC: 0.465167 (Simulation time: 0 hr 20 min 52 sec) 
Heartbeat CPU 0 instructions: 284000002 cycles: 611722983 heartbeat IPC: 0.429623 cumulative IPC: 0.465027 (Simulation time: 0 hr 20 min 57 sec) 
Heartbeat CPU 0 instructions: 285000000 cycles: 614024047 heartbeat IPC: 0.434581 cumulative IPC: 0.464908 (Simulation time: 0 hr 21 min 1 sec) 
Heartbeat CPU 0 instructions: 286000000 cycles: 616523233 heartbeat IPC: 0.40013 cumulative IPC: 0.464636 (Simulation time: 0 hr 21 min 7 sec) 
Heartbeat CPU 0 instructions: 287000001 cycles: 619059038 heartbeat IPC: 0.394352 cumulative IPC: 0.464337 (Simulation time: 0 hr 21 min 12 sec) 
Heartbeat CPU 0 instructions: 288000000 cycles: 621851780 heartbeat IPC: 0.358071 cumulative IPC: 0.463842 (Simulation time: 0 hr 21 min 17 sec) 
Heartbeat CPU 0 instructions: 289000000 cycles: 624646415 heartbeat IPC: 0.357828 cumulative IPC: 0.46335 (Simulation time: 0 hr 21 min 22 sec) 
Heartbeat CPU 0 instructions: 290000001 cycles: 627442030 heartbeat IPC: 0.357703 cumulative IPC: 0.462862 (Simulation time: 0 hr 21 min 27 sec) 
Heartbeat CPU 0 instructions: 291000001 cycles: 630060309 heartbeat IPC: 0.38193 cumulative IPC: 0.462513 (Simulation time: 0 hr 21 min 32 sec) 
Heartbeat CPU 0 instructions: 292000002 cycles: 630528163 heartbeat IPC: 2.13742 cumulative IPC: 0.463802 (Simulation time: 0 hr 21 min 35 sec) 
Heartbeat CPU 0 instructions: 293000001 cycles: 630988118 heartbeat IPC: 2.17412 cumulative IPC: 0.465094 (Simulation time: 0 hr 21 min 39 sec) 
Heartbeat CPU 0 instructions: 294000001 cycles: 631624485 heartbeat IPC: 1.57142 cumulative IPC: 0.46625 (Simulation time: 0 hr 21 min 42 sec) 
Heartbeat CPU 0 instructions: 295000002 cycles: 632075558 heartbeat IPC: 2.21694 cumulative IPC: 0.467546 (Simulation time: 0 hr 21 min 46 sec) 
Heartbeat CPU 0 instructions: 296000001 cycles: 634489682 heartbeat IPC: 0.414229 cumulative IPC: 0.467335 (Simulation time: 0 hr 21 min 51 sec) 
Heartbeat CPU 0 instructions: 297000000 cycles: 636797121 heartbeat IPC: 0.43338 cumulative IPC: 0.467208 (Simulation time: 0 hr 21 min 55 sec) 
Heartbeat CPU 0 instructions: 298000000 cycles: 639126267 heartbeat IPC: 0.429342 cumulative IPC: 0.467065 (Simulation time: 0 hr 22 min 0 sec) 
Heartbeat CPU 0 instructions: 299000000 cycles: 641439257 heartbeat IPC: 0.432341 cumulative IPC: 0.466935 (Simulation time: 0 hr 22 min 5 sec) 
Heartbeat CPU 0 instructions: 300000002 cycles: 643807862 heartbeat IPC: 0.42219 cumulative IPC: 0.466765 (Simulation time: 0 hr 22 min 10 sec) 
Heartbeat CPU 0 instructions: 301000001 cycles: 646276407 heartbeat IPC: 0.405097 cumulative IPC: 0.46652 (Simulation time: 0 hr 22 min 15 sec) 
Heartbeat CPU 0 instructions: 302000002 cycles: 649117022 heartbeat IPC: 0.352037 cumulative IPC: 0.466002 (Simulation time: 0 hr 22 min 20 sec) 
Heartbeat CPU 0 instructions: 303000001 cycles: 651949418 heartbeat IPC: 0.353058 cumulative IPC: 0.465493 (Simulation time: 0 hr 22 min 25 sec) 
Heartbeat CPU 0 instructions: 304000002 cycles: 654768531 heartbeat IPC: 0.354722 cumulative IPC: 0.464999 (Simulation time: 0 hr 22 min 30 sec) 
Heartbeat CPU 0 instructions: 305000002 cycles: 657295590 heartbeat IPC: 0.395717 cumulative IPC: 0.464724 (Simulation time: 0 hr 22 min 34 sec) 
Heartbeat CPU 0 instructions: 306000001 cycles: 659631232 heartbeat IPC: 0.428147 cumulative IPC: 0.464589 (Simulation time: 0 hr 22 min 38 sec) 
Heartbeat CPU 0 instructions: 307000001 cycles: 662100396 heartbeat IPC: 0.404995 cumulative IPC: 0.464359 (Simulation time: 0 hr 22 min 43 sec) 
Heartbeat CPU 0 instructions: 308000000 cycles: 664419380 heartbeat IPC: 0.431223 cumulative IPC: 0.46424 (Simulation time: 0 hr 22 min 47 sec) 
Heartbeat CPU 0 instructions: 309000003 cycles: 666771811 heartbeat IPC: 0.425093 cumulative IPC: 0.464097 (Simulation time: 0 hr 22 min 51 sec) 
Heartbeat CPU 0 instructions: 310000002 cycles: 669105318 heartbeat IPC: 0.428539 cumulative IPC: 0.463968 (Simulation time: 0 hr 22 min 55 sec) 
Heartbeat CPU 0 instructions: 311000002 cycles: 671431561 heartbeat IPC: 0.429878 cumulative IPC: 0.463846 (Simulation time: 0 hr 22 min 59 sec) 
Heartbeat CPU 0 instructions: 312000000 cycles: 673943988 heartbeat IPC: 0.398021 cumulative IPC: 0.463592 (Simulation time: 0 hr 23 min 3 sec) 
Heartbeat CPU 0 instructions: 313000000 cycles: 676318540 heartbeat IPC: 0.421132 cumulative IPC: 0.463438 (Simulation time: 0 hr 23 min 8 sec) 
Heartbeat CPU 0 instructions: 314000002 cycles: 678641193 heartbeat IPC: 0.430543 cumulative IPC: 0.463322 (Simulation time: 0 hr 23 min 13 sec) 
Heartbeat CPU 0 instructions: 315000003 cycles: 680982079 heartbeat IPC: 0.427189 cumulative IPC: 0.463193 (Simulation time: 0 hr 23 min 18 sec) 
Heartbeat CPU 0 instructions: 316000001 cycles: 683312833 heartbeat IPC: 0.429045 cumulative IPC: 0.463073 (Simulation time: 0 hr 23 min 23 sec) 
Heartbeat CPU 0 instructions: 317000000 cycles: 685627982 heartbeat IPC: 0.431937 cumulative IPC: 0.462964 (Simulation time: 0 hr 23 min 28 sec) 
Heartbeat CPU 0 instructions: 318000001 cycles: 688223500 heartbeat IPC: 0.38528 cumulative IPC: 0.462661 (Simulation time: 0 hr 23 min 33 sec) 
Heartbeat CPU 0 instructions: 319000000 cycles: 692483447 heartbeat IPC: 0.234744 cumulative IPC: 0.461212 (Simulation time: 0 hr 23 min 39 sec) 
Heartbeat CPU 0 instructions: 320000000 cycles: 692968041 heartbeat IPC: 2.06358 cumulative IPC: 0.46237 (Simulation time: 0 hr 23 min 42 sec) 
Heartbeat CPU 0 instructions: 321000000 cycles: 693427679 heartbeat IPC: 2.17563 cumulative IPC: 0.463544 (Simulation time: 0 hr 23 min 45 sec) 
Heartbeat CPU 0 instructions: 322000001 cycles: 693888170 heartbeat IPC: 2.1716 cumulative IPC: 0.464715 (Simulation time: 0 hr 23 min 48 sec) 
Heartbeat CPU 0 instructions: 323000001 cycles: 694350050 heartbeat IPC: 2.16506 cumulative IPC: 0.465884 (Simulation time: 0 hr 23 min 51 sec) 
Heartbeat CPU 0 instructions: 324000002 cycles: 696060594 heartbeat IPC: 0.58461 cumulative IPC: 0.466186 (Simulation time: 0 hr 23 min 55 sec) 
Heartbeat CPU 0 instructions: 325000000 cycles: 699101226 heartbeat IPC: 0.328878 cumulative IPC: 0.465569 (Simulation time: 0 hr 23 min 59 sec) 
Heartbeat CPU 0 instructions: 326000002 cycles: 701538409 heartbeat IPC: 0.410311 cumulative IPC: 0.465371 (Simulation time: 0 hr 24 min 4 sec) 
Heartbeat CPU 0 instructions: 327000000 cycles: 703905298 heartbeat IPC: 0.422495 cumulative IPC: 0.465222 (Simulation time: 0 hr 24 min 8 sec) 
Heartbeat CPU 0 instructions: 328000002 cycles: 706245518 heartbeat IPC: 0.427311 cumulative IPC: 0.465092 (Simulation time: 0 hr 24 min 13 sec) 
Heartbeat CPU 0 instructions: 329000000 cycles: 708589995 heartbeat IPC: 0.426534 cumulative IPC: 0.46496 (Simulation time: 0 hr 24 min 17 sec) 
Heartbeat CPU 0 instructions: 330000000 cycles: 712787644 heartbeat IPC: 0.238229 cumulative IPC: 0.463581 (Simulation time: 0 hr 24 min 22 sec) 
Heartbeat CPU 0 instructions: 331000001 cycles: 715143364 heartbeat IPC: 0.424499 cumulative IPC: 0.463448 (Simulation time: 0 hr 24 min 27 sec) 
Heartbeat CPU 0 instructions: 332000003 cycles: 717608722 heartbeat IPC: 0.405621 cumulative IPC: 0.463243 (Simulation time: 0 hr 24 min 31 sec) 
Heartbeat CPU 0 instructions: 333000001 cycles: 719972046 heartbeat IPC: 0.423132 cumulative IPC: 0.463107 (Simulation time: 0 hr 24 min 35 sec) 
Heartbeat CPU 0 instructions: 334000001 cycles: 722331578 heartbeat IPC: 0.423813 cumulative IPC: 0.462975 (Simulation time: 0 hr 24 min 40 sec) 
Heartbeat CPU 0 instructions: 335000000 cycles: 726534938 heartbeat IPC: 0.237905 cumulative IPC: 0.461631 (Simulation time: 0 hr 24 min 45 sec) 
Heartbeat CPU 0 instructions: 336000000 cycles: 728908545 heartbeat IPC: 0.4213 cumulative IPC: 0.461496 (Simulation time: 0 hr 24 min 50 sec) 
Heartbeat CPU 0 instructions: 337000000 cycles: 731260149 heartbeat IPC: 0.425242 cumulative IPC: 0.461375 (Simulation time: 0 hr 24 min 54 sec) 
Heartbeat CPU 0 instructions: 338000003 cycles: 733789175 heartbeat IPC: 0.39541 cumulative IPC: 0.461141 (Simulation time: 0 hr 24 min 58 sec) 
Heartbeat CPU 0 instructions: 339000001 cycles: 736156466 heartbeat IPC: 0.422423 cumulative IPC: 0.461012 (Simulation time: 0 hr 25 min 3 sec) 
Heartbeat CPU 0 instructions: 340000000 cycles: 740352560 heartbeat IPC: 0.238317 cumulative IPC: 0.459711 (Simulation time: 0 hr 25 min 8 sec) 
Heartbeat CPU 0 instructions: 341000000 cycles: 742702067 heartbeat IPC: 0.425621 cumulative IPC: 0.459599 (Simulation time: 0 hr 25 min 12 sec) 
Heartbeat CPU 0 instructions: 342000002 cycles: 745043209 heartbeat IPC: 0.427143 cumulative IPC: 0.459494 (Simulation time: 0 hr 25 min 16 sec) 
Heartbeat CPU 0 instructions: 343000000 cycles: 747382639 heartbeat IPC: 0.427454 cumulative IPC: 0.459391 (Simulation time: 0 hr 25 min 20 sec) 
Heartbeat CPU 0 instructions: 344000003 cycles: 749833840 heartbeat IPC: 0.407964 cumulative IPC: 0.459217 (Simulation time: 0 hr 25 min 25 sec) 
Heartbeat CPU 0 instructions: 345000000 cycles: 754064215 heartbeat IPC: 0.236385 cumulative IPC: 0.457929 (Simulation time: 0 hr 25 min 31 sec) 
Heartbeat CPU 0 instructions: 346000001 cycles: 754541102 heartbeat IPC: 2.09693 cumulative IPC: 0.458997 (Simulation time: 0 hr 25 min 34 sec) 
Heartbeat CPU 0 instructions: 347000003 cycles: 754997037 heartbeat IPC: 2.1933 cumulative IPC: 0.460076 (Simulation time: 0 hr 25 min 37 sec) 
Heartbeat CPU 0 instructions: 348000000 cycles: 755455034 heartbeat IPC: 2.18341 cumulative IPC: 0.461153 (Simulation time: 0 hr 25 min 40 sec) 
Heartbeat CPU 0 instructions: 349000003 cycles: 755909337 heartbeat IPC: 2.20118 cumulative IPC: 0.462231 (Simulation time: 0 hr 25 min 43 sec) 
Heartbeat CPU 0 instructions: 350000000 cycles: 758308847 heartbeat IPC: 0.41675 cumulative IPC: 0.462083 (Simulation time: 0 hr 25 min 47 sec) 
Heartbeat CPU 0 instructions: 351000002 cycles: 760641466 heartbeat IPC: 0.428704 cumulative IPC: 0.461977 (Simulation time: 0 hr 25 min 52 sec) 
Heartbeat CPU 0 instructions: 352000000 cycles: 763143159 heartbeat IPC: 0.399729 cumulative IPC: 0.461767 (Simulation time: 0 hr 25 min 56 sec) 
Heartbeat CPU 0 instructions: 353000003 cycles: 765505991 heartbeat IPC: 0.423222 cumulative IPC: 0.461644 (Simulation time: 0 hr 26 min 0 sec) 
Heartbeat CPU 0 instructions: 354000000 cycles: 768076287 heartbeat IPC: 0.389059 cumulative IPC: 0.461394 (Simulation time: 0 hr 26 min 5 sec) 
Heartbeat CPU 0 instructions: 355000002 cycles: 771056826 heartbeat IPC: 0.33551 cumulative IPC: 0.460893 (Simulation time: 0 hr 26 min 9 sec) 
Heartbeat CPU 0 instructions: 356000001 cycles: 774050134 heartbeat IPC: 0.334078 cumulative IPC: 0.460388 (Simulation time: 0 hr 26 min 14 sec) 
Heartbeat CPU 0 instructions: 357000002 cycles: 776778535 heartbeat IPC: 0.366515 cumulative IPC: 0.460048 (Simulation time: 0 hr 26 min 18 sec) 
Heartbeat CPU 0 instructions: 358000000 cycles: 779309629 heartbeat IPC: 0.395085 cumulative IPC: 0.459831 (Simulation time: 0 hr 26 min 23 sec) 
Heartbeat CPU 0 instructions: 359000001 cycles: 781684424 heartbeat IPC: 0.421089 cumulative IPC: 0.45971 (Simulation time: 0 hr 26 min 27 sec) 
Heartbeat CPU 0 instructions: 360000002 cycles: 784052866 heartbeat IPC: 0.422219 cumulative IPC: 0.459593 (Simulation time: 0 hr 26 min 31 sec) 
Heartbeat CPU 0 instructions: 361000000 cycles: 786444732 heartbeat IPC: 0.418083 cumulative IPC: 0.459463 (Simulation time: 0 hr 26 min 35 sec) 
Heartbeat CPU 0 instructions: 362000001 cycles: 788803103 heartbeat IPC: 0.424022 cumulative IPC: 0.459354 (Simulation time: 0 hr 26 min 40 sec) 
Heartbeat CPU 0 instructions: 363000000 cycles: 791303191 heartbeat IPC: 0.399986 cumulative IPC: 0.459161 (Simulation time: 0 hr 26 min 44 sec) 
Heartbeat CPU 0 instructions: 364000002 cycles: 793670189 heartbeat IPC: 0.422477 cumulative IPC: 0.459048 (Simulation time: 0 hr 26 min 48 sec) 
Heartbeat CPU 0 instructions: 365000002 cycles: 796028568 heartbeat IPC: 0.42402 cumulative IPC: 0.458942 (Simulation time: 0 hr 26 min 52 sec) 
Heartbeat CPU 0 instructions: 366000003 cycles: 800281591 heartbeat IPC: 0.235127 cumulative IPC: 0.457718 (Simulation time: 0 hr 26 min 58 sec) 
Heartbeat CPU 0 instructions: 367000000 cycles: 800748343 heartbeat IPC: 2.14246 cumulative IPC: 0.458728 (Simulation time: 0 hr 27 min 1 sec) 
Heartbeat CPU 0 instructions: 368000001 cycles: 801205634 heartbeat IPC: 2.18679 cumulative IPC: 0.459743 (Simulation time: 0 hr 27 min 4 sec) 
Heartbeat CPU 0 instructions: 369000001 cycles: 801657325 heartbeat IPC: 2.2139 cumulative IPC: 0.46076 (Simulation time: 0 hr 27 min 6 sec) 
Heartbeat CPU 0 instructions: 370000003 cycles: 802114510 heartbeat IPC: 2.1873 cumulative IPC: 0.461772 (Simulation time: 0 hr 27 min 9 sec) 
Heartbeat CPU 0 instructions: 371000003 cycles: 804489777 heartbeat IPC: 0.421005 cumulative IPC: 0.461649 (Simulation time: 0 hr 27 min 14 sec) 
Heartbeat CPU 0 instructions: 372000000 cycles: 806974935 heartbeat IPC: 0.402388 cumulative IPC: 0.461461 (Simulation time: 0 hr 27 min 18 sec) 
Heartbeat CPU 0 instructions: 373000001 cycles: 809352206 heartbeat IPC: 0.420651 cumulative IPC: 0.461338 (Simulation time: 0 hr 27 min 22 sec) 
Heartbeat CPU 0 instructions: 374000000 cycles: 811708606 heartbeat IPC: 0.424376 cumulative IPC: 0.461227 (Simulation time: 0 hr 27 min 27 sec) 
Heartbeat CPU 0 instructions: 375000001 cycles: 814051696 heartbeat IPC: 0.426787 cumulative IPC: 0.461125 (Simulation time: 0 hr 27 min 31 sec) 
Heartbeat CPU 0 instructions: 376000000 cycles: 816407698 heartbeat IPC: 0.424447 cumulative IPC: 0.461016 (Simulation time: 0 hr 27 min 35 sec) 
Heartbeat CPU 0 instructions: 377000002 cycles: 819221301 heartbeat IPC: 0.355417 cumulative IPC: 0.460643 (Simulation time: 0 hr 27 min 39 sec) 
Heartbeat CPU 0 instructions: 378000001 cycles: 821887396 heartbeat IPC: 0.37508 cumulative IPC: 0.460358 (Simulation time: 0 hr 27 min 44 sec) 
Heartbeat CPU 0 instructions: 379000001 cycles: 824892225 heartbeat IPC: 0.332798 cumulative IPC: 0.45988 (Simulation time: 0 hr 27 min 49 sec) 
Heartbeat CPU 0 instructions: 380000001 cycles: 827856848 heartbeat IPC: 0.337311 cumulative IPC: 0.459429 (Simulation time: 0 hr 27 min 53 sec) 
Heartbeat CPU 0 instructions: 381000000 cycles: 830234972 heartbeat IPC: 0.420499 cumulative IPC: 0.459315 (Simulation time: 0 hr 27 min 57 sec) 
Heartbeat CPU 0 instructions: 382000000 cycles: 832601875 heartbeat IPC: 0.422493 cumulative IPC: 0.459207 (Simulation time: 0 hr 28 min 2 sec) 
Heartbeat CPU 0 instructions: 383000003 cycles: 834967149 heartbeat IPC: 0.422785 cumulative IPC: 0.459101 (Simulation time: 0 hr 28 min 6 sec) 
Heartbeat CPU 0 instructions: 384000000 cycles: 837539611 heartbeat IPC: 0.388732 cumulative IPC: 0.458879 (Simulation time: 0 hr 28 min 11 sec) 
Heartbeat CPU 0 instructions: 385000000 cycles: 839921392 heartbeat IPC: 0.419854 cumulative IPC: 0.458765 (Simulation time: 0 hr 28 min 15 sec) 
Heartbeat CPU 0 instructions: 386000003 cycles: 842295153 heartbeat IPC: 0.421274 cumulative IPC: 0.458657 (Simulation time: 0 hr 28 min 19 sec) 
Heartbeat CPU 0 instructions: 387000001 cycles: 846584322 heartbeat IPC: 0.233145 cumulative IPC: 0.457483 (Simulation time: 0 hr 28 min 24 sec) 
Heartbeat CPU 0 instructions: 388000000 cycles: 847075580 heartbeat IPC: 2.03559 cumulative IPC: 0.458423 (Simulation time: 0 hr 28 min 27 sec) 
Heartbeat CPU 0 instructions: 389000003 cycles: 847527680 heartbeat IPC: 2.21191 cumulative IPC: 0.459384 (Simulation time: 0 hr 28 min 30 sec) 
Heartbeat CPU 0 instructions: 390000001 cycles: 847986555 heartbeat IPC: 2.17924 cumulative IPC: 0.46034 (Simulation time: 0 hr 28 min 33 sec) 
Heartbeat CPU 0 instructions: 391000003 cycles: 848631448 heartbeat IPC: 1.55065 cumulative IPC: 0.461191 (Simulation time: 0 hr 28 min 37 sec) 
Heartbeat CPU 0 instructions: 392000000 cycles: 850972446 heartbeat IPC: 0.427167 cumulative IPC: 0.461095 (Simulation time: 0 hr 28 min 41 sec) 
Heartbeat CPU 0 instructions: 393000001 cycles: 853413860 heartbeat IPC: 0.409599 cumulative IPC: 0.460944 (Simulation time: 0 hr 28 min 45 sec) 
Heartbeat CPU 0 instructions: 394000000 cycles: 855806215 heartbeat IPC: 0.417998 cumulative IPC: 0.46082 (Simulation time: 0 hr 28 min 50 sec) 
Heartbeat CPU 0 instructions: 395000000 cycles: 858179114 heartbeat IPC: 0.421425 cumulative IPC: 0.460708 (Simulation time: 0 hr 28 min 54 sec) 
Heartbeat CPU 0 instructions: 396000000 cycles: 860548867 heartbeat IPC: 0.421985 cumulative IPC: 0.460599 (Simulation time: 0 hr 28 min 58 sec) 
Heartbeat CPU 0 instructions: 397000001 cycles: 862997427 heartbeat IPC: 0.408404 cumulative IPC: 0.460447 (Simulation time: 0 hr 29 min 3 sec) 
Heartbeat CPU 0 instructions: 398000000 cycles: 865375073 heartbeat IPC: 0.420584 cumulative IPC: 0.460334 (Simulation time: 0 hr 29 min 7 sec) 
Heartbeat CPU 0 instructions: 399000001 cycles: 867739973 heartbeat IPC: 0.422851 cumulative IPC: 0.46023 (Simulation time: 0 hr 29 min 11 sec) 
Heartbeat CPU 0 instructions: 400000001 cycles: 870180229 heartbeat IPC: 0.409793 cumulative IPC: 0.460084 (Simulation time: 0 hr 29 min 15 sec) 
Heartbeat CPU 0 instructions: 401000000 cycles: 873137387 heartbeat IPC: 0.338162 cumulative IPC: 0.459661 (Simulation time: 0 hr 29 min 20 sec) 
Heartbeat CPU 0 instructions: 402000001 cycles: 876045953 heartbeat IPC: 0.343812 cumulative IPC: 0.459266 (Simulation time: 0 hr 29 min 24 sec) 
Heartbeat CPU 0 instructions: 403000002 cycles: 878949002 heartbeat IPC: 0.344466 cumulative IPC: 0.458877 (Simulation time: 0 hr 29 min 29 sec) 
Heartbeat CPU 0 instructions: 404000002 cycles: 881244754 heartbeat IPC: 0.435587 cumulative IPC: 0.458814 (Simulation time: 0 hr 29 min 33 sec) 
Heartbeat CPU 0 instructions: 405000001 cycles: 883974642 heartbeat IPC: 0.366315 cumulative IPC: 0.458521 (Simulation time: 0 hr 29 min 38 sec) 
Heartbeat CPU 0 instructions: 406000002 cycles: 886361340 heartbeat IPC: 0.418989 cumulative IPC: 0.458412 (Simulation time: 0 hr 29 min 42 sec) 
Heartbeat CPU 0 instructions: 407000000 cycles: 888763594 heartbeat IPC: 0.416275 cumulative IPC: 0.458295 (Simulation time: 0 hr 29 min 46 sec) 
Heartbeat CPU 0 instructions: 408000002 cycles: 892366444 heartbeat IPC: 0.277559 cumulative IPC: 0.457547 (Simulation time: 0 hr 29 min 51 sec) 
Heartbeat CPU 0 instructions: 409000001 cycles: 893547314 heartbeat IPC: 0.846832 cumulative IPC: 0.458074 (Simulation time: 0 hr 29 min 55 sec) 
Heartbeat CPU 0 instructions: 410000002 cycles: 894136378 heartbeat IPC: 1.69761 cumulative IPC: 0.458912 (Simulation time: 0 hr 29 min 58 sec) 
Heartbeat CPU 0 instructions: 411000001 cycles: 894653862 heartbeat IPC: 1.93243 cumulative IPC: 0.459786 (Simulation time: 0 hr 30 min 1 sec) 
Heartbeat CPU 0 instructions: 412000002 cycles: 895104290 heartbeat IPC: 2.22011 cumulative IPC: 0.460695 (Simulation time: 0 hr 30 min 4 sec) 
Heartbeat CPU 0 instructions: 413000000 cycles: 896112105 heartbeat IPC: 0.992244 cumulative IPC: 0.461308 (Simulation time: 0 hr 30 min 7 sec) 
Heartbeat CPU 0 instructions: 414000001 cycles: 899165137 heartbeat IPC: 0.327544 cumulative IPC: 0.460842 (Simulation time: 0 hr 30 min 12 sec) 
Heartbeat CPU 0 instructions: 415000000 cycles: 902206011 heartbeat IPC: 0.328853 cumulative IPC: 0.460386 (Simulation time: 0 hr 30 min 16 sec) 
Heartbeat CPU 0 instructions: 416000002 cycles: 904649176 heartbeat IPC: 0.409306 cumulative IPC: 0.460245 (Simulation time: 0 hr 30 min 21 sec) 
Heartbeat CPU 0 instructions: 417000003 cycles: 907051593 heartbeat IPC: 0.416248 cumulative IPC: 0.460125 (Simulation time: 0 hr 30 min 25 sec) 
Heartbeat CPU 0 instructions: 418000000 cycles: 909611711 heartbeat IPC: 0.390606 cumulative IPC: 0.459924 (Simulation time: 0 hr 30 min 30 sec) 
Heartbeat CPU 0 instructions: 419000003 cycles: 912017098 heartbeat IPC: 0.415735 cumulative IPC: 0.459805 (Simulation time: 0 hr 30 min 34 sec) 
Heartbeat CPU 0 instructions: 420000002 cycles: 914392671 heartbeat IPC: 0.420951 cumulative IPC: 0.459702 (Simulation time: 0 hr 30 min 39 sec) 
Heartbeat CPU 0 instructions: 421000000 cycles: 916764338 heartbeat IPC: 0.421644 cumulative IPC: 0.459601 (Simulation time: 0 hr 30 min 43 sec) 
Heartbeat CPU 0 instructions: 422000000 cycles: 919119088 heartbeat IPC: 0.424674 cumulative IPC: 0.459509 (Simulation time: 0 hr 30 min 47 sec) 
Heartbeat CPU 0 instructions: 423000001 cycles: 921576091 heartbeat IPC: 0.407 cumulative IPC: 0.459365 (Simulation time: 0 hr 30 min 51 sec) 
Heartbeat CPU 0 instructions: 424000002 cycles: 923962080 heartbeat IPC: 0.419114 cumulative IPC: 0.459259 (Simulation time: 0 hr 30 min 55 sec) 
Heartbeat CPU 0 instructions: 425000000 cycles: 926542305 heartbeat IPC: 0.387562 cumulative IPC: 0.459054 (Simulation time: 0 hr 31 min 0 sec) 
Heartbeat CPU 0 instructions: 426000002 cycles: 929527683 heartbeat IPC: 0.334967 cumulative IPC: 0.458646 (Simulation time: 0 hr 31 min 4 sec) 
Heartbeat CPU 0 instructions: 427000001 cycles: 932474714 heartbeat IPC: 0.339324 cumulative IPC: 0.458259 (Simulation time: 0 hr 31 min 9 sec) 
Heartbeat CPU 0 instructions: 428000000 cycles: 935387320 heartbeat IPC: 0.343335 cumulative IPC: 0.457893 (Simulation time: 0 hr 31 min 13 sec) 
Heartbeat CPU 0 instructions: 429000000 cycles: 937834873 heartbeat IPC: 0.408571 cumulative IPC: 0.457761 (Simulation time: 0 hr 31 min 18 sec) 
Heartbeat CPU 0 instructions: 430000000 cycles: 940324947 heartbeat IPC: 0.401594 cumulative IPC: 0.457608 (Simulation time: 0 hr 31 min 22 sec) 
Heartbeat CPU 0 instructions: 431000003 cycles: 940798147 heartbeat IPC: 2.11328 cumulative IPC: 0.458462 (Simulation time: 0 hr 31 min 25 sec) 
Heartbeat CPU 0 instructions: 432000002 cycles: 941249024 heartbeat IPC: 2.2179 cumulative IPC: 0.459325 (Simulation time: 0 hr 31 min 28 sec) 
Heartbeat CPU 0 instructions: 433000003 cycles: 941705985 heartbeat IPC: 2.18837 cumulative IPC: 0.460185 (Simulation time: 0 hr 31 min 31 sec) 
Heartbeat CPU 0 instructions: 434000002 cycles: 942155670 heartbeat IPC: 2.22378 cumulative IPC: 0.461047 (Simulation time: 0 hr 31 min 34 sec) 
Heartbeat CPU 0 instructions: 435000001 cycles: 944580423 heartbeat IPC: 0.412413 cumulative IPC: 0.460919 (Simulation time: 0 hr 31 min 39 sec) 
Heartbeat CPU 0 instructions: 436000002 cycles: 947312244 heartbeat IPC: 0.366057 cumulative IPC: 0.460639 (Simulation time: 0 hr 31 min 43 sec) 
Heartbeat CPU 0 instructions: 437000001 cycles: 950361814 heartbeat IPC: 0.327915 cumulative IPC: 0.460203 (Simulation time: 0 hr 31 min 48 sec) 
Heartbeat CPU 0 instructions: 438000002 cycles: 953079013 heartbeat IPC: 0.368026 cumulative IPC: 0.459933 (Simulation time: 0 hr 31 min 53 sec) 
Heartbeat CPU 0 instructions: 439000002 cycles: 956060271 heartbeat IPC: 0.335429 cumulative IPC: 0.459536 (Simulation time: 0 hr 31 min 58 sec) 
Heartbeat CPU 0 instructions: 440000000 cycles: 958613854 heartbeat IPC: 0.391606 cumulative IPC: 0.459351 (Simulation time: 0 hr 32 min 3 sec) 
Heartbeat CPU 0 instructions: 441000002 cycles: 960999595 heartbeat IPC: 0.419158 cumulative IPC: 0.459248 (Simulation time: 0 hr 32 min 7 sec) 
Heartbeat CPU 0 instructions: 442000000 cycles: 963382935 heartbeat IPC: 0.419578 cumulative IPC: 0.459148 (Simulation time: 0 hr 32 min 11 sec) 
Heartbeat CPU 0 instructions: 443000002 cycles: 965929452 heartbeat IPC: 0.392694 cumulative IPC: 0.458969 (Simulation time: 0 hr 32 min 16 sec) 
Heartbeat CPU 0 instructions: 444000001 cycles: 968354610 heartbeat IPC: 0.412344 cumulative IPC: 0.458849 (Simulation time: 0 hr 32 min 21 sec) 
Heartbeat CPU 0 instructions: 445000000 cycles: 970758303 heartbeat IPC: 0.416026 cumulative IPC: 0.45874 (Simulation time: 0 hr 32 min 25 sec) 
Heartbeat CPU 0 instructions: 446000002 cycles: 973162568 heartbeat IPC: 0.415928 cumulative IPC: 0.458632 (Simulation time: 0 hr 32 min 30 sec) 
Heartbeat CPU 0 instructions: 447000000 cycles: 975545911 heartbeat IPC: 0.419578 cumulative IPC: 0.458534 (Simulation time: 0 hr 32 min 34 sec) 
Heartbeat CPU 0 instructions: 448000003 cycles: 977951309 heartbeat IPC: 0.415733 cumulative IPC: 0.458427 (Simulation time: 0 hr 32 min 38 sec) 
Heartbeat CPU 0 instructions: 449000000 cycles: 980522687 heartbeat IPC: 0.388895 cumulative IPC: 0.45824 (Simulation time: 0 hr 32 min 43 sec) 
Heartbeat CPU 0 instructions: 450000002 cycles: 983293126 heartbeat IPC: 0.360954 cumulative IPC: 0.45796 (Simulation time: 0 hr 32 min 48 sec) 
Heartbeat CPU 0 instructions: 451000000 cycles: 987311306 heartbeat IPC: 0.248868 cumulative IPC: 0.457089 (Simulation time: 0 hr 32 min 53 sec) 
Heartbeat CPU 0 instructions: 452000000 cycles: 987783586 heartbeat IPC: 2.11739 cumulative IPC: 0.457901 (Simulation time: 0 hr 32 min 56 sec) 
Heartbeat CPU 0 instructions: 453000002 cycles: 988235741 heartbeat IPC: 2.21164 cumulative IPC: 0.458722 (Simulation time: 0 hr 32 min 59 sec) 
Heartbeat CPU 0 instructions: 454000000 cycles: 988693515 heartbeat IPC: 2.18448 cumulative IPC: 0.45954 (Simulation time: 0 hr 33 min 3 sec) 
Heartbeat CPU 0 instructions: 455000002 cycles: 989146500 heartbeat IPC: 2.20758 cumulative IPC: 0.460359 (Simulation time: 0 hr 33 min 6 sec) 
Heartbeat CPU 0 instructions: 456000000 cycles: 991591626 heartbeat IPC: 0.408976 cumulative IPC: 0.460229 (Simulation time: 0 hr 33 min 10 sec) 
Heartbeat CPU 0 instructions: 457000001 cycles: 994147045 heartbeat IPC: 0.391326 cumulative IPC: 0.460048 (Simulation time: 0 hr 33 min 15 sec) 
Heartbeat CPU 0 instructions: 458000000 cycles: 996579717 heartbeat IPC: 0.41107 cumulative IPC: 0.459926 (Simulation time: 0 hr 33 min 20 sec) 
Heartbeat CPU 0 instructions: 459000002 cycles: 998994348 heartbeat IPC: 0.414143 cumulative IPC: 0.459813 (Simulation time: 0 hr 33 min 24 sec) 
Heartbeat CPU 0 instructions: 460000002 cycles: 1001392213 heartbeat IPC: 0.417038 cumulative IPC: 0.459708 (Simulation time: 0 hr 33 min 28 sec) 
Heartbeat CPU 0 instructions: 461000000 cycles: 1004286602 heartbeat IPC: 0.345495 cumulative IPC: 0.459371 (Simulation time: 0 hr 33 min 33 sec) 
Heartbeat CPU 0 instructions: 462000000 cycles: 1007254289 heartbeat IPC: 0.336963 cumulative IPC: 0.459002 (Simulation time: 0 hr 33 min 38 sec) 
Heartbeat CPU 0 instructions: 463000001 cycles: 1010230270 heartbeat IPC: 0.336024 cumulative IPC: 0.458632 (Simulation time: 0 hr 33 min 42 sec) 
Heartbeat CPU 0 instructions: 464000000 cycles: 1012904274 heartbeat IPC: 0.373971 cumulative IPC: 0.458403 (Simulation time: 0 hr 33 min 47 sec) 
Heartbeat CPU 0 instructions: 465000001 cycles: 1015443466 heartbeat IPC: 0.393826 cumulative IPC: 0.458238 (Simulation time: 0 hr 33 min 51 sec) 
Heartbeat CPU 0 instructions: 466000000 cycles: 1017854104 heartbeat IPC: 0.414828 cumulative IPC: 0.458133 (Simulation time: 0 hr 33 min 56 sec) 
Heartbeat CPU 0 instructions: 467000002 cycles: 1020266104 heartbeat IPC: 0.414595 cumulative IPC: 0.458028 (Simulation time: 0 hr 34 min 0 sec) 
Heartbeat CPU 0 instructions: 468000000 cycles: 1022660814 heartbeat IPC: 0.417586 cumulative IPC: 0.457931 (Simulation time: 0 hr 34 min 4 sec) 
Heartbeat CPU 0 instructions: 469000002 cycles: 1025285192 heartbeat IPC: 0.381043 cumulative IPC: 0.45773 (Simulation time: 0 hr 34 min 9 sec) 
Heartbeat CPU 0 instructions: 470000000 cycles: 1027694274 heartbeat IPC: 0.415095 cumulative IPC: 0.457627 (Simulation time: 0 hr 34 min 13 sec) 
Heartbeat CPU 0 instructions: 471000001 cycles: 1030114550 heartbeat IPC: 0.413176 cumulative IPC: 0.457521 (Simulation time: 0 hr 34 min 17 sec) 
Heartbeat CPU 0 instructions: 472000000 cycles: 1034463078 heartbeat IPC: 0.229963 cumulative IPC: 0.456543 (Simulation time: 0 hr 34 min 23 sec) 
Heartbeat CPU 0 instructions: 473000000 cycles: 1034941316 heartbeat IPC: 2.09101 cumulative IPC: 0.457315 (Simulation time: 0 hr 34 min 26 sec) 
Heartbeat CPU 0 instructions: 474000002 cycles: 1035393871 heartbeat IPC: 2.20968 cumulative IPC: 0.458098 (Simulation time: 0 hr 34 min 29 sec) 
Heartbeat CPU 0 instructions: 475000000 cycles: 1035853760 heartbeat IPC: 2.17443 cumulative IPC: 0.458877 (Simulation time: 0 hr 34 min 32 sec) 
Heartbeat CPU 0 instructions: 476000001 cycles: 1036303446 heartbeat IPC: 2.22378 cumulative IPC: 0.45966 (Simulation time: 0 hr 34 min 35 sec) 
Heartbeat CPU 0 instructions: 477000001 cycles: 1038895547 heartbeat IPC: 0.385787 cumulative IPC: 0.459471 (Simulation time: 0 hr 34 min 39 sec) 
Heartbeat CPU 0 instructions: 478000002 cycles: 1041336929 heartbeat IPC: 0.409604 cumulative IPC: 0.459352 (Simulation time: 0 hr 34 min 43 sec) 
Heartbeat CPU 0 instructions: 479000001 cycles: 1043761400 heartbeat IPC: 0.412461 cumulative IPC: 0.45924 (Simulation time: 0 hr 34 min 48 sec) 
Heartbeat CPU 0 instructions: 480000003 cycles: 1046167402 heartbeat IPC: 0.415628 cumulative IPC: 0.459138 (Simulation time: 0 hr 34 min 52 sec) 
Heartbeat CPU 0 instructions: 481000001 cycles: 1048562537 heartbeat IPC: 0.417512 cumulative IPC: 0.459041 (Simulation time: 0 hr 34 min 56 sec) 
Heartbeat CPU 0 instructions: 482000001 cycles: 1050943248 heartbeat IPC: 0.420043 cumulative IPC: 0.45895 (Simulation time: 0 hr 35 min 0 sec) 
Heartbeat CPU 0 instructions: 483000002 cycles: 1053421732 heartbeat IPC: 0.403473 cumulative IPC: 0.458817 (Simulation time: 0 hr 35 min 5 sec) 
Heartbeat CPU 0 instructions: 484000000 cycles: 1055840273 heartbeat IPC: 0.413472 cumulative IPC: 0.458711 (Simulation time: 0 hr 35 min 9 sec) 
Heartbeat CPU 0 instructions: 485000000 cycles: 1058268614 heartbeat IPC: 0.411804 cumulative IPC: 0.458601 (Simulation time: 0 hr 35 min 13 sec) 
Heartbeat CPU 0 instructions: 486000000 cycles: 1061251711 heartbeat IPC: 0.335222 cumulative IPC: 0.458247 (Simulation time: 0 hr 35 min 18 sec) 
Heartbeat CPU 0 instructions: 487000002 cycles: 1064186995 heartbeat IPC: 0.340683 cumulative IPC: 0.457915 (Simulation time: 0 hr 35 min 22 sec) 
Heartbeat CPU 0 instructions: 488000001 cycles: 1067095842 heartbeat IPC: 0.343778 cumulative IPC: 0.457597 (Simulation time: 0 hr 35 min 26 sec) 
Heartbeat CPU 0 instructions: 489000002 cycles: 1069360475 heartbeat IPC: 0.441573 cumulative IPC: 0.457563 (Simulation time: 0 hr 35 min 31 sec) 
Heartbeat CPU 0 instructions: 490000001 cycles: 1072329568 heartbeat IPC: 0.336803 cumulative IPC: 0.457221 (Simulation time: 0 hr 35 min 35 sec) 
Heartbeat CPU 0 instructions: 491000000 cycles: 1074782589 heartbeat IPC: 0.40766 cumulative IPC: 0.457106 (Simulation time: 0 hr 35 min 40 sec) 
Heartbeat CPU 0 instructions: 492000000 cycles: 1077191415 heartbeat IPC: 0.41514 cumulative IPC: 0.45701 (Simulation time: 0 hr 35 min 44 sec) 
Heartbeat CPU 0 instructions: 493000001 cycles: 1080468078 heartbeat IPC: 0.305189 cumulative IPC: 0.45654 (Simulation time: 0 hr 35 min 49 sec) 
Heartbeat CPU 0 instructions: 494000002 cycles: 1082050047 heartbeat IPC: 0.632124 cumulative IPC: 0.456802 (Simulation time: 0 hr 35 min 53 sec) 
Heartbeat CPU 0 instructions: 495000000 cycles: 1082501346 heartbeat IPC: 2.21582 cumulative IPC: 0.457551 (Simulation time: 0 hr 35 min 56 sec) 
Heartbeat CPU 0 instructions: 496000003 cycles: 1082959899 heartbeat IPC: 2.18078 cumulative IPC: 0.458296 (Simulation time: 0 hr 35 min 59 sec) 
Heartbeat CPU 0 instructions: 497000000 cycles: 1083599889 heartbeat IPC: 1.56252 cumulative IPC: 0.458962 (Simulation time: 0 hr 36 min 3 sec) 
Heartbeat CPU 0 instructions: 498000001 cycles: 1084194909 heartbeat IPC: 1.68062 cumulative IPC: 0.459647 (Simulation time: 0 hr 36 min 6 sec) 
Heartbeat CPU 0 instructions: 499000000 cycles: 1087289147 heartbeat IPC: 0.323181 cumulative IPC: 0.45925 (Simulation time: 0 hr 36 min 11 sec) 
Heartbeat CPU 0 instructions: 500000000 cycles: 1090315603 heartbeat IPC: 0.330419 cumulative IPC: 0.458885 (Simulation time: 0 hr 36 min 15 sec) 
Heartbeat CPU 0 instructions: 501000000 cycles: 1093296719 heartbeat IPC: 0.335445 cumulative IPC: 0.458541 (Simulation time: 0 hr 36 min 20 sec) 
Heartbeat CPU 0 instructions: 502000003 cycles: 1095732935 heartbeat IPC: 0.410474 cumulative IPC: 0.458432 (Simulation time: 0 hr 36 min 25 sec) 
Heartbeat CPU 0 instructions: 503000002 cycles: 1098325683 heartbeat IPC: 0.385691 cumulative IPC: 0.458257 (Simulation time: 0 hr 36 min 30 sec) 
Heartbeat CPU 0 instructions: 504000002 cycles: 1100770045 heartbeat IPC: 0.409105 cumulative IPC: 0.458145 (Simulation time: 0 hr 36 min 34 sec) 
Heartbeat CPU 0 instructions: 505000001 cycles: 1103195089 heartbeat IPC: 0.412363 cumulative IPC: 0.458043 (Simulation time: 0 hr 36 min 38 sec) 
Heartbeat CPU 0 instructions: 506000000 cycles: 1105632841 heartbeat IPC: 0.410214 cumulative IPC: 0.457935 (Simulation time: 0 hr 36 min 43 sec) 
Heartbeat CPU 0 instructions: 507000003 cycles: 1108034868 heartbeat IPC: 0.416316 cumulative IPC: 0.457843 (Simulation time: 0 hr 36 min 47 sec) 
Heartbeat CPU 0 instructions: 508000001 cycles: 1110459794 heartbeat IPC: 0.412383 cumulative IPC: 0.457742 (Simulation time: 0 hr 36 min 52 sec) 
Heartbeat CPU 0 instructions: 509000001 cycles: 1112973899 heartbeat IPC: 0.397756 cumulative IPC: 0.457603 (Simulation time: 0 hr 36 min 56 sec) 
Heartbeat CPU 0 instructions: 510000000 cycles: 1115431267 heartbeat IPC: 0.406939 cumulative IPC: 0.457489 (Simulation time: 0 hr 37 min 1 sec) 
Finished CPU 0 instructions: 500000003 cycles: 1092921670 cumulative IPC: 0.457489 (Simulation time: 0 hr 37 min 1 sec) 

ChampSim completed all CPUs

Region of Interest Statistics

CPU 0 cumulative IPC: 0.457489 instructions: 500000003 cycles: 1092921670
L1D TOTAL     ACCESS:   70705836  HIT:   57631515  MISS:   13074321
L1D LOAD      ACCESS:   47315983  HIT:   34431076  MISS:   12884907
L1D RFO       ACCESS:   23389853  HIT:   23200439  MISS:     189414
L1D PREFETCH  ACCESS:          0  HIT:          0  MISS:          0
L1D WRITEBACK ACCESS:          0  HIT:          0  MISS:          0
L1D PREFETCH  REQUESTED:          0  ISSUED:          0  USEFUL:          0  USELESS:          0  UAC CORRECT:          0
L1D AVERAGE MISS LATENCY: 251.854 cycles
L1I TOTAL     ACCESS:   97410960  HIT:   97350833  MISS:      60127
L1I LOAD      ACCESS:   97410960  HIT:   97350833  MISS:      60127
L1I RFO       ACCESS:          0  HIT:          0  MISS:          0
L1I PREFETCH  ACCESS:          0  HIT:          0  MISS:          0
L1I WRITEBACK ACCESS:          0  HIT:          0  MISS:          0
L1I PREFETCH  REQUESTED:          0  ISSUED:          0  USEFUL:          0  USELESS:          0  UAC CORRECT:          0
L1I AVERAGE MISS LATENCY: 95.0988 cycles
L2C TOTAL     ACCESS:   13556564  HIT:     535998  MISS:   13020566
L2C LOAD      ACCESS:   12945025  HIT:     103725  MISS:   12841300
L2C RFO       ACCESS:     189414  HIT:      10148  MISS:     179266
L2C PREFETCH  ACCESS:          0  HIT:          0  MISS:          0
L2C WRITEBACK ACCESS:     422125  HIT:     422125  MISS:          0
L2C PREFETCH  REQUESTED:          0  ISSUED:          0  USEFUL:          0  USELESS:          0  UAC CORRECT:          0
L2C AVERAGE MISS LATENCY: 139.727 cycles
LLC TOTAL     ACCESS:   23090032  HIT:   19255803  MISS:    3834229
LLC LOAD      ACCESS:   12841292  HIT:    9671438  MISS:    3169854
LLC RFO       ACCESS:     179266  HIT:      95974  MISS:      83292
LLC PREFETCH  ACCESS:    9657755  HIT:    9076672  MISS:     581083
LLC WRITEBACK ACCESS:     411719  HIT:     411719  MISS:          0
LLC PREFETCH  REQUESTED:   12662704  ISSUED:   12662704  USEFUL:     575497  USELESS:       5570  UAC CORRECT:    9045611
LLC AVERAGE MISS LATENCY: 194.775 cycles
Major fault: 0 Minor fault: 17822
performance stats:
mapping cache size: 164980
divergence: 671192

DRAM Statistics
 CHANNEL 0
 RQ ROW_BUFFER_HIT:     661732  ROW_BUFFER_MISS:    1289352
 DBUS_CONGESTED:     642026
 WQ ROW_BUFFER_HIT:      80772  ROW_BUFFER_MISS:      45021  FULL:          0

 CHANNEL 1
 RQ ROW_BUFFER_HIT:     635279  ROW_BUFFER_MISS:    1247783
 DBUS_CONGESTED:     642026
 WQ ROW_BUFFER_HIT:      81027  ROW_BUFFER_MISS:      47735  FULL:          0

 AVG_CONGESTED_CYCLE: 16

CPU 0 Branch Prediction Accuracy: 99.7475% MPKI: 0.812406 Average ROB Occupancy at Mispredict: 54.4359

Branch types
NOT_BRANCH: 339146589 67.8293%
BRANCH_DIRECT_JUMP: 6313899 1.26278%
BRANCH_INDIRECT: 245275 0.049055%
BRANCH_CONDITIONAL: 148243815 29.6488%
BRANCH_DIRECT_CALL: 2780028 0.556006%
BRANCH_INDIRECT_CALL: 245096 0.0490192%
BRANCH_RETURN: 3025121 0.605024%
BRANCH_OTHER: 0 0%


gzip: stdout: Broken pipe
