
*** ChampSim Multicore Out-of-Order Simulator ***

Warmup Instructions: 1000000
Prefetch Warmup Instructions: 10000000
Simulation Instructions: 500000000
Stat Printing Period: 1000000
Number of CPUs: 1
LLC sets: 2048
LLC ways: 16
Off-chip DRAM Size: 32768 MB Channels: 2 Width: 64-bit Data Rate: 1024 MT/s

CPU 0 runs /scratch/cluster/cmolder/ML-DPC/ChampSimTraces/spec06/471.omnetpp-s1.trace.gz
Read seed: 1083
Heartbeat CPU 0 instructions: 1000000 cycles: 457878 heartbeat IPC: 2.18399 cumulative IPC: 2.18399 (Simulation time: 0 hr 0 min 3 sec) 

Warmup complete CPU 0 instructions: 1000004 cycles: 457879 (Simulation time: 0 hr 0 min 3 sec) 

Heartbeat CPU 0 instructions: 2000000 cycles: 2956327 heartbeat IPC: 0.400248 cumulative IPC: 0.400247 (Simulation time: 0 hr 0 min 7 sec) 
Heartbeat CPU 0 instructions: 3000001 cycles: 6041457 heartbeat IPC: 0.324136 cumulative IPC: 0.358193 (Simulation time: 0 hr 0 min 12 sec) 
Heartbeat CPU 0 instructions: 4000003 cycles: 8933687 heartbeat IPC: 0.345755 cumulative IPC: 0.353948 (Simulation time: 0 hr 0 min 16 sec) 
Heartbeat CPU 0 instructions: 5000001 cycles: 12053470 heartbeat IPC: 0.320534 cumulative IPC: 0.344958 (Simulation time: 0 hr 0 min 21 sec) 
Heartbeat CPU 0 instructions: 6000002 cycles: 16059523 heartbeat IPC: 0.249623 cumulative IPC: 0.320479 (Simulation time: 0 hr 0 min 26 sec) 
Heartbeat CPU 0 instructions: 7000000 cycles: 20106571 heartbeat IPC: 0.247093 cumulative IPC: 0.305364 (Simulation time: 0 hr 0 min 31 sec) 
Heartbeat CPU 0 instructions: 8000001 cycles: 22885593 heartbeat IPC: 0.359839 cumulative IPC: 0.312114 (Simulation time: 0 hr 0 min 36 sec) 
Heartbeat CPU 0 instructions: 9000002 cycles: 26274119 heartbeat IPC: 0.295114 cumulative IPC: 0.309882 (Simulation time: 0 hr 0 min 40 sec) 
Heartbeat CPU 0 instructions: 10000003 cycles: 29664019 heartbeat IPC: 0.294994 cumulative IPC: 0.308154 (Simulation time: 0 hr 0 min 45 sec) 

Warmup complete CPU 0 instructions: 10000003 cycles: 29664019 (Simulation time: 0 hr 0 min 45 sec) 

Heartbeat CPU 0 instructions: 11000000 cycles: 32422355 heartbeat IPC: 0.362536 cumulative IPC: 0.362536 (Simulation time: 0 hr 0 min 49 sec) 
Heartbeat CPU 0 instructions: 12000003 cycles: 35253282 heartbeat IPC: 0.353242 cumulative IPC: 0.357829 (Simulation time: 0 hr 0 min 54 sec) 
Heartbeat CPU 0 instructions: 13000003 cycles: 38233533 heartbeat IPC: 0.335542 cumulative IPC: 0.350078 (Simulation time: 0 hr 0 min 58 sec) 
Heartbeat CPU 0 instructions: 14000002 cycles: 41450159 heartbeat IPC: 0.310884 cumulative IPC: 0.339382 (Simulation time: 0 hr 1 min 2 sec) 
Heartbeat CPU 0 instructions: 15000000 cycles: 45478566 heartbeat IPC: 0.248237 cumulative IPC: 0.316164 (Simulation time: 0 hr 1 min 8 sec) 
Heartbeat CPU 0 instructions: 16000000 cycles: 49366354 heartbeat IPC: 0.257216 cumulative IPC: 0.304532 (Simulation time: 0 hr 1 min 12 sec) 
Heartbeat CPU 0 instructions: 17000001 cycles: 52500965 heartbeat IPC: 0.319019 cumulative IPC: 0.306521 (Simulation time: 0 hr 1 min 17 sec) 
Heartbeat CPU 0 instructions: 18000001 cycles: 55934098 heartbeat IPC: 0.291279 cumulative IPC: 0.304529 (Simulation time: 0 hr 1 min 22 sec) 
Heartbeat CPU 0 instructions: 19000001 cycles: 59857817 heartbeat IPC: 0.25486 cumulative IPC: 0.298074 (Simulation time: 0 hr 1 min 27 sec) 
Heartbeat CPU 0 instructions: 20000000 cycles: 63575486 heartbeat IPC: 0.268985 cumulative IPC: 0.294885 (Simulation time: 0 hr 1 min 31 sec) 
Heartbeat CPU 0 instructions: 21000001 cycles: 66364873 heartbeat IPC: 0.358502 cumulative IPC: 0.29972 (Simulation time: 0 hr 1 min 36 sec) 
Heartbeat CPU 0 instructions: 22000000 cycles: 69363058 heartbeat IPC: 0.333535 cumulative IPC: 0.302274 (Simulation time: 0 hr 1 min 41 sec) 
Heartbeat CPU 0 instructions: 23000002 cycles: 72385393 heartbeat IPC: 0.330871 cumulative IPC: 0.304297 (Simulation time: 0 hr 1 min 45 sec) 
Heartbeat CPU 0 instructions: 24000001 cycles: 75414863 heartbeat IPC: 0.33009 cumulative IPC: 0.306005 (Simulation time: 0 hr 1 min 50 sec) 
Heartbeat CPU 0 instructions: 25000000 cycles: 78316242 heartbeat IPC: 0.344663 cumulative IPC: 0.308311 (Simulation time: 0 hr 1 min 54 sec) 
Heartbeat CPU 0 instructions: 26000002 cycles: 81560999 heartbeat IPC: 0.30819 cumulative IPC: 0.308303 (Simulation time: 0 hr 1 min 59 sec) 
Heartbeat CPU 0 instructions: 27000000 cycles: 85251099 heartbeat IPC: 0.270995 cumulative IPC: 0.305826 (Simulation time: 0 hr 2 min 4 sec) 
Heartbeat CPU 0 instructions: 28000001 cycles: 89444726 heartbeat IPC: 0.238457 cumulative IPC: 0.3011 (Simulation time: 0 hr 2 min 9 sec) 
Heartbeat CPU 0 instructions: 29000002 cycles: 93009838 heartbeat IPC: 0.280496 cumulative IPC: 0.299941 (Simulation time: 0 hr 2 min 14 sec) 
Heartbeat CPU 0 instructions: 30000002 cycles: 95933647 heartbeat IPC: 0.34202 cumulative IPC: 0.301797 (Simulation time: 0 hr 2 min 18 sec) 
Heartbeat CPU 0 instructions: 31000002 cycles: 99289644 heartbeat IPC: 0.297974 cumulative IPC: 0.301613 (Simulation time: 0 hr 2 min 23 sec) 
Heartbeat CPU 0 instructions: 32000003 cycles: 102133353 heartbeat IPC: 0.351654 cumulative IPC: 0.303577 (Simulation time: 0 hr 2 min 27 sec) 
Heartbeat CPU 0 instructions: 33000000 cycles: 105397080 heartbeat IPC: 0.306397 cumulative IPC: 0.303698 (Simulation time: 0 hr 2 min 32 sec) 
Heartbeat CPU 0 instructions: 34000002 cycles: 109125964 heartbeat IPC: 0.268177 cumulative IPC: 0.302031 (Simulation time: 0 hr 2 min 36 sec) 
Heartbeat CPU 0 instructions: 35000003 cycles: 111942808 heartbeat IPC: 0.355008 cumulative IPC: 0.303845 (Simulation time: 0 hr 2 min 41 sec) 
Heartbeat CPU 0 instructions: 36000000 cycles: 116093116 heartbeat IPC: 0.240945 cumulative IPC: 0.300825 (Simulation time: 0 hr 2 min 47 sec) 
Heartbeat CPU 0 instructions: 37000003 cycles: 120521408 heartbeat IPC: 0.225821 cumulative IPC: 0.297169 (Simulation time: 0 hr 2 min 52 sec) 
Heartbeat CPU 0 instructions: 38000001 cycles: 123726689 heartbeat IPC: 0.311985 cumulative IPC: 0.297674 (Simulation time: 0 hr 2 min 57 sec) 
Heartbeat CPU 0 instructions: 39000000 cycles: 127639661 heartbeat IPC: 0.25556 cumulative IPC: 0.295992 (Simulation time: 0 hr 3 min 2 sec) 
Heartbeat CPU 0 instructions: 40000002 cycles: 130381251 heartbeat IPC: 0.364753 cumulative IPC: 0.297864 (Simulation time: 0 hr 3 min 6 sec) 
Heartbeat CPU 0 instructions: 41000001 cycles: 133309415 heartbeat IPC: 0.341511 cumulative IPC: 0.299097 (Simulation time: 0 hr 3 min 11 sec) 
Heartbeat CPU 0 instructions: 42000002 cycles: 137296801 heartbeat IPC: 0.250791 cumulative IPC: 0.297307 (Simulation time: 0 hr 3 min 16 sec) 
Heartbeat CPU 0 instructions: 43000002 cycles: 141266912 heartbeat IPC: 0.251882 cumulative IPC: 0.295691 (Simulation time: 0 hr 3 min 21 sec) 
Heartbeat CPU 0 instructions: 44000000 cycles: 144647260 heartbeat IPC: 0.295827 cumulative IPC: 0.295695 (Simulation time: 0 hr 3 min 26 sec) 
Heartbeat CPU 0 instructions: 45000002 cycles: 148076058 heartbeat IPC: 0.291648 cumulative IPC: 0.295578 (Simulation time: 0 hr 3 min 31 sec) 
Heartbeat CPU 0 instructions: 46000003 cycles: 151395341 heartbeat IPC: 0.30127 cumulative IPC: 0.295733 (Simulation time: 0 hr 3 min 35 sec) 
Heartbeat CPU 0 instructions: 47000001 cycles: 153564100 heartbeat IPC: 0.461092 cumulative IPC: 0.298628 (Simulation time: 0 hr 3 min 39 sec) 
Heartbeat CPU 0 instructions: 48000000 cycles: 156796246 heartbeat IPC: 0.309392 cumulative IPC: 0.298901 (Simulation time: 0 hr 3 min 44 sec) 
Heartbeat CPU 0 instructions: 49000001 cycles: 158900051 heartbeat IPC: 0.47533 cumulative IPC: 0.301773 (Simulation time: 0 hr 3 min 48 sec) 
Heartbeat CPU 0 instructions: 50000001 cycles: 162160012 heartbeat IPC: 0.306752 cumulative IPC: 0.301896 (Simulation time: 0 hr 3 min 53 sec) 
Heartbeat CPU 0 instructions: 51000002 cycles: 165288963 heartbeat IPC: 0.319596 cumulative IPC: 0.302304 (Simulation time: 0 hr 3 min 57 sec) 
Heartbeat CPU 0 instructions: 52000000 cycles: 169176345 heartbeat IPC: 0.257242 cumulative IPC: 0.301049 (Simulation time: 0 hr 4 min 2 sec) 
Heartbeat CPU 0 instructions: 53000000 cycles: 173853384 heartbeat IPC: 0.21381 cumulative IPC: 0.298219 (Simulation time: 0 hr 4 min 8 sec) 
Heartbeat CPU 0 instructions: 54000003 cycles: 177617907 heartbeat IPC: 0.265639 cumulative IPC: 0.29739 (Simulation time: 0 hr 4 min 12 sec) 
Heartbeat CPU 0 instructions: 55000000 cycles: 181347910 heartbeat IPC: 0.268095 cumulative IPC: 0.29667 (Simulation time: 0 hr 4 min 17 sec) 
Heartbeat CPU 0 instructions: 56000001 cycles: 185524333 heartbeat IPC: 0.23944 cumulative IPC: 0.295136 (Simulation time: 0 hr 4 min 22 sec) 
Heartbeat CPU 0 instructions: 57000002 cycles: 189089100 heartbeat IPC: 0.280524 cumulative IPC: 0.294809 (Simulation time: 0 hr 4 min 27 sec) 
Heartbeat CPU 0 instructions: 58000000 cycles: 191752830 heartbeat IPC: 0.375413 cumulative IPC: 0.296134 (Simulation time: 0 hr 4 min 31 sec) 
Heartbeat CPU 0 instructions: 59000000 cycles: 195537264 heartbeat IPC: 0.26424 cumulative IPC: 0.295406 (Simulation time: 0 hr 4 min 36 sec) 
Heartbeat CPU 0 instructions: 60000002 cycles: 199902763 heartbeat IPC: 0.229069 cumulative IPC: 0.293705 (Simulation time: 0 hr 4 min 41 sec) 
Heartbeat CPU 0 instructions: 61000001 cycles: 204322188 heartbeat IPC: 0.226274 cumulative IPC: 0.291999 (Simulation time: 0 hr 4 min 47 sec) 
Heartbeat CPU 0 instructions: 62000000 cycles: 208664125 heartbeat IPC: 0.230312 cumulative IPC: 0.290503 (Simulation time: 0 hr 4 min 52 sec) 
Heartbeat CPU 0 instructions: 63000002 cycles: 212180507 heartbeat IPC: 0.284384 cumulative IPC: 0.290385 (Simulation time: 0 hr 4 min 58 sec) 
Heartbeat CPU 0 instructions: 64000000 cycles: 215633028 heartbeat IPC: 0.289643 cumulative IPC: 0.290371 (Simulation time: 0 hr 5 min 2 sec) 
Heartbeat CPU 0 instructions: 65000001 cycles: 218302754 heartbeat IPC: 0.374571 cumulative IPC: 0.291563 (Simulation time: 0 hr 5 min 6 sec) 
Heartbeat CPU 0 instructions: 66000000 cycles: 221121333 heartbeat IPC: 0.354788 cumulative IPC: 0.292493 (Simulation time: 0 hr 5 min 10 sec) 
Heartbeat CPU 0 instructions: 67000003 cycles: 224173797 heartbeat IPC: 0.327605 cumulative IPC: 0.293044 (Simulation time: 0 hr 5 min 15 sec) 
Heartbeat CPU 0 instructions: 68000003 cycles: 227286642 heartbeat IPC: 0.32125 cumulative IPC: 0.293489 (Simulation time: 0 hr 5 min 19 sec) 
Heartbeat CPU 0 instructions: 69000001 cycles: 230385204 heartbeat IPC: 0.32273 cumulative IPC: 0.29394 (Simulation time: 0 hr 5 min 23 sec) 
Heartbeat CPU 0 instructions: 70000000 cycles: 232899642 heartbeat IPC: 0.397703 cumulative IPC: 0.295224 (Simulation time: 0 hr 5 min 27 sec) 
Heartbeat CPU 0 instructions: 71000000 cycles: 236545928 heartbeat IPC: 0.274252 cumulative IPC: 0.294854 (Simulation time: 0 hr 5 min 32 sec) 
Heartbeat CPU 0 instructions: 72000001 cycles: 241002039 heartbeat IPC: 0.224411 cumulative IPC: 0.293369 (Simulation time: 0 hr 5 min 37 sec) 
Heartbeat CPU 0 instructions: 73000003 cycles: 244330983 heartbeat IPC: 0.300396 cumulative IPC: 0.293478 (Simulation time: 0 hr 5 min 42 sec) 
Heartbeat CPU 0 instructions: 74000003 cycles: 247610489 heartbeat IPC: 0.304924 cumulative IPC: 0.29365 (Simulation time: 0 hr 5 min 46 sec) 
Heartbeat CPU 0 instructions: 75000003 cycles: 251733148 heartbeat IPC: 0.242562 cumulative IPC: 0.292702 (Simulation time: 0 hr 5 min 51 sec) 
Heartbeat CPU 0 instructions: 76000000 cycles: 255539435 heartbeat IPC: 0.262722 cumulative IPC: 0.292196 (Simulation time: 0 hr 5 min 56 sec) 
Heartbeat CPU 0 instructions: 77000000 cycles: 260679592 heartbeat IPC: 0.194547 cumulative IPC: 0.290024 (Simulation time: 0 hr 6 min 2 sec) 
Heartbeat CPU 0 instructions: 78000001 cycles: 264016092 heartbeat IPC: 0.299716 cumulative IPC: 0.290162 (Simulation time: 0 hr 6 min 6 sec) 
Heartbeat CPU 0 instructions: 79000003 cycles: 267650013 heartbeat IPC: 0.275185 cumulative IPC: 0.289933 (Simulation time: 0 hr 6 min 11 sec) 
Heartbeat CPU 0 instructions: 80000001 cycles: 270872055 heartbeat IPC: 0.310362 cumulative IPC: 0.290206 (Simulation time: 0 hr 6 min 15 sec) 
Heartbeat CPU 0 instructions: 81000000 cycles: 274810531 heartbeat IPC: 0.253905 cumulative IPC: 0.289623 (Simulation time: 0 hr 6 min 20 sec) 
Heartbeat CPU 0 instructions: 82000001 cycles: 279210493 heartbeat IPC: 0.227275 cumulative IPC: 0.288523 (Simulation time: 0 hr 6 min 25 sec) 
Heartbeat CPU 0 instructions: 83000002 cycles: 282287896 heartbeat IPC: 0.32495 cumulative IPC: 0.288967 (Simulation time: 0 hr 6 min 30 sec) 
Heartbeat CPU 0 instructions: 84000002 cycles: 285806232 heartbeat IPC: 0.284225 cumulative IPC: 0.288902 (Simulation time: 0 hr 6 min 34 sec) 
Heartbeat CPU 0 instructions: 85000001 cycles: 288487492 heartbeat IPC: 0.372959 cumulative IPC: 0.289773 (Simulation time: 0 hr 6 min 39 sec) 
Heartbeat CPU 0 instructions: 86000002 cycles: 291562949 heartbeat IPC: 0.325155 cumulative IPC: 0.290188 (Simulation time: 0 hr 6 min 43 sec) 
Heartbeat CPU 0 instructions: 87000000 cycles: 294882153 heartbeat IPC: 0.301276 cumulative IPC: 0.290327 (Simulation time: 0 hr 6 min 48 sec) 
Heartbeat CPU 0 instructions: 88000000 cycles: 297884471 heartbeat IPC: 0.333076 cumulative IPC: 0.290806 (Simulation time: 0 hr 6 min 52 sec) 
Heartbeat CPU 0 instructions: 89000000 cycles: 300433981 heartbeat IPC: 0.392232 cumulative IPC: 0.291761 (Simulation time: 0 hr 6 min 56 sec) 
Heartbeat CPU 0 instructions: 90000000 cycles: 303667935 heartbeat IPC: 0.309219 cumulative IPC: 0.291967 (Simulation time: 0 hr 7 min 1 sec) 
Heartbeat CPU 0 instructions: 91000002 cycles: 306483524 heartbeat IPC: 0.355166 cumulative IPC: 0.292609 (Simulation time: 0 hr 7 min 5 sec) 
Heartbeat CPU 0 instructions: 92000001 cycles: 310152653 heartbeat IPC: 0.272544 cumulative IPC: 0.292347 (Simulation time: 0 hr 7 min 9 sec) 
Heartbeat CPU 0 instructions: 93000003 cycles: 314639865 heartbeat IPC: 0.222856 cumulative IPC: 0.291253 (Simulation time: 0 hr 7 min 14 sec) 
Heartbeat CPU 0 instructions: 94000003 cycles: 318329392 heartbeat IPC: 0.271037 cumulative IPC: 0.290994 (Simulation time: 0 hr 7 min 19 sec) 
Heartbeat CPU 0 instructions: 95000003 cycles: 322264211 heartbeat IPC: 0.254141 cumulative IPC: 0.290499 (Simulation time: 0 hr 7 min 24 sec) 
Heartbeat CPU 0 instructions: 96000001 cycles: 326776004 heartbeat IPC: 0.221641 cumulative IPC: 0.289453 (Simulation time: 0 hr 7 min 30 sec) 
Heartbeat CPU 0 instructions: 97000000 cycles: 329637004 heartbeat IPC: 0.349528 cumulative IPC: 0.290026 (Simulation time: 0 hr 7 min 34 sec) 
Heartbeat CPU 0 instructions: 98000001 cycles: 333758710 heartbeat IPC: 0.242618 cumulative IPC: 0.289384 (Simulation time: 0 hr 7 min 39 sec) 
Heartbeat CPU 0 instructions: 99000000 cycles: 338133967 heartbeat IPC: 0.228558 cumulative IPC: 0.288521 (Simulation time: 0 hr 7 min 44 sec) 
Heartbeat CPU 0 instructions: 100000003 cycles: 341719873 heartbeat IPC: 0.27887 cumulative IPC: 0.28841 (Simulation time: 0 hr 7 min 49 sec) 
Heartbeat CPU 0 instructions: 101000000 cycles: 345158248 heartbeat IPC: 0.290834 cumulative IPC: 0.288436 (Simulation time: 0 hr 7 min 54 sec) 
Heartbeat CPU 0 instructions: 102000000 cycles: 348186825 heartbeat IPC: 0.330188 cumulative IPC: 0.288833 (Simulation time: 0 hr 7 min 58 sec) 
Heartbeat CPU 0 instructions: 103000001 cycles: 351316989 heartbeat IPC: 0.319472 cumulative IPC: 0.289131 (Simulation time: 0 hr 8 min 2 sec) 
Heartbeat CPU 0 instructions: 104000001 cycles: 354473429 heartbeat IPC: 0.316813 cumulative IPC: 0.2894 (Simulation time: 0 hr 8 min 7 sec) 
Heartbeat CPU 0 instructions: 105000002 cycles: 357674865 heartbeat IPC: 0.31236 cumulative IPC: 0.289625 (Simulation time: 0 hr 8 min 12 sec) 
Heartbeat CPU 0 instructions: 106000001 cycles: 360611318 heartbeat IPC: 0.340547 cumulative IPC: 0.290076 (Simulation time: 0 hr 8 min 16 sec) 
Heartbeat CPU 0 instructions: 107000002 cycles: 364645907 heartbeat IPC: 0.247857 cumulative IPC: 0.289568 (Simulation time: 0 hr 8 min 21 sec) 
Heartbeat CPU 0 instructions: 108000002 cycles: 368624204 heartbeat IPC: 0.251364 cumulative IPC: 0.28912 (Simulation time: 0 hr 8 min 26 sec) 
Heartbeat CPU 0 instructions: 109000001 cycles: 372999081 heartbeat IPC: 0.228578 cumulative IPC: 0.288348 (Simulation time: 0 hr 8 min 31 sec) 
Heartbeat CPU 0 instructions: 110000000 cycles: 376025405 heartbeat IPC: 0.330434 cumulative IPC: 0.288716 (Simulation time: 0 hr 8 min 36 sec) 
Heartbeat CPU 0 instructions: 111000003 cycles: 380299231 heartbeat IPC: 0.233983 cumulative IPC: 0.288049 (Simulation time: 0 hr 8 min 41 sec) 
Heartbeat CPU 0 instructions: 112000002 cycles: 383715847 heartbeat IPC: 0.292687 cumulative IPC: 0.288093 (Simulation time: 0 hr 8 min 46 sec) 
Heartbeat CPU 0 instructions: 113000003 cycles: 386873865 heartbeat IPC: 0.316655 cumulative IPC: 0.288346 (Simulation time: 0 hr 8 min 50 sec) 
Heartbeat CPU 0 instructions: 114000000 cycles: 389252111 heartbeat IPC: 0.420477 cumulative IPC: 0.28922 (Simulation time: 0 hr 8 min 54 sec) 
Heartbeat CPU 0 instructions: 115000001 cycles: 392684163 heartbeat IPC: 0.291371 cumulative IPC: 0.28924 (Simulation time: 0 hr 8 min 58 sec) 
Heartbeat CPU 0 instructions: 116000001 cycles: 396769735 heartbeat IPC: 0.244764 cumulative IPC: 0.288745 (Simulation time: 0 hr 9 min 4 sec) 
Heartbeat CPU 0 instructions: 117000001 cycles: 399597477 heartbeat IPC: 0.353639 cumulative IPC: 0.289241 (Simulation time: 0 hr 9 min 8 sec) 
Heartbeat CPU 0 instructions: 118000002 cycles: 402482469 heartbeat IPC: 0.346622 cumulative IPC: 0.289685 (Simulation time: 0 hr 9 min 12 sec) 
Heartbeat CPU 0 instructions: 119000000 cycles: 405764683 heartbeat IPC: 0.304672 cumulative IPC: 0.289816 (Simulation time: 0 hr 9 min 17 sec) 
Heartbeat CPU 0 instructions: 120000000 cycles: 408740062 heartbeat IPC: 0.336092 cumulative IPC: 0.290179 (Simulation time: 0 hr 9 min 21 sec) 
Heartbeat CPU 0 instructions: 121000000 cycles: 411435233 heartbeat IPC: 0.371034 cumulative IPC: 0.29075 (Simulation time: 0 hr 9 min 26 sec) 
Heartbeat CPU 0 instructions: 122000002 cycles: 414411489 heartbeat IPC: 0.335993 cumulative IPC: 0.2911 (Simulation time: 0 hr 9 min 30 sec) 
Heartbeat CPU 0 instructions: 123000003 cycles: 417392835 heartbeat IPC: 0.335419 cumulative IPC: 0.291441 (Simulation time: 0 hr 9 min 34 sec) 
Heartbeat CPU 0 instructions: 124000000 cycles: 420813043 heartbeat IPC: 0.292379 cumulative IPC: 0.291449 (Simulation time: 0 hr 9 min 39 sec) 
Heartbeat CPU 0 instructions: 125000001 cycles: 423723822 heartbeat IPC: 0.343551 cumulative IPC: 0.291834 (Simulation time: 0 hr 9 min 43 sec) 
Heartbeat CPU 0 instructions: 126000000 cycles: 426661307 heartbeat IPC: 0.340427 cumulative IPC: 0.292193 (Simulation time: 0 hr 9 min 48 sec) 
Heartbeat CPU 0 instructions: 127000001 cycles: 429512652 heartbeat IPC: 0.350712 cumulative IPC: 0.292611 (Simulation time: 0 hr 9 min 52 sec) 
Heartbeat CPU 0 instructions: 128000001 cycles: 432590382 heartbeat IPC: 0.324915 cumulative IPC: 0.292857 (Simulation time: 0 hr 9 min 56 sec) 
Heartbeat CPU 0 instructions: 129000002 cycles: 435261409 heartbeat IPC: 0.374388 cumulative IPC: 0.293394 (Simulation time: 0 hr 10 min 1 sec) 
Heartbeat CPU 0 instructions: 130000001 cycles: 438152041 heartbeat IPC: 0.345945 cumulative IPC: 0.293766 (Simulation time: 0 hr 10 min 5 sec) 
Heartbeat CPU 0 instructions: 131000000 cycles: 441121211 heartbeat IPC: 0.336794 cumulative IPC: 0.294077 (Simulation time: 0 hr 10 min 10 sec) 
Heartbeat CPU 0 instructions: 132000000 cycles: 444399945 heartbeat IPC: 0.304996 cumulative IPC: 0.294163 (Simulation time: 0 hr 10 min 14 sec) 
Heartbeat CPU 0 instructions: 133000000 cycles: 447296394 heartbeat IPC: 0.34525 cumulative IPC: 0.294517 (Simulation time: 0 hr 10 min 19 sec) 
Heartbeat CPU 0 instructions: 134000003 cycles: 450710531 heartbeat IPC: 0.292901 cumulative IPC: 0.294504 (Simulation time: 0 hr 10 min 23 sec) 
Heartbeat CPU 0 instructions: 135000002 cycles: 453787883 heartbeat IPC: 0.324954 cumulative IPC: 0.294725 (Simulation time: 0 hr 10 min 28 sec) 
Heartbeat CPU 0 instructions: 136000003 cycles: 456819013 heartbeat IPC: 0.32991 cumulative IPC: 0.294975 (Simulation time: 0 hr 10 min 32 sec) 
Heartbeat CPU 0 instructions: 137000003 cycles: 459957850 heartbeat IPC: 0.318589 cumulative IPC: 0.295147 (Simulation time: 0 hr 10 min 37 sec) 
Heartbeat CPU 0 instructions: 138000001 cycles: 463571693 heartbeat IPC: 0.276713 cumulative IPC: 0.294994 (Simulation time: 0 hr 10 min 42 sec) 
Heartbeat CPU 0 instructions: 139000001 cycles: 467112248 heartbeat IPC: 0.282442 cumulative IPC: 0.294892 (Simulation time: 0 hr 10 min 46 sec) 
Heartbeat CPU 0 instructions: 140000000 cycles: 470195360 heartbeat IPC: 0.324347 cumulative IPC: 0.295098 (Simulation time: 0 hr 10 min 51 sec) 
Heartbeat CPU 0 instructions: 141000002 cycles: 474483723 heartbeat IPC: 0.23319 cumulative IPC: 0.294501 (Simulation time: 0 hr 10 min 56 sec) 
Heartbeat CPU 0 instructions: 142000000 cycles: 478375975 heartbeat IPC: 0.25692 cumulative IPC: 0.294175 (Simulation time: 0 hr 11 min 0 sec) 
Heartbeat CPU 0 instructions: 143000000 cycles: 482157032 heartbeat IPC: 0.264476 cumulative IPC: 0.293927 (Simulation time: 0 hr 11 min 5 sec) 
Heartbeat CPU 0 instructions: 144000001 cycles: 485676041 heartbeat IPC: 0.284171 cumulative IPC: 0.293852 (Simulation time: 0 hr 11 min 9 sec) 
Heartbeat CPU 0 instructions: 145000001 cycles: 488289278 heartbeat IPC: 0.382667 cumulative IPC: 0.294358 (Simulation time: 0 hr 11 min 14 sec) 
Heartbeat CPU 0 instructions: 146000000 cycles: 492165455 heartbeat IPC: 0.257986 cumulative IPC: 0.294053 (Simulation time: 0 hr 11 min 18 sec) 
Heartbeat CPU 0 instructions: 147000003 cycles: 496431828 heartbeat IPC: 0.234392 cumulative IPC: 0.293508 (Simulation time: 0 hr 11 min 23 sec) 
Heartbeat CPU 0 instructions: 148000001 cycles: 500094843 heartbeat IPC: 0.272999 cumulative IPC: 0.293348 (Simulation time: 0 hr 11 min 28 sec) 
Heartbeat CPU 0 instructions: 149000000 cycles: 503255270 heartbeat IPC: 0.316413 cumulative IPC: 0.293502 (Simulation time: 0 hr 11 min 32 sec) 
Heartbeat CPU 0 instructions: 150000003 cycles: 505181462 heartbeat IPC: 0.519161 cumulative IPC: 0.294416 (Simulation time: 0 hr 11 min 35 sec) 
Heartbeat CPU 0 instructions: 151000000 cycles: 508574461 heartbeat IPC: 0.294724 cumulative IPC: 0.294418 (Simulation time: 0 hr 11 min 40 sec) 
Heartbeat CPU 0 instructions: 152000001 cycles: 512724744 heartbeat IPC: 0.240948 cumulative IPC: 0.293959 (Simulation time: 0 hr 11 min 45 sec) 
Heartbeat CPU 0 instructions: 153000000 cycles: 516862654 heartbeat IPC: 0.241668 cumulative IPC: 0.293515 (Simulation time: 0 hr 11 min 50 sec) 
Heartbeat CPU 0 instructions: 154000000 cycles: 520974764 heartbeat IPC: 0.243184 cumulative IPC: 0.293094 (Simulation time: 0 hr 11 min 55 sec) 
Heartbeat CPU 0 instructions: 155000001 cycles: 524992632 heartbeat IPC: 0.248888 cumulative IPC: 0.292735 (Simulation time: 0 hr 12 min 0 sec) 
Heartbeat CPU 0 instructions: 156000003 cycles: 528726565 heartbeat IPC: 0.267815 cumulative IPC: 0.292549 (Simulation time: 0 hr 12 min 5 sec) 
Heartbeat CPU 0 instructions: 157000002 cycles: 532995046 heartbeat IPC: 0.234275 cumulative IPC: 0.292054 (Simulation time: 0 hr 12 min 10 sec) 
Heartbeat CPU 0 instructions: 158000002 cycles: 537319964 heartbeat IPC: 0.231218 cumulative IPC: 0.291536 (Simulation time: 0 hr 12 min 15 sec) 
Heartbeat CPU 0 instructions: 159000002 cycles: 541014498 heartbeat IPC: 0.27067 cumulative IPC: 0.291385 (Simulation time: 0 hr 12 min 20 sec) 
Heartbeat CPU 0 instructions: 160000002 cycles: 543815149 heartbeat IPC: 0.35706 cumulative IPC: 0.291743 (Simulation time: 0 hr 12 min 25 sec) 
Heartbeat CPU 0 instructions: 161000000 cycles: 547124209 heartbeat IPC: 0.3022 cumulative IPC: 0.29181 (Simulation time: 0 hr 12 min 29 sec) 
Heartbeat CPU 0 instructions: 162000003 cycles: 550196085 heartbeat IPC: 0.325535 cumulative IPC: 0.292009 (Simulation time: 0 hr 12 min 33 sec) 
Heartbeat CPU 0 instructions: 163000001 cycles: 552887814 heartbeat IPC: 0.371508 cumulative IPC: 0.292418 (Simulation time: 0 hr 12 min 38 sec) 
Heartbeat CPU 0 instructions: 164000003 cycles: 555642832 heartbeat IPC: 0.362975 cumulative IPC: 0.292787 (Simulation time: 0 hr 12 min 42 sec) 
Heartbeat CPU 0 instructions: 165000000 cycles: 558765971 heartbeat IPC: 0.32019 cumulative IPC: 0.292949 (Simulation time: 0 hr 12 min 47 sec) 
Heartbeat CPU 0 instructions: 166000002 cycles: 561492077 heartbeat IPC: 0.366824 cumulative IPC: 0.293328 (Simulation time: 0 hr 12 min 51 sec) 
Heartbeat CPU 0 instructions: 167000001 cycles: 564344096 heartbeat IPC: 0.350628 cumulative IPC: 0.293634 (Simulation time: 0 hr 12 min 55 sec) 
Heartbeat CPU 0 instructions: 168000000 cycles: 567490978 heartbeat IPC: 0.317775 cumulative IPC: 0.293775 (Simulation time: 0 hr 13 min 1 sec) 
Heartbeat CPU 0 instructions: 169000001 cycles: 570948159 heartbeat IPC: 0.289253 cumulative IPC: 0.293746 (Simulation time: 0 hr 13 min 5 sec) 
Heartbeat CPU 0 instructions: 170000001 cycles: 574965059 heartbeat IPC: 0.248948 cumulative IPC: 0.293416 (Simulation time: 0 hr 13 min 11 sec) 
Heartbeat CPU 0 instructions: 171000002 cycles: 578747362 heartbeat IPC: 0.264389 cumulative IPC: 0.293216 (Simulation time: 0 hr 13 min 15 sec) 
Heartbeat CPU 0 instructions: 172000000 cycles: 582846465 heartbeat IPC: 0.243955 cumulative IPC: 0.292851 (Simulation time: 0 hr 13 min 21 sec) 
Heartbeat CPU 0 instructions: 173000002 cycles: 586489788 heartbeat IPC: 0.274475 cumulative IPC: 0.292731 (Simulation time: 0 hr 13 min 25 sec) 
Heartbeat CPU 0 instructions: 174000002 cycles: 589534547 heartbeat IPC: 0.328433 cumulative IPC: 0.292925 (Simulation time: 0 hr 13 min 30 sec) 
Heartbeat CPU 0 instructions: 175000001 cycles: 592866687 heartbeat IPC: 0.300107 cumulative IPC: 0.292967 (Simulation time: 0 hr 13 min 35 sec) 
Heartbeat CPU 0 instructions: 176000000 cycles: 596330483 heartbeat IPC: 0.2887 cumulative IPC: 0.292941 (Simulation time: 0 hr 13 min 40 sec) 
Heartbeat CPU 0 instructions: 177000002 cycles: 599372839 heartbeat IPC: 0.328693 cumulative IPC: 0.293132 (Simulation time: 0 hr 13 min 45 sec) 
Heartbeat CPU 0 instructions: 178000003 cycles: 602183556 heartbeat IPC: 0.355781 cumulative IPC: 0.29344 (Simulation time: 0 hr 13 min 49 sec) 
Heartbeat CPU 0 instructions: 179000002 cycles: 605144776 heartbeat IPC: 0.337698 cumulative IPC: 0.293667 (Simulation time: 0 hr 13 min 53 sec) 
Heartbeat CPU 0 instructions: 180000000 cycles: 609095927 heartbeat IPC: 0.25309 cumulative IPC: 0.293391 (Simulation time: 0 hr 13 min 58 sec) 
Heartbeat CPU 0 instructions: 181000001 cycles: 612419882 heartbeat IPC: 0.300847 cumulative IPC: 0.293433 (Simulation time: 0 hr 14 min 2 sec) 
Heartbeat CPU 0 instructions: 182000001 cycles: 615770008 heartbeat IPC: 0.298496 cumulative IPC: 0.293462 (Simulation time: 0 hr 14 min 7 sec) 
Heartbeat CPU 0 instructions: 183000001 cycles: 619913869 heartbeat IPC: 0.241321 cumulative IPC: 0.293096 (Simulation time: 0 hr 14 min 13 sec) 
Heartbeat CPU 0 instructions: 184000001 cycles: 623641996 heartbeat IPC: 0.268231 cumulative IPC: 0.29294 (Simulation time: 0 hr 14 min 18 sec) 
Heartbeat CPU 0 instructions: 185000000 cycles: 627073138 heartbeat IPC: 0.291448 cumulative IPC: 0.292932 (Simulation time: 0 hr 14 min 22 sec) 
Heartbeat CPU 0 instructions: 186000003 cycles: 630305098 heartbeat IPC: 0.309411 cumulative IPC: 0.29302 (Simulation time: 0 hr 14 min 27 sec) 
Heartbeat CPU 0 instructions: 187000000 cycles: 632856738 heartbeat IPC: 0.391904 cumulative IPC: 0.293439 (Simulation time: 0 hr 14 min 31 sec) 
Heartbeat CPU 0 instructions: 188000003 cycles: 636139624 heartbeat IPC: 0.304611 cumulative IPC: 0.293499 (Simulation time: 0 hr 14 min 36 sec) 
Heartbeat CPU 0 instructions: 189000000 cycles: 640050665 heartbeat IPC: 0.255686 cumulative IPC: 0.293257 (Simulation time: 0 hr 14 min 41 sec) 
Heartbeat CPU 0 instructions: 190000000 cycles: 643819476 heartbeat IPC: 0.265336 cumulative IPC: 0.293085 (Simulation time: 0 hr 14 min 45 sec) 
Heartbeat CPU 0 instructions: 191000002 cycles: 647087590 heartbeat IPC: 0.305987 cumulative IPC: 0.293154 (Simulation time: 0 hr 14 min 50 sec) 
Heartbeat CPU 0 instructions: 192000000 cycles: 650918889 heartbeat IPC: 0.261008 cumulative IPC: 0.292955 (Simulation time: 0 hr 14 min 56 sec) 
Heartbeat CPU 0 instructions: 193000001 cycles: 655383334 heartbeat IPC: 0.223992 cumulative IPC: 0.292463 (Simulation time: 0 hr 15 min 1 sec) 
Heartbeat CPU 0 instructions: 194000002 cycles: 658703365 heartbeat IPC: 0.301202 cumulative IPC: 0.29251 (Simulation time: 0 hr 15 min 5 sec) 
Heartbeat CPU 0 instructions: 195000000 cycles: 661771593 heartbeat IPC: 0.32592 cumulative IPC: 0.292672 (Simulation time: 0 hr 15 min 10 sec) 
Heartbeat CPU 0 instructions: 196000001 cycles: 665148546 heartbeat IPC: 0.296125 cumulative IPC: 0.29269 (Simulation time: 0 hr 15 min 15 sec) 
Heartbeat CPU 0 instructions: 197000000 cycles: 669248736 heartbeat IPC: 0.243891 cumulative IPC: 0.292377 (Simulation time: 0 hr 15 min 20 sec) 
Heartbeat CPU 0 instructions: 198000000 cycles: 672601447 heartbeat IPC: 0.298266 cumulative IPC: 0.292408 (Simulation time: 0 hr 15 min 25 sec) 
Heartbeat CPU 0 instructions: 199000003 cycles: 675522151 heartbeat IPC: 0.342384 cumulative IPC: 0.292634 (Simulation time: 0 hr 15 min 29 sec) 
Heartbeat CPU 0 instructions: 200000000 cycles: 678209108 heartbeat IPC: 0.372167 cumulative IPC: 0.292963 (Simulation time: 0 hr 15 min 35 sec) 
Heartbeat CPU 0 instructions: 201000000 cycles: 682506479 heartbeat IPC: 0.2327 cumulative IPC: 0.292567 (Simulation time: 0 hr 15 min 40 sec) 
Heartbeat CPU 0 instructions: 202000003 cycles: 686542459 heartbeat IPC: 0.247772 cumulative IPC: 0.292292 (Simulation time: 0 hr 15 min 45 sec) 
Heartbeat CPU 0 instructions: 203000002 cycles: 691008654 heartbeat IPC: 0.223904 cumulative IPC: 0.29183 (Simulation time: 0 hr 15 min 50 sec) 
Heartbeat CPU 0 instructions: 204000003 cycles: 694037333 heartbeat IPC: 0.330177 cumulative IPC: 0.292004 (Simulation time: 0 hr 15 min 54 sec) 
Heartbeat CPU 0 instructions: 205000002 cycles: 698344406 heartbeat IPC: 0.232176 cumulative IPC: 0.291619 (Simulation time: 0 hr 15 min 59 sec) 
Heartbeat CPU 0 instructions: 206000001 cycles: 702687351 heartbeat IPC: 0.230258 cumulative IPC: 0.291223 (Simulation time: 0 hr 16 min 4 sec) 
Heartbeat CPU 0 instructions: 207000001 cycles: 706617697 heartbeat IPC: 0.254431 cumulative IPC: 0.29101 (Simulation time: 0 hr 16 min 9 sec) 
Heartbeat CPU 0 instructions: 208000001 cycles: 710344876 heartbeat IPC: 0.268299 cumulative IPC: 0.290885 (Simulation time: 0 hr 16 min 13 sec) 
Heartbeat CPU 0 instructions: 209000000 cycles: 713017083 heartbeat IPC: 0.374222 cumulative IPC: 0.291211 (Simulation time: 0 hr 16 min 17 sec) 
Heartbeat CPU 0 instructions: 210000001 cycles: 716116684 heartbeat IPC: 0.322622 cumulative IPC: 0.291353 (Simulation time: 0 hr 16 min 22 sec) 
Heartbeat CPU 0 instructions: 211000000 cycles: 719481986 heartbeat IPC: 0.29715 cumulative IPC: 0.291381 (Simulation time: 0 hr 16 min 26 sec) 
Heartbeat CPU 0 instructions: 212000002 cycles: 724262235 heartbeat IPC: 0.209195 cumulative IPC: 0.290816 (Simulation time: 0 hr 16 min 32 sec) 
Heartbeat CPU 0 instructions: 213000003 cycles: 727333550 heartbeat IPC: 0.325594 cumulative IPC: 0.290969 (Simulation time: 0 hr 16 min 36 sec) 
Heartbeat CPU 0 instructions: 214000000 cycles: 730677266 heartbeat IPC: 0.299068 cumulative IPC: 0.291007 (Simulation time: 0 hr 16 min 40 sec) 
Heartbeat CPU 0 instructions: 215000001 cycles: 733760532 heartbeat IPC: 0.324332 cumulative IPC: 0.291153 (Simulation time: 0 hr 16 min 45 sec) 
Heartbeat CPU 0 instructions: 216000001 cycles: 737296861 heartbeat IPC: 0.282779 cumulative IPC: 0.291111 (Simulation time: 0 hr 16 min 49 sec) 
Heartbeat CPU 0 instructions: 217000001 cycles: 740683054 heartbeat IPC: 0.295317 cumulative IPC: 0.291131 (Simulation time: 0 hr 16 min 54 sec) 
Heartbeat CPU 0 instructions: 218000000 cycles: 744882037 heartbeat IPC: 0.238153 cumulative IPC: 0.29082 (Simulation time: 0 hr 17 min 0 sec) 
Heartbeat CPU 0 instructions: 219000001 cycles: 749306112 heartbeat IPC: 0.226036 cumulative IPC: 0.290422 (Simulation time: 0 hr 17 min 5 sec) 
Heartbeat CPU 0 instructions: 220000000 cycles: 753801247 heartbeat IPC: 0.222463 cumulative IPC: 0.29 (Simulation time: 0 hr 17 min 10 sec) 
Heartbeat CPU 0 instructions: 221000002 cycles: 757494044 heartbeat IPC: 0.270798 cumulative IPC: 0.289903 (Simulation time: 0 hr 17 min 15 sec) 
Heartbeat CPU 0 instructions: 222000001 cycles: 760412945 heartbeat IPC: 0.342594 cumulative IPC: 0.290113 (Simulation time: 0 hr 17 min 19 sec) 
Heartbeat CPU 0 instructions: 223000002 cycles: 763683458 heartbeat IPC: 0.305763 cumulative IPC: 0.290183 (Simulation time: 0 hr 17 min 24 sec) 
Heartbeat CPU 0 instructions: 224000001 cycles: 766725443 heartbeat IPC: 0.328732 cumulative IPC: 0.290342 (Simulation time: 0 hr 17 min 28 sec) 
Heartbeat CPU 0 instructions: 225000001 cycles: 770069564 heartbeat IPC: 0.299032 cumulative IPC: 0.290381 (Simulation time: 0 hr 17 min 32 sec) 
Heartbeat CPU 0 instructions: 226000000 cycles: 773107318 heartbeat IPC: 0.32919 cumulative IPC: 0.29054 (Simulation time: 0 hr 17 min 36 sec) 
Heartbeat CPU 0 instructions: 227000001 cycles: 776228525 heartbeat IPC: 0.320389 cumulative IPC: 0.290665 (Simulation time: 0 hr 17 min 41 sec) 
Heartbeat CPU 0 instructions: 228000001 cycles: 779534078 heartbeat IPC: 0.302521 cumulative IPC: 0.290717 (Simulation time: 0 hr 17 min 45 sec) 
Heartbeat CPU 0 instructions: 229000002 cycles: 782536123 heartbeat IPC: 0.333107 cumulative IPC: 0.290886 (Simulation time: 0 hr 17 min 49 sec) 
Heartbeat CPU 0 instructions: 230000000 cycles: 785471573 heartbeat IPC: 0.340663 cumulative IPC: 0.291079 (Simulation time: 0 hr 17 min 54 sec) 
Heartbeat CPU 0 instructions: 231000000 cycles: 788647092 heartbeat IPC: 0.314909 cumulative IPC: 0.291179 (Simulation time: 0 hr 17 min 58 sec) 
Heartbeat CPU 0 instructions: 232000002 cycles: 792304141 heartbeat IPC: 0.273445 cumulative IPC: 0.291094 (Simulation time: 0 hr 18 min 3 sec) 
Heartbeat CPU 0 instructions: 233000000 cycles: 796673150 heartbeat IPC: 0.228884 cumulative IPC: 0.29074 (Simulation time: 0 hr 18 min 8 sec) 
Heartbeat CPU 0 instructions: 234000000 cycles: 800814031 heartbeat IPC: 0.241495 cumulative IPC: 0.290475 (Simulation time: 0 hr 18 min 13 sec) 
Heartbeat CPU 0 instructions: 235000000 cycles: 803573278 heartbeat IPC: 0.362418 cumulative IPC: 0.290732 (Simulation time: 0 hr 18 min 17 sec) 
Heartbeat CPU 0 instructions: 236000002 cycles: 806749791 heartbeat IPC: 0.314811 cumulative IPC: 0.29083 (Simulation time: 0 hr 18 min 21 sec) 
Heartbeat CPU 0 instructions: 237000002 cycles: 810329138 heartbeat IPC: 0.279381 cumulative IPC: 0.290778 (Simulation time: 0 hr 18 min 26 sec) 
Heartbeat CPU 0 instructions: 238000000 cycles: 813386890 heartbeat IPC: 0.327037 cumulative IPC: 0.290919 (Simulation time: 0 hr 18 min 30 sec) 
Heartbeat CPU 0 instructions: 239000002 cycles: 816449126 heartbeat IPC: 0.326559 cumulative IPC: 0.291058 (Simulation time: 0 hr 18 min 34 sec) 
Heartbeat CPU 0 instructions: 240000001 cycles: 819448500 heartbeat IPC: 0.333403 cumulative IPC: 0.291219 (Simulation time: 0 hr 18 min 38 sec) 
Heartbeat CPU 0 instructions: 241000000 cycles: 823241468 heartbeat IPC: 0.263645 cumulative IPC: 0.291087 (Simulation time: 0 hr 18 min 43 sec) 
Heartbeat CPU 0 instructions: 242000000 cycles: 826523702 heartbeat IPC: 0.304671 cumulative IPC: 0.291143 (Simulation time: 0 hr 18 min 47 sec) 
Heartbeat CPU 0 instructions: 243000002 cycles: 829620183 heartbeat IPC: 0.322948 cumulative IPC: 0.291266 (Simulation time: 0 hr 18 min 52 sec) 
Heartbeat CPU 0 instructions: 244000003 cycles: 833778190 heartbeat IPC: 0.2405 cumulative IPC: 0.291003 (Simulation time: 0 hr 18 min 57 sec) 
Heartbeat CPU 0 instructions: 245000000 cycles: 837702439 heartbeat IPC: 0.254825 cumulative IPC: 0.290828 (Simulation time: 0 hr 19 min 2 sec) 
Heartbeat CPU 0 instructions: 246000003 cycles: 840875895 heartbeat IPC: 0.315115 cumulative IPC: 0.290923 (Simulation time: 0 hr 19 min 6 sec) 
Heartbeat CPU 0 instructions: 247000000 cycles: 844369930 heartbeat IPC: 0.286201 cumulative IPC: 0.290903 (Simulation time: 0 hr 19 min 11 sec) 
Heartbeat CPU 0 instructions: 248000000 cycles: 846886073 heartbeat IPC: 0.397434 cumulative IPC: 0.29123 (Simulation time: 0 hr 19 min 15 sec) 
Heartbeat CPU 0 instructions: 249000000 cycles: 849828222 heartbeat IPC: 0.339888 cumulative IPC: 0.291405 (Simulation time: 0 hr 19 min 19 sec) 
Heartbeat CPU 0 instructions: 250000000 cycles: 853584893 heartbeat IPC: 0.266193 cumulative IPC: 0.29129 (Simulation time: 0 hr 19 min 24 sec) 
Heartbeat CPU 0 instructions: 251000002 cycles: 857455944 heartbeat IPC: 0.258328 cumulative IPC: 0.291136 (Simulation time: 0 hr 19 min 29 sec) 
Heartbeat CPU 0 instructions: 252000001 cycles: 860834440 heartbeat IPC: 0.295989 cumulative IPC: 0.291156 (Simulation time: 0 hr 19 min 33 sec) 
Heartbeat CPU 0 instructions: 253000000 cycles: 864031629 heartbeat IPC: 0.312774 cumulative IPC: 0.291239 (Simulation time: 0 hr 19 min 37 sec) 
Heartbeat CPU 0 instructions: 254000001 cycles: 868853281 heartbeat IPC: 0.207398 cumulative IPC: 0.290757 (Simulation time: 0 hr 19 min 43 sec) 
Heartbeat CPU 0 instructions: 255000000 cycles: 872284415 heartbeat IPC: 0.291449 cumulative IPC: 0.29076 (Simulation time: 0 hr 19 min 47 sec) 
Heartbeat CPU 0 instructions: 256000000 cycles: 875687954 heartbeat IPC: 0.293812 cumulative IPC: 0.290772 (Simulation time: 0 hr 19 min 51 sec) 
Heartbeat CPU 0 instructions: 257000003 cycles: 879089873 heartbeat IPC: 0.293953 cumulative IPC: 0.290785 (Simulation time: 0 hr 19 min 55 sec) 
Heartbeat CPU 0 instructions: 258000002 cycles: 882917644 heartbeat IPC: 0.261248 cumulative IPC: 0.290652 (Simulation time: 0 hr 20 min 0 sec) 
Heartbeat CPU 0 instructions: 259000000 cycles: 886515737 heartbeat IPC: 0.277924 cumulative IPC: 0.290599 (Simulation time: 0 hr 20 min 5 sec) 
Heartbeat CPU 0 instructions: 260000002 cycles: 889616222 heartbeat IPC: 0.322531 cumulative IPC: 0.290714 (Simulation time: 0 hr 20 min 9 sec) 
Heartbeat CPU 0 instructions: 261000000 cycles: 893685728 heartbeat IPC: 0.24573 cumulative IPC: 0.290502 (Simulation time: 0 hr 20 min 15 sec) 
Heartbeat CPU 0 instructions: 262000002 cycles: 897861905 heartbeat IPC: 0.239454 cumulative IPC: 0.290256 (Simulation time: 0 hr 20 min 20 sec) 
Heartbeat CPU 0 instructions: 263000001 cycles: 901258827 heartbeat IPC: 0.294384 cumulative IPC: 0.290273 (Simulation time: 0 hr 20 min 24 sec) 
Heartbeat CPU 0 instructions: 264000000 cycles: 905254799 heartbeat IPC: 0.250252 cumulative IPC: 0.29009 (Simulation time: 0 hr 20 min 29 sec) 
Heartbeat CPU 0 instructions: 265000001 cycles: 909203133 heartbeat IPC: 0.253272 cumulative IPC: 0.289925 (Simulation time: 0 hr 20 min 34 sec) 
Heartbeat CPU 0 instructions: 266000002 cycles: 911987133 heartbeat IPC: 0.359196 cumulative IPC: 0.290143 (Simulation time: 0 hr 20 min 38 sec) 
Heartbeat CPU 0 instructions: 267000003 cycles: 915460406 heartbeat IPC: 0.287913 cumulative IPC: 0.290134 (Simulation time: 0 hr 20 min 43 sec) 
Heartbeat CPU 0 instructions: 268000003 cycles: 919617717 heartbeat IPC: 0.24054 cumulative IPC: 0.289903 (Simulation time: 0 hr 20 min 48 sec) 
Heartbeat CPU 0 instructions: 269000002 cycles: 924089826 heartbeat IPC: 0.223608 cumulative IPC: 0.289571 (Simulation time: 0 hr 20 min 53 sec) 
Heartbeat CPU 0 instructions: 270000001 cycles: 928502577 heartbeat IPC: 0.226616 cumulative IPC: 0.289262 (Simulation time: 0 hr 20 min 59 sec) 
Heartbeat CPU 0 instructions: 271000001 cycles: 932256368 heartbeat IPC: 0.266397 cumulative IPC: 0.289167 (Simulation time: 0 hr 21 min 3 sec) 
Heartbeat CPU 0 instructions: 272000002 cycles: 935267298 heartbeat IPC: 0.332124 cumulative IPC: 0.28931 (Simulation time: 0 hr 21 min 7 sec) 
Heartbeat CPU 0 instructions: 273000001 cycles: 938536637 heartbeat IPC: 0.305872 cumulative IPC: 0.289369 (Simulation time: 0 hr 21 min 12 sec) 
Heartbeat CPU 0 instructions: 274000000 cycles: 941089916 heartbeat IPC: 0.391653 cumulative IPC: 0.289656 (Simulation time: 0 hr 21 min 16 sec) 
Heartbeat CPU 0 instructions: 275000000 cycles: 944053430 heartbeat IPC: 0.337437 cumulative IPC: 0.289811 (Simulation time: 0 hr 21 min 20 sec) 
Heartbeat CPU 0 instructions: 276000000 cycles: 946930648 heartbeat IPC: 0.347558 cumulative IPC: 0.289992 (Simulation time: 0 hr 21 min 24 sec) 
Heartbeat CPU 0 instructions: 277000001 cycles: 949857530 heartbeat IPC: 0.341661 cumulative IPC: 0.290156 (Simulation time: 0 hr 21 min 29 sec) 
Heartbeat CPU 0 instructions: 278000003 cycles: 952681426 heartbeat IPC: 0.354121 cumulative IPC: 0.290352 (Simulation time: 0 hr 21 min 33 sec) 
Heartbeat CPU 0 instructions: 279000000 cycles: 955375616 heartbeat IPC: 0.371168 cumulative IPC: 0.290587 (Simulation time: 0 hr 21 min 37 sec) 
Heartbeat CPU 0 instructions: 280000003 cycles: 959906399 heartbeat IPC: 0.220713 cumulative IPC: 0.290247 (Simulation time: 0 hr 21 min 42 sec) 
Heartbeat CPU 0 instructions: 281000003 cycles: 964378363 heartbeat IPC: 0.223615 cumulative IPC: 0.289928 (Simulation time: 0 hr 21 min 47 sec) 
Heartbeat CPU 0 instructions: 282000002 cycles: 969304965 heartbeat IPC: 0.202979 cumulative IPC: 0.289472 (Simulation time: 0 hr 21 min 52 sec) 
Heartbeat CPU 0 instructions: 283000002 cycles: 972954018 heartbeat IPC: 0.274044 cumulative IPC: 0.289413 (Simulation time: 0 hr 21 min 57 sec) 
Heartbeat CPU 0 instructions: 284000000 cycles: 977052425 heartbeat IPC: 0.243997 cumulative IPC: 0.289216 (Simulation time: 0 hr 22 min 2 sec) 
Heartbeat CPU 0 instructions: 285000001 cycles: 981247473 heartbeat IPC: 0.238377 cumulative IPC: 0.288992 (Simulation time: 0 hr 22 min 7 sec) 
Heartbeat CPU 0 instructions: 286000000 cycles: 984839621 heartbeat IPC: 0.278385 cumulative IPC: 0.288952 (Simulation time: 0 hr 22 min 11 sec) 
Heartbeat CPU 0 instructions: 287000000 cycles: 987449547 heartbeat IPC: 0.383153 cumulative IPC: 0.289209 (Simulation time: 0 hr 22 min 16 sec) 
Heartbeat CPU 0 instructions: 288000001 cycles: 991197898 heartbeat IPC: 0.266784 cumulative IPC: 0.289121 (Simulation time: 0 hr 22 min 21 sec) 
Heartbeat CPU 0 instructions: 289000000 cycles: 995140091 heartbeat IPC: 0.253666 cumulative IPC: 0.288977 (Simulation time: 0 hr 22 min 25 sec) 
Heartbeat CPU 0 instructions: 290000001 cycles: 999857015 heartbeat IPC: 0.212003 cumulative IPC: 0.288602 (Simulation time: 0 hr 22 min 31 sec) 
Heartbeat CPU 0 instructions: 291000000 cycles: 1004484641 heartbeat IPC: 0.216093 cumulative IPC: 0.288258 (Simulation time: 0 hr 22 min 36 sec) 
Heartbeat CPU 0 instructions: 292000003 cycles: 1008067519 heartbeat IPC: 0.279106 cumulative IPC: 0.288225 (Simulation time: 0 hr 22 min 41 sec) 
Heartbeat CPU 0 instructions: 293000000 cycles: 1011853835 heartbeat IPC: 0.264108 cumulative IPC: 0.288132 (Simulation time: 0 hr 22 min 46 sec) 
Heartbeat CPU 0 instructions: 294000002 cycles: 1015474490 heartbeat IPC: 0.276194 cumulative IPC: 0.288088 (Simulation time: 0 hr 22 min 50 sec) 
Heartbeat CPU 0 instructions: 295000000 cycles: 1018561694 heartbeat IPC: 0.323917 cumulative IPC: 0.2882 (Simulation time: 0 hr 22 min 54 sec) 
Heartbeat CPU 0 instructions: 296000000 cycles: 1022779825 heartbeat IPC: 0.237072 cumulative IPC: 0.287983 (Simulation time: 0 hr 22 min 59 sec) 
Heartbeat CPU 0 instructions: 297000000 cycles: 1026380905 heartbeat IPC: 0.277694 cumulative IPC: 0.287945 (Simulation time: 0 hr 23 min 4 sec) 
Heartbeat CPU 0 instructions: 298000000 cycles: 1028808268 heartbeat IPC: 0.41197 cumulative IPC: 0.288247 (Simulation time: 0 hr 23 min 8 sec) 
Heartbeat CPU 0 instructions: 299000003 cycles: 1032200401 heartbeat IPC: 0.294801 cumulative IPC: 0.288269 (Simulation time: 0 hr 23 min 13 sec) 
Heartbeat CPU 0 instructions: 300000000 cycles: 1034713497 heartbeat IPC: 0.397914 cumulative IPC: 0.288543 (Simulation time: 0 hr 23 min 17 sec) 
Heartbeat CPU 0 instructions: 301000001 cycles: 1037608602 heartbeat IPC: 0.345411 cumulative IPC: 0.288706 (Simulation time: 0 hr 23 min 21 sec) 
Heartbeat CPU 0 instructions: 302000002 cycles: 1041181244 heartbeat IPC: 0.279905 cumulative IPC: 0.288675 (Simulation time: 0 hr 23 min 25 sec) 
Heartbeat CPU 0 instructions: 303000003 cycles: 1045281358 heartbeat IPC: 0.243896 cumulative IPC: 0.288494 (Simulation time: 0 hr 23 min 30 sec) 
Heartbeat CPU 0 instructions: 304000000 cycles: 1049025343 heartbeat IPC: 0.267094 cumulative IPC: 0.288416 (Simulation time: 0 hr 23 min 34 sec) 
Heartbeat CPU 0 instructions: 305000002 cycles: 1052169826 heartbeat IPC: 0.318018 cumulative IPC: 0.288507 (Simulation time: 0 hr 23 min 39 sec) 
Heartbeat CPU 0 instructions: 306000001 cycles: 1054759858 heartbeat IPC: 0.386095 cumulative IPC: 0.288753 (Simulation time: 0 hr 23 min 43 sec) 
Heartbeat CPU 0 instructions: 307000000 cycles: 1057712227 heartbeat IPC: 0.338711 cumulative IPC: 0.288897 (Simulation time: 0 hr 23 min 47 sec) 
Heartbeat CPU 0 instructions: 308000000 cycles: 1061138798 heartbeat IPC: 0.291837 cumulative IPC: 0.288907 (Simulation time: 0 hr 23 min 51 sec) 
Heartbeat CPU 0 instructions: 309000002 cycles: 1064192578 heartbeat IPC: 0.327464 cumulative IPC: 0.289021 (Simulation time: 0 hr 23 min 55 sec) 
Heartbeat CPU 0 instructions: 310000000 cycles: 1066595522 heartbeat IPC: 0.416155 cumulative IPC: 0.289315 (Simulation time: 0 hr 23 min 59 sec) 
Heartbeat CPU 0 instructions: 311000000 cycles: 1070803073 heartbeat IPC: 0.237668 cumulative IPC: 0.289106 (Simulation time: 0 hr 24 min 4 sec) 
Heartbeat CPU 0 instructions: 312000000 cycles: 1075077963 heartbeat IPC: 0.233924 cumulative IPC: 0.288881 (Simulation time: 0 hr 24 min 9 sec) 
Heartbeat CPU 0 instructions: 313000001 cycles: 1080261083 heartbeat IPC: 0.192934 cumulative IPC: 0.288407 (Simulation time: 0 hr 24 min 15 sec) 
Heartbeat CPU 0 instructions: 314000003 cycles: 1085113788 heartbeat IPC: 0.206071 cumulative IPC: 0.288029 (Simulation time: 0 hr 24 min 21 sec) 
Heartbeat CPU 0 instructions: 315000000 cycles: 1089856960 heartbeat IPC: 0.210829 cumulative IPC: 0.287683 (Simulation time: 0 hr 24 min 26 sec) 
Heartbeat CPU 0 instructions: 316000000 cycles: 1093451187 heartbeat IPC: 0.278224 cumulative IPC: 0.287652 (Simulation time: 0 hr 24 min 30 sec) 
Heartbeat CPU 0 instructions: 317000000 cycles: 1097422247 heartbeat IPC: 0.251822 cumulative IPC: 0.287518 (Simulation time: 0 hr 24 min 35 sec) 
Heartbeat CPU 0 instructions: 318000000 cycles: 1100933191 heartbeat IPC: 0.284824 cumulative IPC: 0.287509 (Simulation time: 0 hr 24 min 40 sec) 
Heartbeat CPU 0 instructions: 319000000 cycles: 1104517526 heartbeat IPC: 0.278992 cumulative IPC: 0.287481 (Simulation time: 0 hr 24 min 44 sec) 
Heartbeat CPU 0 instructions: 320000002 cycles: 1109034561 heartbeat IPC: 0.221385 cumulative IPC: 0.287204 (Simulation time: 0 hr 24 min 49 sec) 
Heartbeat CPU 0 instructions: 321000000 cycles: 1112397026 heartbeat IPC: 0.2974 cumulative IPC: 0.287236 (Simulation time: 0 hr 24 min 54 sec) 
Heartbeat CPU 0 instructions: 322000000 cycles: 1115825114 heartbeat IPC: 0.291708 cumulative IPC: 0.28725 (Simulation time: 0 hr 24 min 58 sec) 
Heartbeat CPU 0 instructions: 323000002 cycles: 1119788323 heartbeat IPC: 0.252321 cumulative IPC: 0.287123 (Simulation time: 0 hr 25 min 3 sec) 
Heartbeat CPU 0 instructions: 324000000 cycles: 1122411226 heartbeat IPC: 0.381256 cumulative IPC: 0.287349 (Simulation time: 0 hr 25 min 7 sec) 
Heartbeat CPU 0 instructions: 325000003 cycles: 1126606852 heartbeat IPC: 0.238344 cumulative IPC: 0.287162 (Simulation time: 0 hr 25 min 12 sec) 
Heartbeat CPU 0 instructions: 326000000 cycles: 1130523318 heartbeat IPC: 0.255331 cumulative IPC: 0.287048 (Simulation time: 0 hr 25 min 17 sec) 
Heartbeat CPU 0 instructions: 327000002 cycles: 1133441163 heartbeat IPC: 0.342719 cumulative IPC: 0.287196 (Simulation time: 0 hr 25 min 21 sec) 
Heartbeat CPU 0 instructions: 328000000 cycles: 1136400036 heartbeat IPC: 0.337966 cumulative IPC: 0.287331 (Simulation time: 0 hr 25 min 25 sec) 
Heartbeat CPU 0 instructions: 329000000 cycles: 1139174029 heartbeat IPC: 0.360491 cumulative IPC: 0.287514 (Simulation time: 0 hr 25 min 29 sec) 
Heartbeat CPU 0 instructions: 330000000 cycles: 1142242745 heartbeat IPC: 0.325869 cumulative IPC: 0.28762 (Simulation time: 0 hr 25 min 33 sec) 
Heartbeat CPU 0 instructions: 331000001 cycles: 1145757551 heartbeat IPC: 0.284511 cumulative IPC: 0.28761 (Simulation time: 0 hr 25 min 38 sec) 
Heartbeat CPU 0 instructions: 332000000 cycles: 1148268659 heartbeat IPC: 0.39823 cumulative IPC: 0.287859 (Simulation time: 0 hr 25 min 42 sec) 
Heartbeat CPU 0 instructions: 333000001 cycles: 1150960136 heartbeat IPC: 0.371544 cumulative IPC: 0.28806 (Simulation time: 0 hr 25 min 46 sec) 
Heartbeat CPU 0 instructions: 334000000 cycles: 1155051494 heartbeat IPC: 0.244417 cumulative IPC: 0.287901 (Simulation time: 0 hr 25 min 51 sec) 
Heartbeat CPU 0 instructions: 335000001 cycles: 1159112912 heartbeat IPC: 0.24622 cumulative IPC: 0.287751 (Simulation time: 0 hr 25 min 55 sec) 
Heartbeat CPU 0 instructions: 336000000 cycles: 1163998377 heartbeat IPC: 0.204689 cumulative IPC: 0.287393 (Simulation time: 0 hr 26 min 1 sec) 
Heartbeat CPU 0 instructions: 337000000 cycles: 1167694404 heartbeat IPC: 0.270561 cumulative IPC: 0.287339 (Simulation time: 0 hr 26 min 6 sec) 
Heartbeat CPU 0 instructions: 338000001 cycles: 1170930484 heartbeat IPC: 0.309016 cumulative IPC: 0.2874 (Simulation time: 0 hr 26 min 10 sec) 
Heartbeat CPU 0 instructions: 339000000 cycles: 1173994067 heartbeat IPC: 0.326415 cumulative IPC: 0.287504 (Simulation time: 0 hr 26 min 14 sec) 
Heartbeat CPU 0 instructions: 340000001 cycles: 1177768208 heartbeat IPC: 0.264961 cumulative IPC: 0.28743 (Simulation time: 0 hr 26 min 19 sec) 
Heartbeat CPU 0 instructions: 341000000 cycles: 1180735108 heartbeat IPC: 0.337052 cumulative IPC: 0.287558 (Simulation time: 0 hr 26 min 23 sec) 
Heartbeat CPU 0 instructions: 342000001 cycles: 1184372499 heartbeat IPC: 0.274923 cumulative IPC: 0.287518 (Simulation time: 0 hr 26 min 27 sec) 
Heartbeat CPU 0 instructions: 343000000 cycles: 1187413886 heartbeat IPC: 0.328797 cumulative IPC: 0.287627 (Simulation time: 0 hr 26 min 31 sec) 
Heartbeat CPU 0 instructions: 344000001 cycles: 1191918161 heartbeat IPC: 0.222012 cumulative IPC: 0.287373 (Simulation time: 0 hr 26 min 36 sec) 
Heartbeat CPU 0 instructions: 345000001 cycles: 1197021365 heartbeat IPC: 0.195955 cumulative IPC: 0.286973 (Simulation time: 0 hr 26 min 41 sec) 
Heartbeat CPU 0 instructions: 346000000 cycles: 1200278256 heartbeat IPC: 0.307041 cumulative IPC: 0.287029 (Simulation time: 0 hr 26 min 46 sec) 
Heartbeat CPU 0 instructions: 347000003 cycles: 1203828487 heartbeat IPC: 0.281673 cumulative IPC: 0.287013 (Simulation time: 0 hr 26 min 50 sec) 
Heartbeat CPU 0 instructions: 348000002 cycles: 1207257188 heartbeat IPC: 0.291655 cumulative IPC: 0.287026 (Simulation time: 0 hr 26 min 55 sec) 
Heartbeat CPU 0 instructions: 349000001 cycles: 1210921699 heartbeat IPC: 0.272887 cumulative IPC: 0.286982 (Simulation time: 0 hr 26 min 59 sec) 
Heartbeat CPU 0 instructions: 350000003 cycles: 1215189309 heartbeat IPC: 0.234324 cumulative IPC: 0.286793 (Simulation time: 0 hr 27 min 4 sec) 
Heartbeat CPU 0 instructions: 351000003 cycles: 1218543248 heartbeat IPC: 0.298157 cumulative IPC: 0.286825 (Simulation time: 0 hr 27 min 9 sec) 
Heartbeat CPU 0 instructions: 352000000 cycles: 1222581753 heartbeat IPC: 0.247616 cumulative IPC: 0.286692 (Simulation time: 0 hr 27 min 13 sec) 
Heartbeat CPU 0 instructions: 353000002 cycles: 1225451892 heartbeat IPC: 0.348416 cumulative IPC: 0.28684 (Simulation time: 0 hr 27 min 17 sec) 
Heartbeat CPU 0 instructions: 354000000 cycles: 1229195664 heartbeat IPC: 0.26711 cumulative IPC: 0.286779 (Simulation time: 0 hr 27 min 22 sec) 
Heartbeat CPU 0 instructions: 355000000 cycles: 1233150444 heartbeat IPC: 0.252859 cumulative IPC: 0.286667 (Simulation time: 0 hr 27 min 27 sec) 
Heartbeat CPU 0 instructions: 356000000 cycles: 1236206166 heartbeat IPC: 0.327255 cumulative IPC: 0.28677 (Simulation time: 0 hr 27 min 31 sec) 
Heartbeat CPU 0 instructions: 357000002 cycles: 1239831980 heartbeat IPC: 0.275801 cumulative IPC: 0.286737 (Simulation time: 0 hr 27 min 36 sec) 
Heartbeat CPU 0 instructions: 358000000 cycles: 1242627643 heartbeat IPC: 0.357696 cumulative IPC: 0.286901 (Simulation time: 0 hr 27 min 40 sec) 
Heartbeat CPU 0 instructions: 359000001 cycles: 1246461278 heartbeat IPC: 0.260849 cumulative IPC: 0.286819 (Simulation time: 0 hr 27 min 44 sec) 
Heartbeat CPU 0 instructions: 360000000 cycles: 1250037862 heartbeat IPC: 0.279596 cumulative IPC: 0.286797 (Simulation time: 0 hr 27 min 49 sec) 
Heartbeat CPU 0 instructions: 361000001 cycles: 1253164166 heartbeat IPC: 0.319867 cumulative IPC: 0.286882 (Simulation time: 0 hr 27 min 53 sec) 
Heartbeat CPU 0 instructions: 362000003 cycles: 1255893693 heartbeat IPC: 0.366365 cumulative IPC: 0.287059 (Simulation time: 0 hr 27 min 57 sec) 
Heartbeat CPU 0 instructions: 363000000 cycles: 1258677844 heartbeat IPC: 0.359175 cumulative IPC: 0.287222 (Simulation time: 0 hr 28 min 1 sec) 
Heartbeat CPU 0 instructions: 364000000 cycles: 1261137170 heartbeat IPC: 0.406615 cumulative IPC: 0.287461 (Simulation time: 0 hr 28 min 5 sec) 
Heartbeat CPU 0 instructions: 365000002 cycles: 1265596001 heartbeat IPC: 0.224274 cumulative IPC: 0.287233 (Simulation time: 0 hr 28 min 9 sec) 
Heartbeat CPU 0 instructions: 366000002 cycles: 1269747996 heartbeat IPC: 0.240848 cumulative IPC: 0.287077 (Simulation time: 0 hr 28 min 14 sec) 
Heartbeat CPU 0 instructions: 367000001 cycles: 1272901478 heartbeat IPC: 0.317109 cumulative IPC: 0.287154 (Simulation time: 0 hr 28 min 18 sec) 
Heartbeat CPU 0 instructions: 368000002 cycles: 1276306578 heartbeat IPC: 0.293677 cumulative IPC: 0.287171 (Simulation time: 0 hr 28 min 22 sec) 
Heartbeat CPU 0 instructions: 369000003 cycles: 1279601305 heartbeat IPC: 0.303516 cumulative IPC: 0.287214 (Simulation time: 0 hr 28 min 27 sec) 
Heartbeat CPU 0 instructions: 370000000 cycles: 1283315163 heartbeat IPC: 0.269261 cumulative IPC: 0.287161 (Simulation time: 0 hr 28 min 31 sec) 
Heartbeat CPU 0 instructions: 371000000 cycles: 1286479421 heartbeat IPC: 0.31603 cumulative IPC: 0.287234 (Simulation time: 0 hr 28 min 36 sec) 
Heartbeat CPU 0 instructions: 372000002 cycles: 1289974198 heartbeat IPC: 0.286142 cumulative IPC: 0.287231 (Simulation time: 0 hr 28 min 40 sec) 
Heartbeat CPU 0 instructions: 373000000 cycles: 1294347720 heartbeat IPC: 0.228648 cumulative IPC: 0.287028 (Simulation time: 0 hr 28 min 45 sec) 
Heartbeat CPU 0 instructions: 374000000 cycles: 1299262671 heartbeat IPC: 0.203461 cumulative IPC: 0.286705 (Simulation time: 0 hr 28 min 51 sec) 
Heartbeat CPU 0 instructions: 375000000 cycles: 1303143681 heartbeat IPC: 0.257665 cumulative IPC: 0.286616 (Simulation time: 0 hr 28 min 55 sec) 
Heartbeat CPU 0 instructions: 376000003 cycles: 1307411936 heartbeat IPC: 0.234288 cumulative IPC: 0.286441 (Simulation time: 0 hr 29 min 0 sec) 
Heartbeat CPU 0 instructions: 377000002 cycles: 1310289203 heartbeat IPC: 0.347552 cumulative IPC: 0.286579 (Simulation time: 0 hr 29 min 4 sec) 
Heartbeat CPU 0 instructions: 378000000 cycles: 1314221028 heartbeat IPC: 0.254334 cumulative IPC: 0.28648 (Simulation time: 0 hr 29 min 9 sec) 
Heartbeat CPU 0 instructions: 379000001 cycles: 1318484981 heartbeat IPC: 0.234524 cumulative IPC: 0.286308 (Simulation time: 0 hr 29 min 14 sec) 
Heartbeat CPU 0 instructions: 380000000 cycles: 1321345319 heartbeat IPC: 0.349609 cumulative IPC: 0.286448 (Simulation time: 0 hr 29 min 18 sec) 
Heartbeat CPU 0 instructions: 381000001 cycles: 1325555560 heartbeat IPC: 0.237516 cumulative IPC: 0.286289 (Simulation time: 0 hr 29 min 23 sec) 
Heartbeat CPU 0 instructions: 382000000 cycles: 1328373081 heartbeat IPC: 0.354922 cumulative IPC: 0.286438 (Simulation time: 0 hr 29 min 27 sec) 
Heartbeat CPU 0 instructions: 383000001 cycles: 1332606699 heartbeat IPC: 0.236205 cumulative IPC: 0.286275 (Simulation time: 0 hr 29 min 32 sec) 
Heartbeat CPU 0 instructions: 384000001 cycles: 1336338908 heartbeat IPC: 0.267938 cumulative IPC: 0.286223 (Simulation time: 0 hr 29 min 37 sec) 
Heartbeat CPU 0 instructions: 385000000 cycles: 1339817661 heartbeat IPC: 0.287459 cumulative IPC: 0.286226 (Simulation time: 0 hr 29 min 41 sec) 
Heartbeat CPU 0 instructions: 386000001 cycles: 1343113004 heartbeat IPC: 0.303459 cumulative IPC: 0.286269 (Simulation time: 0 hr 29 min 46 sec) 
Heartbeat CPU 0 instructions: 387000000 cycles: 1346223181 heartbeat IPC: 0.321525 cumulative IPC: 0.286352 (Simulation time: 0 hr 29 min 50 sec) 
Heartbeat CPU 0 instructions: 388000003 cycles: 1350028186 heartbeat IPC: 0.262813 cumulative IPC: 0.286285 (Simulation time: 0 hr 29 min 55 sec) 
Heartbeat CPU 0 instructions: 389000001 cycles: 1353117203 heartbeat IPC: 0.323727 cumulative IPC: 0.286372 (Simulation time: 0 hr 29 min 59 sec) 
Heartbeat CPU 0 instructions: 390000001 cycles: 1356338715 heartbeat IPC: 0.310413 cumulative IPC: 0.28643 (Simulation time: 0 hr 30 min 3 sec) 
Heartbeat CPU 0 instructions: 391000003 cycles: 1360837227 heartbeat IPC: 0.222296 cumulative IPC: 0.286214 (Simulation time: 0 hr 30 min 8 sec) 
Heartbeat CPU 0 instructions: 392000000 cycles: 1365370244 heartbeat IPC: 0.220603 cumulative IPC: 0.285991 (Simulation time: 0 hr 30 min 13 sec) 
Heartbeat CPU 0 instructions: 393000003 cycles: 1368969158 heartbeat IPC: 0.277862 cumulative IPC: 0.285969 (Simulation time: 0 hr 30 min 17 sec) 
Heartbeat CPU 0 instructions: 394000003 cycles: 1372295008 heartbeat IPC: 0.300675 cumulative IPC: 0.286006 (Simulation time: 0 hr 30 min 22 sec) 
Heartbeat CPU 0 instructions: 395000001 cycles: 1375050769 heartbeat IPC: 0.362875 cumulative IPC: 0.286163 (Simulation time: 0 hr 30 min 26 sec) 
Heartbeat CPU 0 instructions: 396000000 cycles: 1378832989 heartbeat IPC: 0.264395 cumulative IPC: 0.286102 (Simulation time: 0 hr 30 min 30 sec) 
Heartbeat CPU 0 instructions: 397000003 cycles: 1381601149 heartbeat IPC: 0.361252 cumulative IPC: 0.286256 (Simulation time: 0 hr 30 min 34 sec) 
Heartbeat CPU 0 instructions: 398000001 cycles: 1384160370 heartbeat IPC: 0.390743 cumulative IPC: 0.286453 (Simulation time: 0 hr 30 min 38 sec) 
Heartbeat CPU 0 instructions: 399000001 cycles: 1388293937 heartbeat IPC: 0.241922 cumulative IPC: 0.286318 (Simulation time: 0 hr 30 min 43 sec) 
Heartbeat CPU 0 instructions: 400000000 cycles: 1391383490 heartbeat IPC: 0.323671 cumulative IPC: 0.286403 (Simulation time: 0 hr 30 min 47 sec) 
Heartbeat CPU 0 instructions: 401000003 cycles: 1395291799 heartbeat IPC: 0.255866 cumulative IPC: 0.286315 (Simulation time: 0 hr 30 min 52 sec) 
Heartbeat CPU 0 instructions: 402000000 cycles: 1399809263 heartbeat IPC: 0.221362 cumulative IPC: 0.286101 (Simulation time: 0 hr 30 min 57 sec) 
Heartbeat CPU 0 instructions: 403000000 cycles: 1403200708 heartbeat IPC: 0.29486 cumulative IPC: 0.286123 (Simulation time: 0 hr 31 min 1 sec) 
Heartbeat CPU 0 instructions: 404000000 cycles: 1407476455 heartbeat IPC: 0.233877 cumulative IPC: 0.285961 (Simulation time: 0 hr 31 min 6 sec) 
Heartbeat CPU 0 instructions: 405000001 cycles: 1412193834 heartbeat IPC: 0.211982 cumulative IPC: 0.285708 (Simulation time: 0 hr 31 min 11 sec) 
Heartbeat CPU 0 instructions: 406000003 cycles: 1415960094 heartbeat IPC: 0.265516 cumulative IPC: 0.285653 (Simulation time: 0 hr 31 min 16 sec) 
Heartbeat CPU 0 instructions: 407000000 cycles: 1419810607 heartbeat IPC: 0.259705 cumulative IPC: 0.285581 (Simulation time: 0 hr 31 min 21 sec) 
Heartbeat CPU 0 instructions: 408000001 cycles: 1422562461 heartbeat IPC: 0.363392 cumulative IPC: 0.285735 (Simulation time: 0 hr 31 min 25 sec) 
Heartbeat CPU 0 instructions: 409000001 cycles: 1426653241 heartbeat IPC: 0.244452 cumulative IPC: 0.285614 (Simulation time: 0 hr 31 min 29 sec) 
Heartbeat CPU 0 instructions: 410000000 cycles: 1430393697 heartbeat IPC: 0.267347 cumulative IPC: 0.285565 (Simulation time: 0 hr 31 min 34 sec) 
Heartbeat CPU 0 instructions: 411000000 cycles: 1433250413 heartbeat IPC: 0.350052 cumulative IPC: 0.285697 (Simulation time: 0 hr 31 min 38 sec) 
Heartbeat CPU 0 instructions: 412000003 cycles: 1437046262 heartbeat IPC: 0.263446 cumulative IPC: 0.285637 (Simulation time: 0 hr 31 min 43 sec) 
Heartbeat CPU 0 instructions: 413000001 cycles: 1440416155 heartbeat IPC: 0.296745 cumulative IPC: 0.285663 (Simulation time: 0 hr 31 min 47 sec) 
Heartbeat CPU 0 instructions: 414000000 cycles: 1445265805 heartbeat IPC: 0.2062 cumulative IPC: 0.285391 (Simulation time: 0 hr 31 min 53 sec) 
Heartbeat CPU 0 instructions: 415000001 cycles: 1449616576 heartbeat IPC: 0.229845 cumulative IPC: 0.285221 (Simulation time: 0 hr 31 min 57 sec) 
Heartbeat CPU 0 instructions: 416000000 cycles: 1452780407 heartbeat IPC: 0.316072 cumulative IPC: 0.285289 (Simulation time: 0 hr 32 min 2 sec) 
Heartbeat CPU 0 instructions: 417000002 cycles: 1456432870 heartbeat IPC: 0.273788 cumulative IPC: 0.28526 (Simulation time: 0 hr 32 min 6 sec) 
Heartbeat CPU 0 instructions: 418000000 cycles: 1460660055 heartbeat IPC: 0.236564 cumulative IPC: 0.285116 (Simulation time: 0 hr 32 min 11 sec) 
Heartbeat CPU 0 instructions: 419000002 cycles: 1463573506 heartbeat IPC: 0.343236 cumulative IPC: 0.285234 (Simulation time: 0 hr 32 min 15 sec) 
Heartbeat CPU 0 instructions: 420000003 cycles: 1468043072 heartbeat IPC: 0.223736 cumulative IPC: 0.285043 (Simulation time: 0 hr 32 min 20 sec) 
Heartbeat CPU 0 instructions: 421000002 cycles: 1472175127 heartbeat IPC: 0.24201 cumulative IPC: 0.28492 (Simulation time: 0 hr 32 min 25 sec) 
Heartbeat CPU 0 instructions: 422000001 cycles: 1475545734 heartbeat IPC: 0.296682 cumulative IPC: 0.284947 (Simulation time: 0 hr 32 min 29 sec) 
Heartbeat CPU 0 instructions: 423000000 cycles: 1479525520 heartbeat IPC: 0.25127 cumulative IPC: 0.284855 (Simulation time: 0 hr 32 min 34 sec) 
Heartbeat CPU 0 instructions: 424000001 cycles: 1482743893 heartbeat IPC: 0.310716 cumulative IPC: 0.284912 (Simulation time: 0 hr 32 min 39 sec) 
Heartbeat CPU 0 instructions: 425000001 cycles: 1487008077 heartbeat IPC: 0.234511 cumulative IPC: 0.284765 (Simulation time: 0 hr 32 min 44 sec) 
Heartbeat CPU 0 instructions: 426000002 cycles: 1490409671 heartbeat IPC: 0.29398 cumulative IPC: 0.284786 (Simulation time: 0 hr 32 min 48 sec) 
Heartbeat CPU 0 instructions: 427000000 cycles: 1494210485 heartbeat IPC: 0.263101 cumulative IPC: 0.28473 (Simulation time: 0 hr 32 min 53 sec) 
Heartbeat CPU 0 instructions: 428000000 cycles: 1497947342 heartbeat IPC: 0.267605 cumulative IPC: 0.284686 (Simulation time: 0 hr 32 min 57 sec) 
Heartbeat CPU 0 instructions: 429000000 cycles: 1500688053 heartbeat IPC: 0.364869 cumulative IPC: 0.284836 (Simulation time: 0 hr 33 min 1 sec) 
Heartbeat CPU 0 instructions: 430000002 cycles: 1503324970 heartbeat IPC: 0.379232 cumulative IPC: 0.285004 (Simulation time: 0 hr 33 min 5 sec) 
Heartbeat CPU 0 instructions: 431000002 cycles: 1507219322 heartbeat IPC: 0.256782 cumulative IPC: 0.28493 (Simulation time: 0 hr 33 min 9 sec) 
Heartbeat CPU 0 instructions: 432000001 cycles: 1510674727 heartbeat IPC: 0.289401 cumulative IPC: 0.284941 (Simulation time: 0 hr 33 min 14 sec) 
Heartbeat CPU 0 instructions: 433000002 cycles: 1514065206 heartbeat IPC: 0.294944 cumulative IPC: 0.284963 (Simulation time: 0 hr 33 min 18 sec) 
Heartbeat CPU 0 instructions: 434000003 cycles: 1518082724 heartbeat IPC: 0.24891 cumulative IPC: 0.284866 (Simulation time: 0 hr 33 min 23 sec) 
Heartbeat CPU 0 instructions: 435000002 cycles: 1522475903 heartbeat IPC: 0.227625 cumulative IPC: 0.284698 (Simulation time: 0 hr 33 min 28 sec) 
Heartbeat CPU 0 instructions: 436000002 cycles: 1526001728 heartbeat IPC: 0.283622 cumulative IPC: 0.284695 (Simulation time: 0 hr 33 min 33 sec) 
Heartbeat CPU 0 instructions: 437000000 cycles: 1530254859 heartbeat IPC: 0.23512 cumulative IPC: 0.284555 (Simulation time: 0 hr 33 min 37 sec) 
Heartbeat CPU 0 instructions: 438000001 cycles: 1533027502 heartbeat IPC: 0.360667 cumulative IPC: 0.284695 (Simulation time: 0 hr 33 min 41 sec) 
Heartbeat CPU 0 instructions: 439000003 cycles: 1537326907 heartbeat IPC: 0.232591 cumulative IPC: 0.284546 (Simulation time: 0 hr 33 min 46 sec) 
Heartbeat CPU 0 instructions: 440000000 cycles: 1541102272 heartbeat IPC: 0.264874 cumulative IPC: 0.284497 (Simulation time: 0 hr 33 min 51 sec) 
Heartbeat CPU 0 instructions: 441000003 cycles: 1544896137 heartbeat IPC: 0.263584 cumulative IPC: 0.284445 (Simulation time: 0 hr 33 min 55 sec) 
Heartbeat CPU 0 instructions: 442000001 cycles: 1548142103 heartbeat IPC: 0.308074 cumulative IPC: 0.284495 (Simulation time: 0 hr 33 min 59 sec) 
Heartbeat CPU 0 instructions: 443000002 cycles: 1551180903 heartbeat IPC: 0.329078 cumulative IPC: 0.284584 (Simulation time: 0 hr 34 min 3 sec) 
Heartbeat CPU 0 instructions: 444000002 cycles: 1555433617 heartbeat IPC: 0.235144 cumulative IPC: 0.284447 (Simulation time: 0 hr 34 min 8 sec) 
Heartbeat CPU 0 instructions: 445000000 cycles: 1559031972 heartbeat IPC: 0.277904 cumulative IPC: 0.284431 (Simulation time: 0 hr 34 min 13 sec) 
Heartbeat CPU 0 instructions: 446000000 cycles: 1562661700 heartbeat IPC: 0.275503 cumulative IPC: 0.28441 (Simulation time: 0 hr 34 min 17 sec) 
Heartbeat CPU 0 instructions: 447000000 cycles: 1566921879 heartbeat IPC: 0.234732 cumulative IPC: 0.284272 (Simulation time: 0 hr 34 min 22 sec) 
Heartbeat CPU 0 instructions: 448000000 cycles: 1571766013 heartbeat IPC: 0.206435 cumulative IPC: 0.284028 (Simulation time: 0 hr 34 min 27 sec) 
Heartbeat CPU 0 instructions: 449000003 cycles: 1574977500 heartbeat IPC: 0.311383 cumulative IPC: 0.284085 (Simulation time: 0 hr 34 min 32 sec) 
Heartbeat CPU 0 instructions: 450000003 cycles: 1578777089 heartbeat IPC: 0.263186 cumulative IPC: 0.284034 (Simulation time: 0 hr 34 min 36 sec) 
Heartbeat CPU 0 instructions: 451000000 cycles: 1582000763 heartbeat IPC: 0.310204 cumulative IPC: 0.284088 (Simulation time: 0 hr 34 min 41 sec) 
Heartbeat CPU 0 instructions: 452000003 cycles: 1585974283 heartbeat IPC: 0.251667 cumulative IPC: 0.284005 (Simulation time: 0 hr 34 min 46 sec) 
Heartbeat CPU 0 instructions: 453000002 cycles: 1590232823 heartbeat IPC: 0.234822 cumulative IPC: 0.283871 (Simulation time: 0 hr 34 min 51 sec) 
Heartbeat CPU 0 instructions: 454000001 cycles: 1594003691 heartbeat IPC: 0.265191 cumulative IPC: 0.283826 (Simulation time: 0 hr 34 min 55 sec) 
Heartbeat CPU 0 instructions: 455000000 cycles: 1597356757 heartbeat IPC: 0.298234 cumulative IPC: 0.283857 (Simulation time: 0 hr 34 min 59 sec) 
Heartbeat CPU 0 instructions: 456000001 cycles: 1600432320 heartbeat IPC: 0.325144 cumulative IPC: 0.283937 (Simulation time: 0 hr 35 min 3 sec) 
Heartbeat CPU 0 instructions: 457000002 cycles: 1604507756 heartbeat IPC: 0.245373 cumulative IPC: 0.283838 (Simulation time: 0 hr 35 min 8 sec) 
Heartbeat CPU 0 instructions: 458000001 cycles: 1609028299 heartbeat IPC: 0.221212 cumulative IPC: 0.283658 (Simulation time: 0 hr 35 min 13 sec) 
Heartbeat CPU 0 instructions: 459000003 cycles: 1613265475 heartbeat IPC: 0.236007 cumulative IPC: 0.283531 (Simulation time: 0 hr 35 min 18 sec) 
Heartbeat CPU 0 instructions: 460000000 cycles: 1617104771 heartbeat IPC: 0.260464 cumulative IPC: 0.283475 (Simulation time: 0 hr 35 min 23 sec) 
Heartbeat CPU 0 instructions: 461000003 cycles: 1621054339 heartbeat IPC: 0.253193 cumulative IPC: 0.2834 (Simulation time: 0 hr 35 min 28 sec) 
Heartbeat CPU 0 instructions: 462000000 cycles: 1624412342 heartbeat IPC: 0.297795 cumulative IPC: 0.28343 (Simulation time: 0 hr 35 min 32 sec) 
Heartbeat CPU 0 instructions: 463000003 cycles: 1628716578 heartbeat IPC: 0.23233 cumulative IPC: 0.283293 (Simulation time: 0 hr 35 min 37 sec) 
Heartbeat CPU 0 instructions: 464000002 cycles: 1632992366 heartbeat IPC: 0.233875 cumulative IPC: 0.283161 (Simulation time: 0 hr 35 min 42 sec) 
Heartbeat CPU 0 instructions: 465000000 cycles: 1635991911 heartbeat IPC: 0.333383 cumulative IPC: 0.283255 (Simulation time: 0 hr 35 min 46 sec) 
Heartbeat CPU 0 instructions: 466000002 cycles: 1637971269 heartbeat IPC: 0.505215 cumulative IPC: 0.283528 (Simulation time: 0 hr 35 min 50 sec) 
Heartbeat CPU 0 instructions: 467000003 cycles: 1641657664 heartbeat IPC: 0.271268 cumulative IPC: 0.2835 (Simulation time: 0 hr 35 min 55 sec) 
Heartbeat CPU 0 instructions: 468000001 cycles: 1644973210 heartbeat IPC: 0.301609 cumulative IPC: 0.283537 (Simulation time: 0 hr 35 min 59 sec) 
Heartbeat CPU 0 instructions: 469000003 cycles: 1647924997 heartbeat IPC: 0.338778 cumulative IPC: 0.283638 (Simulation time: 0 hr 36 min 4 sec) 
Heartbeat CPU 0 instructions: 470000000 cycles: 1651233982 heartbeat IPC: 0.302207 cumulative IPC: 0.283676 (Simulation time: 0 hr 36 min 8 sec) 
Heartbeat CPU 0 instructions: 471000003 cycles: 1654501330 heartbeat IPC: 0.30606 cumulative IPC: 0.283721 (Simulation time: 0 hr 36 min 13 sec) 
Heartbeat CPU 0 instructions: 472000000 cycles: 1658809814 heartbeat IPC: 0.2321 cumulative IPC: 0.283584 (Simulation time: 0 hr 36 min 18 sec) 
Heartbeat CPU 0 instructions: 473000000 cycles: 1663225136 heartbeat IPC: 0.226484 cumulative IPC: 0.28343 (Simulation time: 0 hr 36 min 23 sec) 
Heartbeat CPU 0 instructions: 474000000 cycles: 1666390073 heartbeat IPC: 0.315962 cumulative IPC: 0.283493 (Simulation time: 0 hr 36 min 27 sec) 
Heartbeat CPU 0 instructions: 475000000 cycles: 1668925935 heartbeat IPC: 0.394343 cumulative IPC: 0.283664 (Simulation time: 0 hr 36 min 31 sec) 
Heartbeat CPU 0 instructions: 476000003 cycles: 1672633421 heartbeat IPC: 0.269725 cumulative IPC: 0.283633 (Simulation time: 0 hr 36 min 36 sec) 
Heartbeat CPU 0 instructions: 477000000 cycles: 1675842109 heartbeat IPC: 0.311653 cumulative IPC: 0.283687 (Simulation time: 0 hr 36 min 40 sec) 
Heartbeat CPU 0 instructions: 478000003 cycles: 1679344938 heartbeat IPC: 0.285484 cumulative IPC: 0.283691 (Simulation time: 0 hr 36 min 45 sec) 
Heartbeat CPU 0 instructions: 479000002 cycles: 1683436172 heartbeat IPC: 0.244425 cumulative IPC: 0.283594 (Simulation time: 0 hr 36 min 50 sec) 
Heartbeat CPU 0 instructions: 480000003 cycles: 1688058382 heartbeat IPC: 0.216347 cumulative IPC: 0.283407 (Simulation time: 0 hr 36 min 55 sec) 
Heartbeat CPU 0 instructions: 481000001 cycles: 1691034264 heartbeat IPC: 0.336034 cumulative IPC: 0.283501 (Simulation time: 0 hr 37 min 0 sec) 
Heartbeat CPU 0 instructions: 482000002 cycles: 1695096386 heartbeat IPC: 0.246177 cumulative IPC: 0.28341 (Simulation time: 0 hr 37 min 4 sec) 
Heartbeat CPU 0 instructions: 483000002 cycles: 1697840955 heartbeat IPC: 0.364356 cumulative IPC: 0.283543 (Simulation time: 0 hr 37 min 9 sec) 
Heartbeat CPU 0 instructions: 484000000 cycles: 1701048631 heartbeat IPC: 0.311752 cumulative IPC: 0.283597 (Simulation time: 0 hr 37 min 14 sec) 
Heartbeat CPU 0 instructions: 485000001 cycles: 1703933762 heartbeat IPC: 0.346605 cumulative IPC: 0.283706 (Simulation time: 0 hr 37 min 18 sec) 
Heartbeat CPU 0 instructions: 486000002 cycles: 1706040457 heartbeat IPC: 0.474678 cumulative IPC: 0.283946 (Simulation time: 0 hr 37 min 22 sec) 
Heartbeat CPU 0 instructions: 487000001 cycles: 1708993889 heartbeat IPC: 0.338589 cumulative IPC: 0.284042 (Simulation time: 0 hr 37 min 26 sec) 
Heartbeat CPU 0 instructions: 488000002 cycles: 1713277152 heartbeat IPC: 0.233467 cumulative IPC: 0.283913 (Simulation time: 0 hr 37 min 31 sec) 
Heartbeat CPU 0 instructions: 489000000 cycles: 1716499777 heartbeat IPC: 0.310305 cumulative IPC: 0.283964 (Simulation time: 0 hr 37 min 36 sec) 
Heartbeat CPU 0 instructions: 490000003 cycles: 1719860547 heartbeat IPC: 0.297552 cumulative IPC: 0.283991 (Simulation time: 0 hr 37 min 41 sec) 
Heartbeat CPU 0 instructions: 491000000 cycles: 1724251193 heartbeat IPC: 0.227756 cumulative IPC: 0.283845 (Simulation time: 0 hr 37 min 46 sec) 
Heartbeat CPU 0 instructions: 492000003 cycles: 1727893467 heartbeat IPC: 0.274555 cumulative IPC: 0.283825 (Simulation time: 0 hr 37 min 51 sec) 
Heartbeat CPU 0 instructions: 493000003 cycles: 1730581905 heartbeat IPC: 0.371963 cumulative IPC: 0.283964 (Simulation time: 0 hr 37 min 55 sec) 
Heartbeat CPU 0 instructions: 494000000 cycles: 1734674311 heartbeat IPC: 0.244354 cumulative IPC: 0.283869 (Simulation time: 0 hr 38 min 0 sec) 
Heartbeat CPU 0 instructions: 495000000 cycles: 1737586619 heartbeat IPC: 0.34337 cumulative IPC: 0.283971 (Simulation time: 0 hr 38 min 5 sec) 
Heartbeat CPU 0 instructions: 496000000 cycles: 1741716780 heartbeat IPC: 0.242121 cumulative IPC: 0.28387 (Simulation time: 0 hr 38 min 10 sec) 
Heartbeat CPU 0 instructions: 497000001 cycles: 1745865633 heartbeat IPC: 0.241031 cumulative IPC: 0.283766 (Simulation time: 0 hr 38 min 15 sec) 
Heartbeat CPU 0 instructions: 498000002 cycles: 1749368409 heartbeat IPC: 0.285488 cumulative IPC: 0.28377 (Simulation time: 0 hr 38 min 19 sec) 
Heartbeat CPU 0 instructions: 499000000 cycles: 1752325729 heartbeat IPC: 0.338143 cumulative IPC: 0.283863 (Simulation time: 0 hr 38 min 24 sec) 
Heartbeat CPU 0 instructions: 500000001 cycles: 1754987813 heartbeat IPC: 0.375646 cumulative IPC: 0.284005 (Simulation time: 0 hr 38 min 29 sec) 
Heartbeat CPU 0 instructions: 501000003 cycles: 1758351313 heartbeat IPC: 0.29731 cumulative IPC: 0.284031 (Simulation time: 0 hr 38 min 33 sec) 
Heartbeat CPU 0 instructions: 502000001 cycles: 1762769858 heartbeat IPC: 0.226318 cumulative IPC: 0.283883 (Simulation time: 0 hr 38 min 39 sec) 
Heartbeat CPU 0 instructions: 503000002 cycles: 1766945847 heartbeat IPC: 0.239464 cumulative IPC: 0.283777 (Simulation time: 0 hr 38 min 43 sec) 
Heartbeat CPU 0 instructions: 504000000 cycles: 1769821817 heartbeat IPC: 0.347708 cumulative IPC: 0.283882 (Simulation time: 0 hr 38 min 48 sec) 
Heartbeat CPU 0 instructions: 505000001 cycles: 1773131769 heartbeat IPC: 0.302119 cumulative IPC: 0.283917 (Simulation time: 0 hr 38 min 52 sec) 
Heartbeat CPU 0 instructions: 506000000 cycles: 1776679274 heartbeat IPC: 0.281888 cumulative IPC: 0.283913 (Simulation time: 0 hr 38 min 56 sec) 
Heartbeat CPU 0 instructions: 507000001 cycles: 1780869392 heartbeat IPC: 0.238657 cumulative IPC: 0.283805 (Simulation time: 0 hr 39 min 1 sec) 
Heartbeat CPU 0 instructions: 508000000 cycles: 1783797603 heartbeat IPC: 0.341505 cumulative IPC: 0.283901 (Simulation time: 0 hr 39 min 5 sec) 
Heartbeat CPU 0 instructions: 509000001 cycles: 1787906253 heartbeat IPC: 0.243389 cumulative IPC: 0.283806 (Simulation time: 0 hr 39 min 10 sec) 
Heartbeat CPU 0 instructions: 510000000 cycles: 1791882821 heartbeat IPC: 0.251473 cumulative IPC: 0.283733 (Simulation time: 0 hr 39 min 15 sec) 
Finished CPU 0 instructions: 500000003 cycles: 1762218804 cumulative IPC: 0.283733 (Simulation time: 0 hr 39 min 15 sec) 

ChampSim completed all CPUs

Region of Interest Statistics

CPU 0 cumulative IPC: 0.283733 instructions: 500000003 cycles: 1762218804
L1D TOTAL     ACCESS:  175042214  HIT:  162347706  MISS:   12694508
L1D LOAD      ACCESS:   97372413  HIT:   86225603  MISS:   11146810
L1D RFO       ACCESS:   77669801  HIT:   76122103  MISS:    1547698
L1D PREFETCH  ACCESS:          0  HIT:          0  MISS:          0
L1D WRITEBACK ACCESS:          0  HIT:          0  MISS:          0
L1D PREFETCH  REQUESTED:          0  ISSUED:          0  USEFUL:          0  USELESS:          0
L1D AVERAGE MISS LATENCY: 188.878 cycles
L1I TOTAL     ACCESS:  105269108  HIT:  105256179  MISS:      12929
L1I LOAD      ACCESS:  105269108  HIT:  105256179  MISS:      12929
L1I RFO       ACCESS:          0  HIT:          0  MISS:          0
L1I PREFETCH  ACCESS:          0  HIT:          0  MISS:          0
L1I WRITEBACK ACCESS:          0  HIT:          0  MISS:          0
L1I PREFETCH  REQUESTED:          0  ISSUED:          0  USEFUL:          0  USELESS:          0
L1I AVERAGE MISS LATENCY: 49.555 cycles
L2C TOTAL     ACCESS:   18151985  HIT:    7237461  MISS:   10914524
L2C LOAD      ACCESS:   11158937  HIT:    1709088  MISS:    9449849
L2C RFO       ACCESS:    1547657  HIT:      95180  MISS:    1452477
L2C PREFETCH  ACCESS:          0  HIT:          0  MISS:          0
L2C WRITEBACK ACCESS:    5445391  HIT:    5433193  MISS:      12198
L2C PREFETCH  REQUESTED:          0  ISSUED:          0  USEFUL:          0  USELESS:          0
L2C AVERAGE MISS LATENCY: 198.556 cycles
LLC TOTAL     ACCESS:   15608039  HIT:    6985300  MISS:    8622739
LLC LOAD      ACCESS:    9449841  HIT:    2075214  MISS:    7374627
LLC RFO       ACCESS:    1452477  HIT:     213106  MISS:    1239371
LLC PREFETCH  ACCESS:          0  HIT:          0  MISS:          0
LLC WRITEBACK ACCESS:    4705721  HIT:    4696980  MISS:       8741
LLC PREFETCH  REQUESTED:          0  ISSUED:          0  USEFUL:          0  USELESS:          0
LLC AVERAGE MISS LATENCY: 208.006 cycles
Major fault: 0 Minor fault: 36208

DRAM Statistics
 CHANNEL 0
 RQ ROW_BUFFER_HIT:    1484356  ROW_BUFFER_MISS:    2826656
 DBUS_CONGESTED:    2179006
 WQ ROW_BUFFER_HIT:     612296  ROW_BUFFER_MISS:    1254621  FULL:          0

 CHANNEL 1
 RQ ROW_BUFFER_HIT:    1486879  ROW_BUFFER_MISS:    2816055
 DBUS_CONGESTED:    2179006
 WQ ROW_BUFFER_HIT:     607187  ROW_BUFFER_MISS:    1254097  FULL:          0

 AVG_CONGESTED_CYCLE: 18

CPU 0 Branch Prediction Accuracy: 98.4342% MPKI: 3.7592 Average ROB Occupancy at Mispredict: 99.7015

Branch types
NOT_BRANCH: 379955752 75.9911%
BRANCH_DIRECT_JUMP: 8736754 1.74735%
BRANCH_INDIRECT: 1708022 0.341604%
BRANCH_CONDITIONAL: 81118174 16.2236%
BRANCH_DIRECT_CALL: 12051148 2.41023%
BRANCH_INDIRECT_CALL: 2189326 0.437865%
BRANCH_RETURN: 14240475 2.84809%
BRANCH_OTHER: 0 0%


gzip: stdout: Broken pipe
