
*** ChampSim Multicore Out-of-Order Simulator ***

Warmup Instructions: 1000000
Prefetch Warmup Instructions: 10000000
Simulation Instructions: 500000000
Stat Printing Period: 1000000
Number of CPUs: 1
LLC sets: 2048
LLC ways: 16
Off-chip DRAM Size: 32768 MB Channels: 2 Width: 64-bit Data Rate: 1024 MT/s

CPU 0 runs /scratch/cluster/cmolder/ML-DPC/ChampSimTraces/spec06/471.omnetpp-s2.trace.gz
Read seed: 984
Heartbeat CPU 0 instructions: 1000002 cycles: 367657 heartbeat IPC: 2.71993 cumulative IPC: 2.71993 (Simulation time: 0 hr 0 min 5 sec) 

Warmup complete CPU 0 instructions: 1000002 cycles: 367657 (Simulation time: 0 hr 0 min 5 sec) 

Heartbeat CPU 0 instructions: 2000002 cycles: 2675475 heartbeat IPC: 0.43331 cumulative IPC: 0.43331 (Simulation time: 0 hr 0 min 9 sec) 
Heartbeat CPU 0 instructions: 3000002 cycles: 5085446 heartbeat IPC: 0.414943 cumulative IPC: 0.423927 (Simulation time: 0 hr 0 min 13 sec) 
Heartbeat CPU 0 instructions: 4000001 cycles: 7371155 heartbeat IPC: 0.437501 cumulative IPC: 0.428357 (Simulation time: 0 hr 0 min 17 sec) 
Heartbeat CPU 0 instructions: 5000003 cycles: 9609238 heartbeat IPC: 0.446812 cumulative IPC: 0.432826 (Simulation time: 0 hr 0 min 21 sec) 
Heartbeat CPU 0 instructions: 6000000 cycles: 11863425 heartbeat IPC: 0.443618 cumulative IPC: 0.434942 (Simulation time: 0 hr 0 min 25 sec) 
Heartbeat CPU 0 instructions: 7000001 cycles: 14253199 heartbeat IPC: 0.41845 cumulative IPC: 0.432104 (Simulation time: 0 hr 0 min 29 sec) 
Heartbeat CPU 0 instructions: 8000000 cycles: 17106759 heartbeat IPC: 0.350439 cumulative IPC: 0.418182 (Simulation time: 0 hr 0 min 34 sec) 
Heartbeat CPU 0 instructions: 9000002 cycles: 19638065 heartbeat IPC: 0.395054 cumulative IPC: 0.415144 (Simulation time: 0 hr 0 min 38 sec) 
Heartbeat CPU 0 instructions: 10000001 cycles: 22509598 heartbeat IPC: 0.348246 cumulative IPC: 0.406468 (Simulation time: 0 hr 0 min 43 sec) 

Warmup complete CPU 0 instructions: 10000001 cycles: 22509598 (Simulation time: 0 hr 0 min 43 sec) 

Heartbeat CPU 0 instructions: 11000000 cycles: 25170810 heartbeat IPC: 0.375768 cumulative IPC: 0.375768 (Simulation time: 0 hr 0 min 47 sec) 
Heartbeat CPU 0 instructions: 12000001 cycles: 25654932 heartbeat IPC: 2.0656 cumulative IPC: 0.635863 (Simulation time: 0 hr 0 min 50 sec) 
Heartbeat CPU 0 instructions: 13000000 cycles: 26120850 heartbeat IPC: 2.1463 cumulative IPC: 0.830737 (Simulation time: 0 hr 0 min 53 sec) 
Heartbeat CPU 0 instructions: 14000000 cycles: 26573291 heartbeat IPC: 2.21023 cumulative IPC: 0.984326 (Simulation time: 0 hr 0 min 56 sec) 
Heartbeat CPU 0 instructions: 15000002 cycles: 27035692 heartbeat IPC: 2.16263 cumulative IPC: 1.10471 (Simulation time: 0 hr 0 min 59 sec) 
Heartbeat CPU 0 instructions: 16000003 cycles: 29341283 heartbeat IPC: 0.433729 cumulative IPC: 0.878261 (Simulation time: 0 hr 1 min 4 sec) 
Heartbeat CPU 0 instructions: 17000000 cycles: 31725971 heartbeat IPC: 0.419341 cumulative IPC: 0.759518 (Simulation time: 0 hr 1 min 8 sec) 
Heartbeat CPU 0 instructions: 18000003 cycles: 33973251 heartbeat IPC: 0.444984 cumulative IPC: 0.697858 (Simulation time: 0 hr 1 min 13 sec) 
Heartbeat CPU 0 instructions: 19000000 cycles: 36270280 heartbeat IPC: 0.435344 cumulative IPC: 0.654037 (Simulation time: 0 hr 1 min 17 sec) 
Heartbeat CPU 0 instructions: 20000000 cycles: 39186324 heartbeat IPC: 0.34293 cumulative IPC: 0.599638 (Simulation time: 0 hr 1 min 21 sec) 
Heartbeat CPU 0 instructions: 21000001 cycles: 42099603 heartbeat IPC: 0.343256 cumulative IPC: 0.561511 (Simulation time: 0 hr 1 min 26 sec) 
Heartbeat CPU 0 instructions: 22000000 cycles: 44847733 heartbeat IPC: 0.363883 cumulative IPC: 0.537198 (Simulation time: 0 hr 1 min 30 sec) 
Heartbeat CPU 0 instructions: 23000001 cycles: 47194812 heartbeat IPC: 0.426062 cumulative IPC: 0.526631 (Simulation time: 0 hr 1 min 35 sec) 
Heartbeat CPU 0 instructions: 24000001 cycles: 49458287 heartbeat IPC: 0.441799 cumulative IPC: 0.519506 (Simulation time: 0 hr 1 min 39 sec) 
Heartbeat CPU 0 instructions: 25000001 cycles: 51736078 heartbeat IPC: 0.439022 cumulative IPC: 0.513233 (Simulation time: 0 hr 1 min 43 sec) 
Heartbeat CPU 0 instructions: 26000003 cycles: 53982616 heartbeat IPC: 0.44513 cumulative IPC: 0.508372 (Simulation time: 0 hr 1 min 47 sec) 
Heartbeat CPU 0 instructions: 27000000 cycles: 56277101 heartbeat IPC: 0.435826 cumulative IPC: 0.503443 (Simulation time: 0 hr 1 min 51 sec) 
Heartbeat CPU 0 instructions: 28000000 cycles: 58531751 heartbeat IPC: 0.443528 cumulative IPC: 0.499692 (Simulation time: 0 hr 1 min 55 sec) 
Heartbeat CPU 0 instructions: 29000003 cycles: 60923199 heartbeat IPC: 0.418158 cumulative IPC: 0.494617 (Simulation time: 0 hr 2 min 0 sec) 
Heartbeat CPU 0 instructions: 30000001 cycles: 63195461 heartbeat IPC: 0.440089 cumulative IPC: 0.491571 (Simulation time: 0 hr 2 min 4 sec) 
Heartbeat CPU 0 instructions: 31000003 cycles: 65426245 heartbeat IPC: 0.448274 cumulative IPC: 0.489321 (Simulation time: 0 hr 2 min 8 sec) 
Heartbeat CPU 0 instructions: 32000000 cycles: 67716303 heartbeat IPC: 0.436669 cumulative IPC: 0.486653 (Simulation time: 0 hr 2 min 12 sec) 
Heartbeat CPU 0 instructions: 33000000 cycles: 70420682 heartbeat IPC: 0.369771 cumulative IPC: 0.480056 (Simulation time: 0 hr 2 min 17 sec) 
Heartbeat CPU 0 instructions: 34000002 cycles: 73285026 heartbeat IPC: 0.349121 cumulative IPC: 0.47267 (Simulation time: 0 hr 2 min 21 sec) 
Heartbeat CPU 0 instructions: 35000002 cycles: 75892289 heartbeat IPC: 0.383544 cumulative IPC: 0.468317 (Simulation time: 0 hr 2 min 26 sec) 
Heartbeat CPU 0 instructions: 36000001 cycles: 78718487 heartbeat IPC: 0.353832 cumulative IPC: 0.46256 (Simulation time: 0 hr 2 min 31 sec) 
Heartbeat CPU 0 instructions: 37000002 cycles: 81005394 heartbeat IPC: 0.437272 cumulative IPC: 0.461572 (Simulation time: 0 hr 2 min 35 sec) 
Heartbeat CPU 0 instructions: 38000000 cycles: 83636228 heartbeat IPC: 0.380107 cumulative IPC: 0.458065 (Simulation time: 0 hr 2 min 39 sec) 
Heartbeat CPU 0 instructions: 39000002 cycles: 85654567 heartbeat IPC: 0.495458 cumulative IPC: 0.459261 (Simulation time: 0 hr 2 min 43 sec) 
Heartbeat CPU 0 instructions: 40000003 cycles: 86113415 heartbeat IPC: 2.17937 cumulative IPC: 0.47167 (Simulation time: 0 hr 2 min 46 sec) 
Heartbeat CPU 0 instructions: 41000002 cycles: 86567071 heartbeat IPC: 2.20431 cumulative IPC: 0.48394 (Simulation time: 0 hr 2 min 49 sec) 
Heartbeat CPU 0 instructions: 42000002 cycles: 87024664 heartbeat IPC: 2.18535 cumulative IPC: 0.496008 (Simulation time: 0 hr 2 min 52 sec) 
Heartbeat CPU 0 instructions: 43000000 cycles: 87660903 heartbeat IPC: 1.57173 cumulative IPC: 0.506513 (Simulation time: 0 hr 2 min 56 sec) 
Heartbeat CPU 0 instructions: 44000000 cycles: 89992007 heartbeat IPC: 0.428981 cumulative IPC: 0.503835 (Simulation time: 0 hr 3 min 0 sec) 
Heartbeat CPU 0 instructions: 45000001 cycles: 92375619 heartbeat IPC: 0.419532 cumulative IPC: 0.500959 (Simulation time: 0 hr 3 min 5 sec) 
Heartbeat CPU 0 instructions: 46000001 cycles: 95283743 heartbeat IPC: 0.343864 cumulative IPC: 0.494681 (Simulation time: 0 hr 3 min 9 sec) 
Heartbeat CPU 0 instructions: 47000001 cycles: 98194786 heartbeat IPC: 0.343519 cumulative IPC: 0.488867 (Simulation time: 0 hr 3 min 14 sec) 
Heartbeat CPU 0 instructions: 48000000 cycles: 100863328 heartbeat IPC: 0.374736 cumulative IPC: 0.48498 (Simulation time: 0 hr 3 min 19 sec) 
Heartbeat CPU 0 instructions: 49000001 cycles: 103322074 heartbeat IPC: 0.406712 cumulative IPC: 0.482599 (Simulation time: 0 hr 3 min 24 sec) 
Heartbeat CPU 0 instructions: 50000001 cycles: 105625194 heartbeat IPC: 0.434194 cumulative IPC: 0.481257 (Simulation time: 0 hr 3 min 29 sec) 
Heartbeat CPU 0 instructions: 51000003 cycles: 107921909 heartbeat IPC: 0.435405 cumulative IPC: 0.480024 (Simulation time: 0 hr 3 min 33 sec) 
Heartbeat CPU 0 instructions: 52000000 cycles: 110208163 heartbeat IPC: 0.437395 cumulative IPC: 0.478913 (Simulation time: 0 hr 3 min 37 sec) 
Heartbeat CPU 0 instructions: 53000000 cycles: 112509376 heartbeat IPC: 0.434553 cumulative IPC: 0.477779 (Simulation time: 0 hr 3 min 42 sec) 
Heartbeat CPU 0 instructions: 54000001 cycles: 114792357 heartbeat IPC: 0.438024 cumulative IPC: 0.476795 (Simulation time: 0 hr 3 min 46 sec) 
Heartbeat CPU 0 instructions: 55000000 cycles: 117301311 heartbeat IPC: 0.398572 cumulative IPC: 0.474725 (Simulation time: 0 hr 3 min 51 sec) 
Heartbeat CPU 0 instructions: 56000000 cycles: 119575087 heartbeat IPC: 0.439797 cumulative IPC: 0.473907 (Simulation time: 0 hr 3 min 55 sec) 
Heartbeat CPU 0 instructions: 57000000 cycles: 121846245 heartbeat IPC: 0.440304 cumulative IPC: 0.473139 (Simulation time: 0 hr 4 min 0 sec) 
Heartbeat CPU 0 instructions: 58000002 cycles: 124350864 heartbeat IPC: 0.399263 cumulative IPC: 0.471322 (Simulation time: 0 hr 4 min 5 sec) 
Heartbeat CPU 0 instructions: 59000002 cycles: 127226985 heartbeat IPC: 0.347691 cumulative IPC: 0.467926 (Simulation time: 0 hr 4 min 10 sec) 
Heartbeat CPU 0 instructions: 60000000 cycles: 129721727 heartbeat IPC: 0.400842 cumulative IPC: 0.466365 (Simulation time: 0 hr 4 min 14 sec) 
Heartbeat CPU 0 instructions: 61000002 cycles: 132376730 heartbeat IPC: 0.376648 cumulative IPC: 0.464197 (Simulation time: 0 hr 4 min 19 sec) 
Heartbeat CPU 0 instructions: 62000001 cycles: 135251439 heartbeat IPC: 0.347861 cumulative IPC: 0.461231 (Simulation time: 0 hr 4 min 24 sec) 
Heartbeat CPU 0 instructions: 63000002 cycles: 137568539 heartbeat IPC: 0.431574 cumulative IPC: 0.460633 (Simulation time: 0 hr 4 min 28 sec) 
Heartbeat CPU 0 instructions: 64000000 cycles: 139871312 heartbeat IPC: 0.434258 cumulative IPC: 0.460116 (Simulation time: 0 hr 4 min 33 sec) 
Heartbeat CPU 0 instructions: 65000002 cycles: 142165547 heartbeat IPC: 0.435876 cumulative IPC: 0.459651 (Simulation time: 0 hr 4 min 37 sec) 
Heartbeat CPU 0 instructions: 66000000 cycles: 145884723 heartbeat IPC: 0.268876 cumulative IPC: 0.4539 (Simulation time: 0 hr 4 min 43 sec) 
Heartbeat CPU 0 instructions: 67000000 cycles: 146999748 heartbeat IPC: 0.896841 cumulative IPC: 0.457868 (Simulation time: 0 hr 4 min 47 sec) 
Heartbeat CPU 0 instructions: 68000001 cycles: 147456250 heartbeat IPC: 2.19057 cumulative IPC: 0.464198 (Simulation time: 0 hr 4 min 50 sec) 
Heartbeat CPU 0 instructions: 69000000 cycles: 147912905 heartbeat IPC: 2.18983 cumulative IPC: 0.470482 (Simulation time: 0 hr 4 min 54 sec) 
Heartbeat CPU 0 instructions: 70000000 cycles: 148365070 heartbeat IPC: 2.21158 cumulative IPC: 0.476737 (Simulation time: 0 hr 4 min 57 sec) 
Heartbeat CPU 0 instructions: 71000000 cycles: 148839789 heartbeat IPC: 2.10651 cumulative IPC: 0.482862 (Simulation time: 0 hr 5 min 1 sec) 
Heartbeat CPU 0 instructions: 72000001 cycles: 151694394 heartbeat IPC: 0.350312 cumulative IPC: 0.479933 (Simulation time: 0 hr 5 min 5 sec) 
Heartbeat CPU 0 instructions: 73000001 cycles: 154674053 heartbeat IPC: 0.335609 cumulative IPC: 0.476679 (Simulation time: 0 hr 5 min 10 sec) 
Heartbeat CPU 0 instructions: 74000002 cycles: 157587403 heartbeat IPC: 0.343248 cumulative IPC: 0.473801 (Simulation time: 0 hr 5 min 15 sec) 
Heartbeat CPU 0 instructions: 75000000 cycles: 159965086 heartbeat IPC: 0.420577 cumulative IPC: 0.47288 (Simulation time: 0 hr 5 min 20 sec) 
Heartbeat CPU 0 instructions: 76000001 cycles: 162264418 heartbeat IPC: 0.434909 cumulative IPC: 0.472256 (Simulation time: 0 hr 5 min 24 sec) 
Heartbeat CPU 0 instructions: 77000000 cycles: 164545722 heartbeat IPC: 0.438345 cumulative IPC: 0.471711 (Simulation time: 0 hr 5 min 28 sec) 
Heartbeat CPU 0 instructions: 78000000 cycles: 166846140 heartbeat IPC: 0.434704 cumulative IPC: 0.471121 (Simulation time: 0 hr 5 min 33 sec) 
Heartbeat CPU 0 instructions: 79000000 cycles: 169141893 heartbeat IPC: 0.435587 cumulative IPC: 0.470565 (Simulation time: 0 hr 5 min 38 sec) 
Heartbeat CPU 0 instructions: 80000002 cycles: 171428340 heartbeat IPC: 0.437361 cumulative IPC: 0.470055 (Simulation time: 0 hr 5 min 42 sec) 
Heartbeat CPU 0 instructions: 81000003 cycles: 173871718 heartbeat IPC: 0.40927 cumulative IPC: 0.469074 (Simulation time: 0 hr 5 min 47 sec) 
Heartbeat CPU 0 instructions: 82000002 cycles: 176140105 heartbeat IPC: 0.440841 cumulative IPC: 0.468657 (Simulation time: 0 hr 5 min 51 sec) 
Heartbeat CPU 0 instructions: 83000000 cycles: 178443661 heartbeat IPC: 0.434111 cumulative IPC: 0.468147 (Simulation time: 0 hr 5 min 56 sec) 
Heartbeat CPU 0 instructions: 84000000 cycles: 180787796 heartbeat IPC: 0.426597 cumulative IPC: 0.467531 (Simulation time: 0 hr 6 min 0 sec) 
Heartbeat CPU 0 instructions: 85000000 cycles: 183690044 heartbeat IPC: 0.344561 cumulative IPC: 0.465317 (Simulation time: 0 hr 6 min 5 sec) 
Heartbeat CPU 0 instructions: 86000000 cycles: 186572006 heartbeat IPC: 0.346986 cumulative IPC: 0.463238 (Simulation time: 0 hr 6 min 9 sec) 
Heartbeat CPU 0 instructions: 87000001 cycles: 189179068 heartbeat IPC: 0.383574 cumulative IPC: 0.461992 (Simulation time: 0 hr 6 min 15 sec) 
Heartbeat CPU 0 instructions: 88000000 cycles: 191661583 heartbeat IPC: 0.402817 cumulative IPC: 0.461124 (Simulation time: 0 hr 6 min 19 sec) 
Heartbeat CPU 0 instructions: 89000001 cycles: 194251355 heartbeat IPC: 0.386135 cumulative IPC: 0.459993 (Simulation time: 0 hr 6 min 24 sec) 
Heartbeat CPU 0 instructions: 90000000 cycles: 196567491 heartbeat IPC: 0.431753 cumulative IPC: 0.459617 (Simulation time: 0 hr 6 min 28 sec) 
Heartbeat CPU 0 instructions: 91000002 cycles: 198894379 heartbeat IPC: 0.429759 cumulative IPC: 0.459223 (Simulation time: 0 hr 6 min 32 sec) 
Heartbeat CPU 0 instructions: 92000002 cycles: 201403463 heartbeat IPC: 0.398552 cumulative IPC: 0.458372 (Simulation time: 0 hr 6 min 37 sec) 
Heartbeat CPU 0 instructions: 93000001 cycles: 203691166 heartbeat IPC: 0.437119 cumulative IPC: 0.458104 (Simulation time: 0 hr 6 min 41 sec) 
Heartbeat CPU 0 instructions: 94000001 cycles: 207865894 heartbeat IPC: 0.239537 cumulative IPC: 0.453181 (Simulation time: 0 hr 6 min 47 sec) 
Heartbeat CPU 0 instructions: 95000001 cycles: 208386117 heartbeat IPC: 1.92225 cumulative IPC: 0.457293 (Simulation time: 0 hr 6 min 51 sec) 
Heartbeat CPU 0 instructions: 96000000 cycles: 208846846 heartbeat IPC: 2.17047 cumulative IPC: 0.461529 (Simulation time: 0 hr 6 min 55 sec) 
Heartbeat CPU 0 instructions: 97000002 cycles: 209296720 heartbeat IPC: 2.22285 cumulative IPC: 0.465771 (Simulation time: 0 hr 6 min 58 sec) 
Heartbeat CPU 0 instructions: 98000002 cycles: 209755904 heartbeat IPC: 2.17778 cumulative IPC: 0.469969 (Simulation time: 0 hr 7 min 1 sec) 
Heartbeat CPU 0 instructions: 99000000 cycles: 211034645 heartbeat IPC: 0.782018 cumulative IPC: 0.472086 (Simulation time: 0 hr 7 min 5 sec) 
Heartbeat CPU 0 instructions: 100000000 cycles: 214042578 heartbeat IPC: 0.332454 cumulative IPC: 0.469893 (Simulation time: 0 hr 7 min 10 sec) 
Heartbeat CPU 0 instructions: 101000000 cycles: 216652420 heartbeat IPC: 0.383165 cumulative IPC: 0.468727 (Simulation time: 0 hr 7 min 15 sec) 
Heartbeat CPU 0 instructions: 102000000 cycles: 219164386 heartbeat IPC: 0.398095 cumulative IPC: 0.467825 (Simulation time: 0 hr 7 min 20 sec) 
Heartbeat CPU 0 instructions: 103000001 cycles: 221478337 heartbeat IPC: 0.432162 cumulative IPC: 0.46741 (Simulation time: 0 hr 7 min 24 sec) 
Heartbeat CPU 0 instructions: 104000002 cycles: 223804276 heartbeat IPC: 0.429934 cumulative IPC: 0.466977 (Simulation time: 0 hr 7 min 28 sec) 
Heartbeat CPU 0 instructions: 105000002 cycles: 226089633 heartbeat IPC: 0.437568 cumulative IPC: 0.466647 (Simulation time: 0 hr 7 min 33 sec) 
Heartbeat CPU 0 instructions: 106000000 cycles: 228535509 heartbeat IPC: 0.408851 cumulative IPC: 0.465961 (Simulation time: 0 hr 7 min 38 sec) 
Heartbeat CPU 0 instructions: 107000001 cycles: 230821760 heartbeat IPC: 0.437398 cumulative IPC: 0.465647 (Simulation time: 0 hr 7 min 42 sec) 
Heartbeat CPU 0 instructions: 108000003 cycles: 233137757 heartbeat IPC: 0.43178 cumulative IPC: 0.465275 (Simulation time: 0 hr 7 min 47 sec) 
Heartbeat CPU 0 instructions: 109000000 cycles: 235431006 heartbeat IPC: 0.436061 cumulative IPC: 0.46496 (Simulation time: 0 hr 7 min 51 sec) 
Heartbeat CPU 0 instructions: 110000000 cycles: 237774335 heartbeat IPC: 0.426743 cumulative IPC: 0.464544 (Simulation time: 0 hr 7 min 55 sec) 
Heartbeat CPU 0 instructions: 111000002 cycles: 240293442 heartbeat IPC: 0.396967 cumulative IPC: 0.463763 (Simulation time: 0 hr 8 min 0 sec) 
Heartbeat CPU 0 instructions: 112000000 cycles: 243206736 heartbeat IPC: 0.343253 cumulative IPC: 0.462172 (Simulation time: 0 hr 8 min 3 sec) 
Heartbeat CPU 0 instructions: 113000000 cycles: 245842978 heartbeat IPC: 0.379328 cumulative IPC: 0.461194 (Simulation time: 0 hr 8 min 8 sec) 
Heartbeat CPU 0 instructions: 114000002 cycles: 248725196 heartbeat IPC: 0.346956 cumulative IPC: 0.459738 (Simulation time: 0 hr 8 min 12 sec) 
Heartbeat CPU 0 instructions: 115000001 cycles: 251348540 heartbeat IPC: 0.381192 cumulative IPC: 0.458838 (Simulation time: 0 hr 8 min 15 sec) 
Heartbeat CPU 0 instructions: 116000001 cycles: 253664530 heartbeat IPC: 0.431781 cumulative IPC: 0.458567 (Simulation time: 0 hr 8 min 19 sec) 
Heartbeat CPU 0 instructions: 117000002 cycles: 255996087 heartbeat IPC: 0.428898 cumulative IPC: 0.458271 (Simulation time: 0 hr 8 min 23 sec) 
Heartbeat CPU 0 instructions: 118000001 cycles: 258480372 heartbeat IPC: 0.40253 cumulative IPC: 0.457684 (Simulation time: 0 hr 8 min 28 sec) 
Heartbeat CPU 0 instructions: 119000002 cycles: 260777846 heartbeat IPC: 0.435261 cumulative IPC: 0.457468 (Simulation time: 0 hr 8 min 32 sec) 
Heartbeat CPU 0 instructions: 120000003 cycles: 263109839 heartbeat IPC: 0.428818 cumulative IPC: 0.45719 (Simulation time: 0 hr 8 min 36 sec) 
Heartbeat CPU 0 instructions: 121000000 cycles: 265408235 heartbeat IPC: 0.435085 cumulative IPC: 0.456981 (Simulation time: 0 hr 8 min 40 sec) 
Heartbeat CPU 0 instructions: 122000003 cycles: 269629677 heartbeat IPC: 0.236887 cumulative IPC: 0.453221 (Simulation time: 0 hr 8 min 46 sec) 
Heartbeat CPU 0 instructions: 123000002 cycles: 270129074 heartbeat IPC: 2.00241 cumulative IPC: 0.456345 (Simulation time: 0 hr 8 min 48 sec) 
Heartbeat CPU 0 instructions: 124000000 cycles: 270582126 heartbeat IPC: 2.20725 cumulative IPC: 0.459543 (Simulation time: 0 hr 8 min 51 sec) 
Heartbeat CPU 0 instructions: 125000000 cycles: 271038996 heartbeat IPC: 2.18881 cumulative IPC: 0.462722 (Simulation time: 0 hr 8 min 53 sec) 
Heartbeat CPU 0 instructions: 126000000 cycles: 271590553 heartbeat IPC: 1.81305 cumulative IPC: 0.465712 (Simulation time: 0 hr 8 min 57 sec) 
Heartbeat CPU 0 instructions: 127000000 cycles: 272984291 heartbeat IPC: 0.717495 cumulative IPC: 0.467113 (Simulation time: 0 hr 8 min 59 sec) 
Heartbeat CPU 0 instructions: 128000000 cycles: 275928868 heartbeat IPC: 0.339607 cumulative IPC: 0.465632 (Simulation time: 0 hr 9 min 4 sec) 
Heartbeat CPU 0 instructions: 129000001 cycles: 278512858 heartbeat IPC: 0.386999 cumulative IPC: 0.464838 (Simulation time: 0 hr 9 min 8 sec) 
Heartbeat CPU 0 instructions: 130000001 cycles: 280852597 heartbeat IPC: 0.427398 cumulative IPC: 0.464499 (Simulation time: 0 hr 9 min 12 sec) 
Heartbeat CPU 0 instructions: 131000000 cycles: 283171755 heartbeat IPC: 0.431191 cumulative IPC: 0.464202 (Simulation time: 0 hr 9 min 17 sec) 
Heartbeat CPU 0 instructions: 132000000 cycles: 285553615 heartbeat IPC: 0.41984 cumulative IPC: 0.463801 (Simulation time: 0 hr 9 min 22 sec) 
Heartbeat CPU 0 instructions: 133000001 cycles: 287940340 heartbeat IPC: 0.418985 cumulative IPC: 0.463398 (Simulation time: 0 hr 9 min 25 sec) 
Heartbeat CPU 0 instructions: 134000000 cycles: 290255794 heartbeat IPC: 0.43188 cumulative IPC: 0.463125 (Simulation time: 0 hr 9 min 29 sec) 
Heartbeat CPU 0 instructions: 135000000 cycles: 292580993 heartbeat IPC: 0.430071 cumulative IPC: 0.462841 (Simulation time: 0 hr 9 min 32 sec) 
Heartbeat CPU 0 instructions: 136000000 cycles: 294878073 heartbeat IPC: 0.435335 cumulative IPC: 0.462609 (Simulation time: 0 hr 9 min 36 sec) 
Heartbeat CPU 0 instructions: 137000000 cycles: 297205997 heartbeat IPC: 0.429567 cumulative IPC: 0.462329 (Simulation time: 0 hr 9 min 40 sec) 
Heartbeat CPU 0 instructions: 138000002 cycles: 300009279 heartbeat IPC: 0.356725 cumulative IPC: 0.461262 (Simulation time: 0 hr 9 min 45 sec) 
Heartbeat CPU 0 instructions: 139000001 cycles: 302269815 heartbeat IPC: 0.442373 cumulative IPC: 0.461109 (Simulation time: 0 hr 9 min 49 sec) 
Heartbeat CPU 0 instructions: 140000000 cycles: 305186087 heartbeat IPC: 0.342903 cumulative IPC: 0.45989 (Simulation time: 0 hr 9 min 53 sec) 
Heartbeat CPU 0 instructions: 141000000 cycles: 308098949 heartbeat IPC: 0.343305 cumulative IPC: 0.458701 (Simulation time: 0 hr 9 min 58 sec) 
Heartbeat CPU 0 instructions: 142000002 cycles: 310910624 heartbeat IPC: 0.355661 cumulative IPC: 0.457696 (Simulation time: 0 hr 10 min 2 sec) 
Heartbeat CPU 0 instructions: 143000000 cycles: 313249055 heartbeat IPC: 0.427636 cumulative IPC: 0.457454 (Simulation time: 0 hr 10 min 6 sec) 
Heartbeat CPU 0 instructions: 144000003 cycles: 315664457 heartbeat IPC: 0.414011 cumulative IPC: 0.457096 (Simulation time: 0 hr 10 min 10 sec) 
Heartbeat CPU 0 instructions: 145000000 cycles: 317982093 heartbeat IPC: 0.431473 cumulative IPC: 0.456895 (Simulation time: 0 hr 10 min 13 sec) 
Heartbeat CPU 0 instructions: 146000003 cycles: 320313244 heartbeat IPC: 0.428974 cumulative IPC: 0.456677 (Simulation time: 0 hr 10 min 15 sec) 
Heartbeat CPU 0 instructions: 147000001 cycles: 322661844 heartbeat IPC: 0.425785 cumulative IPC: 0.456435 (Simulation time: 0 hr 10 min 18 sec) 
Heartbeat CPU 0 instructions: 148000002 cycles: 325008115 heartbeat IPC: 0.426209 cumulative IPC: 0.456201 (Simulation time: 0 hr 10 min 20 sec) 
Heartbeat CPU 0 instructions: 149000000 cycles: 327342780 heartbeat IPC: 0.428326 cumulative IPC: 0.455987 (Simulation time: 0 hr 10 min 23 sec) 
Heartbeat CPU 0 instructions: 150000001 cycles: 331603985 heartbeat IPC: 0.234676 cumulative IPC: 0.452936 (Simulation time: 0 hr 10 min 28 sec) 
Heartbeat CPU 0 instructions: 151000002 cycles: 332285996 heartbeat IPC: 1.46625 cumulative IPC: 0.455167 (Simulation time: 0 hr 10 min 31 sec) 
Heartbeat CPU 0 instructions: 152000001 cycles: 332739521 heartbeat IPC: 2.20495 cumulative IPC: 0.457725 (Simulation time: 0 hr 10 min 33 sec) 
Heartbeat CPU 0 instructions: 153000000 cycles: 333187896 heartbeat IPC: 2.23027 cumulative IPC: 0.460283 (Simulation time: 0 hr 10 min 36 sec) 
Heartbeat CPU 0 instructions: 154000000 cycles: 333645582 heartbeat IPC: 2.1849 cumulative IPC: 0.46282 (Simulation time: 0 hr 10 min 39 sec) 
Heartbeat CPU 0 instructions: 155000000 cycles: 335212445 heartbeat IPC: 0.638218 cumulative IPC: 0.463699 (Simulation time: 0 hr 10 min 42 sec) 
Heartbeat CPU 0 instructions: 156000001 cycles: 338201701 heartbeat IPC: 0.334532 cumulative IPC: 0.462476 (Simulation time: 0 hr 10 min 44 sec) 
Heartbeat CPU 0 instructions: 157000002 cycles: 340661611 heartbeat IPC: 0.406519 cumulative IPC: 0.462043 (Simulation time: 0 hr 10 min 47 sec) 
Heartbeat CPU 0 instructions: 158000001 cycles: 343016503 heartbeat IPC: 0.424648 cumulative IPC: 0.461769 (Simulation time: 0 hr 10 min 49 sec) 
Heartbeat CPU 0 instructions: 159000002 cycles: 345523716 heartbeat IPC: 0.39885 cumulative IPC: 0.46128 (Simulation time: 0 hr 10 min 52 sec) 
Heartbeat CPU 0 instructions: 160000000 cycles: 347854395 heartbeat IPC: 0.429059 cumulative IPC: 0.461049 (Simulation time: 0 hr 10 min 56 sec) 
Heartbeat CPU 0 instructions: 161000001 cycles: 350201340 heartbeat IPC: 0.426086 cumulative IPC: 0.460799 (Simulation time: 0 hr 10 min 59 sec) 
Heartbeat CPU 0 instructions: 162000000 cycles: 352539679 heartbeat IPC: 0.427654 cumulative IPC: 0.460564 (Simulation time: 0 hr 11 min 2 sec) 
Heartbeat CPU 0 instructions: 163000001 cycles: 354886874 heartbeat IPC: 0.426041 cumulative IPC: 0.46032 (Simulation time: 0 hr 11 min 5 sec) 
Heartbeat CPU 0 instructions: 164000001 cycles: 357401795 heartbeat IPC: 0.397627 cumulative IPC: 0.459849 (Simulation time: 0 hr 11 min 9 sec) 
Heartbeat CPU 0 instructions: 165000000 cycles: 359745212 heartbeat IPC: 0.426727 cumulative IPC: 0.459619 (Simulation time: 0 hr 11 min 13 sec) 
Heartbeat CPU 0 instructions: 166000000 cycles: 362257405 heartbeat IPC: 0.398059 cumulative IPC: 0.459164 (Simulation time: 0 hr 11 min 17 sec) 
Heartbeat CPU 0 instructions: 167000001 cycles: 364789708 heartbeat IPC: 0.394898 cumulative IPC: 0.458689 (Simulation time: 0 hr 11 min 21 sec) 
Heartbeat CPU 0 instructions: 168000002 cycles: 367707725 heartbeat IPC: 0.342699 cumulative IPC: 0.457708 (Simulation time: 0 hr 11 min 25 sec) 
Heartbeat CPU 0 instructions: 169000000 cycles: 370583452 heartbeat IPC: 0.347737 cumulative IPC: 0.4568 (Simulation time: 0 hr 11 min 30 sec) 
Heartbeat CPU 0 instructions: 170000003 cycles: 373363770 heartbeat IPC: 0.359672 cumulative IPC: 0.45603 (Simulation time: 0 hr 11 min 34 sec) 
Heartbeat CPU 0 instructions: 171000002 cycles: 375764050 heartbeat IPC: 0.416618 cumulative IPC: 0.455762 (Simulation time: 0 hr 11 min 38 sec) 
Heartbeat CPU 0 instructions: 172000000 cycles: 378136477 heartbeat IPC: 0.421508 cumulative IPC: 0.455534 (Simulation time: 0 hr 11 min 41 sec) 
Heartbeat CPU 0 instructions: 173000001 cycles: 380476057 heartbeat IPC: 0.427428 cumulative IPC: 0.45535 (Simulation time: 0 hr 11 min 45 sec) 
Heartbeat CPU 0 instructions: 174000001 cycles: 382827922 heartbeat IPC: 0.425194 cumulative IPC: 0.455153 (Simulation time: 0 hr 11 min 49 sec) 
Heartbeat CPU 0 instructions: 175000000 cycles: 385197738 heartbeat IPC: 0.421973 cumulative IPC: 0.454936 (Simulation time: 0 hr 11 min 52 sec) 
Heartbeat CPU 0 instructions: 176000000 cycles: 387637447 heartbeat IPC: 0.409885 cumulative IPC: 0.454635 (Simulation time: 0 hr 11 min 57 sec) 
Heartbeat CPU 0 instructions: 177000002 cycles: 389994186 heartbeat IPC: 0.424316 cumulative IPC: 0.454441 (Simulation time: 0 hr 12 min 0 sec) 
Heartbeat CPU 0 instructions: 178000001 cycles: 394275895 heartbeat IPC: 0.233551 cumulative IPC: 0.451897 (Simulation time: 0 hr 12 min 5 sec) 
Heartbeat CPU 0 instructions: 179000001 cycles: 394774936 heartbeat IPC: 2.00384 cumulative IPC: 0.453977 (Simulation time: 0 hr 12 min 8 sec) 
Heartbeat CPU 0 instructions: 180000002 cycles: 395228045 heartbeat IPC: 2.20698 cumulative IPC: 0.456108 (Simulation time: 0 hr 12 min 11 sec) 
Heartbeat CPU 0 instructions: 181000000 cycles: 395677330 heartbeat IPC: 2.22575 cumulative IPC: 0.458239 (Simulation time: 0 hr 12 min 14 sec) 
Heartbeat CPU 0 instructions: 182000001 cycles: 396135118 heartbeat IPC: 2.18442 cumulative IPC: 0.460354 (Simulation time: 0 hr 12 min 17 sec) 
Heartbeat CPU 0 instructions: 183000001 cycles: 397757850 heartbeat IPC: 0.616245 cumulative IPC: 0.461028 (Simulation time: 0 hr 12 min 20 sec) 
Heartbeat CPU 0 instructions: 184000000 cycles: 400786866 heartbeat IPC: 0.33014 cumulative IPC: 0.45998 (Simulation time: 0 hr 12 min 24 sec) 
Heartbeat CPU 0 instructions: 185000003 cycles: 403429146 heartbeat IPC: 0.378462 cumulative IPC: 0.459415 (Simulation time: 0 hr 12 min 29 sec) 
Heartbeat CPU 0 instructions: 186000002 cycles: 405796474 heartbeat IPC: 0.422417 cumulative IPC: 0.459186 (Simulation time: 0 hr 12 min 32 sec) 
Heartbeat CPU 0 instructions: 187000000 cycles: 408178826 heartbeat IPC: 0.419752 cumulative IPC: 0.458943 (Simulation time: 0 hr 12 min 36 sec) 
Heartbeat CPU 0 instructions: 188000000 cycles: 410536908 heartbeat IPC: 0.424073 cumulative IPC: 0.458731 (Simulation time: 0 hr 12 min 40 sec) 
Heartbeat CPU 0 instructions: 189000000 cycles: 412876431 heartbeat IPC: 0.427438 cumulative IPC: 0.458543 (Simulation time: 0 hr 12 min 44 sec) 
Heartbeat CPU 0 instructions: 190000000 cycles: 415431938 heartbeat IPC: 0.391312 cumulative IPC: 0.458106 (Simulation time: 0 hr 12 min 48 sec) 
Heartbeat CPU 0 instructions: 191000002 cycles: 417777990 heartbeat IPC: 0.426249 cumulative IPC: 0.457917 (Simulation time: 0 hr 12 min 52 sec) 
Heartbeat CPU 0 instructions: 192000002 cycles: 420112367 heartbeat IPC: 0.42838 cumulative IPC: 0.457743 (Simulation time: 0 hr 12 min 56 sec) 
Heartbeat CPU 0 instructions: 193000000 cycles: 422474570 heartbeat IPC: 0.423333 cumulative IPC: 0.45754 (Simulation time: 0 hr 12 min 59 sec) 
Heartbeat CPU 0 instructions: 194000000 cycles: 424865746 heartbeat IPC: 0.418204 cumulative IPC: 0.457306 (Simulation time: 0 hr 13 min 3 sec) 
Heartbeat CPU 0 instructions: 195000000 cycles: 427397342 heartbeat IPC: 0.395008 cumulative IPC: 0.456917 (Simulation time: 0 hr 13 min 7 sec) 
Heartbeat CPU 0 instructions: 196000001 cycles: 429943369 heartbeat IPC: 0.392769 cumulative IPC: 0.456516 (Simulation time: 0 hr 13 min 11 sec) 
Heartbeat CPU 0 instructions: 197000002 cycles: 432846341 heartbeat IPC: 0.344475 cumulative IPC: 0.455723 (Simulation time: 0 hr 13 min 15 sec) 
Heartbeat CPU 0 instructions: 198000000 cycles: 435743274 heartbeat IPC: 0.345192 cumulative IPC: 0.454948 (Simulation time: 0 hr 13 min 19 sec) 
Heartbeat CPU 0 instructions: 199000002 cycles: 438610528 heartbeat IPC: 0.348766 cumulative IPC: 0.454217 (Simulation time: 0 hr 13 min 23 sec) 
Heartbeat CPU 0 instructions: 200000000 cycles: 440998250 heartbeat IPC: 0.418808 cumulative IPC: 0.454015 (Simulation time: 0 hr 13 min 28 sec) 
Heartbeat CPU 0 instructions: 201000001 cycles: 443369917 heartbeat IPC: 0.421645 cumulative IPC: 0.453832 (Simulation time: 0 hr 13 min 31 sec) 
Heartbeat CPU 0 instructions: 202000001 cycles: 445847800 heartbeat IPC: 0.40357 cumulative IPC: 0.453538 (Simulation time: 0 hr 13 min 35 sec) 
Heartbeat CPU 0 instructions: 203000001 cycles: 448206678 heartbeat IPC: 0.42393 cumulative IPC: 0.453374 (Simulation time: 0 hr 13 min 39 sec) 
Heartbeat CPU 0 instructions: 204000000 cycles: 450588681 heartbeat IPC: 0.419814 cumulative IPC: 0.453187 (Simulation time: 0 hr 13 min 43 sec) 
Heartbeat CPU 0 instructions: 205000003 cycles: 452936958 heartbeat IPC: 0.425845 cumulative IPC: 0.453038 (Simulation time: 0 hr 13 min 47 sec) 
Heartbeat CPU 0 instructions: 206000001 cycles: 457209208 heartbeat IPC: 0.234068 cumulative IPC: 0.450886 (Simulation time: 0 hr 13 min 52 sec) 
Heartbeat CPU 0 instructions: 207000000 cycles: 457709873 heartbeat IPC: 1.99734 cumulative IPC: 0.452665 (Simulation time: 0 hr 13 min 55 sec) 
Heartbeat CPU 0 instructions: 208000002 cycles: 458170732 heartbeat IPC: 2.16987 cumulative IPC: 0.454482 (Simulation time: 0 hr 13 min 57 sec) 
Heartbeat CPU 0 instructions: 209000000 cycles: 458620085 heartbeat IPC: 2.22542 cumulative IPC: 0.456306 (Simulation time: 0 hr 14 min 0 sec) 
Heartbeat CPU 0 instructions: 210000002 cycles: 459264661 heartbeat IPC: 1.55141 cumulative IPC: 0.457923 (Simulation time: 0 hr 14 min 3 sec) 
Heartbeat CPU 0 instructions: 211000001 cycles: 460131893 heartbeat IPC: 1.15309 cumulative IPC: 0.4593 (Simulation time: 0 hr 14 min 6 sec) 
Heartbeat CPU 0 instructions: 212000000 cycles: 463134487 heartbeat IPC: 0.333045 cumulative IPC: 0.45844 (Simulation time: 0 hr 14 min 10 sec) 
Heartbeat CPU 0 instructions: 213000000 cycles: 466129408 heartbeat IPC: 0.333899 cumulative IPC: 0.457599 (Simulation time: 0 hr 14 min 14 sec) 
Heartbeat CPU 0 instructions: 214000002 cycles: 468757050 heartbeat IPC: 0.38057 cumulative IPC: 0.457145 (Simulation time: 0 hr 14 min 17 sec) 
Heartbeat CPU 0 instructions: 215000002 cycles: 471136379 heartbeat IPC: 0.420287 cumulative IPC: 0.45695 (Simulation time: 0 hr 14 min 21 sec) 
Heartbeat CPU 0 instructions: 216000000 cycles: 473524680 heartbeat IPC: 0.418707 cumulative IPC: 0.456747 (Simulation time: 0 hr 14 min 25 sec) 
Heartbeat CPU 0 instructions: 217000000 cycles: 476075454 heartbeat IPC: 0.392038 cumulative IPC: 0.456384 (Simulation time: 0 hr 14 min 29 sec) 
Heartbeat CPU 0 instructions: 218000002 cycles: 478440197 heartbeat IPC: 0.42288 cumulative IPC: 0.45621 (Simulation time: 0 hr 14 min 33 sec) 
Heartbeat CPU 0 instructions: 219000000 cycles: 480830702 heartbeat IPC: 0.418321 cumulative IPC: 0.456012 (Simulation time: 0 hr 14 min 36 sec) 
Heartbeat CPU 0 instructions: 220000000 cycles: 483220525 heartbeat IPC: 0.418441 cumulative IPC: 0.455817 (Simulation time: 0 hr 14 min 40 sec) 
Heartbeat CPU 0 instructions: 221000003 cycles: 485591187 heartbeat IPC: 0.421824 cumulative IPC: 0.455643 (Simulation time: 0 hr 14 min 44 sec) 
Heartbeat CPU 0 instructions: 222000000 cycles: 488046303 heartbeat IPC: 0.407311 cumulative IPC: 0.455388 (Simulation time: 0 hr 14 min 49 sec) 
Heartbeat CPU 0 instructions: 223000002 cycles: 490448668 heartbeat IPC: 0.416257 cumulative IPC: 0.455187 (Simulation time: 0 hr 14 min 53 sec) 
Heartbeat CPU 0 instructions: 224000000 cycles: 492833078 heartbeat IPC: 0.41939 cumulative IPC: 0.455006 (Simulation time: 0 hr 14 min 56 sec) 
Heartbeat CPU 0 instructions: 225000002 cycles: 495585170 heartbeat IPC: 0.363361 cumulative IPC: 0.454473 (Simulation time: 0 hr 15 min 1 sec) 
Heartbeat CPU 0 instructions: 226000001 cycles: 498460603 heartbeat IPC: 0.347773 cumulative IPC: 0.453828 (Simulation time: 0 hr 15 min 5 sec) 
Heartbeat CPU 0 instructions: 227000001 cycles: 501311636 heartbeat IPC: 0.35075 cumulative IPC: 0.453214 (Simulation time: 0 hr 15 min 9 sec) 
Heartbeat CPU 0 instructions: 228000001 cycles: 503483778 heartbeat IPC: 0.460375 cumulative IPC: 0.453247 (Simulation time: 0 hr 15 min 14 sec) 
Heartbeat CPU 0 instructions: 229000000 cycles: 506405087 heartbeat IPC: 0.342312 cumulative IPC: 0.452577 (Simulation time: 0 hr 15 min 18 sec) 
Heartbeat CPU 0 instructions: 230000000 cycles: 509072310 heartbeat IPC: 0.374922 cumulative IPC: 0.452151 (Simulation time: 0 hr 15 min 22 sec) 
Heartbeat CPU 0 instructions: 231000000 cycles: 511426834 heartbeat IPC: 0.424714 cumulative IPC: 0.452019 (Simulation time: 0 hr 15 min 26 sec) 
Heartbeat CPU 0 instructions: 232000000 cycles: 513817107 heartbeat IPC: 0.418362 cumulative IPC: 0.451856 (Simulation time: 0 hr 15 min 30 sec) 
Heartbeat CPU 0 instructions: 233000000 cycles: 516207637 heartbeat IPC: 0.418317 cumulative IPC: 0.451693 (Simulation time: 0 hr 15 min 34 sec) 
Heartbeat CPU 0 instructions: 234000001 cycles: 520051554 heartbeat IPC: 0.260152 cumulative IPC: 0.450213 (Simulation time: 0 hr 15 min 39 sec) 
Heartbeat CPU 0 instructions: 235000000 cycles: 521231358 heartbeat IPC: 0.847598 cumulative IPC: 0.451153 (Simulation time: 0 hr 15 min 42 sec) 
Heartbeat CPU 0 instructions: 236000002 cycles: 521685447 heartbeat IPC: 2.20222 cumulative IPC: 0.452746 (Simulation time: 0 hr 15 min 45 sec) 
Heartbeat CPU 0 instructions: 237000000 cycles: 522143529 heartbeat IPC: 2.18301 cumulative IPC: 0.454333 (Simulation time: 0 hr 15 min 47 sec) 
Heartbeat CPU 0 instructions: 238000003 cycles: 522594547 heartbeat IPC: 2.21721 cumulative IPC: 0.455923 (Simulation time: 0 hr 15 min 50 sec) 
Heartbeat CPU 0 instructions: 239000000 cycles: 523063839 heartbeat IPC: 2.13086 cumulative IPC: 0.457493 (Simulation time: 0 hr 15 min 53 sec) 
Heartbeat CPU 0 instructions: 240000000 cycles: 525874639 heartbeat IPC: 0.355771 cumulative IPC: 0.456925 (Simulation time: 0 hr 15 min 57 sec) 
Heartbeat CPU 0 instructions: 241000000 cycles: 528867948 heartbeat IPC: 0.334078 cumulative IPC: 0.456199 (Simulation time: 0 hr 16 min 1 sec) 
Heartbeat CPU 0 instructions: 242000000 cycles: 531839415 heartbeat IPC: 0.336534 cumulative IPC: 0.455501 (Simulation time: 0 hr 16 min 6 sec) 
Heartbeat CPU 0 instructions: 243000002 cycles: 534478208 heartbeat IPC: 0.378962 cumulative IPC: 0.455106 (Simulation time: 0 hr 16 min 10 sec) 
Heartbeat CPU 0 instructions: 244000003 cycles: 537058267 heartbeat IPC: 0.387588 cumulative IPC: 0.454767 (Simulation time: 0 hr 16 min 14 sec) 
Heartbeat CPU 0 instructions: 245000001 cycles: 539429688 heartbeat IPC: 0.421687 cumulative IPC: 0.454616 (Simulation time: 0 hr 16 min 18 sec) 
Heartbeat CPU 0 instructions: 246000000 cycles: 541821450 heartbeat IPC: 0.418101 cumulative IPC: 0.454448 (Simulation time: 0 hr 16 min 22 sec) 
Heartbeat CPU 0 instructions: 247000000 cycles: 544209924 heartbeat IPC: 0.418677 cumulative IPC: 0.454284 (Simulation time: 0 hr 16 min 25 sec) 
Heartbeat CPU 0 instructions: 248000003 cycles: 546778939 heartbeat IPC: 0.389255 cumulative IPC: 0.453965 (Simulation time: 0 hr 16 min 30 sec) 
Heartbeat CPU 0 instructions: 249000001 cycles: 549163061 heartbeat IPC: 0.419441 cumulative IPC: 0.453809 (Simulation time: 0 hr 16 min 33 sec) 
Heartbeat CPU 0 instructions: 250000000 cycles: 551544833 heartbeat IPC: 0.419855 cumulative IPC: 0.453656 (Simulation time: 0 hr 16 min 38 sec) 
Heartbeat CPU 0 instructions: 251000000 cycles: 553972569 heartbeat IPC: 0.411906 cumulative IPC: 0.453465 (Simulation time: 0 hr 16 min 41 sec) 
Heartbeat CPU 0 instructions: 252000003 cycles: 556366296 heartbeat IPC: 0.41776 cumulative IPC: 0.453305 (Simulation time: 0 hr 16 min 46 sec) 
Heartbeat CPU 0 instructions: 253000000 cycles: 558766951 heartbeat IPC: 0.416552 cumulative IPC: 0.453141 (Simulation time: 0 hr 16 min 50 sec) 
Heartbeat CPU 0 instructions: 254000000 cycles: 561349669 heartbeat IPC: 0.387189 cumulative IPC: 0.452825 (Simulation time: 0 hr 16 min 53 sec) 
Heartbeat CPU 0 instructions: 255000003 cycles: 563724666 heartbeat IPC: 0.421054 cumulative IPC: 0.452685 (Simulation time: 0 hr 16 min 57 sec) 
Heartbeat CPU 0 instructions: 256000002 cycles: 566211951 heartbeat IPC: 0.402044 cumulative IPC: 0.452453 (Simulation time: 0 hr 17 min 1 sec) 
Heartbeat CPU 0 instructions: 257000000 cycles: 569153888 heartbeat IPC: 0.339911 cumulative IPC: 0.451848 (Simulation time: 0 hr 17 min 5 sec) 
Heartbeat CPU 0 instructions: 258000001 cycles: 572076256 heartbeat IPC: 0.342189 cumulative IPC: 0.451265 (Simulation time: 0 hr 17 min 10 sec) 
Heartbeat CPU 0 instructions: 259000001 cycles: 574979655 heartbeat IPC: 0.344424 cumulative IPC: 0.450703 (Simulation time: 0 hr 17 min 14 sec) 
Heartbeat CPU 0 instructions: 260000001 cycles: 577684653 heartbeat IPC: 0.369686 cumulative IPC: 0.450308 (Simulation time: 0 hr 17 min 19 sec) 
Heartbeat CPU 0 instructions: 261000000 cycles: 580114806 heartbeat IPC: 0.411496 cumulative IPC: 0.450139 (Simulation time: 0 hr 17 min 23 sec) 
Heartbeat CPU 0 instructions: 262000001 cycles: 582571866 heartbeat IPC: 0.406991 cumulative IPC: 0.44995 (Simulation time: 0 hr 17 min 28 sec) 
Heartbeat CPU 0 instructions: 263000000 cycles: 585007982 heartbeat IPC: 0.410489 cumulative IPC: 0.449779 (Simulation time: 0 hr 17 min 32 sec) 
Heartbeat CPU 0 instructions: 264000000 cycles: 585477992 heartbeat IPC: 2.12761 cumulative IPC: 0.45118 (Simulation time: 0 hr 17 min 35 sec) 
Heartbeat CPU 0 instructions: 265000002 cycles: 585930889 heartbeat IPC: 2.20801 cumulative IPC: 0.452592 (Simulation time: 0 hr 17 min 38 sec) 
Heartbeat CPU 0 instructions: 266000002 cycles: 586390417 heartbeat IPC: 2.17615 cumulative IPC: 0.453997 (Simulation time: 0 hr 17 min 41 sec) 
Heartbeat CPU 0 instructions: 267000001 cycles: 586838224 heartbeat IPC: 2.2331 cumulative IPC: 0.455408 (Simulation time: 0 hr 17 min 43 sec) 
Heartbeat CPU 0 instructions: 268000002 cycles: 589266456 heartbeat IPC: 0.411823 cumulative IPC: 0.455222 (Simulation time: 0 hr 17 min 46 sec) 
Heartbeat CPU 0 instructions: 269000002 cycles: 591846737 heartbeat IPC: 0.387555 cumulative IPC: 0.454915 (Simulation time: 0 hr 17 min 51 sec) 
Heartbeat CPU 0 instructions: 270000000 cycles: 594365735 heartbeat IPC: 0.396982 cumulative IPC: 0.45466 (Simulation time: 0 hr 17 min 55 sec) 
Heartbeat CPU 0 instructions: 271000000 cycles: 597326435 heartbeat IPC: 0.337758 cumulative IPC: 0.454058 (Simulation time: 0 hr 18 min 0 sec) 
Heartbeat CPU 0 instructions: 272000000 cycles: 600260326 heartbeat IPC: 0.340844 cumulative IPC: 0.453483 (Simulation time: 0 hr 18 min 4 sec) 
Heartbeat CPU 0 instructions: 273000002 cycles: 603206001 heartbeat IPC: 0.339481 cumulative IPC: 0.452904 (Simulation time: 0 hr 18 min 8 sec) 
Heartbeat CPU 0 instructions: 274000001 cycles: 605715034 heartbeat IPC: 0.39856 cumulative IPC: 0.452671 (Simulation time: 0 hr 18 min 13 sec) 
Heartbeat CPU 0 instructions: 275000000 cycles: 608186691 heartbeat IPC: 0.404586 cumulative IPC: 0.452468 (Simulation time: 0 hr 18 min 17 sec) 
Heartbeat CPU 0 instructions: 276000001 cycles: 610584404 heartbeat IPC: 0.417065 cumulative IPC: 0.452323 (Simulation time: 0 hr 18 min 21 sec) 
Heartbeat CPU 0 instructions: 277000003 cycles: 612988927 heartbeat IPC: 0.415884 cumulative IPC: 0.452175 (Simulation time: 0 hr 18 min 26 sec) 
Heartbeat CPU 0 instructions: 278000000 cycles: 615387331 heartbeat IPC: 0.416943 cumulative IPC: 0.452033 (Simulation time: 0 hr 18 min 30 sec) 
Heartbeat CPU 0 instructions: 279000001 cycles: 617818593 heartbeat IPC: 0.411309 cumulative IPC: 0.451866 (Simulation time: 0 hr 18 min 34 sec) 
Heartbeat CPU 0 instructions: 280000000 cycles: 620351002 heartbeat IPC: 0.394881 cumulative IPC: 0.451625 (Simulation time: 0 hr 18 min 39 sec) 
Heartbeat CPU 0 instructions: 281000000 cycles: 622740832 heartbeat IPC: 0.41844 cumulative IPC: 0.451493 (Simulation time: 0 hr 18 min 43 sec) 
Heartbeat CPU 0 instructions: 282000000 cycles: 625165027 heartbeat IPC: 0.412508 cumulative IPC: 0.451336 (Simulation time: 0 hr 18 min 47 sec) 
Heartbeat CPU 0 instructions: 283000001 cycles: 627582693 heartbeat IPC: 0.413622 cumulative IPC: 0.451185 (Simulation time: 0 hr 18 min 52 sec) 
Heartbeat CPU 0 instructions: 284000002 cycles: 629986548 heartbeat IPC: 0.415999 cumulative IPC: 0.451046 (Simulation time: 0 hr 18 min 55 sec) 
Heartbeat CPU 0 instructions: 285000000 cycles: 632399077 heartbeat IPC: 0.414502 cumulative IPC: 0.450901 (Simulation time: 0 hr 18 min 59 sec) 
Heartbeat CPU 0 instructions: 286000000 cycles: 635005170 heartbeat IPC: 0.383716 cumulative IPC: 0.450615 (Simulation time: 0 hr 19 min 4 sec) 
Heartbeat CPU 0 instructions: 287000001 cycles: 637591342 heartbeat IPC: 0.386672 cumulative IPC: 0.450347 (Simulation time: 0 hr 19 min 9 sec) 
Heartbeat CPU 0 instructions: 288000000 cycles: 640512253 heartbeat IPC: 0.342359 cumulative IPC: 0.449836 (Simulation time: 0 hr 19 min 13 sec) 
Heartbeat CPU 0 instructions: 289000000 cycles: 643410468 heartbeat IPC: 0.34504 cumulative IPC: 0.449347 (Simulation time: 0 hr 19 min 17 sec) 
Heartbeat CPU 0 instructions: 290000001 cycles: 646302933 heartbeat IPC: 0.345726 cumulative IPC: 0.448867 (Simulation time: 0 hr 19 min 22 sec) 
Heartbeat CPU 0 instructions: 291000001 cycles: 649030028 heartbeat IPC: 0.366691 cumulative IPC: 0.448509 (Simulation time: 0 hr 19 min 26 sec) 
Heartbeat CPU 0 instructions: 292000002 cycles: 649499825 heartbeat IPC: 2.12858 cumulative IPC: 0.449768 (Simulation time: 0 hr 19 min 29 sec) 
Heartbeat CPU 0 instructions: 293000001 cycles: 649959780 heartbeat IPC: 2.17412 cumulative IPC: 0.451032 (Simulation time: 0 hr 19 min 32 sec) 
Heartbeat CPU 0 instructions: 294000001 cycles: 650596371 heartbeat IPC: 1.57087 cumulative IPC: 0.452167 (Simulation time: 0 hr 19 min 36 sec) 
Heartbeat CPU 0 instructions: 295000002 cycles: 651047444 heartbeat IPC: 2.21694 cumulative IPC: 0.453433 (Simulation time: 0 hr 19 min 38 sec) 
Heartbeat CPU 0 instructions: 296000001 cycles: 653517901 heartbeat IPC: 0.404783 cumulative IPC: 0.453243 (Simulation time: 0 hr 19 min 43 sec) 
Heartbeat CPU 0 instructions: 297000000 cycles: 655910193 heartbeat IPC: 0.418009 cumulative IPC: 0.45311 (Simulation time: 0 hr 19 min 47 sec) 
Heartbeat CPU 0 instructions: 298000000 cycles: 658321380 heartbeat IPC: 0.414733 cumulative IPC: 0.452964 (Simulation time: 0 hr 19 min 51 sec) 
Heartbeat CPU 0 instructions: 299000000 cycles: 660726131 heartbeat IPC: 0.415843 cumulative IPC: 0.452824 (Simulation time: 0 hr 19 min 55 sec) 
Heartbeat CPU 0 instructions: 300000002 cycles: 663198991 heartbeat IPC: 0.404391 cumulative IPC: 0.452637 (Simulation time: 0 hr 19 min 59 sec) 
Heartbeat CPU 0 instructions: 301000001 cycles: 665785321 heartbeat IPC: 0.386648 cumulative IPC: 0.452372 (Simulation time: 0 hr 20 min 3 sec) 
Heartbeat CPU 0 instructions: 302000002 cycles: 668698145 heartbeat IPC: 0.34331 cumulative IPC: 0.45188 (Simulation time: 0 hr 20 min 7 sec) 
Heartbeat CPU 0 instructions: 303000001 cycles: 671636367 heartbeat IPC: 0.340342 cumulative IPC: 0.451376 (Simulation time: 0 hr 20 min 12 sec) 
Heartbeat CPU 0 instructions: 304000002 cycles: 674571891 heartbeat IPC: 0.340655 cumulative IPC: 0.450877 (Simulation time: 0 hr 20 min 17 sec) 
Heartbeat CPU 0 instructions: 305000002 cycles: 677184795 heartbeat IPC: 0.382716 cumulative IPC: 0.450605 (Simulation time: 0 hr 20 min 21 sec) 
Heartbeat CPU 0 instructions: 306000001 cycles: 679606675 heartbeat IPC: 0.412902 cumulative IPC: 0.450466 (Simulation time: 0 hr 20 min 25 sec) 
Heartbeat CPU 0 instructions: 307000001 cycles: 682131713 heartbeat IPC: 0.396034 cumulative IPC: 0.450258 (Simulation time: 0 hr 20 min 29 sec) 
Heartbeat CPU 0 instructions: 308000000 cycles: 684525475 heartbeat IPC: 0.417752 cumulative IPC: 0.45014 (Simulation time: 0 hr 20 min 33 sec) 
Heartbeat CPU 0 instructions: 309000003 cycles: 686961222 heartbeat IPC: 0.410553 cumulative IPC: 0.449995 (Simulation time: 0 hr 20 min 37 sec) 
Heartbeat CPU 0 instructions: 310000002 cycles: 689376842 heartbeat IPC: 0.413972 cumulative IPC: 0.449865 (Simulation time: 0 hr 20 min 41 sec) 
Heartbeat CPU 0 instructions: 311000002 cycles: 691775894 heartbeat IPC: 0.416831 cumulative IPC: 0.449746 (Simulation time: 0 hr 20 min 45 sec) 
Heartbeat CPU 0 instructions: 312000000 cycles: 694412008 heartbeat IPC: 0.379346 cumulative IPC: 0.44947 (Simulation time: 0 hr 20 min 49 sec) 
Heartbeat CPU 0 instructions: 313000000 cycles: 696837601 heartbeat IPC: 0.41227 cumulative IPC: 0.449336 (Simulation time: 0 hr 20 min 53 sec) 
Heartbeat CPU 0 instructions: 314000002 cycles: 699246958 heartbeat IPC: 0.415049 cumulative IPC: 0.449214 (Simulation time: 0 hr 20 min 57 sec) 
Heartbeat CPU 0 instructions: 315000003 cycles: 701671024 heartbeat IPC: 0.41253 cumulative IPC: 0.449083 (Simulation time: 0 hr 21 min 1 sec) 
Heartbeat CPU 0 instructions: 316000001 cycles: 704081919 heartbeat IPC: 0.414783 cumulative IPC: 0.448962 (Simulation time: 0 hr 21 min 5 sec) 
Heartbeat CPU 0 instructions: 317000000 cycles: 706507902 heartbeat IPC: 0.412204 cumulative IPC: 0.448832 (Simulation time: 0 hr 21 min 9 sec) 
Heartbeat CPU 0 instructions: 318000001 cycles: 709196571 heartbeat IPC: 0.371932 cumulative IPC: 0.44853 (Simulation time: 0 hr 21 min 13 sec) 
Heartbeat CPU 0 instructions: 319000000 cycles: 713606284 heartbeat IPC: 0.226772 cumulative IPC: 0.447115 (Simulation time: 0 hr 21 min 19 sec) 
Heartbeat CPU 0 instructions: 320000000 cycles: 714092302 heartbeat IPC: 2.05754 cumulative IPC: 0.448247 (Simulation time: 0 hr 21 min 22 sec) 
Heartbeat CPU 0 instructions: 321000000 cycles: 714551839 heartbeat IPC: 2.1761 cumulative IPC: 0.449395 (Simulation time: 0 hr 21 min 24 sec) 
Heartbeat CPU 0 instructions: 322000001 cycles: 715012267 heartbeat IPC: 2.17189 cumulative IPC: 0.45054 (Simulation time: 0 hr 21 min 27 sec) 
Heartbeat CPU 0 instructions: 323000001 cycles: 715474147 heartbeat IPC: 2.16506 cumulative IPC: 0.451683 (Simulation time: 0 hr 21 min 30 sec) 
Heartbeat CPU 0 instructions: 324000002 cycles: 717197167 heartbeat IPC: 0.580377 cumulative IPC: 0.452002 (Simulation time: 0 hr 21 min 34 sec) 
Heartbeat CPU 0 instructions: 325000000 cycles: 720385332 heartbeat IPC: 0.313659 cumulative IPC: 0.45137 (Simulation time: 0 hr 21 min 38 sec) 
Heartbeat CPU 0 instructions: 326000002 cycles: 722945960 heartbeat IPC: 0.39053 cumulative IPC: 0.451147 (Simulation time: 0 hr 21 min 42 sec) 
Heartbeat CPU 0 instructions: 327000000 cycles: 725354700 heartbeat IPC: 0.415154 cumulative IPC: 0.451024 (Simulation time: 0 hr 21 min 47 sec) 
Heartbeat CPU 0 instructions: 328000002 cycles: 727763729 heartbeat IPC: 0.415106 cumulative IPC: 0.450901 (Simulation time: 0 hr 21 min 50 sec) 
Heartbeat CPU 0 instructions: 329000000 cycles: 730213564 heartbeat IPC: 0.40819 cumulative IPC: 0.450753 (Simulation time: 0 hr 21 min 54 sec) 
Heartbeat CPU 0 instructions: 330000000 cycles: 734624192 heartbeat IPC: 0.226725 cumulative IPC: 0.449366 (Simulation time: 0 hr 22 min 0 sec) 
Heartbeat CPU 0 instructions: 331000001 cycles: 737091060 heartbeat IPC: 0.405373 cumulative IPC: 0.449214 (Simulation time: 0 hr 22 min 4 sec) 
Heartbeat CPU 0 instructions: 332000003 cycles: 739676313 heartbeat IPC: 0.38681 cumulative IPC: 0.448989 (Simulation time: 0 hr 22 min 8 sec) 
Heartbeat CPU 0 instructions: 333000001 cycles: 742083749 heartbeat IPC: 0.415379 cumulative IPC: 0.448877 (Simulation time: 0 hr 22 min 12 sec) 
Heartbeat CPU 0 instructions: 334000001 cycles: 744528757 heartbeat IPC: 0.408997 cumulative IPC: 0.448742 (Simulation time: 0 hr 22 min 16 sec) 
Heartbeat CPU 0 instructions: 335000000 cycles: 748912291 heartbeat IPC: 0.228126 cumulative IPC: 0.44741 (Simulation time: 0 hr 22 min 22 sec) 
Heartbeat CPU 0 instructions: 336000000 cycles: 751380413 heartbeat IPC: 0.405166 cumulative IPC: 0.447267 (Simulation time: 0 hr 22 min 25 sec) 
Heartbeat CPU 0 instructions: 337000000 cycles: 753817487 heartbeat IPC: 0.410328 cumulative IPC: 0.447144 (Simulation time: 0 hr 22 min 29 sec) 
Heartbeat CPU 0 instructions: 338000003 cycles: 756471072 heartbeat IPC: 0.37685 cumulative IPC: 0.44689 (Simulation time: 0 hr 22 min 35 sec) 
Heartbeat CPU 0 instructions: 339000001 cycles: 758888820 heartbeat IPC: 0.413607 cumulative IPC: 0.446781 (Simulation time: 0 hr 22 min 39 sec) 
Heartbeat CPU 0 instructions: 340000000 cycles: 763258515 heartbeat IPC: 0.228849 cumulative IPC: 0.445495 (Simulation time: 0 hr 22 min 44 sec) 
Heartbeat CPU 0 instructions: 341000000 cycles: 765715040 heartbeat IPC: 0.407079 cumulative IPC: 0.445368 (Simulation time: 0 hr 22 min 49 sec) 
Heartbeat CPU 0 instructions: 342000002 cycles: 768165687 heartbeat IPC: 0.408056 cumulative IPC: 0.445245 (Simulation time: 0 hr 22 min 53 sec) 
Heartbeat CPU 0 instructions: 343000000 cycles: 770586566 heartbeat IPC: 0.413072 cumulative IPC: 0.445141 (Simulation time: 0 hr 22 min 57 sec) 
Heartbeat CPU 0 instructions: 344000003 cycles: 773147734 heartbeat IPC: 0.390448 cumulative IPC: 0.444955 (Simulation time: 0 hr 23 min 2 sec) 
Heartbeat CPU 0 instructions: 345000000 cycles: 777515313 heartbeat IPC: 0.228959 cumulative IPC: 0.443705 (Simulation time: 0 hr 23 min 7 sec) 
Heartbeat CPU 0 instructions: 346000001 cycles: 777995060 heartbeat IPC: 2.08443 cumulative IPC: 0.444747 (Simulation time: 0 hr 23 min 10 sec) 
Heartbeat CPU 0 instructions: 347000003 cycles: 778450995 heartbeat IPC: 2.1933 cumulative IPC: 0.445802 (Simulation time: 0 hr 23 min 13 sec) 
Heartbeat CPU 0 instructions: 348000000 cycles: 778908992 heartbeat IPC: 2.18341 cumulative IPC: 0.446854 (Simulation time: 0 hr 23 min 16 sec) 
Heartbeat CPU 0 instructions: 349000003 cycles: 779363455 heartbeat IPC: 2.20041 cumulative IPC: 0.447907 (Simulation time: 0 hr 23 min 19 sec) 
Heartbeat CPU 0 instructions: 350000000 cycles: 781902163 heartbeat IPC: 0.3939 cumulative IPC: 0.447726 (Simulation time: 0 hr 23 min 23 sec) 
Heartbeat CPU 0 instructions: 351000002 cycles: 784351618 heartbeat IPC: 0.408255 cumulative IPC: 0.447599 (Simulation time: 0 hr 23 min 28 sec) 
Heartbeat CPU 0 instructions: 352000000 cycles: 786946276 heartbeat IPC: 0.385406 cumulative IPC: 0.447388 (Simulation time: 0 hr 23 min 32 sec) 
Heartbeat CPU 0 instructions: 353000003 cycles: 789356256 heartbeat IPC: 0.414942 cumulative IPC: 0.447286 (Simulation time: 0 hr 23 min 36 sec) 
Heartbeat CPU 0 instructions: 354000000 cycles: 792041810 heartbeat IPC: 0.372362 cumulative IPC: 0.447025 (Simulation time: 0 hr 23 min 41 sec) 
Heartbeat CPU 0 instructions: 355000002 cycles: 795164240 heartbeat IPC: 0.320264 cumulative IPC: 0.446513 (Simulation time: 0 hr 23 min 45 sec) 
Heartbeat CPU 0 instructions: 356000001 cycles: 798284327 heartbeat IPC: 0.320504 cumulative IPC: 0.446006 (Simulation time: 0 hr 23 min 50 sec) 
Heartbeat CPU 0 instructions: 357000002 cycles: 801118412 heartbeat IPC: 0.352848 cumulative IPC: 0.445667 (Simulation time: 0 hr 23 min 55 sec) 
Heartbeat CPU 0 instructions: 358000000 cycles: 803720919 heartbeat IPC: 0.384244 cumulative IPC: 0.445462 (Simulation time: 0 hr 24 min 0 sec) 
Heartbeat CPU 0 instructions: 359000001 cycles: 806185176 heartbeat IPC: 0.405802 cumulative IPC: 0.445337 (Simulation time: 0 hr 24 min 4 sec) 
Heartbeat CPU 0 instructions: 360000002 cycles: 808637450 heartbeat IPC: 0.407785 cumulative IPC: 0.44522 (Simulation time: 0 hr 24 min 8 sec) 
Heartbeat CPU 0 instructions: 361000000 cycles: 811133058 heartbeat IPC: 0.400703 cumulative IPC: 0.445079 (Simulation time: 0 hr 24 min 12 sec) 
Heartbeat CPU 0 instructions: 362000001 cycles: 813574252 heartbeat IPC: 0.409636 cumulative IPC: 0.44497 (Simulation time: 0 hr 24 min 17 sec) 
Heartbeat CPU 0 instructions: 363000000 cycles: 816187906 heartbeat IPC: 0.382606 cumulative IPC: 0.444765 (Simulation time: 0 hr 24 min 22 sec) 
Heartbeat CPU 0 instructions: 364000002 cycles: 818599299 heartbeat IPC: 0.414699 cumulative IPC: 0.444674 (Simulation time: 0 hr 24 min 26 sec) 
Heartbeat CPU 0 instructions: 365000002 cycles: 821055065 heartbeat IPC: 0.407205 cumulative IPC: 0.444558 (Simulation time: 0 hr 24 min 30 sec) 
Heartbeat CPU 0 instructions: 366000003 cycles: 825486969 heartbeat IPC: 0.225637 cumulative IPC: 0.44335 (Simulation time: 0 hr 24 min 36 sec) 
Heartbeat CPU 0 instructions: 367000000 cycles: 825955645 heartbeat IPC: 2.13366 cumulative IPC: 0.444336 (Simulation time: 0 hr 24 min 39 sec) 
Heartbeat CPU 0 instructions: 368000001 cycles: 826412936 heartbeat IPC: 2.18679 cumulative IPC: 0.445327 (Simulation time: 0 hr 24 min 42 sec) 
Heartbeat CPU 0 instructions: 369000001 cycles: 826864627 heartbeat IPC: 2.2139 cumulative IPC: 0.44632 (Simulation time: 0 hr 24 min 45 sec) 
Heartbeat CPU 0 instructions: 370000003 cycles: 827321811 heartbeat IPC: 2.18731 cumulative IPC: 0.447309 (Simulation time: 0 hr 24 min 48 sec) 
Heartbeat CPU 0 instructions: 371000003 cycles: 829810684 heartbeat IPC: 0.401788 cumulative IPC: 0.447169 (Simulation time: 0 hr 24 min 53 sec) 
Heartbeat CPU 0 instructions: 372000000 cycles: 832366512 heartbeat IPC: 0.391261 cumulative IPC: 0.446993 (Simulation time: 0 hr 24 min 57 sec) 
Heartbeat CPU 0 instructions: 373000001 cycles: 834834048 heartbeat IPC: 0.405263 cumulative IPC: 0.446866 (Simulation time: 0 hr 25 min 1 sec) 
Heartbeat CPU 0 instructions: 374000000 cycles: 837301936 heartbeat IPC: 0.405204 cumulative IPC: 0.44674 (Simulation time: 0 hr 25 min 6 sec) 
Heartbeat CPU 0 instructions: 375000001 cycles: 839769337 heartbeat IPC: 0.405285 cumulative IPC: 0.446614 (Simulation time: 0 hr 25 min 9 sec) 
Heartbeat CPU 0 instructions: 376000000 cycles: 842238601 heartbeat IPC: 0.404979 cumulative IPC: 0.446489 (Simulation time: 0 hr 25 min 14 sec) 
Heartbeat CPU 0 instructions: 377000002 cycles: 845160965 heartbeat IPC: 0.342189 cumulative IPC: 0.446119 (Simulation time: 0 hr 25 min 18 sec) 
Heartbeat CPU 0 instructions: 378000001 cycles: 847921807 heartbeat IPC: 0.362208 cumulative IPC: 0.445838 (Simulation time: 0 hr 25 min 23 sec) 
Heartbeat CPU 0 instructions: 379000001 cycles: 851026048 heartbeat IPC: 0.32214 cumulative IPC: 0.445374 (Simulation time: 0 hr 25 min 28 sec) 
Heartbeat CPU 0 instructions: 380000001 cycles: 854126298 heartbeat IPC: 0.322555 cumulative IPC: 0.444917 (Simulation time: 0 hr 25 min 33 sec) 
Heartbeat CPU 0 instructions: 381000000 cycles: 856623883 heartbeat IPC: 0.400386 cumulative IPC: 0.444783 (Simulation time: 0 hr 25 min 37 sec) 
Heartbeat CPU 0 instructions: 382000000 cycles: 859090397 heartbeat IPC: 0.40543 cumulative IPC: 0.444667 (Simulation time: 0 hr 25 min 41 sec) 
Heartbeat CPU 0 instructions: 383000003 cycles: 861538774 heartbeat IPC: 0.408435 cumulative IPC: 0.444561 (Simulation time: 0 hr 25 min 46 sec) 
Heartbeat CPU 0 instructions: 384000000 cycles: 864175936 heartbeat IPC: 0.379194 cumulative IPC: 0.444357 (Simulation time: 0 hr 25 min 51 sec) 
Heartbeat CPU 0 instructions: 385000000 cycles: 866649972 heartbeat IPC: 0.404198 cumulative IPC: 0.444239 (Simulation time: 0 hr 25 min 56 sec) 
Heartbeat CPU 0 instructions: 386000003 cycles: 869119337 heartbeat IPC: 0.404964 cumulative IPC: 0.444124 (Simulation time: 0 hr 26 min 0 sec) 
Heartbeat CPU 0 instructions: 387000001 cycles: 873610962 heartbeat IPC: 0.222636 cumulative IPC: 0.442955 (Simulation time: 0 hr 26 min 6 sec) 
Heartbeat CPU 0 instructions: 388000000 cycles: 874108921 heartbeat IPC: 2.0082 cumulative IPC: 0.443871 (Simulation time: 0 hr 26 min 10 sec) 
Heartbeat CPU 0 instructions: 389000003 cycles: 874561058 heartbeat IPC: 2.21173 cumulative IPC: 0.444809 (Simulation time: 0 hr 26 min 13 sec) 
Heartbeat CPU 0 instructions: 390000001 cycles: 875019750 heartbeat IPC: 2.18011 cumulative IPC: 0.445742 (Simulation time: 0 hr 26 min 16 sec) 
Heartbeat CPU 0 instructions: 391000003 cycles: 875669143 heartbeat IPC: 1.5399 cumulative IPC: 0.446575 (Simulation time: 0 hr 26 min 20 sec) 
Heartbeat CPU 0 instructions: 392000000 cycles: 878051066 heartbeat IPC: 0.419828 cumulative IPC: 0.446501 (Simulation time: 0 hr 26 min 24 sec) 
Heartbeat CPU 0 instructions: 393000001 cycles: 880608127 heartbeat IPC: 0.391074 cumulative IPC: 0.446336 (Simulation time: 0 hr 26 min 29 sec) 
Heartbeat CPU 0 instructions: 394000000 cycles: 883088294 heartbeat IPC: 0.403198 cumulative IPC: 0.446211 (Simulation time: 0 hr 26 min 33 sec) 
Heartbeat CPU 0 instructions: 395000000 cycles: 885585693 heartbeat IPC: 0.400417 cumulative IPC: 0.446079 (Simulation time: 0 hr 26 min 38 sec) 
Heartbeat CPU 0 instructions: 396000000 cycles: 888064032 heartbeat IPC: 0.403496 cumulative IPC: 0.445957 (Simulation time: 0 hr 26 min 42 sec) 
Heartbeat CPU 0 instructions: 397000001 cycles: 890637497 heartbeat IPC: 0.388582 cumulative IPC: 0.445787 (Simulation time: 0 hr 26 min 47 sec) 
Heartbeat CPU 0 instructions: 398000000 cycles: 893056900 heartbeat IPC: 0.413325 cumulative IPC: 0.445697 (Simulation time: 0 hr 26 min 51 sec) 
Heartbeat CPU 0 instructions: 399000001 cycles: 895537152 heartbeat IPC: 0.403185 cumulative IPC: 0.445576 (Simulation time: 0 hr 26 min 56 sec) 
Heartbeat CPU 0 instructions: 400000001 cycles: 898072825 heartbeat IPC: 0.394373 cumulative IPC: 0.445428 (Simulation time: 0 hr 27 min 0 sec) 
Heartbeat CPU 0 instructions: 401000000 cycles: 901146162 heartbeat IPC: 0.325379 cumulative IPC: 0.445008 (Simulation time: 0 hr 27 min 5 sec) 
Heartbeat CPU 0 instructions: 402000001 cycles: 904178803 heartbeat IPC: 0.329746 cumulative IPC: 0.444611 (Simulation time: 0 hr 27 min 9 sec) 
Heartbeat CPU 0 instructions: 403000002 cycles: 907213315 heartbeat IPC: 0.329543 cumulative IPC: 0.444217 (Simulation time: 0 hr 27 min 14 sec) 
Heartbeat CPU 0 instructions: 404000002 cycles: 909561949 heartbeat IPC: 0.425779 cumulative IPC: 0.444168 (Simulation time: 0 hr 27 min 18 sec) 
Heartbeat CPU 0 instructions: 405000001 cycles: 912387809 heartbeat IPC: 0.353874 cumulative IPC: 0.443881 (Simulation time: 0 hr 27 min 23 sec) 
Heartbeat CPU 0 instructions: 406000002 cycles: 914869336 heartbeat IPC: 0.402978 cumulative IPC: 0.443767 (Simulation time: 0 hr 27 min 27 sec) 
Heartbeat CPU 0 instructions: 407000000 cycles: 917375905 heartbeat IPC: 0.398951 cumulative IPC: 0.443642 (Simulation time: 0 hr 27 min 32 sec) 
Heartbeat CPU 0 instructions: 408000002 cycles: 921150056 heartbeat IPC: 0.264961 cumulative IPC: 0.442891 (Simulation time: 0 hr 27 min 37 sec) 
Heartbeat CPU 0 instructions: 409000001 cycles: 922382816 heartbeat IPC: 0.811187 cumulative IPC: 0.443396 (Simulation time: 0 hr 27 min 40 sec) 
Heartbeat CPU 0 instructions: 410000002 cycles: 922977056 heartbeat IPC: 1.68282 cumulative IPC: 0.444214 (Simulation time: 0 hr 27 min 44 sec) 
Heartbeat CPU 0 instructions: 411000001 cycles: 923494690 heartbeat IPC: 1.93186 cumulative IPC: 0.445068 (Simulation time: 0 hr 27 min 47 sec) 
Heartbeat CPU 0 instructions: 412000002 cycles: 923945118 heartbeat IPC: 2.22011 cumulative IPC: 0.445955 (Simulation time: 0 hr 27 min 50 sec) 
Heartbeat CPU 0 instructions: 413000000 cycles: 924961774 heartbeat IPC: 0.983615 cumulative IPC: 0.446561 (Simulation time: 0 hr 27 min 54 sec) 
Heartbeat CPU 0 instructions: 414000001 cycles: 928117898 heartbeat IPC: 0.316845 cumulative IPC: 0.446109 (Simulation time: 0 hr 27 min 59 sec) 
Heartbeat CPU 0 instructions: 415000000 cycles: 931291575 heartbeat IPC: 0.315092 cumulative IPC: 0.445651 (Simulation time: 0 hr 28 min 4 sec) 
Heartbeat CPU 0 instructions: 416000002 cycles: 933864345 heartbeat IPC: 0.388687 cumulative IPC: 0.445491 (Simulation time: 0 hr 28 min 8 sec) 
Heartbeat CPU 0 instructions: 417000003 cycles: 936367351 heartbeat IPC: 0.39952 cumulative IPC: 0.445365 (Simulation time: 0 hr 28 min 13 sec) 
Heartbeat CPU 0 instructions: 418000000 cycles: 938985822 heartbeat IPC: 0.381901 cumulative IPC: 0.445183 (Simulation time: 0 hr 28 min 18 sec) 
Heartbeat CPU 0 instructions: 419000003 cycles: 941480203 heartbeat IPC: 0.400902 cumulative IPC: 0.445063 (Simulation time: 0 hr 28 min 22 sec) 
Heartbeat CPU 0 instructions: 420000002 cycles: 943983470 heartbeat IPC: 0.399478 cumulative IPC: 0.444939 (Simulation time: 0 hr 28 min 27 sec) 
Heartbeat CPU 0 instructions: 421000000 cycles: 946476942 heartbeat IPC: 0.401046 cumulative IPC: 0.444821 (Simulation time: 0 hr 28 min 31 sec) 
Heartbeat CPU 0 instructions: 422000000 cycles: 948931783 heartbeat IPC: 0.407358 cumulative IPC: 0.444722 (Simulation time: 0 hr 28 min 35 sec) 
Heartbeat CPU 0 instructions: 423000001 cycles: 951526863 heartbeat IPC: 0.385345 cumulative IPC: 0.444556 (Simulation time: 0 hr 28 min 40 sec) 
Heartbeat CPU 0 instructions: 424000002 cycles: 953976083 heartbeat IPC: 0.408294 cumulative IPC: 0.44446 (Simulation time: 0 hr 28 min 44 sec) 
Heartbeat CPU 0 instructions: 425000000 cycles: 956655387 heartbeat IPC: 0.373231 cumulative IPC: 0.444256 (Simulation time: 0 hr 28 min 48 sec) 
Heartbeat CPU 0 instructions: 426000002 cycles: 959766532 heartbeat IPC: 0.321426 cumulative IPC: 0.443848 (Simulation time: 0 hr 28 min 53 sec) 
Heartbeat CPU 0 instructions: 427000001 cycles: 962839724 heartbeat IPC: 0.325394 cumulative IPC: 0.443461 (Simulation time: 0 hr 28 min 58 sec) 
Heartbeat CPU 0 instructions: 428000000 cycles: 965904865 heartbeat IPC: 0.326249 cumulative IPC: 0.44308 (Simulation time: 0 hr 29 min 2 sec) 
Heartbeat CPU 0 instructions: 429000000 cycles: 968463942 heartbeat IPC: 0.390766 cumulative IPC: 0.442939 (Simulation time: 0 hr 29 min 7 sec) 
Heartbeat CPU 0 instructions: 430000000 cycles: 971080459 heartbeat IPC: 0.382187 cumulative IPC: 0.442771 (Simulation time: 0 hr 29 min 11 sec) 
Heartbeat CPU 0 instructions: 431000003 cycles: 971555695 heartbeat IPC: 2.10422 cumulative IPC: 0.443603 (Simulation time: 0 hr 29 min 14 sec) 
Heartbeat CPU 0 instructions: 432000002 cycles: 972006572 heartbeat IPC: 2.2179 cumulative IPC: 0.444446 (Simulation time: 0 hr 29 min 17 sec) 
Heartbeat CPU 0 instructions: 433000003 cycles: 972463533 heartbeat IPC: 2.18837 cumulative IPC: 0.445285 (Simulation time: 0 hr 29 min 21 sec) 
Heartbeat CPU 0 instructions: 434000002 cycles: 972913218 heartbeat IPC: 2.22378 cumulative IPC: 0.446126 (Simulation time: 0 hr 29 min 23 sec) 
Heartbeat CPU 0 instructions: 435000001 cycles: 975394413 heartbeat IPC: 0.403031 cumulative IPC: 0.446014 (Simulation time: 0 hr 29 min 28 sec) 
Heartbeat CPU 0 instructions: 436000002 cycles: 978231180 heartbeat IPC: 0.352514 cumulative IPC: 0.445736 (Simulation time: 0 hr 29 min 32 sec) 
Heartbeat CPU 0 instructions: 437000001 cycles: 981413949 heartbeat IPC: 0.314192 cumulative IPC: 0.4453 (Simulation time: 0 hr 29 min 37 sec) 
Heartbeat CPU 0 instructions: 438000002 cycles: 984218915 heartbeat IPC: 0.356511 cumulative IPC: 0.445041 (Simulation time: 0 hr 29 min 42 sec) 
Heartbeat CPU 0 instructions: 439000002 cycles: 987324939 heartbeat IPC: 0.321955 cumulative IPC: 0.444645 (Simulation time: 0 hr 29 min 46 sec) 
Heartbeat CPU 0 instructions: 440000000 cycles: 989977049 heartbeat IPC: 0.377058 cumulative IPC: 0.444459 (Simulation time: 0 hr 29 min 51 sec) 
Heartbeat CPU 0 instructions: 441000002 cycles: 992484224 heartbeat IPC: 0.398856 cumulative IPC: 0.444342 (Simulation time: 0 hr 29 min 55 sec) 
Heartbeat CPU 0 instructions: 442000000 cycles: 994956599 heartbeat IPC: 0.404469 cumulative IPC: 0.44424 (Simulation time: 0 hr 29 min 59 sec) 
Heartbeat CPU 0 instructions: 443000002 cycles: 997671077 heartbeat IPC: 0.368396 cumulative IPC: 0.444029 (Simulation time: 0 hr 30 min 4 sec) 
Heartbeat CPU 0 instructions: 444000001 cycles: 1000140721 heartbeat IPC: 0.404916 cumulative IPC: 0.44393 (Simulation time: 0 hr 30 min 8 sec) 
Heartbeat CPU 0 instructions: 445000000 cycles: 1002645297 heartbeat IPC: 0.399269 cumulative IPC: 0.443816 (Simulation time: 0 hr 30 min 13 sec) 
Heartbeat CPU 0 instructions: 446000002 cycles: 1005172556 heartbeat IPC: 0.395686 cumulative IPC: 0.443692 (Simulation time: 0 hr 30 min 17 sec) 
Heartbeat CPU 0 instructions: 447000000 cycles: 1007645468 heartbeat IPC: 0.404381 cumulative IPC: 0.443594 (Simulation time: 0 hr 30 min 21 sec) 
Heartbeat CPU 0 instructions: 448000003 cycles: 1010160024 heartbeat IPC: 0.397686 cumulative IPC: 0.443477 (Simulation time: 0 hr 30 min 26 sec) 
Heartbeat CPU 0 instructions: 449000000 cycles: 1012866798 heartbeat IPC: 0.369442 cumulative IPC: 0.443274 (Simulation time: 0 hr 30 min 30 sec) 
Heartbeat CPU 0 instructions: 450000002 cycles: 1015717260 heartbeat IPC: 0.350821 cumulative IPC: 0.443009 (Simulation time: 0 hr 30 min 35 sec) 
Heartbeat CPU 0 instructions: 451000000 cycles: 1019939949 heartbeat IPC: 0.236815 cumulative IPC: 0.442136 (Simulation time: 0 hr 30 min 40 sec) 
Heartbeat CPU 0 instructions: 452000000 cycles: 1020413678 heartbeat IPC: 2.11091 cumulative IPC: 0.442928 (Simulation time: 0 hr 30 min 43 sec) 
Heartbeat CPU 0 instructions: 453000002 cycles: 1020865994 heartbeat IPC: 2.21085 cumulative IPC: 0.443729 (Simulation time: 0 hr 30 min 46 sec) 
Heartbeat CPU 0 instructions: 454000000 cycles: 1021323769 heartbeat IPC: 2.18447 cumulative IPC: 0.444527 (Simulation time: 0 hr 30 min 49 sec) 
Heartbeat CPU 0 instructions: 455000002 cycles: 1021776754 heartbeat IPC: 2.20758 cumulative IPC: 0.445326 (Simulation time: 0 hr 30 min 52 sec) 
Heartbeat CPU 0 instructions: 456000000 cycles: 1024324528 heartbeat IPC: 0.392499 cumulative IPC: 0.445192 (Simulation time: 0 hr 30 min 57 sec) 
Heartbeat CPU 0 instructions: 457000001 cycles: 1026994032 heartbeat IPC: 0.374602 cumulative IPC: 0.445004 (Simulation time: 0 hr 31 min 1 sec) 
Heartbeat CPU 0 instructions: 458000000 cycles: 1029475862 heartbeat IPC: 0.402928 cumulative IPC: 0.444901 (Simulation time: 0 hr 31 min 6 sec) 
Heartbeat CPU 0 instructions: 459000002 cycles: 1031994380 heartbeat IPC: 0.39706 cumulative IPC: 0.444781 (Simulation time: 0 hr 31 min 10 sec) 
Heartbeat CPU 0 instructions: 460000002 cycles: 1034487634 heartbeat IPC: 0.401082 cumulative IPC: 0.444674 (Simulation time: 0 hr 31 min 14 sec) 
Heartbeat CPU 0 instructions: 461000000 cycles: 1037544807 heartbeat IPC: 0.327099 cumulative IPC: 0.44432 (Simulation time: 0 hr 31 min 19 sec) 
Heartbeat CPU 0 instructions: 462000000 cycles: 1040657730 heartbeat IPC: 0.321241 cumulative IPC: 0.443943 (Simulation time: 0 hr 31 min 23 sec) 
Heartbeat CPU 0 instructions: 463000001 cycles: 1043766094 heartbeat IPC: 0.321713 cumulative IPC: 0.443571 (Simulation time: 0 hr 31 min 28 sec) 
Heartbeat CPU 0 instructions: 464000000 cycles: 1046512315 heartbeat IPC: 0.364136 cumulative IPC: 0.443358 (Simulation time: 0 hr 31 min 33 sec) 
Heartbeat CPU 0 instructions: 465000001 cycles: 1049170367 heartbeat IPC: 0.376216 cumulative IPC: 0.443184 (Simulation time: 0 hr 31 min 37 sec) 
Heartbeat CPU 0 instructions: 466000000 cycles: 1051669690 heartbeat IPC: 0.400108 cumulative IPC: 0.44308 (Simulation time: 0 hr 31 min 41 sec) 
Heartbeat CPU 0 instructions: 467000002 cycles: 1054229383 heartbeat IPC: 0.390673 cumulative IPC: 0.44295 (Simulation time: 0 hr 31 min 46 sec) 
Heartbeat CPU 0 instructions: 468000000 cycles: 1056739792 heartbeat IPC: 0.398341 cumulative IPC: 0.442841 (Simulation time: 0 hr 31 min 50 sec) 
Heartbeat CPU 0 instructions: 469000002 cycles: 1059478234 heartbeat IPC: 0.365172 cumulative IPC: 0.442636 (Simulation time: 0 hr 31 min 55 sec) 
Heartbeat CPU 0 instructions: 470000000 cycles: 1061943967 heartbeat IPC: 0.405558 cumulative IPC: 0.442548 (Simulation time: 0 hr 31 min 59 sec) 
Heartbeat CPU 0 instructions: 471000001 cycles: 1064456254 heartbeat IPC: 0.398044 cumulative IPC: 0.442441 (Simulation time: 0 hr 32 min 3 sec) 
Heartbeat CPU 0 instructions: 472000000 cycles: 1069003615 heartbeat IPC: 0.219908 cumulative IPC: 0.441474 (Simulation time: 0 hr 32 min 9 sec) 
Heartbeat CPU 0 instructions: 473000000 cycles: 1069488092 heartbeat IPC: 2.06408 cumulative IPC: 0.442225 (Simulation time: 0 hr 32 min 12 sec) 
Heartbeat CPU 0 instructions: 474000002 cycles: 1069940486 heartbeat IPC: 2.21047 cumulative IPC: 0.442989 (Simulation time: 0 hr 32 min 15 sec) 
Heartbeat CPU 0 instructions: 475000000 cycles: 1070400375 heartbeat IPC: 2.17443 cumulative IPC: 0.443749 (Simulation time: 0 hr 32 min 18 sec) 
Heartbeat CPU 0 instructions: 476000001 cycles: 1070849994 heartbeat IPC: 2.22411 cumulative IPC: 0.444512 (Simulation time: 0 hr 32 min 21 sec) 
Heartbeat CPU 0 instructions: 477000001 cycles: 1073565183 heartbeat IPC: 0.368299 cumulative IPC: 0.444315 (Simulation time: 0 hr 32 min 25 sec) 
Heartbeat CPU 0 instructions: 478000002 cycles: 1076067065 heartbeat IPC: 0.3997 cumulative IPC: 0.444209 (Simulation time: 0 hr 32 min 30 sec) 
Heartbeat CPU 0 instructions: 479000001 cycles: 1078601421 heartbeat IPC: 0.394577 cumulative IPC: 0.44409 (Simulation time: 0 hr 32 min 34 sec) 
Heartbeat CPU 0 instructions: 480000003 cycles: 1081122021 heartbeat IPC: 0.396732 cumulative IPC: 0.443977 (Simulation time: 0 hr 32 min 38 sec) 
Heartbeat CPU 0 instructions: 481000001 cycles: 1083609751 heartbeat IPC: 0.401972 cumulative IPC: 0.443879 (Simulation time: 0 hr 32 min 43 sec) 
Heartbeat CPU 0 instructions: 482000001 cycles: 1086113725 heartbeat IPC: 0.399365 cumulative IPC: 0.443774 (Simulation time: 0 hr 32 min 47 sec) 
Heartbeat CPU 0 instructions: 483000002 cycles: 1088744565 heartbeat IPC: 0.380107 cumulative IPC: 0.443617 (Simulation time: 0 hr 32 min 52 sec) 
Heartbeat CPU 0 instructions: 484000000 cycles: 1091211931 heartbeat IPC: 0.40529 cumulative IPC: 0.443529 (Simulation time: 0 hr 32 min 56 sec) 
Heartbeat CPU 0 instructions: 485000000 cycles: 1093734872 heartbeat IPC: 0.396363 cumulative IPC: 0.443417 (Simulation time: 0 hr 33 min 0 sec) 
Heartbeat CPU 0 instructions: 486000000 cycles: 1096855145 heartbeat IPC: 0.320485 cumulative IPC: 0.44306 (Simulation time: 0 hr 33 min 5 sec) 
Heartbeat CPU 0 instructions: 487000002 cycles: 1099922516 heartbeat IPC: 0.326013 cumulative IPC: 0.442727 (Simulation time: 0 hr 33 min 9 sec) 
Heartbeat CPU 0 instructions: 488000001 cycles: 1102962744 heartbeat IPC: 0.328922 cumulative IPC: 0.442407 (Simulation time: 0 hr 33 min 14 sec) 
Heartbeat CPU 0 instructions: 489000002 cycles: 1105294321 heartbeat IPC: 0.428895 cumulative IPC: 0.442378 (Simulation time: 0 hr 33 min 18 sec) 
Heartbeat CPU 0 instructions: 490000001 cycles: 1108392040 heartbeat IPC: 0.322818 cumulative IPC: 0.442037 (Simulation time: 0 hr 33 min 23 sec) 
Heartbeat CPU 0 instructions: 491000000 cycles: 1110964799 heartbeat IPC: 0.388687 cumulative IPC: 0.441911 (Simulation time: 0 hr 33 min 27 sec) 
Heartbeat CPU 0 instructions: 492000000 cycles: 1113496618 heartbeat IPC: 0.394973 cumulative IPC: 0.441802 (Simulation time: 0 hr 33 min 32 sec) 
Heartbeat CPU 0 instructions: 493000001 cycles: 1116930933 heartbeat IPC: 0.291179 cumulative IPC: 0.441329 (Simulation time: 0 hr 33 min 37 sec) 
Heartbeat CPU 0 instructions: 494000002 cycles: 1118580748 heartbeat IPC: 0.606129 cumulative IPC: 0.441577 (Simulation time: 0 hr 33 min 41 sec) 
Heartbeat CPU 0 instructions: 495000000 cycles: 1119032047 heartbeat IPC: 2.21582 cumulative IPC: 0.442307 (Simulation time: 0 hr 33 min 44 sec) 
Heartbeat CPU 0 instructions: 496000003 cycles: 1119490600 heartbeat IPC: 2.18078 cumulative IPC: 0.443034 (Simulation time: 0 hr 33 min 47 sec) 
Heartbeat CPU 0 instructions: 497000000 cycles: 1120136526 heartbeat IPC: 1.54816 cumulative IPC: 0.443684 (Simulation time: 0 hr 33 min 51 sec) 
Heartbeat CPU 0 instructions: 498000001 cycles: 1120733413 heartbeat IPC: 1.67536 cumulative IPC: 0.444354 (Simulation time: 0 hr 33 min 54 sec) 
Heartbeat CPU 0 instructions: 499000000 cycles: 1123916083 heartbeat IPC: 0.314201 cumulative IPC: 0.443978 (Simulation time: 0 hr 33 min 59 sec) 
Heartbeat CPU 0 instructions: 500000000 cycles: 1127082156 heartbeat IPC: 0.315849 cumulative IPC: 0.443611 (Simulation time: 0 hr 34 min 4 sec) 
Heartbeat CPU 0 instructions: 501000000 cycles: 1130230271 heartbeat IPC: 0.31765 cumulative IPC: 0.443253 (Simulation time: 0 hr 34 min 9 sec) 
Heartbeat CPU 0 instructions: 502000003 cycles: 1132763779 heartbeat IPC: 0.394711 cumulative IPC: 0.443142 (Simulation time: 0 hr 34 min 14 sec) 
Heartbeat CPU 0 instructions: 503000002 cycles: 1135497043 heartbeat IPC: 0.365863 cumulative IPC: 0.442952 (Simulation time: 0 hr 34 min 19 sec) 
Heartbeat CPU 0 instructions: 504000002 cycles: 1137997635 heartbeat IPC: 0.399905 cumulative IPC: 0.442855 (Simulation time: 0 hr 34 min 24 sec) 
Heartbeat CPU 0 instructions: 505000001 cycles: 1140533477 heartbeat IPC: 0.394346 cumulative IPC: 0.442745 (Simulation time: 0 hr 34 min 28 sec) 
Heartbeat CPU 0 instructions: 506000000 cycles: 1143076302 heartbeat IPC: 0.393263 cumulative IPC: 0.442633 (Simulation time: 0 hr 34 min 32 sec) 
Heartbeat CPU 0 instructions: 507000003 cycles: 1145613666 heartbeat IPC: 0.394111 cumulative IPC: 0.442524 (Simulation time: 0 hr 34 min 37 sec) 
Heartbeat CPU 0 instructions: 508000001 cycles: 1148132923 heartbeat IPC: 0.396942 cumulative IPC: 0.442422 (Simulation time: 0 hr 34 min 41 sec) 
Heartbeat CPU 0 instructions: 509000001 cycles: 1150762125 heartbeat IPC: 0.380344 cumulative IPC: 0.442277 (Simulation time: 0 hr 34 min 46 sec) 
Heartbeat CPU 0 instructions: 510000000 cycles: 1153284048 heartbeat IPC: 0.396522 cumulative IPC: 0.442175 (Simulation time: 0 hr 34 min 51 sec) 
Finished CPU 0 instructions: 500000003 cycles: 1130774451 cumulative IPC: 0.442175 (Simulation time: 0 hr 34 min 51 sec) 

ChampSim completed all CPUs

Region of Interest Statistics

CPU 0 cumulative IPC: 0.442175 instructions: 500000003 cycles: 1130774451
L1D TOTAL     ACCESS:   70716296  HIT:   57641975  MISS:   13074321
L1D LOAD      ACCESS:   47319295  HIT:   34434389  MISS:   12884906
L1D RFO       ACCESS:   23397001  HIT:   23207586  MISS:     189415
L1D PREFETCH  ACCESS:          0  HIT:          0  MISS:          0
L1D WRITEBACK ACCESS:          0  HIT:          0  MISS:          0
L1D PREFETCH  REQUESTED:          0  ISSUED:          0  USEFUL:          0  USELESS:          0  UAC CORRECT:          0
L1D AVERAGE MISS LATENCY: 256.561 cycles
L1I TOTAL     ACCESS:   97784381  HIT:   97724254  MISS:      60127
L1I LOAD      ACCESS:   97784381  HIT:   97724254  MISS:      60127
L1I RFO       ACCESS:          0  HIT:          0  MISS:          0
L1I PREFETCH  ACCESS:          0  HIT:          0  MISS:          0
L1I WRITEBACK ACCESS:          0  HIT:          0  MISS:          0
L1I PREFETCH  REQUESTED:          0  ISSUED:          0  USEFUL:          0  USELESS:          0  UAC CORRECT:          0
L1I AVERAGE MISS LATENCY: 94.9564 cycles
L2C TOTAL     ACCESS:   13556564  HIT:     535991  MISS:   13020573
L2C LOAD      ACCESS:   12945024  HIT:     103718  MISS:   12841306
L2C RFO       ACCESS:     189415  HIT:      10148  MISS:     179267
L2C PREFETCH  ACCESS:          0  HIT:          0  MISS:          0
L2C WRITEBACK ACCESS:     422125  HIT:     422125  MISS:          0
L2C PREFETCH  REQUESTED:          0  ISSUED:          0  USEFUL:          0  USELESS:          0  UAC CORRECT:          0
L2C AVERAGE MISS LATENCY: 149.856 cycles
LLC TOTAL     ACCESS:   13432286  HIT:    9628555  MISS:    3803731
LLC LOAD      ACCESS:   12841300  HIT:    9120322  MISS:    3720978
LLC RFO       ACCESS:     179267  HIT:      96514  MISS:      82753
LLC PREFETCH  ACCESS:          0  HIT:          0  MISS:          0
LLC WRITEBACK ACCESS:     411719  HIT:     411719  MISS:          0
LLC PREFETCH  REQUESTED:          0  ISSUED:          0  USEFUL:          0  USELESS:          0  UAC CORRECT:          0
LLC AVERAGE MISS LATENCY: 214.529 cycles
Major fault: 0 Minor fault: 17822

DRAM Statistics
 CHANNEL 0
 RQ ROW_BUFFER_HIT:     655327  ROW_BUFFER_MISS:    1280448
 DBUS_CONGESTED:     651091
 WQ ROW_BUFFER_HIT:      79642  ROW_BUFFER_MISS:      45622  FULL:          0

 CHANNEL 1
 RQ ROW_BUFFER_HIT:     627339  ROW_BUFFER_MISS:    1240550
 DBUS_CONGESTED:     651091
 WQ ROW_BUFFER_HIT:      80158  ROW_BUFFER_MISS:      48147  FULL:          0

 AVG_CONGESTED_CYCLE: 18

CPU 0 Branch Prediction Accuracy: 99.7475% MPKI: 0.812406 Average ROB Occupancy at Mispredict: 55.6849

Branch types
NOT_BRANCH: 339146589 67.8293%
BRANCH_DIRECT_JUMP: 6313899 1.26278%
BRANCH_INDIRECT: 245275 0.049055%
BRANCH_CONDITIONAL: 148243815 29.6488%
BRANCH_DIRECT_CALL: 2780028 0.556006%
BRANCH_INDIRECT_CALL: 245096 0.0490192%
BRANCH_RETURN: 3025121 0.605024%
BRANCH_OTHER: 0 0%


gzip: stdout: Broken pipe
