
*** ChampSim Multicore Out-of-Order Simulator ***

Warmup Instructions: 1000000
Prefetch Warmup Instructions: 10000000
Simulation Instructions: 500000000
Stat Printing Period: 1000000
Number of CPUs: 1
LLC sets: 2048
LLC ways: 16
Off-chip DRAM Size: 32768 MB Channels: 2 Width: 64-bit Data Rate: 1024 MT/s

CPU 0 runs /scratch/cluster/cmolder/ML-DPC/ChampSimTraces/spec06/473.astar-s2.trace.gz
Read seed: 851
Heartbeat CPU 0 instructions: 1000003 cycles: 545860 heartbeat IPC: 1.83198 cumulative IPC: 1.83198 (Simulation time: 0 hr 0 min 10 sec) 

Warmup complete CPU 0 instructions: 1000003 cycles: 545860 (Simulation time: 0 hr 0 min 10 sec) 

Heartbeat CPU 0 instructions: 2000000 cycles: 10212225 heartbeat IPC: 0.103451 cumulative IPC: 0.103451 (Simulation time: 0 hr 0 min 22 sec) 
Heartbeat CPU 0 instructions: 3000000 cycles: 18260683 heartbeat IPC: 0.124247 cumulative IPC: 0.1129 (Simulation time: 0 hr 0 min 31 sec) 
Heartbeat CPU 0 instructions: 4000000 cycles: 26632389 heartbeat IPC: 0.11945 cumulative IPC: 0.115002 (Simulation time: 0 hr 0 min 41 sec) 
Heartbeat CPU 0 instructions: 5000000 cycles: 35171025 heartbeat IPC: 0.117115 cumulative IPC: 0.115523 (Simulation time: 0 hr 0 min 50 sec) 
Heartbeat CPU 0 instructions: 6000002 cycles: 45046035 heartbeat IPC: 0.101266 cumulative IPC: 0.112359 (Simulation time: 0 hr 1 min 3 sec) 
Heartbeat CPU 0 instructions: 7000001 cycles: 55421241 heartbeat IPC: 0.0963835 cumulative IPC: 0.109339 (Simulation time: 0 hr 1 min 16 sec) 
Heartbeat CPU 0 instructions: 8000002 cycles: 66315032 heartbeat IPC: 0.0917955 cumulative IPC: 0.106433 (Simulation time: 0 hr 1 min 30 sec) 
Heartbeat CPU 0 instructions: 9000000 cycles: 76353131 heartbeat IPC: 0.0996203 cumulative IPC: 0.105531 (Simulation time: 0 hr 1 min 45 sec) 
Heartbeat CPU 0 instructions: 10000003 cycles: 84497190 heartbeat IPC: 0.122789 cumulative IPC: 0.107205 (Simulation time: 0 hr 1 min 54 sec) 

Warmup complete CPU 0 instructions: 10000003 cycles: 84497190 (Simulation time: 0 hr 1 min 54 sec) 

Heartbeat CPU 0 instructions: 11000000 cycles: 92719899 heartbeat IPC: 0.121614 cumulative IPC: 0.121614 (Simulation time: 0 hr 2 min 4 sec) 
Heartbeat CPU 0 instructions: 12000003 cycles: 101235802 heartbeat IPC: 0.117428 cumulative IPC: 0.119484 (Simulation time: 0 hr 2 min 13 sec) 
Heartbeat CPU 0 instructions: 13000000 cycles: 110936650 heartbeat IPC: 0.103083 cumulative IPC: 0.113467 (Simulation time: 0 hr 2 min 26 sec) 
Heartbeat CPU 0 instructions: 14000000 cycles: 119176065 heartbeat IPC: 0.121368 cumulative IPC: 0.115344 (Simulation time: 0 hr 2 min 35 sec) 
Heartbeat CPU 0 instructions: 15000002 cycles: 127391964 heartbeat IPC: 0.121715 cumulative IPC: 0.116564 (Simulation time: 0 hr 2 min 44 sec) 
Heartbeat CPU 0 instructions: 16000000 cycles: 135226448 heartbeat IPC: 0.127641 cumulative IPC: 0.118275 (Simulation time: 0 hr 2 min 54 sec) 
Heartbeat CPU 0 instructions: 17000002 cycles: 143028475 heartbeat IPC: 0.128172 cumulative IPC: 0.119594 (Simulation time: 0 hr 3 min 3 sec) 
Heartbeat CPU 0 instructions: 18000001 cycles: 152760846 heartbeat IPC: 0.10275 cumulative IPC: 0.117193 (Simulation time: 0 hr 3 min 16 sec) 
Heartbeat CPU 0 instructions: 19000000 cycles: 160573939 heartbeat IPC: 0.12799 cumulative IPC: 0.118302 (Simulation time: 0 hr 3 min 26 sec) 
Heartbeat CPU 0 instructions: 20000003 cycles: 168886803 heartbeat IPC: 0.120296 cumulative IPC: 0.118498 (Simulation time: 0 hr 3 min 35 sec) 
Heartbeat CPU 0 instructions: 21000000 cycles: 178748003 heartbeat IPC: 0.101407 cumulative IPC: 0.11671 (Simulation time: 0 hr 3 min 46 sec) 
Heartbeat CPU 0 instructions: 22000000 cycles: 187203307 heartbeat IPC: 0.118269 cumulative IPC: 0.116838 (Simulation time: 0 hr 3 min 58 sec) 
Heartbeat CPU 0 instructions: 23000002 cycles: 194987896 heartbeat IPC: 0.128459 cumulative IPC: 0.117657 (Simulation time: 0 hr 4 min 8 sec) 
Heartbeat CPU 0 instructions: 24000002 cycles: 203326718 heartbeat IPC: 0.119921 cumulative IPC: 0.117816 (Simulation time: 0 hr 4 min 18 sec) 
Heartbeat CPU 0 instructions: 25000002 cycles: 212410431 heartbeat IPC: 0.110087 cumulative IPC: 0.117267 (Simulation time: 0 hr 4 min 30 sec) 
Heartbeat CPU 0 instructions: 26000001 cycles: 220777190 heartbeat IPC: 0.11952 cumulative IPC: 0.117405 (Simulation time: 0 hr 4 min 40 sec) 
Heartbeat CPU 0 instructions: 27000000 cycles: 231062919 heartbeat IPC: 0.097222 cumulative IPC: 0.115989 (Simulation time: 0 hr 4 min 53 sec) 
Heartbeat CPU 0 instructions: 28000000 cycles: 239021197 heartbeat IPC: 0.125655 cumulative IPC: 0.116487 (Simulation time: 0 hr 5 min 2 sec) 
Heartbeat CPU 0 instructions: 29000001 cycles: 248591616 heartbeat IPC: 0.104489 cumulative IPC: 0.115787 (Simulation time: 0 hr 5 min 15 sec) 
Heartbeat CPU 0 instructions: 30000000 cycles: 256278539 heartbeat IPC: 0.130091 cumulative IPC: 0.116427 (Simulation time: 0 hr 5 min 25 sec) 
Heartbeat CPU 0 instructions: 31000000 cycles: 263938960 heartbeat IPC: 0.130541 cumulative IPC: 0.11703 (Simulation time: 0 hr 5 min 35 sec) 
Heartbeat CPU 0 instructions: 32000000 cycles: 271251385 heartbeat IPC: 0.136754 cumulative IPC: 0.117802 (Simulation time: 0 hr 5 min 45 sec) 
Heartbeat CPU 0 instructions: 33000000 cycles: 278277390 heartbeat IPC: 0.142328 cumulative IPC: 0.118691 (Simulation time: 0 hr 5 min 55 sec) 
Heartbeat CPU 0 instructions: 34000001 cycles: 287824106 heartbeat IPC: 0.104748 cumulative IPC: 0.118037 (Simulation time: 0 hr 6 min 8 sec) 
Heartbeat CPU 0 instructions: 35000000 cycles: 295851988 heartbeat IPC: 0.124566 cumulative IPC: 0.118285 (Simulation time: 0 hr 6 min 18 sec) 
Heartbeat CPU 0 instructions: 36000000 cycles: 304061672 heartbeat IPC: 0.121807 cumulative IPC: 0.118416 (Simulation time: 0 hr 6 min 27 sec) 
Heartbeat CPU 0 instructions: 37000003 cycles: 313905207 heartbeat IPC: 0.10159 cumulative IPC: 0.117694 (Simulation time: 0 hr 6 min 40 sec) 
Heartbeat CPU 0 instructions: 38000001 cycles: 321597723 heartbeat IPC: 0.129996 cumulative IPC: 0.118093 (Simulation time: 0 hr 6 min 50 sec) 
Heartbeat CPU 0 instructions: 39000000 cycles: 331328488 heartbeat IPC: 0.102767 cumulative IPC: 0.117489 (Simulation time: 0 hr 7 min 3 sec) 
Heartbeat CPU 0 instructions: 40000000 cycles: 340782799 heartbeat IPC: 0.105772 cumulative IPC: 0.117057 (Simulation time: 0 hr 7 min 16 sec) 
Heartbeat CPU 0 instructions: 41000002 cycles: 348593257 heartbeat IPC: 0.128034 cumulative IPC: 0.117382 (Simulation time: 0 hr 7 min 26 sec) 
Heartbeat CPU 0 instructions: 42000000 cycles: 357213659 heartbeat IPC: 0.116004 cumulative IPC: 0.117338 (Simulation time: 0 hr 7 min 35 sec) 
Heartbeat CPU 0 instructions: 43000003 cycles: 367549218 heartbeat IPC: 0.0967536 cumulative IPC: 0.116586 (Simulation time: 0 hr 7 min 48 sec) 
Heartbeat CPU 0 instructions: 44000000 cycles: 375294249 heartbeat IPC: 0.129115 cumulative IPC: 0.11692 (Simulation time: 0 hr 7 min 58 sec) 
Heartbeat CPU 0 instructions: 45000001 cycles: 383658128 heartbeat IPC: 0.119562 cumulative IPC: 0.116994 (Simulation time: 0 hr 8 min 8 sec) 
Heartbeat CPU 0 instructions: 46000003 cycles: 392257416 heartbeat IPC: 0.116289 cumulative IPC: 0.116974 (Simulation time: 0 hr 8 min 18 sec) 
Heartbeat CPU 0 instructions: 47000000 cycles: 400861299 heartbeat IPC: 0.116226 cumulative IPC: 0.116954 (Simulation time: 0 hr 8 min 27 sec) 
Heartbeat CPU 0 instructions: 48000000 cycles: 410587308 heartbeat IPC: 0.102817 cumulative IPC: 0.116532 (Simulation time: 0 hr 8 min 40 sec) 
Heartbeat CPU 0 instructions: 49000000 cycles: 418206993 heartbeat IPC: 0.131239 cumulative IPC: 0.116868 (Simulation time: 0 hr 8 min 50 sec) 
Heartbeat CPU 0 instructions: 50000001 cycles: 425989364 heartbeat IPC: 0.128496 cumulative IPC: 0.117133 (Simulation time: 0 hr 9 min 0 sec) 
Heartbeat CPU 0 instructions: 51000000 cycles: 434290199 heartbeat IPC: 0.12047 cumulative IPC: 0.117212 (Simulation time: 0 hr 9 min 10 sec) 
Heartbeat CPU 0 instructions: 52000003 cycles: 443461597 heartbeat IPC: 0.109035 cumulative IPC: 0.117003 (Simulation time: 0 hr 9 min 22 sec) 
Heartbeat CPU 0 instructions: 53000000 cycles: 451766352 heartbeat IPC: 0.120413 cumulative IPC: 0.11708 (Simulation time: 0 hr 9 min 32 sec) 
Heartbeat CPU 0 instructions: 54000001 cycles: 460718421 heartbeat IPC: 0.111706 cumulative IPC: 0.116952 (Simulation time: 0 hr 9 min 41 sec) 
Heartbeat CPU 0 instructions: 55000000 cycles: 469880002 heartbeat IPC: 0.109151 cumulative IPC: 0.116767 (Simulation time: 0 hr 9 min 51 sec) 
Heartbeat CPU 0 instructions: 56000000 cycles: 480321341 heartbeat IPC: 0.0957732 cumulative IPC: 0.116213 (Simulation time: 0 hr 10 min 4 sec) 
Heartbeat CPU 0 instructions: 57000000 cycles: 487986409 heartbeat IPC: 0.130462 cumulative IPC: 0.116484 (Simulation time: 0 hr 10 min 13 sec) 
Heartbeat CPU 0 instructions: 58000002 cycles: 496182202 heartbeat IPC: 0.122014 cumulative IPC: 0.116594 (Simulation time: 0 hr 10 min 23 sec) 
Heartbeat CPU 0 instructions: 59000003 cycles: 505770084 heartbeat IPC: 0.104298 cumulative IPC: 0.116314 (Simulation time: 0 hr 10 min 33 sec) 
Heartbeat CPU 0 instructions: 60000000 cycles: 514460490 heartbeat IPC: 0.115069 cumulative IPC: 0.116289 (Simulation time: 0 hr 10 min 45 sec) 
Heartbeat CPU 0 instructions: 61000000 cycles: 522654133 heartbeat IPC: 0.122046 cumulative IPC: 0.116397 (Simulation time: 0 hr 10 min 55 sec) 
Heartbeat CPU 0 instructions: 62000000 cycles: 530865892 heartbeat IPC: 0.121777 cumulative IPC: 0.116496 (Simulation time: 0 hr 11 min 4 sec) 
Heartbeat CPU 0 instructions: 63000000 cycles: 538944376 heartbeat IPC: 0.123786 cumulative IPC: 0.116625 (Simulation time: 0 hr 11 min 13 sec) 
Heartbeat CPU 0 instructions: 64000003 cycles: 548697135 heartbeat IPC: 0.102535 cumulative IPC: 0.116329 (Simulation time: 0 hr 11 min 25 sec) 
Heartbeat CPU 0 instructions: 65000000 cycles: 556541093 heartbeat IPC: 0.127486 cumulative IPC: 0.116515 (Simulation time: 0 hr 11 min 36 sec) 
Heartbeat CPU 0 instructions: 66000000 cycles: 564687009 heartbeat IPC: 0.122761 cumulative IPC: 0.116621 (Simulation time: 0 hr 11 min 45 sec) 
Heartbeat CPU 0 instructions: 67000001 cycles: 573172963 heartbeat IPC: 0.117842 cumulative IPC: 0.116642 (Simulation time: 0 hr 11 min 55 sec) 
Heartbeat CPU 0 instructions: 68000003 cycles: 581780297 heartbeat IPC: 0.11618 cumulative IPC: 0.116634 (Simulation time: 0 hr 12 min 4 sec) 
Heartbeat CPU 0 instructions: 69000000 cycles: 593485330 heartbeat IPC: 0.0854331 cumulative IPC: 0.115916 (Simulation time: 0 hr 12 min 21 sec) 
Heartbeat CPU 0 instructions: 70000000 cycles: 601409915 heartbeat IPC: 0.12619 cumulative IPC: 0.116074 (Simulation time: 0 hr 12 min 30 sec) 
Heartbeat CPU 0 instructions: 71000003 cycles: 609880618 heartbeat IPC: 0.118054 cumulative IPC: 0.116106 (Simulation time: 0 hr 12 min 40 sec) 
Heartbeat CPU 0 instructions: 72000001 cycles: 618495885 heartbeat IPC: 0.116073 cumulative IPC: 0.116105 (Simulation time: 0 hr 12 min 49 sec) 
Heartbeat CPU 0 instructions: 73000000 cycles: 627091559 heartbeat IPC: 0.116337 cumulative IPC: 0.116109 (Simulation time: 0 hr 12 min 59 sec) 
Heartbeat CPU 0 instructions: 74000003 cycles: 636868365 heartbeat IPC: 0.102283 cumulative IPC: 0.115864 (Simulation time: 0 hr 13 min 9 sec) 
Heartbeat CPU 0 instructions: 75000000 cycles: 645113700 heartbeat IPC: 0.12128 cumulative IPC: 0.115944 (Simulation time: 0 hr 13 min 21 sec) 
Heartbeat CPU 0 instructions: 76000000 cycles: 652766802 heartbeat IPC: 0.130666 cumulative IPC: 0.116142 (Simulation time: 0 hr 13 min 31 sec) 
Heartbeat CPU 0 instructions: 77000000 cycles: 660423638 heartbeat IPC: 0.130602 cumulative IPC: 0.116334 (Simulation time: 0 hr 13 min 40 sec) 
Heartbeat CPU 0 instructions: 78000000 cycles: 667881300 heartbeat IPC: 0.13409 cumulative IPC: 0.116561 (Simulation time: 0 hr 13 min 50 sec) 
Heartbeat CPU 0 instructions: 79000001 cycles: 677299607 heartbeat IPC: 0.106176 cumulative IPC: 0.116396 (Simulation time: 0 hr 14 min 3 sec) 
Heartbeat CPU 0 instructions: 80000000 cycles: 685032204 heartbeat IPC: 0.129323 cumulative IPC: 0.116563 (Simulation time: 0 hr 14 min 12 sec) 
Heartbeat CPU 0 instructions: 81000001 cycles: 694228518 heartbeat IPC: 0.108739 cumulative IPC: 0.116445 (Simulation time: 0 hr 14 min 22 sec) 
Heartbeat CPU 0 instructions: 82000000 cycles: 703142622 heartbeat IPC: 0.112182 cumulative IPC: 0.116383 (Simulation time: 0 hr 14 min 34 sec) 
Heartbeat CPU 0 instructions: 83000003 cycles: 711314728 heartbeat IPC: 0.122368 cumulative IPC: 0.116461 (Simulation time: 0 hr 14 min 44 sec) 
Heartbeat CPU 0 instructions: 84000001 cycles: 719754889 heartbeat IPC: 0.118481 cumulative IPC: 0.116488 (Simulation time: 0 hr 14 min 53 sec) 
Heartbeat CPU 0 instructions: 85000001 cycles: 728582919 heartbeat IPC: 0.113276 cumulative IPC: 0.116444 (Simulation time: 0 hr 15 min 3 sec) 
Heartbeat CPU 0 instructions: 86000002 cycles: 738012716 heartbeat IPC: 0.106047 cumulative IPC: 0.116294 (Simulation time: 0 hr 15 min 16 sec) 
Heartbeat CPU 0 instructions: 87000001 cycles: 745578924 heartbeat IPC: 0.132166 cumulative IPC: 0.116476 (Simulation time: 0 hr 15 min 26 sec) 
Heartbeat CPU 0 instructions: 88000000 cycles: 753333446 heartbeat IPC: 0.128957 cumulative IPC: 0.11662 (Simulation time: 0 hr 15 min 36 sec) 
Heartbeat CPU 0 instructions: 89000002 cycles: 761152553 heartbeat IPC: 0.127892 cumulative IPC: 0.116751 (Simulation time: 0 hr 15 min 46 sec) 
Heartbeat CPU 0 instructions: 90000000 cycles: 768828149 heartbeat IPC: 0.130283 cumulative IPC: 0.116902 (Simulation time: 0 hr 15 min 56 sec) 
Heartbeat CPU 0 instructions: 91000002 cycles: 778627565 heartbeat IPC: 0.102047 cumulative IPC: 0.116693 (Simulation time: 0 hr 16 min 9 sec) 
Heartbeat CPU 0 instructions: 92000000 cycles: 786968721 heartbeat IPC: 0.119887 cumulative IPC: 0.116731 (Simulation time: 0 hr 16 min 18 sec) 
Heartbeat CPU 0 instructions: 93000000 cycles: 795648388 heartbeat IPC: 0.115212 cumulative IPC: 0.116712 (Simulation time: 0 hr 16 min 28 sec) 
Heartbeat CPU 0 instructions: 94000000 cycles: 804479396 heartbeat IPC: 0.113237 cumulative IPC: 0.11667 (Simulation time: 0 hr 16 min 38 sec) 
Heartbeat CPU 0 instructions: 95000001 cycles: 812124323 heartbeat IPC: 0.130806 cumulative IPC: 0.116818 (Simulation time: 0 hr 16 min 48 sec) 
Heartbeat CPU 0 instructions: 96000002 cycles: 821775920 heartbeat IPC: 0.10361 cumulative IPC: 0.116645 (Simulation time: 0 hr 17 min 0 sec) 
Heartbeat CPU 0 instructions: 97000002 cycles: 830024728 heartbeat IPC: 0.12123 cumulative IPC: 0.116696 (Simulation time: 0 hr 17 min 10 sec) 
Heartbeat CPU 0 instructions: 98000003 cycles: 839008013 heartbeat IPC: 0.111318 cumulative IPC: 0.116632 (Simulation time: 0 hr 17 min 20 sec) 
Heartbeat CPU 0 instructions: 99000000 cycles: 848036941 heartbeat IPC: 0.110755 cumulative IPC: 0.116562 (Simulation time: 0 hr 17 min 29 sec) 
Heartbeat CPU 0 instructions: 100000000 cycles: 856654972 heartbeat IPC: 0.116036 cumulative IPC: 0.116556 (Simulation time: 0 hr 17 min 39 sec) 
Heartbeat CPU 0 instructions: 101000000 cycles: 866562883 heartbeat IPC: 0.100929 cumulative IPC: 0.116359 (Simulation time: 0 hr 17 min 52 sec) 
Heartbeat CPU 0 instructions: 102000001 cycles: 874331388 heartbeat IPC: 0.128725 cumulative IPC: 0.11648 (Simulation time: 0 hr 18 min 2 sec) 
Heartbeat CPU 0 instructions: 103000001 cycles: 882116066 heartbeat IPC: 0.128457 cumulative IPC: 0.116597 (Simulation time: 0 hr 18 min 11 sec) 
Heartbeat CPU 0 instructions: 104000003 cycles: 889656840 heartbeat IPC: 0.132613 cumulative IPC: 0.116747 (Simulation time: 0 hr 18 min 21 sec) 
Heartbeat CPU 0 instructions: 105000001 cycles: 896774245 heartbeat IPC: 0.1405 cumulative IPC: 0.116955 (Simulation time: 0 hr 18 min 31 sec) 
Heartbeat CPU 0 instructions: 106000001 cycles: 906207121 heartbeat IPC: 0.106012 cumulative IPC: 0.11683 (Simulation time: 0 hr 18 min 44 sec) 
Heartbeat CPU 0 instructions: 107000003 cycles: 914235291 heartbeat IPC: 0.124562 cumulative IPC: 0.116904 (Simulation time: 0 hr 18 min 53 sec) 
Heartbeat CPU 0 instructions: 108000002 cycles: 924422460 heartbeat IPC: 0.0981626 cumulative IPC: 0.116677 (Simulation time: 0 hr 19 min 5 sec) 
Heartbeat CPU 0 instructions: 109000000 cycles: 932363147 heartbeat IPC: 0.125933 cumulative IPC: 0.116764 (Simulation time: 0 hr 19 min 16 sec) 
Heartbeat CPU 0 instructions: 110000000 cycles: 940276569 heartbeat IPC: 0.126368 cumulative IPC: 0.116853 (Simulation time: 0 hr 19 min 25 sec) 
Heartbeat CPU 0 instructions: 111000000 cycles: 948217784 heartbeat IPC: 0.125925 cumulative IPC: 0.116936 (Simulation time: 0 hr 19 min 35 sec) 
Heartbeat CPU 0 instructions: 112000001 cycles: 957726548 heartbeat IPC: 0.105166 cumulative IPC: 0.116808 (Simulation time: 0 hr 19 min 46 sec) 
Heartbeat CPU 0 instructions: 113000000 cycles: 965911225 heartbeat IPC: 0.122179 cumulative IPC: 0.116858 (Simulation time: 0 hr 19 min 57 sec) 
Heartbeat CPU 0 instructions: 114000001 cycles: 974903253 heartbeat IPC: 0.11121 cumulative IPC: 0.116801 (Simulation time: 0 hr 20 min 7 sec) 
Heartbeat CPU 0 instructions: 115000001 cycles: 983750825 heartbeat IPC: 0.113025 cumulative IPC: 0.116763 (Simulation time: 0 hr 20 min 19 sec) 
Heartbeat CPU 0 instructions: 116000001 cycles: 991814699 heartbeat IPC: 0.12401 cumulative IPC: 0.116828 (Simulation time: 0 hr 20 min 29 sec) 
Heartbeat CPU 0 instructions: 117000002 cycles: 1000291608 heartbeat IPC: 0.117968 cumulative IPC: 0.116838 (Simulation time: 0 hr 20 min 38 sec) 
Heartbeat CPU 0 instructions: 118000000 cycles: 1010391893 heartbeat IPC: 0.0990069 cumulative IPC: 0.116644 (Simulation time: 0 hr 20 min 52 sec) 
Heartbeat CPU 0 instructions: 119000002 cycles: 1018541552 heartbeat IPC: 0.122705 cumulative IPC: 0.116697 (Simulation time: 0 hr 21 min 1 sec) 
Heartbeat CPU 0 instructions: 120000001 cycles: 1026634350 heartbeat IPC: 0.123567 cumulative IPC: 0.116756 (Simulation time: 0 hr 21 min 11 sec) 
Heartbeat CPU 0 instructions: 121000000 cycles: 1034560845 heartbeat IPC: 0.126159 cumulative IPC: 0.116834 (Simulation time: 0 hr 21 min 21 sec) 
Heartbeat CPU 0 instructions: 122000000 cycles: 1042639748 heartbeat IPC: 0.123779 cumulative IPC: 0.116893 (Simulation time: 0 hr 21 min 30 sec) 
Heartbeat CPU 0 instructions: 123000002 cycles: 1052541221 heartbeat IPC: 0.100995 cumulative IPC: 0.11673 (Simulation time: 0 hr 21 min 43 sec) 
Heartbeat CPU 0 instructions: 124000000 cycles: 1060429179 heartbeat IPC: 0.126775 cumulative IPC: 0.116811 (Simulation time: 0 hr 21 min 52 sec) 
Heartbeat CPU 0 instructions: 125000002 cycles: 1068886106 heartbeat IPC: 0.118246 cumulative IPC: 0.116824 (Simulation time: 0 hr 22 min 2 sec) 
Heartbeat CPU 0 instructions: 126000000 cycles: 1077514636 heartbeat IPC: 0.115894 cumulative IPC: 0.116816 (Simulation time: 0 hr 22 min 12 sec) 
Heartbeat CPU 0 instructions: 127000000 cycles: 1087684676 heartbeat IPC: 0.098328 cumulative IPC: 0.116628 (Simulation time: 0 hr 22 min 24 sec) 
Heartbeat CPU 0 instructions: 128000000 cycles: 1095666690 heartbeat IPC: 0.125282 cumulative IPC: 0.116697 (Simulation time: 0 hr 22 min 34 sec) 
Heartbeat CPU 0 instructions: 129000002 cycles: 1105315417 heartbeat IPC: 0.103641 cumulative IPC: 0.116573 (Simulation time: 0 hr 22 min 47 sec) 
Heartbeat CPU 0 instructions: 130000002 cycles: 1113445500 heartbeat IPC: 0.123 cumulative IPC: 0.116624 (Simulation time: 0 hr 22 min 56 sec) 
Heartbeat CPU 0 instructions: 131000000 cycles: 1121807465 heartbeat IPC: 0.119589 cumulative IPC: 0.116648 (Simulation time: 0 hr 23 min 5 sec) 
Heartbeat CPU 0 instructions: 132000000 cycles: 1133577925 heartbeat IPC: 0.0849584 cumulative IPC: 0.116292 (Simulation time: 0 hr 23 min 20 sec) 
Heartbeat CPU 0 instructions: 133000001 cycles: 1143457285 heartbeat IPC: 0.101221 cumulative IPC: 0.116152 (Simulation time: 0 hr 23 min 35 sec) 
Heartbeat CPU 0 instructions: 134000001 cycles: 1151601495 heartbeat IPC: 0.122787 cumulative IPC: 0.116202 (Simulation time: 0 hr 23 min 44 sec) 
Heartbeat CPU 0 instructions: 135000003 cycles: 1160386848 heartbeat IPC: 0.113826 cumulative IPC: 0.116183 (Simulation time: 0 hr 23 min 54 sec) 
Heartbeat CPU 0 instructions: 136000001 cycles: 1170269830 heartbeat IPC: 0.101184 cumulative IPC: 0.116046 (Simulation time: 0 hr 24 min 4 sec) 
Heartbeat CPU 0 instructions: 137000002 cycles: 1179255131 heartbeat IPC: 0.111293 cumulative IPC: 0.116007 (Simulation time: 0 hr 24 min 16 sec) 
Heartbeat CPU 0 instructions: 138000003 cycles: 1187463963 heartbeat IPC: 0.12182 cumulative IPC: 0.116051 (Simulation time: 0 hr 24 min 26 sec) 
Heartbeat CPU 0 instructions: 139000002 cycles: 1195781388 heartbeat IPC: 0.120229 cumulative IPC: 0.116082 (Simulation time: 0 hr 24 min 36 sec) 
Heartbeat CPU 0 instructions: 140000001 cycles: 1205911115 heartbeat IPC: 0.0987192 cumulative IPC: 0.115925 (Simulation time: 0 hr 24 min 49 sec) 
Heartbeat CPU 0 instructions: 141000003 cycles: 1213893782 heartbeat IPC: 0.125272 cumulative IPC: 0.115991 (Simulation time: 0 hr 24 min 58 sec) 
Heartbeat CPU 0 instructions: 142000001 cycles: 1222099106 heartbeat IPC: 0.121872 cumulative IPC: 0.116034 (Simulation time: 0 hr 25 min 8 sec) 
Heartbeat CPU 0 instructions: 143000000 cycles: 1230429332 heartbeat IPC: 0.120045 cumulative IPC: 0.116063 (Simulation time: 0 hr 25 min 18 sec) 
Heartbeat CPU 0 instructions: 144000002 cycles: 1240512955 heartbeat IPC: 0.0991709 cumulative IPC: 0.115915 (Simulation time: 0 hr 25 min 31 sec) 
Heartbeat CPU 0 instructions: 145000000 cycles: 1248217026 heartbeat IPC: 0.129801 cumulative IPC: 0.116007 (Simulation time: 0 hr 25 min 40 sec) 
Heartbeat CPU 0 instructions: 146000000 cycles: 1256202895 heartbeat IPC: 0.125221 cumulative IPC: 0.11607 (Simulation time: 0 hr 25 min 50 sec) 
Heartbeat CPU 0 instructions: 147000001 cycles: 1266020840 heartbeat IPC: 0.101854 cumulative IPC: 0.115952 (Simulation time: 0 hr 26 min 3 sec) 
Heartbeat CPU 0 instructions: 148000000 cycles: 1273492003 heartbeat IPC: 0.133848 cumulative IPC: 0.116064 (Simulation time: 0 hr 26 min 13 sec) 
Heartbeat CPU 0 instructions: 149000001 cycles: 1283249297 heartbeat IPC: 0.102488 cumulative IPC: 0.115954 (Simulation time: 0 hr 26 min 26 sec) 
Heartbeat CPU 0 instructions: 150000003 cycles: 1291455071 heartbeat IPC: 0.121866 cumulative IPC: 0.115994 (Simulation time: 0 hr 26 min 35 sec) 
Heartbeat CPU 0 instructions: 151000003 cycles: 1299742275 heartbeat IPC: 0.120668 cumulative IPC: 0.116026 (Simulation time: 0 hr 26 min 45 sec) 
Heartbeat CPU 0 instructions: 152000000 cycles: 1309736119 heartbeat IPC: 0.100061 cumulative IPC: 0.115896 (Simulation time: 0 hr 26 min 58 sec) 
Heartbeat CPU 0 instructions: 153000003 cycles: 1317522879 heartbeat IPC: 0.128423 cumulative IPC: 0.115975 (Simulation time: 0 hr 27 min 7 sec) 
Heartbeat CPU 0 instructions: 154000000 cycles: 1326048717 heartbeat IPC: 0.11729 cumulative IPC: 0.115984 (Simulation time: 0 hr 27 min 16 sec) 
Heartbeat CPU 0 instructions: 155000003 cycles: 1334578153 heartbeat IPC: 0.117241 cumulative IPC: 0.115992 (Simulation time: 0 hr 27 min 26 sec) 
Heartbeat CPU 0 instructions: 156000002 cycles: 1344400714 heartbeat IPC: 0.101806 cumulative IPC: 0.115882 (Simulation time: 0 hr 27 min 38 sec) 
Heartbeat CPU 0 instructions: 157000001 cycles: 1352480740 heartbeat IPC: 0.123762 cumulative IPC: 0.115932 (Simulation time: 0 hr 27 min 48 sec) 
Heartbeat CPU 0 instructions: 158000000 cycles: 1361021186 heartbeat IPC: 0.11709 cumulative IPC: 0.11594 (Simulation time: 0 hr 27 min 57 sec) 
Heartbeat CPU 0 instructions: 159000001 cycles: 1369660771 heartbeat IPC: 0.115746 cumulative IPC: 0.115939 (Simulation time: 0 hr 28 min 7 sec) 
Heartbeat CPU 0 instructions: 160000002 cycles: 1379733748 heartbeat IPC: 0.0992756 cumulative IPC: 0.115809 (Simulation time: 0 hr 28 min 19 sec) 
Heartbeat CPU 0 instructions: 161000000 cycles: 1387558206 heartbeat IPC: 0.127804 cumulative IPC: 0.115881 (Simulation time: 0 hr 28 min 29 sec) 
Heartbeat CPU 0 instructions: 162000001 cycles: 1395253187 heartbeat IPC: 0.129955 cumulative IPC: 0.115964 (Simulation time: 0 hr 28 min 38 sec) 
Heartbeat CPU 0 instructions: 163000002 cycles: 1405022529 heartbeat IPC: 0.102361 cumulative IPC: 0.115863 (Simulation time: 0 hr 28 min 51 sec) 
Heartbeat CPU 0 instructions: 164000002 cycles: 1413391474 heartbeat IPC: 0.119489 cumulative IPC: 0.115886 (Simulation time: 0 hr 29 min 1 sec) 
Heartbeat CPU 0 instructions: 165000000 cycles: 1422503541 heartbeat IPC: 0.109744 cumulative IPC: 0.115844 (Simulation time: 0 hr 29 min 10 sec) 
Heartbeat CPU 0 instructions: 166000001 cycles: 1434129256 heartbeat IPC: 0.0860163 cumulative IPC: 0.115587 (Simulation time: 0 hr 29 min 27 sec) 
Heartbeat CPU 0 instructions: 167000002 cycles: 1441872006 heartbeat IPC: 0.129153 cumulative IPC: 0.115664 (Simulation time: 0 hr 29 min 36 sec) 
Heartbeat CPU 0 instructions: 168000002 cycles: 1450409225 heartbeat IPC: 0.117134 cumulative IPC: 0.115674 (Simulation time: 0 hr 29 min 46 sec) 
Heartbeat CPU 0 instructions: 169000001 cycles: 1459422230 heartbeat IPC: 0.110951 cumulative IPC: 0.115643 (Simulation time: 0 hr 29 min 55 sec) 
Heartbeat CPU 0 instructions: 170000000 cycles: 1469804017 heartbeat IPC: 0.0963224 cumulative IPC: 0.115498 (Simulation time: 0 hr 30 min 6 sec) 
Heartbeat CPU 0 instructions: 171000000 cycles: 1477935262 heartbeat IPC: 0.122982 cumulative IPC: 0.115542 (Simulation time: 0 hr 30 min 17 sec) 
Heartbeat CPU 0 instructions: 172000002 cycles: 1486185333 heartbeat IPC: 0.121211 cumulative IPC: 0.115575 (Simulation time: 0 hr 30 min 27 sec) 
Heartbeat CPU 0 instructions: 173000001 cycles: 1494641872 heartbeat IPC: 0.118252 cumulative IPC: 0.115591 (Simulation time: 0 hr 30 min 36 sec) 
Heartbeat CPU 0 instructions: 174000003 cycles: 1503147846 heartbeat IPC: 0.117565 cumulative IPC: 0.115603 (Simulation time: 0 hr 30 min 46 sec) 
Heartbeat CPU 0 instructions: 175000002 cycles: 1513378241 heartbeat IPC: 0.0977478 cumulative IPC: 0.115475 (Simulation time: 0 hr 30 min 57 sec) 
Heartbeat CPU 0 instructions: 176000000 cycles: 1521213690 heartbeat IPC: 0.127625 cumulative IPC: 0.115541 (Simulation time: 0 hr 31 min 8 sec) 
Heartbeat CPU 0 instructions: 177000000 cycles: 1529637758 heartbeat IPC: 0.118707 cumulative IPC: 0.11556 (Simulation time: 0 hr 31 min 17 sec) 
Heartbeat CPU 0 instructions: 178000002 cycles: 1540078891 heartbeat IPC: 0.0957752 cumulative IPC: 0.115418 (Simulation time: 0 hr 31 min 28 sec) 
Heartbeat CPU 0 instructions: 179000002 cycles: 1547903099 heartbeat IPC: 0.127808 cumulative IPC: 0.115484 (Simulation time: 0 hr 31 min 39 sec) 
Heartbeat CPU 0 instructions: 180000002 cycles: 1555629491 heartbeat IPC: 0.129427 cumulative IPC: 0.115557 (Simulation time: 0 hr 31 min 49 sec) 
Heartbeat CPU 0 instructions: 181000003 cycles: 1563317542 heartbeat IPC: 0.130072 cumulative IPC: 0.115633 (Simulation time: 0 hr 31 min 59 sec) 
Heartbeat CPU 0 instructions: 182000000 cycles: 1570683296 heartbeat IPC: 0.135763 cumulative IPC: 0.115732 (Simulation time: 0 hr 32 min 9 sec) 
Heartbeat CPU 0 instructions: 183000001 cycles: 1580059181 heartbeat IPC: 0.106657 cumulative IPC: 0.115676 (Simulation time: 0 hr 32 min 23 sec) 
Heartbeat CPU 0 instructions: 184000003 cycles: 1589499353 heartbeat IPC: 0.10593 cumulative IPC: 0.115614 (Simulation time: 0 hr 32 min 36 sec) 
Heartbeat CPU 0 instructions: 185000001 cycles: 1599188327 heartbeat IPC: 0.10321 cumulative IPC: 0.115535 (Simulation time: 0 hr 32 min 49 sec) 
Heartbeat CPU 0 instructions: 186000000 cycles: 1606904831 heartbeat IPC: 0.129592 cumulative IPC: 0.115606 (Simulation time: 0 hr 32 min 59 sec) 
Heartbeat CPU 0 instructions: 187000000 cycles: 1616578065 heartbeat IPC: 0.103378 cumulative IPC: 0.115529 (Simulation time: 0 hr 33 min 12 sec) 
Heartbeat CPU 0 instructions: 188000001 cycles: 1624546867 heartbeat IPC: 0.12549 cumulative IPC: 0.115581 (Simulation time: 0 hr 33 min 21 sec) 
Heartbeat CPU 0 instructions: 189000001 cycles: 1632630704 heartbeat IPC: 0.123704 cumulative IPC: 0.115623 (Simulation time: 0 hr 33 min 31 sec) 
Heartbeat CPU 0 instructions: 190000002 cycles: 1641867623 heartbeat IPC: 0.108261 cumulative IPC: 0.115579 (Simulation time: 0 hr 33 min 41 sec) 
Heartbeat CPU 0 instructions: 191000000 cycles: 1650428095 heartbeat IPC: 0.116816 cumulative IPC: 0.115586 (Simulation time: 0 hr 33 min 53 sec) 
Heartbeat CPU 0 instructions: 192000002 cycles: 1660053683 heartbeat IPC: 0.10389 cumulative IPC: 0.115515 (Simulation time: 0 hr 34 min 6 sec) 
Heartbeat CPU 0 instructions: 193000003 cycles: 1667631741 heartbeat IPC: 0.13196 cumulative IPC: 0.115593 (Simulation time: 0 hr 34 min 16 sec) 
Heartbeat CPU 0 instructions: 194000001 cycles: 1675530874 heartbeat IPC: 0.126596 cumulative IPC: 0.115648 (Simulation time: 0 hr 34 min 25 sec) 
Heartbeat CPU 0 instructions: 195000002 cycles: 1683516687 heartbeat IPC: 0.125222 cumulative IPC: 0.115696 (Simulation time: 0 hr 34 min 35 sec) 
Heartbeat CPU 0 instructions: 196000001 cycles: 1693189240 heartbeat IPC: 0.103385 cumulative IPC: 0.115622 (Simulation time: 0 hr 34 min 48 sec) 
Heartbeat CPU 0 instructions: 197000002 cycles: 1700706254 heartbeat IPC: 0.133032 cumulative IPC: 0.115703 (Simulation time: 0 hr 34 min 58 sec) 
Heartbeat CPU 0 instructions: 198000000 cycles: 1708560408 heartbeat IPC: 0.127321 cumulative IPC: 0.115759 (Simulation time: 0 hr 35 min 8 sec) 
Heartbeat CPU 0 instructions: 199000002 cycles: 1716464678 heartbeat IPC: 0.126514 cumulative IPC: 0.115811 (Simulation time: 0 hr 35 min 17 sec) 
Heartbeat CPU 0 instructions: 200000000 cycles: 1724349670 heartbeat IPC: 0.126823 cumulative IPC: 0.115864 (Simulation time: 0 hr 35 min 27 sec) 
Heartbeat CPU 0 instructions: 201000000 cycles: 1733976478 heartbeat IPC: 0.103877 cumulative IPC: 0.115794 (Simulation time: 0 hr 35 min 40 sec) 
Heartbeat CPU 0 instructions: 202000001 cycles: 1743775716 heartbeat IPC: 0.102049 cumulative IPC: 0.115713 (Simulation time: 0 hr 35 min 53 sec) 
Heartbeat CPU 0 instructions: 203000003 cycles: 1752365795 heartbeat IPC: 0.116414 cumulative IPC: 0.115717 (Simulation time: 0 hr 36 min 3 sec) 
Heartbeat CPU 0 instructions: 204000001 cycles: 1761648356 heartbeat IPC: 0.107729 cumulative IPC: 0.115672 (Simulation time: 0 hr 36 min 16 sec) 
Heartbeat CPU 0 instructions: 205000003 cycles: 1769736093 heartbeat IPC: 0.123644 cumulative IPC: 0.115711 (Simulation time: 0 hr 36 min 25 sec) 
Heartbeat CPU 0 instructions: 206000003 cycles: 1778139420 heartbeat IPC: 0.119 cumulative IPC: 0.115727 (Simulation time: 0 hr 36 min 35 sec) 
Heartbeat CPU 0 instructions: 207000002 cycles: 1786752111 heartbeat IPC: 0.116108 cumulative IPC: 0.115729 (Simulation time: 0 hr 36 min 45 sec) 
Heartbeat CPU 0 instructions: 208000001 cycles: 1795294600 heartbeat IPC: 0.117062 cumulative IPC: 0.115736 (Simulation time: 0 hr 36 min 55 sec) 
Heartbeat CPU 0 instructions: 209000000 cycles: 1805153313 heartbeat IPC: 0.101433 cumulative IPC: 0.115654 (Simulation time: 0 hr 37 min 8 sec) 
Heartbeat CPU 0 instructions: 210000000 cycles: 1812729077 heartbeat IPC: 0.132 cumulative IPC: 0.115725 (Simulation time: 0 hr 37 min 17 sec) 
Heartbeat CPU 0 instructions: 211000000 cycles: 1820352497 heartbeat IPC: 0.131175 cumulative IPC: 0.115793 (Simulation time: 0 hr 37 min 27 sec) 
Heartbeat CPU 0 instructions: 212000000 cycles: 1828031726 heartbeat IPC: 0.130221 cumulative IPC: 0.115857 (Simulation time: 0 hr 37 min 37 sec) 
Heartbeat CPU 0 instructions: 213000003 cycles: 1837622279 heartbeat IPC: 0.10427 cumulative IPC: 0.115793 (Simulation time: 0 hr 37 min 51 sec) 
Heartbeat CPU 0 instructions: 214000000 cycles: 1845549153 heartbeat IPC: 0.126153 cumulative IPC: 0.11584 (Simulation time: 0 hr 38 min 0 sec) 
Heartbeat CPU 0 instructions: 215000000 cycles: 1855418202 heartbeat IPC: 0.101327 cumulative IPC: 0.115759 (Simulation time: 0 hr 38 min 13 sec) 
Heartbeat CPU 0 instructions: 216000001 cycles: 1863544216 heartbeat IPC: 0.123062 cumulative IPC: 0.115792 (Simulation time: 0 hr 38 min 23 sec) 
Heartbeat CPU 0 instructions: 217000001 cycles: 1871488235 heartbeat IPC: 0.125881 cumulative IPC: 0.115837 (Simulation time: 0 hr 38 min 32 sec) 
Heartbeat CPU 0 instructions: 218000003 cycles: 1881343081 heartbeat IPC: 0.101473 cumulative IPC: 0.115758 (Simulation time: 0 hr 38 min 45 sec) 
Heartbeat CPU 0 instructions: 219000001 cycles: 1889487485 heartbeat IPC: 0.122783 cumulative IPC: 0.11579 (Simulation time: 0 hr 38 min 54 sec) 
Heartbeat CPU 0 instructions: 220000000 cycles: 1897864310 heartbeat IPC: 0.119377 cumulative IPC: 0.115807 (Simulation time: 0 hr 39 min 4 sec) 
Heartbeat CPU 0 instructions: 221000003 cycles: 1907900366 heartbeat IPC: 0.099641 cumulative IPC: 0.115718 (Simulation time: 0 hr 39 min 17 sec) 
Heartbeat CPU 0 instructions: 222000000 cycles: 1917443737 heartbeat IPC: 0.104784 cumulative IPC: 0.115661 (Simulation time: 0 hr 39 min 30 sec) 
Heartbeat CPU 0 instructions: 223000000 cycles: 1925570116 heartbeat IPC: 0.123056 cumulative IPC: 0.115693 (Simulation time: 0 hr 39 min 39 sec) 
Heartbeat CPU 0 instructions: 224000002 cycles: 1934055186 heartbeat IPC: 0.117854 cumulative IPC: 0.115703 (Simulation time: 0 hr 39 min 49 sec) 
Heartbeat CPU 0 instructions: 225000000 cycles: 1942653004 heartbeat IPC: 0.116308 cumulative IPC: 0.115706 (Simulation time: 0 hr 39 min 58 sec) 
Heartbeat CPU 0 instructions: 226000000 cycles: 1952977516 heartbeat IPC: 0.0968569 cumulative IPC: 0.115602 (Simulation time: 0 hr 40 min 10 sec) 
Heartbeat CPU 0 instructions: 227000000 cycles: 1960955355 heartbeat IPC: 0.125347 cumulative IPC: 0.115643 (Simulation time: 0 hr 40 min 20 sec) 
Heartbeat CPU 0 instructions: 228000003 cycles: 1969251788 heartbeat IPC: 0.120534 cumulative IPC: 0.115665 (Simulation time: 0 hr 40 min 29 sec) 
Heartbeat CPU 0 instructions: 229000002 cycles: 1977537223 heartbeat IPC: 0.120694 cumulative IPC: 0.115687 (Simulation time: 0 hr 40 min 39 sec) 
Heartbeat CPU 0 instructions: 230000003 cycles: 1985535841 heartbeat IPC: 0.125022 cumulative IPC: 0.115726 (Simulation time: 0 hr 40 min 48 sec) 
Heartbeat CPU 0 instructions: 231000000 cycles: 1994108520 heartbeat IPC: 0.116649 cumulative IPC: 0.11573 (Simulation time: 0 hr 40 min 58 sec) 
Heartbeat CPU 0 instructions: 232000000 cycles: 2003086347 heartbeat IPC: 0.111386 cumulative IPC: 0.11571 (Simulation time: 0 hr 41 min 11 sec) 
Heartbeat CPU 0 instructions: 233000000 cycles: 2010770172 heartbeat IPC: 0.130144 cumulative IPC: 0.115768 (Simulation time: 0 hr 41 min 20 sec) 
Heartbeat CPU 0 instructions: 234000003 cycles: 2018361497 heartbeat IPC: 0.13173 cumulative IPC: 0.11583 (Simulation time: 0 hr 41 min 30 sec) 
Heartbeat CPU 0 instructions: 235000000 cycles: 2025668677 heartbeat IPC: 0.136851 cumulative IPC: 0.115909 (Simulation time: 0 hr 41 min 40 sec) 
Heartbeat CPU 0 instructions: 236000003 cycles: 2035251949 heartbeat IPC: 0.104349 cumulative IPC: 0.115853 (Simulation time: 0 hr 41 min 53 sec) 
Heartbeat CPU 0 instructions: 237000000 cycles: 2042878105 heartbeat IPC: 0.131127 cumulative IPC: 0.115912 (Simulation time: 0 hr 42 min 3 sec) 
Heartbeat CPU 0 instructions: 238000003 cycles: 2050510317 heartbeat IPC: 0.131024 cumulative IPC: 0.115971 (Simulation time: 0 hr 42 min 12 sec) 
Heartbeat CPU 0 instructions: 239000000 cycles: 2058047684 heartbeat IPC: 0.132672 cumulative IPC: 0.116035 (Simulation time: 0 hr 42 min 22 sec) 
Heartbeat CPU 0 instructions: 240000000 cycles: 2066662096 heartbeat IPC: 0.116085 cumulative IPC: 0.116035 (Simulation time: 0 hr 42 min 33 sec) 
Heartbeat CPU 0 instructions: 241000003 cycles: 2075052573 heartbeat IPC: 0.119183 cumulative IPC: 0.116048 (Simulation time: 0 hr 42 min 45 sec) 
Heartbeat CPU 0 instructions: 242000000 cycles: 2083567922 heartbeat IPC: 0.117435 cumulative IPC: 0.116054 (Simulation time: 0 hr 42 min 54 sec) 
Heartbeat CPU 0 instructions: 243000001 cycles: 2092426395 heartbeat IPC: 0.112886 cumulative IPC: 0.11604 (Simulation time: 0 hr 43 min 4 sec) 
Heartbeat CPU 0 instructions: 244000001 cycles: 2102916570 heartbeat IPC: 0.0953273 cumulative IPC: 0.115932 (Simulation time: 0 hr 43 min 15 sec) 
Heartbeat CPU 0 instructions: 245000000 cycles: 2110895931 heartbeat IPC: 0.125323 cumulative IPC: 0.115969 (Simulation time: 0 hr 43 min 26 sec) 
Heartbeat CPU 0 instructions: 246000000 cycles: 2119281702 heartbeat IPC: 0.11925 cumulative IPC: 0.115983 (Simulation time: 0 hr 43 min 35 sec) 
Heartbeat CPU 0 instructions: 247000000 cycles: 2127850819 heartbeat IPC: 0.116698 cumulative IPC: 0.115986 (Simulation time: 0 hr 43 min 45 sec) 
Heartbeat CPU 0 instructions: 248000001 cycles: 2136535935 heartbeat IPC: 0.11514 cumulative IPC: 0.115982 (Simulation time: 0 hr 43 min 54 sec) 
Heartbeat CPU 0 instructions: 249000001 cycles: 2146193960 heartbeat IPC: 0.103541 cumulative IPC: 0.115924 (Simulation time: 0 hr 44 min 4 sec) 
Heartbeat CPU 0 instructions: 250000002 cycles: 2154866148 heartbeat IPC: 0.115311 cumulative IPC: 0.115921 (Simulation time: 0 hr 44 min 16 sec) 
Heartbeat CPU 0 instructions: 251000000 cycles: 2164546301 heartbeat IPC: 0.103304 cumulative IPC: 0.115863 (Simulation time: 0 hr 44 min 29 sec) 
Heartbeat CPU 0 instructions: 252000001 cycles: 2172611405 heartbeat IPC: 0.123991 cumulative IPC: 0.115894 (Simulation time: 0 hr 44 min 39 sec) 
Heartbeat CPU 0 instructions: 253000000 cycles: 2182680073 heartbeat IPC: 0.0993179 cumulative IPC: 0.115814 (Simulation time: 0 hr 44 min 51 sec) 
Heartbeat CPU 0 instructions: 254000000 cycles: 2194473590 heartbeat IPC: 0.0847923 cumulative IPC: 0.115641 (Simulation time: 0 hr 45 min 8 sec) 
Heartbeat CPU 0 instructions: 255000003 cycles: 2202167061 heartbeat IPC: 0.129981 cumulative IPC: 0.115693 (Simulation time: 0 hr 45 min 18 sec) 
Heartbeat CPU 0 instructions: 256000001 cycles: 2210462997 heartbeat IPC: 0.120541 cumulative IPC: 0.115712 (Simulation time: 0 hr 45 min 27 sec) 
Heartbeat CPU 0 instructions: 257000002 cycles: 2220574652 heartbeat IPC: 0.0988959 cumulative IPC: 0.115633 (Simulation time: 0 hr 45 min 40 sec) 
Heartbeat CPU 0 instructions: 258000003 cycles: 2228610861 heartbeat IPC: 0.124437 cumulative IPC: 0.115666 (Simulation time: 0 hr 45 min 49 sec) 
Heartbeat CPU 0 instructions: 259000000 cycles: 2237031956 heartbeat IPC: 0.118749 cumulative IPC: 0.115678 (Simulation time: 0 hr 45 min 58 sec) 
Heartbeat CPU 0 instructions: 260000000 cycles: 2248648606 heartbeat IPC: 0.0860833 cumulative IPC: 0.115519 (Simulation time: 0 hr 46 min 14 sec) 
Heartbeat CPU 0 instructions: 261000001 cycles: 2257366830 heartbeat IPC: 0.114702 cumulative IPC: 0.115515 (Simulation time: 0 hr 46 min 24 sec) 
Heartbeat CPU 0 instructions: 262000000 cycles: 2266095045 heartbeat IPC: 0.114571 cumulative IPC: 0.115512 (Simulation time: 0 hr 46 min 37 sec) 
Heartbeat CPU 0 instructions: 263000001 cycles: 2274302091 heartbeat IPC: 0.121847 cumulative IPC: 0.115535 (Simulation time: 0 hr 46 min 46 sec) 
Heartbeat CPU 0 instructions: 264000000 cycles: 2282587608 heartbeat IPC: 0.120692 cumulative IPC: 0.115555 (Simulation time: 0 hr 46 min 56 sec) 
Heartbeat CPU 0 instructions: 265000001 cycles: 2291794768 heartbeat IPC: 0.108611 cumulative IPC: 0.115526 (Simulation time: 0 hr 47 min 6 sec) 
Heartbeat CPU 0 instructions: 266000000 cycles: 2300778970 heartbeat IPC: 0.111306 cumulative IPC: 0.115509 (Simulation time: 0 hr 47 min 18 sec) 
Heartbeat CPU 0 instructions: 267000002 cycles: 2309079049 heartbeat IPC: 0.120481 cumulative IPC: 0.115527 (Simulation time: 0 hr 47 min 28 sec) 
Heartbeat CPU 0 instructions: 268000001 cycles: 2317285409 heartbeat IPC: 0.121857 cumulative IPC: 0.115551 (Simulation time: 0 hr 47 min 37 sec) 
Heartbeat CPU 0 instructions: 269000000 cycles: 2325272153 heartbeat IPC: 0.125207 cumulative IPC: 0.115585 (Simulation time: 0 hr 47 min 47 sec) 
Heartbeat CPU 0 instructions: 270000000 cycles: 2332911469 heartbeat IPC: 0.130902 cumulative IPC: 0.115637 (Simulation time: 0 hr 47 min 57 sec) 
Heartbeat CPU 0 instructions: 271000002 cycles: 2342447145 heartbeat IPC: 0.10487 cumulative IPC: 0.115592 (Simulation time: 0 hr 48 min 9 sec) 
Heartbeat CPU 0 instructions: 272000000 cycles: 2350572990 heartbeat IPC: 0.123064 cumulative IPC: 0.115618 (Simulation time: 0 hr 48 min 19 sec) 
Heartbeat CPU 0 instructions: 273000000 cycles: 2360659757 heartbeat IPC: 0.0991398 cumulative IPC: 0.115545 (Simulation time: 0 hr 48 min 32 sec) 
Heartbeat CPU 0 instructions: 274000003 cycles: 2368352843 heartbeat IPC: 0.129987 cumulative IPC: 0.115594 (Simulation time: 0 hr 48 min 41 sec) 
Heartbeat CPU 0 instructions: 275000000 cycles: 2376367831 heartbeat IPC: 0.124766 cumulative IPC: 0.115626 (Simulation time: 0 hr 48 min 51 sec) 
Heartbeat CPU 0 instructions: 276000000 cycles: 2386200325 heartbeat IPC: 0.101704 cumulative IPC: 0.115567 (Simulation time: 0 hr 49 min 3 sec) 
Heartbeat CPU 0 instructions: 277000001 cycles: 2394330531 heartbeat IPC: 0.122998 cumulative IPC: 0.115593 (Simulation time: 0 hr 49 min 13 sec) 
Heartbeat CPU 0 instructions: 278000002 cycles: 2402597014 heartbeat IPC: 0.120971 cumulative IPC: 0.115612 (Simulation time: 0 hr 49 min 23 sec) 
Heartbeat CPU 0 instructions: 279000001 cycles: 2412310301 heartbeat IPC: 0.102952 cumulative IPC: 0.115559 (Simulation time: 0 hr 49 min 35 sec) 
Heartbeat CPU 0 instructions: 280000001 cycles: 2420588525 heartbeat IPC: 0.120799 cumulative IPC: 0.115578 (Simulation time: 0 hr 49 min 45 sec) 
Heartbeat CPU 0 instructions: 281000000 cycles: 2429220346 heartbeat IPC: 0.11585 cumulative IPC: 0.115579 (Simulation time: 0 hr 49 min 54 sec) 
Heartbeat CPU 0 instructions: 282000003 cycles: 2439155080 heartbeat IPC: 0.100657 cumulative IPC: 0.115516 (Simulation time: 0 hr 50 min 7 sec) 
Heartbeat CPU 0 instructions: 283000001 cycles: 2446717609 heartbeat IPC: 0.132231 cumulative IPC: 0.115569 (Simulation time: 0 hr 50 min 17 sec) 
Heartbeat CPU 0 instructions: 284000000 cycles: 2454475434 heartbeat IPC: 0.128902 cumulative IPC: 0.115613 (Simulation time: 0 hr 50 min 27 sec) 
Heartbeat CPU 0 instructions: 285000002 cycles: 2464398749 heartbeat IPC: 0.100773 cumulative IPC: 0.115551 (Simulation time: 0 hr 50 min 40 sec) 
Heartbeat CPU 0 instructions: 286000000 cycles: 2472264804 heartbeat IPC: 0.127128 cumulative IPC: 0.115589 (Simulation time: 0 hr 50 min 49 sec) 
Heartbeat CPU 0 instructions: 287000000 cycles: 2480312557 heartbeat IPC: 0.124258 cumulative IPC: 0.115618 (Simulation time: 0 hr 50 min 59 sec) 
Heartbeat CPU 0 instructions: 288000001 cycles: 2488350052 heartbeat IPC: 0.124417 cumulative IPC: 0.115648 (Simulation time: 0 hr 51 min 8 sec) 
Heartbeat CPU 0 instructions: 289000001 cycles: 2497289848 heartbeat IPC: 0.111859 cumulative IPC: 0.115634 (Simulation time: 0 hr 51 min 18 sec) 
Heartbeat CPU 0 instructions: 290000000 cycles: 2507987992 heartbeat IPC: 0.0934741 cumulative IPC: 0.115536 (Simulation time: 0 hr 51 min 34 sec) 
Heartbeat CPU 0 instructions: 291000001 cycles: 2515860430 heartbeat IPC: 0.127026 cumulative IPC: 0.115573 (Simulation time: 0 hr 51 min 43 sec) 
Heartbeat CPU 0 instructions: 292000000 cycles: 2524402407 heartbeat IPC: 0.117069 cumulative IPC: 0.115578 (Simulation time: 0 hr 51 min 53 sec) 
Heartbeat CPU 0 instructions: 293000003 cycles: 2534291670 heartbeat IPC: 0.10112 cumulative IPC: 0.11552 (Simulation time: 0 hr 52 min 6 sec) 
Heartbeat CPU 0 instructions: 294000000 cycles: 2542442534 heartbeat IPC: 0.122686 cumulative IPC: 0.115544 (Simulation time: 0 hr 52 min 15 sec) 
Heartbeat CPU 0 instructions: 295000001 cycles: 2550692909 heartbeat IPC: 0.121207 cumulative IPC: 0.115563 (Simulation time: 0 hr 52 min 24 sec) 
Heartbeat CPU 0 instructions: 296000000 cycles: 2560382291 heartbeat IPC: 0.103206 cumulative IPC: 0.115514 (Simulation time: 0 hr 52 min 37 sec) 
Heartbeat CPU 0 instructions: 297000000 cycles: 2570408940 heartbeat IPC: 0.0997342 cumulative IPC: 0.115451 (Simulation time: 0 hr 52 min 50 sec) 
Heartbeat CPU 0 instructions: 298000000 cycles: 2578231965 heartbeat IPC: 0.127828 cumulative IPC: 0.115489 (Simulation time: 0 hr 53 min 0 sec) 
Heartbeat CPU 0 instructions: 299000000 cycles: 2586151069 heartbeat IPC: 0.126277 cumulative IPC: 0.115524 (Simulation time: 0 hr 53 min 9 sec) 
Heartbeat CPU 0 instructions: 300000003 cycles: 2593984265 heartbeat IPC: 0.127662 cumulative IPC: 0.115561 (Simulation time: 0 hr 53 min 19 sec) 
Heartbeat CPU 0 instructions: 301000001 cycles: 2603830799 heartbeat IPC: 0.101558 cumulative IPC: 0.115507 (Simulation time: 0 hr 53 min 32 sec) 
Heartbeat CPU 0 instructions: 302000003 cycles: 2613480499 heartbeat IPC: 0.10363 cumulative IPC: 0.115461 (Simulation time: 0 hr 53 min 42 sec) 
Heartbeat CPU 0 instructions: 303000000 cycles: 2621366426 heartbeat IPC: 0.126808 cumulative IPC: 0.115497 (Simulation time: 0 hr 53 min 54 sec) 
Heartbeat CPU 0 instructions: 304000000 cycles: 2629091456 heartbeat IPC: 0.129449 cumulative IPC: 0.115539 (Simulation time: 0 hr 54 min 4 sec) 
Heartbeat CPU 0 instructions: 305000003 cycles: 2637388728 heartbeat IPC: 0.120522 cumulative IPC: 0.115555 (Simulation time: 0 hr 54 min 14 sec) 
Heartbeat CPU 0 instructions: 306000001 cycles: 2646570394 heartbeat IPC: 0.108912 cumulative IPC: 0.115531 (Simulation time: 0 hr 54 min 27 sec) 
Heartbeat CPU 0 instructions: 307000000 cycles: 2654648923 heartbeat IPC: 0.123785 cumulative IPC: 0.115557 (Simulation time: 0 hr 54 min 36 sec) 
Heartbeat CPU 0 instructions: 308000000 cycles: 2665941488 heartbeat IPC: 0.0885538 cumulative IPC: 0.115439 (Simulation time: 0 hr 54 min 51 sec) 
Heartbeat CPU 0 instructions: 309000002 cycles: 2674133551 heartbeat IPC: 0.12207 cumulative IPC: 0.11546 (Simulation time: 0 hr 55 min 2 sec) 
Heartbeat CPU 0 instructions: 310000002 cycles: 2682516023 heartbeat IPC: 0.119297 cumulative IPC: 0.115473 (Simulation time: 0 hr 55 min 12 sec) 
Heartbeat CPU 0 instructions: 311000000 cycles: 2692854449 heartbeat IPC: 0.0967263 cumulative IPC: 0.115398 (Simulation time: 0 hr 55 min 25 sec) 
Heartbeat CPU 0 instructions: 312000001 cycles: 2700859745 heartbeat IPC: 0.124917 cumulative IPC: 0.115427 (Simulation time: 0 hr 55 min 34 sec) 
Heartbeat CPU 0 instructions: 313000002 cycles: 2709035358 heartbeat IPC: 0.122315 cumulative IPC: 0.115449 (Simulation time: 0 hr 55 min 44 sec) 
Heartbeat CPU 0 instructions: 314000000 cycles: 2717136491 heartbeat IPC: 0.123439 cumulative IPC: 0.115473 (Simulation time: 0 hr 55 min 53 sec) 
Heartbeat CPU 0 instructions: 315000001 cycles: 2724722355 heartbeat IPC: 0.131824 cumulative IPC: 0.11552 (Simulation time: 0 hr 56 min 3 sec) 
Heartbeat CPU 0 instructions: 316000001 cycles: 2731790762 heartbeat IPC: 0.141475 cumulative IPC: 0.11559 (Simulation time: 0 hr 56 min 13 sec) 
Heartbeat CPU 0 instructions: 317000002 cycles: 2741676864 heartbeat IPC: 0.101152 cumulative IPC: 0.115536 (Simulation time: 0 hr 56 min 25 sec) 
Heartbeat CPU 0 instructions: 318000002 cycles: 2751617242 heartbeat IPC: 0.1006 cumulative IPC: 0.11548 (Simulation time: 0 hr 56 min 38 sec) 
Heartbeat CPU 0 instructions: 319000000 cycles: 2759169878 heartbeat IPC: 0.132404 cumulative IPC: 0.115528 (Simulation time: 0 hr 56 min 48 sec) 
Heartbeat CPU 0 instructions: 320000000 cycles: 2766971370 heartbeat IPC: 0.128181 cumulative IPC: 0.115565 (Simulation time: 0 hr 56 min 57 sec) 
Heartbeat CPU 0 instructions: 321000000 cycles: 2774828921 heartbeat IPC: 0.127266 cumulative IPC: 0.115599 (Simulation time: 0 hr 57 min 7 sec) 
Heartbeat CPU 0 instructions: 322000001 cycles: 2782771666 heartbeat IPC: 0.125901 cumulative IPC: 0.115629 (Simulation time: 0 hr 57 min 17 sec) 
Heartbeat CPU 0 instructions: 323000000 cycles: 2792301227 heartbeat IPC: 0.104937 cumulative IPC: 0.115592 (Simulation time: 0 hr 57 min 28 sec) 
Heartbeat CPU 0 instructions: 324000002 cycles: 2800273555 heartbeat IPC: 0.125434 cumulative IPC: 0.115621 (Simulation time: 0 hr 57 min 39 sec) 
Heartbeat CPU 0 instructions: 325000003 cycles: 2808580664 heartbeat IPC: 0.120379 cumulative IPC: 0.115635 (Simulation time: 0 hr 57 min 49 sec) 
Heartbeat CPU 0 instructions: 326000000 cycles: 2817039570 heartbeat IPC: 0.118218 cumulative IPC: 0.115643 (Simulation time: 0 hr 57 min 58 sec) 
Heartbeat CPU 0 instructions: 327000000 cycles: 2827091436 heartbeat IPC: 0.099484 cumulative IPC: 0.115584 (Simulation time: 0 hr 58 min 11 sec) 
Heartbeat CPU 0 instructions: 328000002 cycles: 2835235109 heartbeat IPC: 0.122795 cumulative IPC: 0.115605 (Simulation time: 0 hr 58 min 20 sec) 
Heartbeat CPU 0 instructions: 329000002 cycles: 2843863437 heartbeat IPC: 0.115897 cumulative IPC: 0.115606 (Simulation time: 0 hr 58 min 30 sec) 
Heartbeat CPU 0 instructions: 330000000 cycles: 2852046842 heartbeat IPC: 0.122198 cumulative IPC: 0.115626 (Simulation time: 0 hr 58 min 40 sec) 
Heartbeat CPU 0 instructions: 331000000 cycles: 2860236500 heartbeat IPC: 0.122105 cumulative IPC: 0.115645 (Simulation time: 0 hr 58 min 49 sec) 
Heartbeat CPU 0 instructions: 332000000 cycles: 2870063886 heartbeat IPC: 0.101756 cumulative IPC: 0.115596 (Simulation time: 0 hr 59 min 2 sec) 
Heartbeat CPU 0 instructions: 333000002 cycles: 2878164290 heartbeat IPC: 0.123451 cumulative IPC: 0.115619 (Simulation time: 0 hr 59 min 11 sec) 
Heartbeat CPU 0 instructions: 334000002 cycles: 2888087736 heartbeat IPC: 0.100771 cumulative IPC: 0.115566 (Simulation time: 0 hr 59 min 24 sec) 
Heartbeat CPU 0 instructions: 335000003 cycles: 2896081709 heartbeat IPC: 0.125094 cumulative IPC: 0.115593 (Simulation time: 0 hr 59 min 34 sec) 
Heartbeat CPU 0 instructions: 336000002 cycles: 2903943750 heartbeat IPC: 0.127193 cumulative IPC: 0.115626 (Simulation time: 0 hr 59 min 43 sec) 
Heartbeat CPU 0 instructions: 337000001 cycles: 2911854170 heartbeat IPC: 0.126415 cumulative IPC: 0.115656 (Simulation time: 0 hr 59 min 53 sec) 
Heartbeat CPU 0 instructions: 338000001 cycles: 2919724468 heartbeat IPC: 0.12706 cumulative IPC: 0.115687 (Simulation time: 1 hr 0 min 3 sec) 
Heartbeat CPU 0 instructions: 339000000 cycles: 2929332346 heartbeat IPC: 0.104081 cumulative IPC: 0.115648 (Simulation time: 1 hr 0 min 15 sec) 
Heartbeat CPU 0 instructions: 340000001 cycles: 2937165145 heartbeat IPC: 0.127668 cumulative IPC: 0.115681 (Simulation time: 1 hr 0 min 25 sec) 
Heartbeat CPU 0 instructions: 341000000 cycles: 2946957148 heartbeat IPC: 0.102124 cumulative IPC: 0.115635 (Simulation time: 1 hr 0 min 36 sec) 
Heartbeat CPU 0 instructions: 342000002 cycles: 2955160246 heartbeat IPC: 0.121905 cumulative IPC: 0.115653 (Simulation time: 1 hr 0 min 47 sec) 
Heartbeat CPU 0 instructions: 343000000 cycles: 2963384043 heartbeat IPC: 0.121598 cumulative IPC: 0.11567 (Simulation time: 1 hr 0 min 57 sec) 
Heartbeat CPU 0 instructions: 344000003 cycles: 2971652269 heartbeat IPC: 0.120945 cumulative IPC: 0.115685 (Simulation time: 1 hr 1 min 6 sec) 
Heartbeat CPU 0 instructions: 345000002 cycles: 2980361243 heartbeat IPC: 0.114824 cumulative IPC: 0.115682 (Simulation time: 1 hr 1 min 16 sec) 
Heartbeat CPU 0 instructions: 346000000 cycles: 2989847779 heartbeat IPC: 0.105412 cumulative IPC: 0.115649 (Simulation time: 1 hr 1 min 29 sec) 
Heartbeat CPU 0 instructions: 347000000 cycles: 2998074039 heartbeat IPC: 0.121562 cumulative IPC: 0.115665 (Simulation time: 1 hr 1 min 38 sec) 
Heartbeat CPU 0 instructions: 348000001 cycles: 3006489491 heartbeat IPC: 0.118829 cumulative IPC: 0.115675 (Simulation time: 1 hr 1 min 48 sec) 
Heartbeat CPU 0 instructions: 349000000 cycles: 3016459859 heartbeat IPC: 0.100297 cumulative IPC: 0.115622 (Simulation time: 1 hr 2 min 0 sec) 
Heartbeat CPU 0 instructions: 350000002 cycles: 3024577554 heartbeat IPC: 0.123188 cumulative IPC: 0.115643 (Simulation time: 1 hr 2 min 10 sec) 
Heartbeat CPU 0 instructions: 351000003 cycles: 3034613137 heartbeat IPC: 0.0996455 cumulative IPC: 0.115589 (Simulation time: 1 hr 2 min 22 sec) 
Heartbeat CPU 0 instructions: 352000000 cycles: 3042531784 heartbeat IPC: 0.126284 cumulative IPC: 0.115617 (Simulation time: 1 hr 2 min 32 sec) 
Heartbeat CPU 0 instructions: 353000002 cycles: 3051110089 heartbeat IPC: 0.116573 cumulative IPC: 0.11562 (Simulation time: 1 hr 2 min 42 sec) 
Heartbeat CPU 0 instructions: 354000001 cycles: 3060259750 heartbeat IPC: 0.109294 cumulative IPC: 0.115601 (Simulation time: 1 hr 2 min 51 sec) 
Heartbeat CPU 0 instructions: 355000000 cycles: 3070602475 heartbeat IPC: 0.0966862 cumulative IPC: 0.115535 (Simulation time: 1 hr 3 min 4 sec) 
Heartbeat CPU 0 instructions: 356000000 cycles: 3078334743 heartbeat IPC: 0.129328 cumulative IPC: 0.115571 (Simulation time: 1 hr 3 min 14 sec) 
Heartbeat CPU 0 instructions: 357000000 cycles: 3086706224 heartbeat IPC: 0.119453 cumulative IPC: 0.115582 (Simulation time: 1 hr 3 min 23 sec) 
Heartbeat CPU 0 instructions: 358000000 cycles: 3095288440 heartbeat IPC: 0.11652 cumulative IPC: 0.115584 (Simulation time: 1 hr 3 min 32 sec) 
Heartbeat CPU 0 instructions: 359000000 cycles: 3103977708 heartbeat IPC: 0.115084 cumulative IPC: 0.115583 (Simulation time: 1 hr 3 min 42 sec) 
Heartbeat CPU 0 instructions: 360000000 cycles: 3113968420 heartbeat IPC: 0.100093 cumulative IPC: 0.115532 (Simulation time: 1 hr 3 min 54 sec) 
Heartbeat CPU 0 instructions: 361000003 cycles: 3121975167 heartbeat IPC: 0.124895 cumulative IPC: 0.115556 (Simulation time: 1 hr 4 min 4 sec) 
Heartbeat CPU 0 instructions: 362000001 cycles: 3130393638 heartbeat IPC: 0.118786 cumulative IPC: 0.115565 (Simulation time: 1 hr 4 min 13 sec) 
Heartbeat CPU 0 instructions: 363000000 cycles: 3140659099 heartbeat IPC: 0.0974139 cumulative IPC: 0.115504 (Simulation time: 1 hr 4 min 25 sec) 
Heartbeat CPU 0 instructions: 364000001 cycles: 3148451142 heartbeat IPC: 0.128336 cumulative IPC: 0.115537 (Simulation time: 1 hr 4 min 35 sec) 
Heartbeat CPU 0 instructions: 365000002 cycles: 3156804127 heartbeat IPC: 0.119718 cumulative IPC: 0.115548 (Simulation time: 1 hr 4 min 45 sec) 
Heartbeat CPU 0 instructions: 366000001 cycles: 3165395516 heartbeat IPC: 0.116395 cumulative IPC: 0.115551 (Simulation time: 1 hr 4 min 54 sec) 
Heartbeat CPU 0 instructions: 367000000 cycles: 3173983895 heartbeat IPC: 0.116436 cumulative IPC: 0.115553 (Simulation time: 1 hr 5 min 4 sec) 
Heartbeat CPU 0 instructions: 368000002 cycles: 3184332907 heartbeat IPC: 0.0966278 cumulative IPC: 0.11549 (Simulation time: 1 hr 5 min 16 sec) 
Heartbeat CPU 0 instructions: 369000000 cycles: 3192292759 heartbeat IPC: 0.12563 cumulative IPC: 0.115516 (Simulation time: 1 hr 5 min 26 sec) 
Heartbeat CPU 0 instructions: 370000001 cycles: 3200964832 heartbeat IPC: 0.115313 cumulative IPC: 0.115515 (Simulation time: 1 hr 5 min 35 sec) 
Heartbeat CPU 0 instructions: 371000000 cycles: 3211579267 heartbeat IPC: 0.0942112 cumulative IPC: 0.115443 (Simulation time: 1 hr 5 min 49 sec) 
Heartbeat CPU 0 instructions: 372000002 cycles: 3220474414 heartbeat IPC: 0.112421 cumulative IPC: 0.115435 (Simulation time: 1 hr 6 min 2 sec) 
Heartbeat CPU 0 instructions: 373000003 cycles: 3228662954 heartbeat IPC: 0.122122 cumulative IPC: 0.115452 (Simulation time: 1 hr 6 min 12 sec) 
Heartbeat CPU 0 instructions: 374000000 cycles: 3237064009 heartbeat IPC: 0.119032 cumulative IPC: 0.115461 (Simulation time: 1 hr 6 min 22 sec) 
Heartbeat CPU 0 instructions: 375000002 cycles: 3245690087 heartbeat IPC: 0.115928 cumulative IPC: 0.115463 (Simulation time: 1 hr 6 min 32 sec) 
Heartbeat CPU 0 instructions: 376000001 cycles: 3255823463 heartbeat IPC: 0.0986837 cumulative IPC: 0.115409 (Simulation time: 1 hr 6 min 46 sec) 
Heartbeat CPU 0 instructions: 377000001 cycles: 3263665124 heartbeat IPC: 0.127524 cumulative IPC: 0.115439 (Simulation time: 1 hr 6 min 56 sec) 
Heartbeat CPU 0 instructions: 378000000 cycles: 3271919750 heartbeat IPC: 0.121144 cumulative IPC: 0.115454 (Simulation time: 1 hr 7 min 6 sec) 
Heartbeat CPU 0 instructions: 379000003 cycles: 3281621630 heartbeat IPC: 0.103073 cumulative IPC: 0.115416 (Simulation time: 1 hr 7 min 19 sec) 
Heartbeat CPU 0 instructions: 380000000 cycles: 3291408669 heartbeat IPC: 0.102176 cumulative IPC: 0.115376 (Simulation time: 1 hr 7 min 33 sec) 
Heartbeat CPU 0 instructions: 381000001 cycles: 3299179186 heartbeat IPC: 0.128692 cumulative IPC: 0.115408 (Simulation time: 1 hr 7 min 42 sec) 
Heartbeat CPU 0 instructions: 382000002 cycles: 3307463104 heartbeat IPC: 0.120716 cumulative IPC: 0.115422 (Simulation time: 1 hr 7 min 52 sec) 
Heartbeat CPU 0 instructions: 383000000 cycles: 3315976978 heartbeat IPC: 0.117455 cumulative IPC: 0.115427 (Simulation time: 1 hr 8 min 1 sec) 
Heartbeat CPU 0 instructions: 384000001 cycles: 3324626133 heartbeat IPC: 0.115618 cumulative IPC: 0.115428 (Simulation time: 1 hr 8 min 11 sec) 
Heartbeat CPU 0 instructions: 385000000 cycles: 3334796336 heartbeat IPC: 0.0983264 cumulative IPC: 0.115374 (Simulation time: 1 hr 8 min 23 sec) 
Heartbeat CPU 0 instructions: 386000000 cycles: 3342778839 heartbeat IPC: 0.125274 cumulative IPC: 0.115398 (Simulation time: 1 hr 8 min 33 sec) 
Heartbeat CPU 0 instructions: 387000000 cycles: 3351118839 heartbeat IPC: 0.119904 cumulative IPC: 0.11541 (Simulation time: 1 hr 8 min 42 sec) 
Heartbeat CPU 0 instructions: 388000001 cycles: 3361378488 heartbeat IPC: 0.0974693 cumulative IPC: 0.115354 (Simulation time: 1 hr 8 min 55 sec) 
Heartbeat CPU 0 instructions: 389000001 cycles: 3369034394 heartbeat IPC: 0.130618 cumulative IPC: 0.115389 (Simulation time: 1 hr 9 min 5 sec) 
Heartbeat CPU 0 instructions: 390000000 cycles: 3377211275 heartbeat IPC: 0.122296 cumulative IPC: 0.115406 (Simulation time: 1 hr 9 min 15 sec) 
Heartbeat CPU 0 instructions: 391000003 cycles: 3385676575 heartbeat IPC: 0.11813 cumulative IPC: 0.115413 (Simulation time: 1 hr 9 min 25 sec) 
Heartbeat CPU 0 instructions: 392000002 cycles: 3396012860 heartbeat IPC: 0.0967465 cumulative IPC: 0.115355 (Simulation time: 1 hr 9 min 38 sec) 
Heartbeat CPU 0 instructions: 393000002 cycles: 3403860226 heartbeat IPC: 0.127431 cumulative IPC: 0.115384 (Simulation time: 1 hr 9 min 47 sec) 
Heartbeat CPU 0 instructions: 394000001 cycles: 3411697863 heartbeat IPC: 0.127589 cumulative IPC: 0.115412 (Simulation time: 1 hr 9 min 57 sec) 
Heartbeat CPU 0 instructions: 395000000 cycles: 3419559434 heartbeat IPC: 0.127201 cumulative IPC: 0.11544 (Simulation time: 1 hr 10 min 7 sec) 
Heartbeat CPU 0 instructions: 396000000 cycles: 3429254376 heartbeat IPC: 0.103147 cumulative IPC: 0.115404 (Simulation time: 1 hr 10 min 20 sec) 
Heartbeat CPU 0 instructions: 397000000 cycles: 3437298973 heartbeat IPC: 0.124307 cumulative IPC: 0.115426 (Simulation time: 1 hr 10 min 30 sec) 
Heartbeat CPU 0 instructions: 398000001 cycles: 3445927015 heartbeat IPC: 0.115901 cumulative IPC: 0.115427 (Simulation time: 1 hr 10 min 39 sec) 
Heartbeat CPU 0 instructions: 399000001 cycles: 3454777907 heartbeat IPC: 0.112983 cumulative IPC: 0.115421 (Simulation time: 1 hr 10 min 49 sec) 
Heartbeat CPU 0 instructions: 400000001 cycles: 3463223059 heartbeat IPC: 0.118411 cumulative IPC: 0.115428 (Simulation time: 1 hr 10 min 58 sec) 
Heartbeat CPU 0 instructions: 401000000 cycles: 3472946144 heartbeat IPC: 0.102848 cumulative IPC: 0.115392 (Simulation time: 1 hr 11 min 11 sec) 
Heartbeat CPU 0 instructions: 402000000 cycles: 3481142071 heartbeat IPC: 0.122012 cumulative IPC: 0.115408 (Simulation time: 1 hr 11 min 20 sec) 
Heartbeat CPU 0 instructions: 403000003 cycles: 3489569873 heartbeat IPC: 0.118655 cumulative IPC: 0.115416 (Simulation time: 1 hr 11 min 29 sec) 
Heartbeat CPU 0 instructions: 404000000 cycles: 3499425435 heartbeat IPC: 0.101465 cumulative IPC: 0.115376 (Simulation time: 1 hr 11 min 40 sec) 
Heartbeat CPU 0 instructions: 405000002 cycles: 3507923320 heartbeat IPC: 0.117677 cumulative IPC: 0.115381 (Simulation time: 1 hr 11 min 52 sec) 
Heartbeat CPU 0 instructions: 406000001 cycles: 3516279909 heartbeat IPC: 0.119666 cumulative IPC: 0.115392 (Simulation time: 1 hr 12 min 1 sec) 
Heartbeat CPU 0 instructions: 407000000 cycles: 3526440735 heartbeat IPC: 0.0984171 cumulative IPC: 0.115342 (Simulation time: 1 hr 12 min 14 sec) 
Heartbeat CPU 0 instructions: 408000000 cycles: 3534360983 heartbeat IPC: 0.126259 cumulative IPC: 0.115367 (Simulation time: 1 hr 12 min 23 sec) 
Heartbeat CPU 0 instructions: 409000003 cycles: 3542560204 heartbeat IPC: 0.121963 cumulative IPC: 0.115383 (Simulation time: 1 hr 12 min 33 sec) 
Heartbeat CPU 0 instructions: 410000001 cycles: 3552581163 heartbeat IPC: 0.0997906 cumulative IPC: 0.115337 (Simulation time: 1 hr 12 min 46 sec) 
Heartbeat CPU 0 instructions: 411000001 cycles: 3560504458 heartbeat IPC: 0.12621 cumulative IPC: 0.115362 (Simulation time: 1 hr 12 min 55 sec) 
Heartbeat CPU 0 instructions: 412000001 cycles: 3568748534 heartbeat IPC: 0.121299 cumulative IPC: 0.115376 (Simulation time: 1 hr 13 min 4 sec) 
Heartbeat CPU 0 instructions: 413000001 cycles: 3578664823 heartbeat IPC: 0.100844 cumulative IPC: 0.115335 (Simulation time: 1 hr 13 min 17 sec) 
Heartbeat CPU 0 instructions: 414000001 cycles: 3588592929 heartbeat IPC: 0.100724 cumulative IPC: 0.115294 (Simulation time: 1 hr 13 min 30 sec) 
Heartbeat CPU 0 instructions: 415000002 cycles: 3596398304 heartbeat IPC: 0.128117 cumulative IPC: 0.115322 (Simulation time: 1 hr 13 min 39 sec) 
Heartbeat CPU 0 instructions: 416000002 cycles: 3604717137 heartbeat IPC: 0.120209 cumulative IPC: 0.115334 (Simulation time: 1 hr 13 min 49 sec) 
Heartbeat CPU 0 instructions: 417000001 cycles: 3613166525 heartbeat IPC: 0.118352 cumulative IPC: 0.115341 (Simulation time: 1 hr 13 min 58 sec) 
Heartbeat CPU 0 instructions: 418000000 cycles: 3621592780 heartbeat IPC: 0.118677 cumulative IPC: 0.115349 (Simulation time: 1 hr 14 min 8 sec) 
Heartbeat CPU 0 instructions: 419000000 cycles: 3631866006 heartbeat IPC: 0.0973404 cumulative IPC: 0.115297 (Simulation time: 1 hr 14 min 21 sec) 
Heartbeat CPU 0 instructions: 420000000 cycles: 3641467160 heartbeat IPC: 0.104154 cumulative IPC: 0.115267 (Simulation time: 1 hr 14 min 33 sec) 
Heartbeat CPU 0 instructions: 421000002 cycles: 3649389637 heartbeat IPC: 0.126223 cumulative IPC: 0.115291 (Simulation time: 1 hr 14 min 43 sec) 
Heartbeat CPU 0 instructions: 422000001 cycles: 3657767520 heartbeat IPC: 0.119362 cumulative IPC: 0.115301 (Simulation time: 1 hr 14 min 52 sec) 
Heartbeat CPU 0 instructions: 423000001 cycles: 3666173190 heartbeat IPC: 0.118967 cumulative IPC: 0.115309 (Simulation time: 1 hr 15 min 2 sec) 
Heartbeat CPU 0 instructions: 424000002 cycles: 3674525828 heartbeat IPC: 0.119723 cumulative IPC: 0.115319 (Simulation time: 1 hr 15 min 11 sec) 
Heartbeat CPU 0 instructions: 425000001 cycles: 3684279347 heartbeat IPC: 0.102527 cumulative IPC: 0.115285 (Simulation time: 1 hr 15 min 24 sec) 
Heartbeat CPU 0 instructions: 426000000 cycles: 3692414957 heartbeat IPC: 0.122916 cumulative IPC: 0.115302 (Simulation time: 1 hr 15 min 33 sec) 
Heartbeat CPU 0 instructions: 427000000 cycles: 3701143307 heartbeat IPC: 0.114569 cumulative IPC: 0.1153 (Simulation time: 1 hr 15 min 43 sec) 
Heartbeat CPU 0 instructions: 428000003 cycles: 3709692363 heartbeat IPC: 0.116972 cumulative IPC: 0.115304 (Simulation time: 1 hr 15 min 52 sec) 
Heartbeat CPU 0 instructions: 429000000 cycles: 3719915590 heartbeat IPC: 0.0978162 cumulative IPC: 0.115255 (Simulation time: 1 hr 16 min 5 sec) 
Heartbeat CPU 0 instructions: 430000001 cycles: 3727959615 heartbeat IPC: 0.124316 cumulative IPC: 0.115275 (Simulation time: 1 hr 16 min 14 sec) 
Heartbeat CPU 0 instructions: 431000001 cycles: 3736158093 heartbeat IPC: 0.121974 cumulative IPC: 0.11529 (Simulation time: 1 hr 16 min 24 sec) 
Heartbeat CPU 0 instructions: 432000002 cycles: 3744210773 heartbeat IPC: 0.124182 cumulative IPC: 0.11531 (Simulation time: 1 hr 16 min 33 sec) 
Heartbeat CPU 0 instructions: 433000002 cycles: 3754313177 heartbeat IPC: 0.0989863 cumulative IPC: 0.115265 (Simulation time: 1 hr 16 min 46 sec) 
Heartbeat CPU 0 instructions: 434000001 cycles: 3763540927 heartbeat IPC: 0.108369 cumulative IPC: 0.115247 (Simulation time: 1 hr 16 min 59 sec) 
Heartbeat CPU 0 instructions: 435000001 cycles: 3771185535 heartbeat IPC: 0.130811 cumulative IPC: 0.11528 (Simulation time: 1 hr 17 min 8 sec) 
Heartbeat CPU 0 instructions: 436000000 cycles: 3780917440 heartbeat IPC: 0.102755 cumulative IPC: 0.115247 (Simulation time: 1 hr 17 min 21 sec) 
Heartbeat CPU 0 instructions: 437000000 cycles: 3788921874 heartbeat IPC: 0.124931 cumulative IPC: 0.115268 (Simulation time: 1 hr 17 min 31 sec) 
Heartbeat CPU 0 instructions: 438000001 cycles: 3797267486 heartbeat IPC: 0.119824 cumulative IPC: 0.115278 (Simulation time: 1 hr 17 min 40 sec) 
Heartbeat CPU 0 instructions: 439000002 cycles: 3805395918 heartbeat IPC: 0.123025 cumulative IPC: 0.115295 (Simulation time: 1 hr 17 min 49 sec) 
Heartbeat CPU 0 instructions: 440000000 cycles: 3815070666 heartbeat IPC: 0.103362 cumulative IPC: 0.115264 (Simulation time: 1 hr 18 min 2 sec) 
Heartbeat CPU 0 instructions: 441000000 cycles: 3824554584 heartbeat IPC: 0.105442 cumulative IPC: 0.115239 (Simulation time: 1 hr 18 min 12 sec) 
Heartbeat CPU 0 instructions: 442000000 cycles: 3832753572 heartbeat IPC: 0.121966 cumulative IPC: 0.115254 (Simulation time: 1 hr 18 min 24 sec) 
Heartbeat CPU 0 instructions: 443000003 cycles: 3840850837 heartbeat IPC: 0.123499 cumulative IPC: 0.115271 (Simulation time: 1 hr 18 min 33 sec) 
Heartbeat CPU 0 instructions: 444000000 cycles: 3849282914 heartbeat IPC: 0.118594 cumulative IPC: 0.115279 (Simulation time: 1 hr 18 min 43 sec) 
Heartbeat CPU 0 instructions: 445000000 cycles: 3857848208 heartbeat IPC: 0.11675 cumulative IPC: 0.115282 (Simulation time: 1 hr 18 min 52 sec) 
Heartbeat CPU 0 instructions: 446000003 cycles: 3867056267 heartbeat IPC: 0.108601 cumulative IPC: 0.115266 (Simulation time: 1 hr 19 min 2 sec) 
Heartbeat CPU 0 instructions: 447000000 cycles: 3876104306 heartbeat IPC: 0.110521 cumulative IPC: 0.115255 (Simulation time: 1 hr 19 min 14 sec) 
Heartbeat CPU 0 instructions: 448000002 cycles: 3884445371 heartbeat IPC: 0.119889 cumulative IPC: 0.115265 (Simulation time: 1 hr 19 min 24 sec) 
Heartbeat CPU 0 instructions: 449000001 cycles: 3892938121 heartbeat IPC: 0.117747 cumulative IPC: 0.11527 (Simulation time: 1 hr 19 min 33 sec) 
Heartbeat CPU 0 instructions: 450000002 cycles: 3903328990 heartbeat IPC: 0.0962384 cumulative IPC: 0.115218 (Simulation time: 1 hr 19 min 46 sec) 
Heartbeat CPU 0 instructions: 451000000 cycles: 3911134443 heartbeat IPC: 0.128115 cumulative IPC: 0.115245 (Simulation time: 1 hr 19 min 55 sec) 
Heartbeat CPU 0 instructions: 452000001 cycles: 3919502176 heartbeat IPC: 0.119507 cumulative IPC: 0.115254 (Simulation time: 1 hr 20 min 5 sec) 
Heartbeat CPU 0 instructions: 453000000 cycles: 3928020550 heartbeat IPC: 0.117393 cumulative IPC: 0.115259 (Simulation time: 1 hr 20 min 15 sec) 
Heartbeat CPU 0 instructions: 454000003 cycles: 3938171168 heartbeat IPC: 0.0985165 cumulative IPC: 0.115215 (Simulation time: 1 hr 20 min 27 sec) 
Heartbeat CPU 0 instructions: 455000001 cycles: 3946974805 heartbeat IPC: 0.113589 cumulative IPC: 0.115211 (Simulation time: 1 hr 20 min 37 sec) 
Heartbeat CPU 0 instructions: 456000000 cycles: 3955868193 heartbeat IPC: 0.112443 cumulative IPC: 0.115205 (Simulation time: 1 hr 20 min 49 sec) 
Heartbeat CPU 0 instructions: 457000003 cycles: 3965192399 heartbeat IPC: 0.107248 cumulative IPC: 0.115186 (Simulation time: 1 hr 21 min 0 sec) 
Heartbeat CPU 0 instructions: 458000003 cycles: 3973597861 heartbeat IPC: 0.11897 cumulative IPC: 0.115194 (Simulation time: 1 hr 21 min 12 sec) 
Heartbeat CPU 0 instructions: 459000000 cycles: 3981593892 heartbeat IPC: 0.125062 cumulative IPC: 0.115214 (Simulation time: 1 hr 21 min 21 sec) 
Heartbeat CPU 0 instructions: 460000002 cycles: 3991365021 heartbeat IPC: 0.102343 cumulative IPC: 0.115182 (Simulation time: 1 hr 21 min 34 sec) 
Heartbeat CPU 0 instructions: 461000001 cycles: 3999326123 heartbeat IPC: 0.125611 cumulative IPC: 0.115203 (Simulation time: 1 hr 21 min 43 sec) 
Heartbeat CPU 0 instructions: 462000000 cycles: 4007618610 heartbeat IPC: 0.120591 cumulative IPC: 0.115214 (Simulation time: 1 hr 21 min 53 sec) 
Heartbeat CPU 0 instructions: 463000002 cycles: 4017815498 heartbeat IPC: 0.0980693 cumulative IPC: 0.11517 (Simulation time: 1 hr 22 min 5 sec) 
Heartbeat CPU 0 instructions: 464000002 cycles: 4025875496 heartbeat IPC: 0.12407 cumulative IPC: 0.115188 (Simulation time: 1 hr 22 min 15 sec) 
Heartbeat CPU 0 instructions: 465000002 cycles: 4034409011 heartbeat IPC: 0.117185 cumulative IPC: 0.115192 (Simulation time: 1 hr 22 min 25 sec) 
Heartbeat CPU 0 instructions: 466000002 cycles: 4043789147 heartbeat IPC: 0.106608 cumulative IPC: 0.115172 (Simulation time: 1 hr 22 min 35 sec) 
Heartbeat CPU 0 instructions: 467000003 cycles: 4052542665 heartbeat IPC: 0.11424 cumulative IPC: 0.11517 (Simulation time: 1 hr 22 min 47 sec) 
Heartbeat CPU 0 instructions: 468000000 cycles: 4060647230 heartbeat IPC: 0.123387 cumulative IPC: 0.115187 (Simulation time: 1 hr 22 min 57 sec) 
Heartbeat CPU 0 instructions: 469000000 cycles: 4069040493 heartbeat IPC: 0.119143 cumulative IPC: 0.115195 (Simulation time: 1 hr 23 min 6 sec) 
Heartbeat CPU 0 instructions: 470000002 cycles: 4077587181 heartbeat IPC: 0.117005 cumulative IPC: 0.115199 (Simulation time: 1 hr 23 min 16 sec) 
Heartbeat CPU 0 instructions: 471000000 cycles: 4087549029 heartbeat IPC: 0.100383 cumulative IPC: 0.115162 (Simulation time: 1 hr 23 min 30 sec) 
Heartbeat CPU 0 instructions: 472000000 cycles: 4097212814 heartbeat IPC: 0.103479 cumulative IPC: 0.115134 (Simulation time: 1 hr 23 min 43 sec) 
Heartbeat CPU 0 instructions: 473000000 cycles: 4105271277 heartbeat IPC: 0.124093 cumulative IPC: 0.115152 (Simulation time: 1 hr 23 min 53 sec) 
Heartbeat CPU 0 instructions: 474000000 cycles: 4113699896 heartbeat IPC: 0.118643 cumulative IPC: 0.115159 (Simulation time: 1 hr 24 min 3 sec) 
Heartbeat CPU 0 instructions: 475000002 cycles: 4123745346 heartbeat IPC: 0.0995478 cumulative IPC: 0.11512 (Simulation time: 1 hr 24 min 17 sec) 
Heartbeat CPU 0 instructions: 476000000 cycles: 4131543775 heartbeat IPC: 0.128231 cumulative IPC: 0.115146 (Simulation time: 1 hr 24 min 26 sec) 
Heartbeat CPU 0 instructions: 477000000 cycles: 4139884785 heartbeat IPC: 0.11989 cumulative IPC: 0.115155 (Simulation time: 1 hr 24 min 36 sec) 
Heartbeat CPU 0 instructions: 478000003 cycles: 4148447065 heartbeat IPC: 0.116792 cumulative IPC: 0.115159 (Simulation time: 1 hr 24 min 47 sec) 
Heartbeat CPU 0 instructions: 479000000 cycles: 4157134324 heartbeat IPC: 0.115111 cumulative IPC: 0.115159 (Simulation time: 1 hr 24 min 57 sec) 
Heartbeat CPU 0 instructions: 480000000 cycles: 4167048195 heartbeat IPC: 0.100869 cumulative IPC: 0.115124 (Simulation time: 1 hr 25 min 10 sec) 
Heartbeat CPU 0 instructions: 481000000 cycles: 4175282494 heartbeat IPC: 0.121443 cumulative IPC: 0.115137 (Simulation time: 1 hr 25 min 20 sec) 
Heartbeat CPU 0 instructions: 482000000 cycles: 4183612539 heartbeat IPC: 0.120047 cumulative IPC: 0.115147 (Simulation time: 1 hr 25 min 30 sec) 
Heartbeat CPU 0 instructions: 483000000 cycles: 4191610590 heartbeat IPC: 0.12503 cumulative IPC: 0.115166 (Simulation time: 1 hr 25 min 40 sec) 
Heartbeat CPU 0 instructions: 484000000 cycles: 4201416741 heartbeat IPC: 0.101977 cumulative IPC: 0.115135 (Simulation time: 1 hr 25 min 53 sec) 
Heartbeat CPU 0 instructions: 485000002 cycles: 4209505596 heartbeat IPC: 0.123627 cumulative IPC: 0.115151 (Simulation time: 1 hr 26 min 3 sec) 
Heartbeat CPU 0 instructions: 486000002 cycles: 4217725121 heartbeat IPC: 0.121662 cumulative IPC: 0.115164 (Simulation time: 1 hr 26 min 13 sec) 
Heartbeat CPU 0 instructions: 487000002 cycles: 4227697445 heartbeat IPC: 0.100278 cumulative IPC: 0.115128 (Simulation time: 1 hr 26 min 26 sec) 
Heartbeat CPU 0 instructions: 488000001 cycles: 4235619672 heartbeat IPC: 0.126227 cumulative IPC: 0.11515 (Simulation time: 1 hr 26 min 36 sec) 
Heartbeat CPU 0 instructions: 489000002 cycles: 4245500648 heartbeat IPC: 0.101205 cumulative IPC: 0.115116 (Simulation time: 1 hr 26 min 47 sec) 
Heartbeat CPU 0 instructions: 490000000 cycles: 4253257124 heartbeat IPC: 0.128924 cumulative IPC: 0.115142 (Simulation time: 1 hr 26 min 58 sec) 
Heartbeat CPU 0 instructions: 491000000 cycles: 4261428471 heartbeat IPC: 0.122379 cumulative IPC: 0.115156 (Simulation time: 1 hr 27 min 7 sec) 
Heartbeat CPU 0 instructions: 492000003 cycles: 4269946464 heartbeat IPC: 0.117399 cumulative IPC: 0.115161 (Simulation time: 1 hr 27 min 17 sec) 
Heartbeat CPU 0 instructions: 493000002 cycles: 4279805641 heartbeat IPC: 0.101428 cumulative IPC: 0.115129 (Simulation time: 1 hr 27 min 29 sec) 
Heartbeat CPU 0 instructions: 494000000 cycles: 4288110593 heartbeat IPC: 0.12041 cumulative IPC: 0.115139 (Simulation time: 1 hr 27 min 39 sec) 
Heartbeat CPU 0 instructions: 495000000 cycles: 4297607443 heartbeat IPC: 0.105298 cumulative IPC: 0.115117 (Simulation time: 1 hr 27 min 49 sec) 
Heartbeat CPU 0 instructions: 496000000 cycles: 4306236269 heartbeat IPC: 0.115891 cumulative IPC: 0.115118 (Simulation time: 1 hr 28 min 1 sec) 
Heartbeat CPU 0 instructions: 497000001 cycles: 4314664661 heartbeat IPC: 0.118647 cumulative IPC: 0.115125 (Simulation time: 1 hr 28 min 10 sec) 
Heartbeat CPU 0 instructions: 498000000 cycles: 4323580517 heartbeat IPC: 0.11216 cumulative IPC: 0.115119 (Simulation time: 1 hr 28 min 20 sec) 
Heartbeat CPU 0 instructions: 499000001 cycles: 4333651029 heartbeat IPC: 0.0992999 cumulative IPC: 0.115082 (Simulation time: 1 hr 28 min 32 sec) 
Heartbeat CPU 0 instructions: 500000001 cycles: 4341712696 heartbeat IPC: 0.124044 cumulative IPC: 0.115099 (Simulation time: 1 hr 28 min 42 sec) 
Heartbeat CPU 0 instructions: 501000000 cycles: 4351334867 heartbeat IPC: 0.103927 cumulative IPC: 0.115074 (Simulation time: 1 hr 28 min 54 sec) 
Heartbeat CPU 0 instructions: 502000003 cycles: 4359594199 heartbeat IPC: 0.121076 cumulative IPC: 0.115085 (Simulation time: 1 hr 29 min 4 sec) 
Heartbeat CPU 0 instructions: 503000000 cycles: 4368477420 heartbeat IPC: 0.112571 cumulative IPC: 0.11508 (Simulation time: 1 hr 29 min 13 sec) 
Heartbeat CPU 0 instructions: 504000001 cycles: 4377587618 heartbeat IPC: 0.109767 cumulative IPC: 0.115069 (Simulation time: 1 hr 29 min 23 sec) 
Heartbeat CPU 0 instructions: 505000002 cycles: 4388029687 heartbeat IPC: 0.0957666 cumulative IPC: 0.115022 (Simulation time: 1 hr 29 min 35 sec) 
Heartbeat CPU 0 instructions: 506000000 cycles: 4396020147 heartbeat IPC: 0.125149 cumulative IPC: 0.115041 (Simulation time: 1 hr 29 min 45 sec) 
Heartbeat CPU 0 instructions: 507000003 cycles: 4404834258 heartbeat IPC: 0.113455 cumulative IPC: 0.115037 (Simulation time: 1 hr 29 min 54 sec) 
Heartbeat CPU 0 instructions: 508000001 cycles: 4413808910 heartbeat IPC: 0.111425 cumulative IPC: 0.11503 (Simulation time: 1 hr 30 min 4 sec) 
Heartbeat CPU 0 instructions: 509000000 cycles: 4422333355 heartbeat IPC: 0.11731 cumulative IPC: 0.115034 (Simulation time: 1 hr 30 min 13 sec) 
Heartbeat CPU 0 instructions: 510000000 cycles: 4431997128 heartbeat IPC: 0.103479 cumulative IPC: 0.115009 (Simulation time: 1 hr 30 min 26 sec) 
Finished CPU 0 instructions: 500000000 cycles: 4347500736 cumulative IPC: 0.115009 (Simulation time: 1 hr 30 min 26 sec) 

ChampSim completed all CPUs

Region of Interest Statistics

CPU 0 cumulative IPC: 0.115009 instructions: 500000000 cycles: 4347500736
L1D TOTAL     ACCESS:  180769319  HIT:  151978629  MISS:   28790690
L1D LOAD      ACCESS:  129306751  HIT:  111548655  MISS:   17758096
L1D RFO       ACCESS:   51462568  HIT:   40429974  MISS:   11032594
L1D PREFETCH  ACCESS:          0  HIT:          0  MISS:          0
L1D WRITEBACK ACCESS:          0  HIT:          0  MISS:          0
L1D PREFETCH  REQUESTED:          0  ISSUED:          0  USEFUL:          0  USELESS:          0  UAC CORRECT:          0
L1D AVERAGE MISS LATENCY: 350.249 cycles
L1I TOTAL     ACCESS:   82165378  HIT:   82165375  MISS:          3
L1I LOAD      ACCESS:   82165378  HIT:   82165375  MISS:          3
L1I RFO       ACCESS:          0  HIT:          0  MISS:          0
L1I PREFETCH  ACCESS:          0  HIT:          0  MISS:          0
L1I WRITEBACK ACCESS:          0  HIT:          0  MISS:          0
L1I PREFETCH  REQUESTED:          0  ISSUED:          0  USEFUL:          0  USELESS:          0  UAC CORRECT:          0
L1I AVERAGE MISS LATENCY: 283.667 cycles
L2C TOTAL     ACCESS:   44451079  HIT:   21968104  MISS:   22482975
L2C LOAD      ACCESS:   17757812  HIT:    5834749  MISS:   11923063
L2C RFO       ACCESS:   11032584  HIT:     473393  MISS:   10559191
L2C PREFETCH  ACCESS:          0  HIT:          0  MISS:          0
L2C WRITEBACK ACCESS:   15660683  HIT:   15659962  MISS:        721
L2C PREFETCH  REQUESTED:          0  ISSUED:          0  USEFUL:          0  USELESS:          0  UAC CORRECT:          0
L2C AVERAGE MISS LATENCY: 354.909 cycles
LLC TOTAL     ACCESS:   37596492  HIT:   16000667  MISS:   21595825
LLC LOAD      ACCESS:   11923063  HIT:     322198  MISS:   11600865
LLC RFO       ACCESS:   10559184  HIT:     575626  MISS:    9983558
LLC PREFETCH  ACCESS:          0  HIT:          0  MISS:          0
LLC WRITEBACK ACCESS:   15114245  HIT:   15102843  MISS:      11402
LLC PREFETCH  REQUESTED:          0  ISSUED:          0  USEFUL:          0  USELESS:          0  UAC CORRECT:          0
LLC AVERAGE MISS LATENCY: 271.414 cycles
Major fault: 0 Minor fault: 29898

DRAM Statistics
 CHANNEL 0
 RQ ROW_BUFFER_HIT:    1615507  ROW_BUFFER_MISS:    9198255
 DBUS_CONGESTED:   14202770
 WQ ROW_BUFFER_HIT:    3269161  ROW_BUFFER_MISS:    3924816  FULL:          0

 CHANNEL 1
 RQ ROW_BUFFER_HIT:    1618073  ROW_BUFFER_MISS:    9152369
 DBUS_CONGESTED:   14202770
 WQ ROW_BUFFER_HIT:    3219091  ROW_BUFFER_MISS:    3917200  FULL:          0

 AVG_CONGESTED_CYCLE: 21

CPU 0 Branch Prediction Accuracy: 92.7728% MPKI: 15.2342 Average ROB Occupancy at Mispredict: 32.3309

Branch types
NOT_BRANCH: 394605633 78.9211%
BRANCH_DIRECT_JUMP: 4548827 0.909765%
BRANCH_INDIRECT: 0 0%
BRANCH_CONDITIONAL: 64983297 12.9967%
BRANCH_DIRECT_CALL: 22024 0.0044048%
BRANCH_INDIRECT_CALL: 17909255 3.58185%
BRANCH_RETURN: 17931279 3.58626%
BRANCH_OTHER: 0 0%


gzip: stdout: Broken pipe
