
*** ChampSim Multicore Out-of-Order Simulator ***

Warmup Instructions: 1000000
Prefetch Warmup Instructions: 10000000
Simulation Instructions: 500000000
Stat Printing Period: 1000000
Number of CPUs: 1
LLC sets: 2048
LLC ways: 16
Off-chip DRAM Size: 32768 MB Channels: 2 Width: 64-bit Data Rate: 1024 MT/s

CPU 0 runs /scratch/cluster/cmolder/ML-DPC/ChampSimTraces/spec06/473.astar-s1.trace.gz
Read seed: 801
Heartbeat CPU 0 instructions: 1000003 cycles: 339325 heartbeat IPC: 2.94704 cumulative IPC: 2.94704 (Simulation time: 0 hr 0 min 5 sec) 

Warmup complete CPU 0 instructions: 1000003 cycles: 339325 (Simulation time: 0 hr 0 min 5 sec) 

Heartbeat CPU 0 instructions: 2000000 cycles: 2202496 heartbeat IPC: 0.536718 cumulative IPC: 0.536718 (Simulation time: 0 hr 0 min 9 sec) 
Heartbeat CPU 0 instructions: 3000003 cycles: 3935258 heartbeat IPC: 0.577115 cumulative IPC: 0.556184 (Simulation time: 0 hr 0 min 13 sec) 
Heartbeat CPU 0 instructions: 4000000 cycles: 5715024 heartbeat IPC: 0.56187 cumulative IPC: 0.558066 (Simulation time: 0 hr 0 min 18 sec) 
Heartbeat CPU 0 instructions: 5000003 cycles: 7441386 heartbeat IPC: 0.579255 cumulative IPC: 0.563217 (Simulation time: 0 hr 0 min 22 sec) 
Heartbeat CPU 0 instructions: 6000001 cycles: 9229146 heartbeat IPC: 0.559358 cumulative IPC: 0.562441 (Simulation time: 0 hr 0 min 26 sec) 
Heartbeat CPU 0 instructions: 7000001 cycles: 11361719 heartbeat IPC: 0.468917 cumulative IPC: 0.544346 (Simulation time: 0 hr 0 min 30 sec) 
Heartbeat CPU 0 instructions: 8000002 cycles: 13132179 heartbeat IPC: 0.564826 cumulative IPC: 0.54718 (Simulation time: 0 hr 0 min 34 sec) 
Heartbeat CPU 0 instructions: 9000001 cycles: 14881037 heartbeat IPC: 0.571801 cumulative IPC: 0.550141 (Simulation time: 0 hr 0 min 38 sec) 
Heartbeat CPU 0 instructions: 10000000 cycles: 16841749 heartbeat IPC: 0.510018 cumulative IPC: 0.545374 (Simulation time: 0 hr 0 min 42 sec) 

Warmup complete CPU 0 instructions: 10000004 cycles: 16841750 (Simulation time: 0 hr 0 min 42 sec) 

Heartbeat CPU 0 instructions: 11000000 cycles: 19042799 heartbeat IPC: 0.454329 cumulative IPC: 0.454327 (Simulation time: 0 hr 0 min 47 sec) 
Heartbeat CPU 0 instructions: 12000002 cycles: 20919801 heartbeat IPC: 0.532766 cumulative IPC: 0.49043 (Simulation time: 0 hr 0 min 51 sec) 
Heartbeat CPU 0 instructions: 13000003 cycles: 22636017 heartbeat IPC: 0.582678 cumulative IPC: 0.517753 (Simulation time: 0 hr 0 min 55 sec) 
Heartbeat CPU 0 instructions: 14000003 cycles: 24605242 heartbeat IPC: 0.507814 cumulative IPC: 0.515232 (Simulation time: 0 hr 0 min 59 sec) 
Heartbeat CPU 0 instructions: 15000000 cycles: 26824224 heartbeat IPC: 0.450656 cumulative IPC: 0.500877 (Simulation time: 0 hr 1 min 3 sec) 
Heartbeat CPU 0 instructions: 16000002 cycles: 28688553 heartbeat IPC: 0.536387 cumulative IPC: 0.506466 (Simulation time: 0 hr 1 min 7 sec) 
Heartbeat CPU 0 instructions: 17000000 cycles: 30441438 heartbeat IPC: 0.570487 cumulative IPC: 0.514717 (Simulation time: 0 hr 1 min 10 sec) 
Heartbeat CPU 0 instructions: 18000000 cycles: 32253964 heartbeat IPC: 0.551716 cumulative IPC: 0.519069 (Simulation time: 0 hr 1 min 14 sec) 
Heartbeat CPU 0 instructions: 19000000 cycles: 34191693 heartbeat IPC: 0.516068 cumulative IPC: 0.518733 (Simulation time: 0 hr 1 min 18 sec) 
Heartbeat CPU 0 instructions: 20000001 cycles: 36222351 heartbeat IPC: 0.492452 cumulative IPC: 0.51598 (Simulation time: 0 hr 1 min 22 sec) 
Heartbeat CPU 0 instructions: 21000002 cycles: 38284250 heartbeat IPC: 0.48499 cumulative IPC: 0.513 (Simulation time: 0 hr 1 min 27 sec) 
Heartbeat CPU 0 instructions: 22000000 cycles: 40395820 heartbeat IPC: 0.47358 cumulative IPC: 0.509466 (Simulation time: 0 hr 1 min 31 sec) 
Heartbeat CPU 0 instructions: 23000000 cycles: 42702206 heartbeat IPC: 0.433579 cumulative IPC: 0.502698 (Simulation time: 0 hr 1 min 35 sec) 
Heartbeat CPU 0 instructions: 24000000 cycles: 45209073 heartbeat IPC: 0.398904 cumulative IPC: 0.493525 (Simulation time: 0 hr 1 min 39 sec) 
Heartbeat CPU 0 instructions: 25000000 cycles: 48064528 heartbeat IPC: 0.350207 cumulative IPC: 0.480418 (Simulation time: 0 hr 1 min 43 sec) 
Heartbeat CPU 0 instructions: 26000001 cycles: 51200376 heartbeat IPC: 0.318893 cumulative IPC: 0.465676 (Simulation time: 0 hr 1 min 47 sec) 
Heartbeat CPU 0 instructions: 27000001 cycles: 54201274 heartbeat IPC: 0.333234 cumulative IPC: 0.455038 (Simulation time: 0 hr 1 min 51 sec) 
Heartbeat CPU 0 instructions: 28000003 cycles: 57027157 heartbeat IPC: 0.353872 cumulative IPC: 0.447924 (Simulation time: 0 hr 1 min 56 sec) 
Heartbeat CPU 0 instructions: 29000001 cycles: 59555090 heartbeat IPC: 0.395579 cumulative IPC: 0.444826 (Simulation time: 0 hr 2 min 0 sec) 
Heartbeat CPU 0 instructions: 30000002 cycles: 62158882 heartbeat IPC: 0.384056 cumulative IPC: 0.441334 (Simulation time: 0 hr 2 min 5 sec) 
Heartbeat CPU 0 instructions: 31000002 cycles: 64882832 heartbeat IPC: 0.367114 cumulative IPC: 0.437126 (Simulation time: 0 hr 2 min 9 sec) 
Heartbeat CPU 0 instructions: 32000000 cycles: 67782716 heartbeat IPC: 0.344841 cumulative IPC: 0.431872 (Simulation time: 0 hr 2 min 13 sec) 
Heartbeat CPU 0 instructions: 33000000 cycles: 70851661 heartbeat IPC: 0.325845 cumulative IPC: 0.425848 (Simulation time: 0 hr 2 min 18 sec) 
Heartbeat CPU 0 instructions: 34000000 cycles: 73944942 heartbeat IPC: 0.323281 cumulative IPC: 0.420292 (Simulation time: 0 hr 2 min 22 sec) 
Heartbeat CPU 0 instructions: 35000000 cycles: 76910340 heartbeat IPC: 0.337223 cumulative IPC: 0.416191 (Simulation time: 0 hr 2 min 27 sec) 
Heartbeat CPU 0 instructions: 36000000 cycles: 80125731 heartbeat IPC: 0.311004 cumulative IPC: 0.410846 (Simulation time: 0 hr 2 min 31 sec) 
Heartbeat CPU 0 instructions: 37000000 cycles: 83449181 heartbeat IPC: 0.300892 cumulative IPC: 0.40536 (Simulation time: 0 hr 2 min 35 sec) 
Heartbeat CPU 0 instructions: 38000000 cycles: 86579221 heartbeat IPC: 0.319485 cumulative IPC: 0.401506 (Simulation time: 0 hr 2 min 40 sec) 
Heartbeat CPU 0 instructions: 39000001 cycles: 89555760 heartbeat IPC: 0.335961 cumulative IPC: 0.398823 (Simulation time: 0 hr 2 min 44 sec) 
Heartbeat CPU 0 instructions: 40000002 cycles: 92417170 heartbeat IPC: 0.349478 cumulative IPC: 0.396954 (Simulation time: 0 hr 2 min 49 sec) 
Heartbeat CPU 0 instructions: 41000000 cycles: 95235110 heartbeat IPC: 0.354868 cumulative IPC: 0.395442 (Simulation time: 0 hr 2 min 53 sec) 
Heartbeat CPU 0 instructions: 42000001 cycles: 97972084 heartbeat IPC: 0.365367 cumulative IPC: 0.394427 (Simulation time: 0 hr 2 min 58 sec) 
Heartbeat CPU 0 instructions: 43000001 cycles: 100287471 heartbeat IPC: 0.431893 cumulative IPC: 0.395467 (Simulation time: 0 hr 3 min 2 sec) 
Heartbeat CPU 0 instructions: 44000000 cycles: 102492513 heartbeat IPC: 0.453506 cumulative IPC: 0.396961 (Simulation time: 0 hr 3 min 6 sec) 
Heartbeat CPU 0 instructions: 45000000 cycles: 104857622 heartbeat IPC: 0.422814 cumulative IPC: 0.397656 (Simulation time: 0 hr 3 min 11 sec) 
Heartbeat CPU 0 instructions: 46000001 cycles: 107024890 heartbeat IPC: 0.461411 cumulative IPC: 0.399188 (Simulation time: 0 hr 3 min 15 sec) 
Heartbeat CPU 0 instructions: 47000000 cycles: 109309620 heartbeat IPC: 0.437688 cumulative IPC: 0.400139 (Simulation time: 0 hr 3 min 19 sec) 
Heartbeat CPU 0 instructions: 48000001 cycles: 111610276 heartbeat IPC: 0.434659 cumulative IPC: 0.400977 (Simulation time: 0 hr 3 min 23 sec) 
Heartbeat CPU 0 instructions: 49000001 cycles: 114007874 heartbeat IPC: 0.417084 cumulative IPC: 0.401374 (Simulation time: 0 hr 3 min 28 sec) 
Heartbeat CPU 0 instructions: 50000001 cycles: 116270596 heartbeat IPC: 0.441946 cumulative IPC: 0.402298 (Simulation time: 0 hr 3 min 32 sec) 
Heartbeat CPU 0 instructions: 51000000 cycles: 119178823 heartbeat IPC: 0.343852 cumulative IPC: 0.400637 (Simulation time: 0 hr 3 min 36 sec) 
Heartbeat CPU 0 instructions: 52000001 cycles: 122244271 heartbeat IPC: 0.326217 cumulative IPC: 0.398472 (Simulation time: 0 hr 3 min 40 sec) 
Heartbeat CPU 0 instructions: 53000002 cycles: 124132011 heartbeat IPC: 0.529734 cumulative IPC: 0.400782 (Simulation time: 0 hr 3 min 45 sec) 
Heartbeat CPU 0 instructions: 54000000 cycles: 126008625 heartbeat IPC: 0.532874 cumulative IPC: 0.403053 (Simulation time: 0 hr 3 min 49 sec) 
Heartbeat CPU 0 instructions: 55000000 cycles: 127919597 heartbeat IPC: 0.523294 cumulative IPC: 0.405121 (Simulation time: 0 hr 3 min 53 sec) 
Heartbeat CPU 0 instructions: 56000001 cycles: 129865466 heartbeat IPC: 0.51391 cumulative IPC: 0.406994 (Simulation time: 0 hr 3 min 57 sec) 
Heartbeat CPU 0 instructions: 57000000 cycles: 131686767 heartbeat IPC: 0.549058 cumulative IPC: 0.409247 (Simulation time: 0 hr 4 min 3 sec) 
Heartbeat CPU 0 instructions: 58000002 cycles: 133477019 heartbeat IPC: 0.558582 cumulative IPC: 0.411539 (Simulation time: 0 hr 4 min 7 sec) 
Heartbeat CPU 0 instructions: 59000000 cycles: 135325501 heartbeat IPC: 0.540983 cumulative IPC: 0.413559 (Simulation time: 0 hr 4 min 12 sec) 
Heartbeat CPU 0 instructions: 60000003 cycles: 137082283 heartbeat IPC: 0.569224 cumulative IPC: 0.415833 (Simulation time: 0 hr 4 min 16 sec) 
Heartbeat CPU 0 instructions: 61000001 cycles: 138766638 heartbeat IPC: 0.593698 cumulative IPC: 0.41829 (Simulation time: 0 hr 4 min 20 sec) 
Heartbeat CPU 0 instructions: 62000000 cycles: 140434768 heartbeat IPC: 0.599473 cumulative IPC: 0.420736 (Simulation time: 0 hr 4 min 24 sec) 
Heartbeat CPU 0 instructions: 63000001 cycles: 142182141 heartbeat IPC: 0.572288 cumulative IPC: 0.422848 (Simulation time: 0 hr 4 min 28 sec) 
Heartbeat CPU 0 instructions: 64000003 cycles: 143840715 heartbeat IPC: 0.602929 cumulative IPC: 0.4252 (Simulation time: 0 hr 4 min 32 sec) 
Heartbeat CPU 0 instructions: 65000001 cycles: 145436394 heartbeat IPC: 0.626691 cumulative IPC: 0.427701 (Simulation time: 0 hr 4 min 37 sec) 
Heartbeat CPU 0 instructions: 66000000 cycles: 147053139 heartbeat IPC: 0.618526 cumulative IPC: 0.43007 (Simulation time: 0 hr 4 min 41 sec) 
Heartbeat CPU 0 instructions: 67000001 cycles: 148706306 heartbeat IPC: 0.6049 cumulative IPC: 0.432262 (Simulation time: 0 hr 4 min 45 sec) 
Heartbeat CPU 0 instructions: 68000000 cycles: 150316935 heartbeat IPC: 0.620875 cumulative IPC: 0.434538 (Simulation time: 0 hr 4 min 49 sec) 
Heartbeat CPU 0 instructions: 69000003 cycles: 152119846 heartbeat IPC: 0.55466 cumulative IPC: 0.436139 (Simulation time: 0 hr 4 min 53 sec) 
Heartbeat CPU 0 instructions: 70000001 cycles: 153793162 heartbeat IPC: 0.597615 cumulative IPC: 0.438112 (Simulation time: 0 hr 4 min 57 sec) 
Heartbeat CPU 0 instructions: 71000000 cycles: 155516388 heartbeat IPC: 0.580306 cumulative IPC: 0.439879 (Simulation time: 0 hr 5 min 1 sec) 
Heartbeat CPU 0 instructions: 72000000 cycles: 157243742 heartbeat IPC: 0.57892 cumulative IPC: 0.441589 (Simulation time: 0 hr 5 min 5 sec) 
Heartbeat CPU 0 instructions: 73000002 cycles: 158862975 heartbeat IPC: 0.617578 cumulative IPC: 0.443596 (Simulation time: 0 hr 5 min 9 sec) 
Heartbeat CPU 0 instructions: 74000003 cycles: 160308543 heartbeat IPC: 0.69177 cumulative IPC: 0.446096 (Simulation time: 0 hr 5 min 12 sec) 
Heartbeat CPU 0 instructions: 75000000 cycles: 161938515 heartbeat IPC: 0.613506 cumulative IPC: 0.447977 (Simulation time: 0 hr 5 min 16 sec) 
Heartbeat CPU 0 instructions: 76000002 cycles: 163610775 heartbeat IPC: 0.597994 cumulative IPC: 0.449686 (Simulation time: 0 hr 5 min 21 sec) 
Heartbeat CPU 0 instructions: 77000000 cycles: 165913754 heartbeat IPC: 0.434219 cumulative IPC: 0.449447 (Simulation time: 0 hr 5 min 25 sec) 
Heartbeat CPU 0 instructions: 78000002 cycles: 168166034 heartbeat IPC: 0.443995 cumulative IPC: 0.449366 (Simulation time: 0 hr 5 min 29 sec) 
Heartbeat CPU 0 instructions: 79000002 cycles: 169831922 heartbeat IPC: 0.60028 cumulative IPC: 0.451009 (Simulation time: 0 hr 5 min 33 sec) 
Heartbeat CPU 0 instructions: 80000000 cycles: 171611328 heartbeat IPC: 0.561984 cumulative IPC: 0.452285 (Simulation time: 0 hr 5 min 37 sec) 
Heartbeat CPU 0 instructions: 81000002 cycles: 173393657 heartbeat IPC: 0.561065 cumulative IPC: 0.453524 (Simulation time: 0 hr 5 min 41 sec) 
Heartbeat CPU 0 instructions: 82000000 cycles: 175065777 heartbeat IPC: 0.598042 cumulative IPC: 0.455051 (Simulation time: 0 hr 5 min 46 sec) 
Heartbeat CPU 0 instructions: 83000001 cycles: 176749983 heartbeat IPC: 0.593752 cumulative IPC: 0.456512 (Simulation time: 0 hr 5 min 50 sec) 
Heartbeat CPU 0 instructions: 84000002 cycles: 178389279 heartbeat IPC: 0.610019 cumulative IPC: 0.45807 (Simulation time: 0 hr 5 min 54 sec) 
Heartbeat CPU 0 instructions: 85000000 cycles: 180030502 heartbeat IPC: 0.6093 cumulative IPC: 0.45959 (Simulation time: 0 hr 5 min 58 sec) 
Heartbeat CPU 0 instructions: 86000001 cycles: 181656591 heartbeat IPC: 0.614973 cumulative IPC: 0.461123 (Simulation time: 0 hr 6 min 2 sec) 
Heartbeat CPU 0 instructions: 87000000 cycles: 183245512 heartbeat IPC: 0.629357 cumulative IPC: 0.46273 (Simulation time: 0 hr 6 min 6 sec) 
Heartbeat CPU 0 instructions: 88000000 cycles: 185029071 heartbeat IPC: 0.560677 cumulative IPC: 0.463769 (Simulation time: 0 hr 6 min 10 sec) 
Heartbeat CPU 0 instructions: 89000001 cycles: 186844794 heartbeat IPC: 0.550745 cumulative IPC: 0.464698 (Simulation time: 0 hr 6 min 15 sec) 
Heartbeat CPU 0 instructions: 90000002 cycles: 188583428 heartbeat IPC: 0.575165 cumulative IPC: 0.465816 (Simulation time: 0 hr 6 min 19 sec) 
Heartbeat CPU 0 instructions: 91000003 cycles: 190340219 heartbeat IPC: 0.56922 cumulative IPC: 0.466863 (Simulation time: 0 hr 6 min 23 sec) 
Heartbeat CPU 0 instructions: 92000000 cycles: 192503107 heartbeat IPC: 0.462343 cumulative IPC: 0.466807 (Simulation time: 0 hr 6 min 28 sec) 
Heartbeat CPU 0 instructions: 93000000 cycles: 194250129 heartbeat IPC: 0.572403 cumulative IPC: 0.467847 (Simulation time: 0 hr 6 min 32 sec) 
Heartbeat CPU 0 instructions: 94000000 cycles: 195922118 heartbeat IPC: 0.59809 cumulative IPC: 0.469063 (Simulation time: 0 hr 6 min 36 sec) 
Heartbeat CPU 0 instructions: 95000001 cycles: 197521726 heartbeat IPC: 0.625154 cumulative IPC: 0.470445 (Simulation time: 0 hr 6 min 40 sec) 
Heartbeat CPU 0 instructions: 96000002 cycles: 199185496 heartbeat IPC: 0.601045 cumulative IPC: 0.471637 (Simulation time: 0 hr 6 min 44 sec) 
Heartbeat CPU 0 instructions: 97000000 cycles: 200791335 heartbeat IPC: 0.622726 cumulative IPC: 0.472956 (Simulation time: 0 hr 6 min 48 sec) 
Heartbeat CPU 0 instructions: 98000001 cycles: 202520303 heartbeat IPC: 0.57838 cumulative IPC: 0.473937 (Simulation time: 0 hr 6 min 52 sec) 
Heartbeat CPU 0 instructions: 99000000 cycles: 204707639 heartbeat IPC: 0.457177 cumulative IPC: 0.473742 (Simulation time: 0 hr 6 min 56 sec) 
Heartbeat CPU 0 instructions: 100000003 cycles: 206653176 heartbeat IPC: 0.513998 cumulative IPC: 0.474155 (Simulation time: 0 hr 7 min 1 sec) 
Heartbeat CPU 0 instructions: 101000001 cycles: 208811039 heartbeat IPC: 0.463421 cumulative IPC: 0.474034 (Simulation time: 0 hr 7 min 5 sec) 
Heartbeat CPU 0 instructions: 102000000 cycles: 211445059 heartbeat IPC: 0.379647 cumulative IPC: 0.472757 (Simulation time: 0 hr 7 min 9 sec) 
Heartbeat CPU 0 instructions: 103000003 cycles: 214111691 heartbeat IPC: 0.375006 cumulative IPC: 0.471435 (Simulation time: 0 hr 7 min 13 sec) 
Heartbeat CPU 0 instructions: 104000003 cycles: 216335102 heartbeat IPC: 0.449759 cumulative IPC: 0.471194 (Simulation time: 0 hr 7 min 17 sec) 
Heartbeat CPU 0 instructions: 105000002 cycles: 218176182 heartbeat IPC: 0.543159 cumulative IPC: 0.471852 (Simulation time: 0 hr 7 min 22 sec) 
Heartbeat CPU 0 instructions: 106000002 cycles: 219850781 heartbeat IPC: 0.597158 cumulative IPC: 0.472885 (Simulation time: 0 hr 7 min 26 sec) 
Heartbeat CPU 0 instructions: 107000001 cycles: 221770273 heartbeat IPC: 0.520971 cumulative IPC: 0.473336 (Simulation time: 0 hr 7 min 30 sec) 
Heartbeat CPU 0 instructions: 108000002 cycles: 223862044 heartbeat IPC: 0.478064 cumulative IPC: 0.473384 (Simulation time: 0 hr 7 min 34 sec) 
Heartbeat CPU 0 instructions: 109000000 cycles: 226109685 heartbeat IPC: 0.44491 cumulative IPC: 0.473078 (Simulation time: 0 hr 7 min 38 sec) 
Heartbeat CPU 0 instructions: 110000000 cycles: 228217138 heartbeat IPC: 0.474506 cumulative IPC: 0.473092 (Simulation time: 0 hr 7 min 42 sec) 
Heartbeat CPU 0 instructions: 111000000 cycles: 230437195 heartbeat IPC: 0.450439 cumulative IPC: 0.472857 (Simulation time: 0 hr 7 min 47 sec) 
Heartbeat CPU 0 instructions: 112000002 cycles: 232612363 heartbeat IPC: 0.459736 cumulative IPC: 0.472724 (Simulation time: 0 hr 7 min 51 sec) 
Heartbeat CPU 0 instructions: 113000002 cycles: 234614165 heartbeat IPC: 0.49955 cumulative IPC: 0.472971 (Simulation time: 0 hr 7 min 55 sec) 
Heartbeat CPU 0 instructions: 114000000 cycles: 236449534 heartbeat IPC: 0.544849 cumulative IPC: 0.473572 (Simulation time: 0 hr 7 min 59 sec) 
Heartbeat CPU 0 instructions: 115000002 cycles: 238308494 heartbeat IPC: 0.537936 cumulative IPC: 0.474112 (Simulation time: 0 hr 8 min 3 sec) 
Heartbeat CPU 0 instructions: 116000002 cycles: 240178790 heartbeat IPC: 0.534675 cumulative IPC: 0.474619 (Simulation time: 0 hr 8 min 7 sec) 
Heartbeat CPU 0 instructions: 117000002 cycles: 241759282 heartbeat IPC: 0.632714 cumulative IPC: 0.47573 (Simulation time: 0 hr 8 min 12 sec) 
Heartbeat CPU 0 instructions: 118000002 cycles: 243346820 heartbeat IPC: 0.629906 cumulative IPC: 0.476811 (Simulation time: 0 hr 8 min 16 sec) 
Heartbeat CPU 0 instructions: 119000002 cycles: 245065363 heartbeat IPC: 0.581888 cumulative IPC: 0.477602 (Simulation time: 0 hr 8 min 20 sec) 
Heartbeat CPU 0 instructions: 120000002 cycles: 247035123 heartbeat IPC: 0.507676 cumulative IPC: 0.477859 (Simulation time: 0 hr 8 min 24 sec) 
Heartbeat CPU 0 instructions: 121000000 cycles: 248921474 heartbeat IPC: 0.530123 cumulative IPC: 0.478284 (Simulation time: 0 hr 8 min 28 sec) 
Heartbeat CPU 0 instructions: 122000002 cycles: 250989680 heartbeat IPC: 0.483512 cumulative IPC: 0.47833 (Simulation time: 0 hr 8 min 33 sec) 
Heartbeat CPU 0 instructions: 123000002 cycles: 253474814 heartbeat IPC: 0.402393 cumulative IPC: 0.477533 (Simulation time: 0 hr 8 min 37 sec) 
Heartbeat CPU 0 instructions: 124000003 cycles: 256091414 heartbeat IPC: 0.382176 cumulative IPC: 0.47649 (Simulation time: 0 hr 8 min 41 sec) 
Heartbeat CPU 0 instructions: 125000000 cycles: 258767358 heartbeat IPC: 0.373699 cumulative IPC: 0.475353 (Simulation time: 0 hr 8 min 45 sec) 
Heartbeat CPU 0 instructions: 126000002 cycles: 261863117 heartbeat IPC: 0.323023 cumulative IPC: 0.473428 (Simulation time: 0 hr 8 min 50 sec) 
Heartbeat CPU 0 instructions: 127000003 cycles: 265198718 heartbeat IPC: 0.299796 cumulative IPC: 0.471096 (Simulation time: 0 hr 8 min 54 sec) 
Heartbeat CPU 0 instructions: 128000002 cycles: 268443400 heartbeat IPC: 0.308196 cumulative IPC: 0.468995 (Simulation time: 0 hr 8 min 58 sec) 
Heartbeat CPU 0 instructions: 129000000 cycles: 271786249 heartbeat IPC: 0.299145 cumulative IPC: 0.466768 (Simulation time: 0 hr 9 min 2 sec) 
Heartbeat CPU 0 instructions: 130000000 cycles: 275058309 heartbeat IPC: 0.305618 cumulative IPC: 0.464726 (Simulation time: 0 hr 9 min 7 sec) 
Heartbeat CPU 0 instructions: 131000000 cycles: 278100775 heartbeat IPC: 0.328681 cumulative IPC: 0.463142 (Simulation time: 0 hr 9 min 11 sec) 
Heartbeat CPU 0 instructions: 132000000 cycles: 281309159 heartbeat IPC: 0.311683 cumulative IPC: 0.461304 (Simulation time: 0 hr 9 min 15 sec) 
Heartbeat CPU 0 instructions: 133000002 cycles: 284411892 heartbeat IPC: 0.322297 cumulative IPC: 0.459693 (Simulation time: 0 hr 9 min 19 sec) 
Heartbeat CPU 0 instructions: 134000001 cycles: 287508747 heartbeat IPC: 0.322908 cumulative IPC: 0.458127 (Simulation time: 0 hr 9 min 24 sec) 
Heartbeat CPU 0 instructions: 135000000 cycles: 290831651 heartbeat IPC: 0.300941 cumulative IPC: 0.456221 (Simulation time: 0 hr 9 min 28 sec) 
Heartbeat CPU 0 instructions: 136000002 cycles: 294378882 heartbeat IPC: 0.281911 cumulative IPC: 0.453993 (Simulation time: 0 hr 9 min 32 sec) 
Heartbeat CPU 0 instructions: 137000000 cycles: 298070092 heartbeat IPC: 0.270913 cumulative IPC: 0.45159 (Simulation time: 0 hr 9 min 37 sec) 
Heartbeat CPU 0 instructions: 138000000 cycles: 301159911 heartbeat IPC: 0.323644 cumulative IPC: 0.4502 (Simulation time: 0 hr 9 min 41 sec) 
Heartbeat CPU 0 instructions: 139000001 cycles: 302693308 heartbeat IPC: 0.652147 cumulative IPC: 0.451283 (Simulation time: 0 hr 9 min 45 sec) 
Heartbeat CPU 0 instructions: 140000000 cycles: 304290650 heartbeat IPC: 0.626039 cumulative IPC: 0.452254 (Simulation time: 0 hr 9 min 49 sec) 
Heartbeat CPU 0 instructions: 141000001 cycles: 305571730 heartbeat IPC: 0.780592 cumulative IPC: 0.453711 (Simulation time: 0 hr 9 min 53 sec) 
Heartbeat CPU 0 instructions: 142000000 cycles: 307062389 heartbeat IPC: 0.670844 cumulative IPC: 0.454826 (Simulation time: 0 hr 9 min 57 sec) 
Heartbeat CPU 0 instructions: 143000000 cycles: 308613771 heartbeat IPC: 0.644587 cumulative IPC: 0.455835 (Simulation time: 0 hr 10 min 1 sec) 
Heartbeat CPU 0 instructions: 144000000 cycles: 310207209 heartbeat IPC: 0.627574 cumulative IPC: 0.456768 (Simulation time: 0 hr 10 min 5 sec) 
Heartbeat CPU 0 instructions: 145000000 cycles: 311754947 heartbeat IPC: 0.646104 cumulative IPC: 0.457762 (Simulation time: 0 hr 10 min 9 sec) 
Heartbeat CPU 0 instructions: 146000002 cycles: 313573955 heartbeat IPC: 0.549751 cumulative IPC: 0.458326 (Simulation time: 0 hr 10 min 13 sec) 
Heartbeat CPU 0 instructions: 147000003 cycles: 315257358 heartbeat IPC: 0.594035 cumulative IPC: 0.459091 (Simulation time: 0 hr 10 min 18 sec) 
Heartbeat CPU 0 instructions: 148000002 cycles: 316952868 heartbeat IPC: 0.589792 cumulative IPC: 0.45983 (Simulation time: 0 hr 10 min 22 sec) 
Heartbeat CPU 0 instructions: 149000003 cycles: 318581839 heartbeat IPC: 0.613885 cumulative IPC: 0.460661 (Simulation time: 0 hr 10 min 26 sec) 
Heartbeat CPU 0 instructions: 150000000 cycles: 320615482 heartbeat IPC: 0.491727 cumulative IPC: 0.460869 (Simulation time: 0 hr 10 min 31 sec) 
Heartbeat CPU 0 instructions: 151000001 cycles: 322230808 heartbeat IPC: 0.619071 cumulative IPC: 0.461706 (Simulation time: 0 hr 10 min 35 sec) 
Heartbeat CPU 0 instructions: 152000002 cycles: 323845074 heartbeat IPC: 0.619477 cumulative IPC: 0.462536 (Simulation time: 0 hr 10 min 39 sec) 
Heartbeat CPU 0 instructions: 153000000 cycles: 325445159 heartbeat IPC: 0.624966 cumulative IPC: 0.463378 (Simulation time: 0 hr 10 min 43 sec) 
Heartbeat CPU 0 instructions: 154000000 cycles: 327248295 heartbeat IPC: 0.554589 cumulative IPC: 0.463908 (Simulation time: 0 hr 10 min 48 sec) 
Heartbeat CPU 0 instructions: 155000001 cycles: 330216625 heartbeat IPC: 0.33689 cumulative IPC: 0.462705 (Simulation time: 0 hr 10 min 52 sec) 
Heartbeat CPU 0 instructions: 156000000 cycles: 333398092 heartbeat IPC: 0.31432 cumulative IPC: 0.461213 (Simulation time: 0 hr 10 min 56 sec) 
Heartbeat CPU 0 instructions: 157000001 cycles: 336421066 heartbeat IPC: 0.3308 cumulative IPC: 0.45998 (Simulation time: 0 hr 11 min 1 sec) 
Heartbeat CPU 0 instructions: 158000002 cycles: 338681871 heartbeat IPC: 0.442321 cumulative IPC: 0.459856 (Simulation time: 0 hr 11 min 5 sec) 
Heartbeat CPU 0 instructions: 159000000 cycles: 340462906 heartbeat IPC: 0.56147 cumulative IPC: 0.460415 (Simulation time: 0 hr 11 min 9 sec) 
Heartbeat CPU 0 instructions: 160000001 cycles: 342260344 heartbeat IPC: 0.556348 cumulative IPC: 0.460945 (Simulation time: 0 hr 11 min 13 sec) 
Heartbeat CPU 0 instructions: 161000002 cycles: 344243597 heartbeat IPC: 0.504223 cumulative IPC: 0.461207 (Simulation time: 0 hr 11 min 17 sec) 
Heartbeat CPU 0 instructions: 162000003 cycles: 346836959 heartbeat IPC: 0.3856 cumulative IPC: 0.460613 (Simulation time: 0 hr 11 min 21 sec) 
Heartbeat CPU 0 instructions: 163000000 cycles: 349732961 heartbeat IPC: 0.345303 cumulative IPC: 0.45961 (Simulation time: 0 hr 11 min 26 sec) 
Heartbeat CPU 0 instructions: 164000003 cycles: 352359330 heartbeat IPC: 0.380755 cumulative IPC: 0.458992 (Simulation time: 0 hr 11 min 30 sec) 
Heartbeat CPU 0 instructions: 165000000 cycles: 355143660 heartbeat IPC: 0.359152 cumulative IPC: 0.458171 (Simulation time: 0 hr 11 min 34 sec) 
Heartbeat CPU 0 instructions: 166000000 cycles: 357664315 heartbeat IPC: 0.396722 cumulative IPC: 0.457716 (Simulation time: 0 hr 11 min 38 sec) 
Heartbeat CPU 0 instructions: 167000000 cycles: 359751088 heartbeat IPC: 0.479209 cumulative IPC: 0.457847 (Simulation time: 0 hr 11 min 42 sec) 
Heartbeat CPU 0 instructions: 168000002 cycles: 361417567 heartbeat IPC: 0.600069 cumulative IPC: 0.458535 (Simulation time: 0 hr 11 min 46 sec) 
Heartbeat CPU 0 instructions: 169000000 cycles: 362942846 heartbeat IPC: 0.655616 cumulative IPC: 0.459403 (Simulation time: 0 hr 11 min 50 sec) 
Heartbeat CPU 0 instructions: 170000000 cycles: 364413313 heartbeat IPC: 0.680056 cumulative IPC: 0.460337 (Simulation time: 0 hr 11 min 54 sec) 
Heartbeat CPU 0 instructions: 171000000 cycles: 365789347 heartbeat IPC: 0.726726 cumulative IPC: 0.461387 (Simulation time: 0 hr 11 min 58 sec) 
Heartbeat CPU 0 instructions: 172000001 cycles: 367231585 heartbeat IPC: 0.693368 cumulative IPC: 0.462342 (Simulation time: 0 hr 12 min 1 sec) 
Heartbeat CPU 0 instructions: 173000003 cycles: 368747671 heartbeat IPC: 0.659595 cumulative IPC: 0.463192 (Simulation time: 0 hr 12 min 6 sec) 
Heartbeat CPU 0 instructions: 174000000 cycles: 370169339 heartbeat IPC: 0.703397 cumulative IPC: 0.464158 (Simulation time: 0 hr 12 min 9 sec) 
Heartbeat CPU 0 instructions: 175000000 cycles: 371531562 heartbeat IPC: 0.734094 cumulative IPC: 0.465195 (Simulation time: 0 hr 12 min 13 sec) 
Heartbeat CPU 0 instructions: 176000000 cycles: 373127006 heartbeat IPC: 0.626785 cumulative IPC: 0.465919 (Simulation time: 0 hr 12 min 17 sec) 
Heartbeat CPU 0 instructions: 177000000 cycles: 374797134 heartbeat IPC: 0.598756 cumulative IPC: 0.466539 (Simulation time: 0 hr 12 min 21 sec) 
Heartbeat CPU 0 instructions: 178000000 cycles: 376365591 heartbeat IPC: 0.637569 cumulative IPC: 0.467285 (Simulation time: 0 hr 12 min 25 sec) 
Heartbeat CPU 0 instructions: 179000000 cycles: 377840162 heartbeat IPC: 0.678163 cumulative IPC: 0.468146 (Simulation time: 0 hr 12 min 29 sec) 
Heartbeat CPU 0 instructions: 180000002 cycles: 379458009 heartbeat IPC: 0.618107 cumulative IPC: 0.468815 (Simulation time: 0 hr 12 min 34 sec) 
Heartbeat CPU 0 instructions: 181000000 cycles: 381090529 heartbeat IPC: 0.612549 cumulative IPC: 0.469459 (Simulation time: 0 hr 12 min 38 sec) 
Heartbeat CPU 0 instructions: 182000000 cycles: 382844815 heartbeat IPC: 0.570032 cumulative IPC: 0.469941 (Simulation time: 0 hr 12 min 42 sec) 
Heartbeat CPU 0 instructions: 183000001 cycles: 384641821 heartbeat IPC: 0.556482 cumulative IPC: 0.470364 (Simulation time: 0 hr 12 min 46 sec) 
Heartbeat CPU 0 instructions: 184000000 cycles: 386535250 heartbeat IPC: 0.528142 cumulative IPC: 0.47066 (Simulation time: 0 hr 12 min 50 sec) 
Heartbeat CPU 0 instructions: 185000003 cycles: 388348442 heartbeat IPC: 0.551515 cumulative IPC: 0.471055 (Simulation time: 0 hr 12 min 54 sec) 
Heartbeat CPU 0 instructions: 186000002 cycles: 390087795 heartbeat IPC: 0.574926 cumulative IPC: 0.471539 (Simulation time: 0 hr 12 min 58 sec) 
Heartbeat CPU 0 instructions: 187000000 cycles: 391785592 heartbeat IPC: 0.588997 cumulative IPC: 0.472071 (Simulation time: 0 hr 13 min 2 sec) 
Heartbeat CPU 0 instructions: 188000001 cycles: 393448839 heartbeat IPC: 0.601234 cumulative IPC: 0.472641 (Simulation time: 0 hr 13 min 6 sec) 
Heartbeat CPU 0 instructions: 189000001 cycles: 395144284 heartbeat IPC: 0.589816 cumulative IPC: 0.473166 (Simulation time: 0 hr 13 min 10 sec) 
Heartbeat CPU 0 instructions: 190000003 cycles: 396953168 heartbeat IPC: 0.552828 cumulative IPC: 0.473545 (Simulation time: 0 hr 13 min 15 sec) 
Heartbeat CPU 0 instructions: 191000000 cycles: 398583073 heartbeat IPC: 0.613531 cumulative IPC: 0.474143 (Simulation time: 0 hr 13 min 19 sec) 
Heartbeat CPU 0 instructions: 192000000 cycles: 400056155 heartbeat IPC: 0.678849 cumulative IPC: 0.47493 (Simulation time: 0 hr 13 min 22 sec) 
Heartbeat CPU 0 instructions: 193000002 cycles: 401390805 heartbeat IPC: 0.749262 cumulative IPC: 0.475882 (Simulation time: 0 hr 13 min 26 sec) 
Heartbeat CPU 0 instructions: 194000003 cycles: 402878976 heartbeat IPC: 0.671966 cumulative IPC: 0.476638 (Simulation time: 0 hr 13 min 30 sec) 
Heartbeat CPU 0 instructions: 195000003 cycles: 404555802 heartbeat IPC: 0.596365 cumulative IPC: 0.477156 (Simulation time: 0 hr 13 min 34 sec) 
Heartbeat CPU 0 instructions: 196000002 cycles: 406210034 heartbeat IPC: 0.60451 cumulative IPC: 0.477697 (Simulation time: 0 hr 13 min 38 sec) 
Heartbeat CPU 0 instructions: 197000002 cycles: 407736928 heartbeat IPC: 0.654924 cumulative IPC: 0.478389 (Simulation time: 0 hr 13 min 42 sec) 
Heartbeat CPU 0 instructions: 198000000 cycles: 409492673 heartbeat IPC: 0.569558 cumulative IPC: 0.478797 (Simulation time: 0 hr 13 min 46 sec) 
Heartbeat CPU 0 instructions: 199000002 cycles: 411148638 heartbeat IPC: 0.603879 cumulative IPC: 0.479322 (Simulation time: 0 hr 13 min 50 sec) 
Heartbeat CPU 0 instructions: 200000002 cycles: 412736471 heartbeat IPC: 0.629789 cumulative IPC: 0.479926 (Simulation time: 0 hr 13 min 54 sec) 
Heartbeat CPU 0 instructions: 201000001 cycles: 414475059 heartbeat IPC: 0.575179 cumulative IPC: 0.480342 (Simulation time: 0 hr 13 min 58 sec) 
Heartbeat CPU 0 instructions: 202000003 cycles: 416148475 heartbeat IPC: 0.597581 cumulative IPC: 0.480833 (Simulation time: 0 hr 14 min 2 sec) 
Heartbeat CPU 0 instructions: 203000000 cycles: 417881565 heartbeat IPC: 0.577002 cumulative IPC: 0.481249 (Simulation time: 0 hr 14 min 6 sec) 
Heartbeat CPU 0 instructions: 204000002 cycles: 419631338 heartbeat IPC: 0.571504 cumulative IPC: 0.481641 (Simulation time: 0 hr 14 min 10 sec) 
Heartbeat CPU 0 instructions: 205000000 cycles: 421275995 heartbeat IPC: 0.608028 cumulative IPC: 0.482155 (Simulation time: 0 hr 14 min 15 sec) 
Heartbeat CPU 0 instructions: 206000002 cycles: 422879522 heartbeat IPC: 0.623627 cumulative IPC: 0.482714 (Simulation time: 0 hr 14 min 19 sec) 
Heartbeat CPU 0 instructions: 207000003 cycles: 424548108 heartbeat IPC: 0.59931 cumulative IPC: 0.483191 (Simulation time: 0 hr 14 min 23 sec) 
Heartbeat CPU 0 instructions: 208000001 cycles: 426747073 heartbeat IPC: 0.454758 cumulative IPC: 0.483038 (Simulation time: 0 hr 14 min 27 sec) 
Heartbeat CPU 0 instructions: 209000000 cycles: 428719428 heartbeat IPC: 0.507008 cumulative IPC: 0.483153 (Simulation time: 0 hr 14 min 31 sec) 
Heartbeat CPU 0 instructions: 210000002 cycles: 430426381 heartbeat IPC: 0.58584 cumulative IPC: 0.483577 (Simulation time: 0 hr 14 min 35 sec) 
Heartbeat CPU 0 instructions: 211000000 cycles: 432169695 heartbeat IPC: 0.573619 cumulative IPC: 0.483955 (Simulation time: 0 hr 14 min 39 sec) 
Heartbeat CPU 0 instructions: 212000001 cycles: 434052416 heartbeat IPC: 0.531147 cumulative IPC: 0.484168 (Simulation time: 0 hr 14 min 43 sec) 
Heartbeat CPU 0 instructions: 213000000 cycles: 435869129 heartbeat IPC: 0.550444 cumulative IPC: 0.484455 (Simulation time: 0 hr 14 min 47 sec) 
Heartbeat CPU 0 instructions: 214000001 cycles: 437670259 heartbeat IPC: 0.555208 cumulative IPC: 0.484758 (Simulation time: 0 hr 14 min 51 sec) 
Heartbeat CPU 0 instructions: 215000001 cycles: 439404416 heartbeat IPC: 0.576649 cumulative IPC: 0.485135 (Simulation time: 0 hr 14 min 55 sec) 
Heartbeat CPU 0 instructions: 216000000 cycles: 441159978 heartbeat IPC: 0.569618 cumulative IPC: 0.485485 (Simulation time: 0 hr 14 min 59 sec) 
Heartbeat CPU 0 instructions: 217000000 cycles: 442845900 heartbeat IPC: 0.593147 cumulative IPC: 0.485911 (Simulation time: 0 hr 15 min 3 sec) 
Heartbeat CPU 0 instructions: 218000001 cycles: 444616090 heartbeat IPC: 0.564912 cumulative IPC: 0.486238 (Simulation time: 0 hr 15 min 7 sec) 
Heartbeat CPU 0 instructions: 219000002 cycles: 446246453 heartbeat IPC: 0.613361 cumulative IPC: 0.48672 (Simulation time: 0 hr 15 min 11 sec) 
Heartbeat CPU 0 instructions: 220000000 cycles: 447941049 heartbeat IPC: 0.59011 cumulative IPC: 0.487127 (Simulation time: 0 hr 15 min 15 sec) 
Heartbeat CPU 0 instructions: 221000000 cycles: 449647502 heartbeat IPC: 0.586011 cumulative IPC: 0.487517 (Simulation time: 0 hr 15 min 19 sec) 
Heartbeat CPU 0 instructions: 222000001 cycles: 451241253 heartbeat IPC: 0.627451 cumulative IPC: 0.48803 (Simulation time: 0 hr 15 min 23 sec) 
Heartbeat CPU 0 instructions: 223000001 cycles: 452901383 heartbeat IPC: 0.602362 cumulative IPC: 0.488465 (Simulation time: 0 hr 15 min 27 sec) 
Heartbeat CPU 0 instructions: 224000002 cycles: 454584506 heartbeat IPC: 0.594134 cumulative IPC: 0.488872 (Simulation time: 0 hr 15 min 31 sec) 
Heartbeat CPU 0 instructions: 225000000 cycles: 456472848 heartbeat IPC: 0.529564 cumulative IPC: 0.489046 (Simulation time: 0 hr 15 min 35 sec) 
Heartbeat CPU 0 instructions: 226000001 cycles: 458206854 heartbeat IPC: 0.5767 cumulative IPC: 0.489391 (Simulation time: 0 hr 15 min 39 sec) 
Heartbeat CPU 0 instructions: 227000000 cycles: 459860881 heartbeat IPC: 0.604584 cumulative IPC: 0.489821 (Simulation time: 0 hr 15 min 43 sec) 
Heartbeat CPU 0 instructions: 228000000 cycles: 461449057 heartbeat IPC: 0.629653 cumulative IPC: 0.49032 (Simulation time: 0 hr 15 min 47 sec) 
Heartbeat CPU 0 instructions: 229000002 cycles: 463030819 heartbeat IPC: 0.632208 cumulative IPC: 0.490823 (Simulation time: 0 hr 15 min 51 sec) 
Heartbeat CPU 0 instructions: 230000000 cycles: 464645427 heartbeat IPC: 0.619344 cumulative IPC: 0.491287 (Simulation time: 0 hr 15 min 55 sec) 
Heartbeat CPU 0 instructions: 231000000 cycles: 466279030 heartbeat IPC: 0.612144 cumulative IPC: 0.491726 (Simulation time: 0 hr 15 min 59 sec) 
Heartbeat CPU 0 instructions: 232000002 cycles: 467962260 heartbeat IPC: 0.594097 cumulative IPC: 0.492108 (Simulation time: 0 hr 16 min 3 sec) 
Heartbeat CPU 0 instructions: 233000000 cycles: 469557783 heartbeat IPC: 0.626752 cumulative IPC: 0.492582 (Simulation time: 0 hr 16 min 7 sec) 
Heartbeat CPU 0 instructions: 234000000 cycles: 471225699 heartbeat IPC: 0.599551 cumulative IPC: 0.492975 (Simulation time: 0 hr 16 min 11 sec) 
Heartbeat CPU 0 instructions: 235000002 cycles: 473139599 heartbeat IPC: 0.522494 cumulative IPC: 0.493099 (Simulation time: 0 hr 16 min 15 sec) 
Heartbeat CPU 0 instructions: 236000001 cycles: 475018018 heartbeat IPC: 0.532362 cumulative IPC: 0.49326 (Simulation time: 0 hr 16 min 19 sec) 
Heartbeat CPU 0 instructions: 237000002 cycles: 476967573 heartbeat IPC: 0.512938 cumulative IPC: 0.493343 (Simulation time: 0 hr 16 min 23 sec) 
Heartbeat CPU 0 instructions: 238000003 cycles: 478654708 heartbeat IPC: 0.592721 cumulative IPC: 0.493706 (Simulation time: 0 hr 16 min 27 sec) 
Heartbeat CPU 0 instructions: 239000000 cycles: 480297226 heartbeat IPC: 0.608819 cumulative IPC: 0.494114 (Simulation time: 0 hr 16 min 31 sec) 
Heartbeat CPU 0 instructions: 240000001 cycles: 482148158 heartbeat IPC: 0.540269 cumulative IPC: 0.494298 (Simulation time: 0 hr 16 min 35 sec) 
Heartbeat CPU 0 instructions: 241000000 cycles: 484602543 heartbeat IPC: 0.407434 cumulative IPC: 0.493842 (Simulation time: 0 hr 16 min 39 sec) 
Heartbeat CPU 0 instructions: 242000000 cycles: 486923520 heartbeat IPC: 0.430853 cumulative IPC: 0.493531 (Simulation time: 0 hr 16 min 43 sec) 
Heartbeat CPU 0 instructions: 243000001 cycles: 489211888 heartbeat IPC: 0.436993 cumulative IPC: 0.493257 (Simulation time: 0 hr 16 min 47 sec) 
Heartbeat CPU 0 instructions: 244000003 cycles: 491814722 heartbeat IPC: 0.384197 cumulative IPC: 0.49266 (Simulation time: 0 hr 16 min 52 sec) 
Heartbeat CPU 0 instructions: 245000000 cycles: 494444397 heartbeat IPC: 0.380274 cumulative IPC: 0.492041 (Simulation time: 0 hr 16 min 56 sec) 
Heartbeat CPU 0 instructions: 246000001 cycles: 496739340 heartbeat IPC: 0.435741 cumulative IPC: 0.491772 (Simulation time: 0 hr 17 min 0 sec) 
Heartbeat CPU 0 instructions: 247000000 cycles: 498363341 heartbeat IPC: 0.615763 cumulative IPC: 0.49219 (Simulation time: 0 hr 17 min 4 sec) 
Heartbeat CPU 0 instructions: 248000003 cycles: 499868480 heartbeat IPC: 0.664392 cumulative IPC: 0.492726 (Simulation time: 0 hr 17 min 8 sec) 
Heartbeat CPU 0 instructions: 249000001 cycles: 501699179 heartbeat IPC: 0.546238 cumulative IPC: 0.492928 (Simulation time: 0 hr 17 min 12 sec) 
Heartbeat CPU 0 instructions: 250000002 cycles: 503662143 heartbeat IPC: 0.509434 cumulative IPC: 0.492995 (Simulation time: 0 hr 17 min 16 sec) 
Heartbeat CPU 0 instructions: 251000003 cycles: 505874850 heartbeat IPC: 0.451936 cumulative IPC: 0.492809 (Simulation time: 0 hr 17 min 20 sec) 
Heartbeat CPU 0 instructions: 252000002 cycles: 508276016 heartbeat IPC: 0.416464 cumulative IPC: 0.492436 (Simulation time: 0 hr 17 min 24 sec) 
Heartbeat CPU 0 instructions: 253000000 cycles: 510887743 heartbeat IPC: 0.382888 cumulative IPC: 0.491857 (Simulation time: 0 hr 17 min 29 sec) 
Heartbeat CPU 0 instructions: 254000003 cycles: 513541687 heartbeat IPC: 0.376799 cumulative IPC: 0.491242 (Simulation time: 0 hr 17 min 33 sec) 
Heartbeat CPU 0 instructions: 255000003 cycles: 516121835 heartbeat IPC: 0.387575 cumulative IPC: 0.490707 (Simulation time: 0 hr 17 min 37 sec) 
Heartbeat CPU 0 instructions: 256000002 cycles: 518709420 heartbeat IPC: 0.38646 cumulative IPC: 0.490169 (Simulation time: 0 hr 17 min 41 sec) 
Heartbeat CPU 0 instructions: 257000000 cycles: 521408331 heartbeat IPC: 0.370519 cumulative IPC: 0.489529 (Simulation time: 0 hr 17 min 46 sec) 
Heartbeat CPU 0 instructions: 258000002 cycles: 524244005 heartbeat IPC: 0.352651 cumulative IPC: 0.488764 (Simulation time: 0 hr 17 min 50 sec) 
Heartbeat CPU 0 instructions: 259000000 cycles: 527095534 heartbeat IPC: 0.350688 cumulative IPC: 0.487992 (Simulation time: 0 hr 17 min 54 sec) 
Heartbeat CPU 0 instructions: 260000001 cycles: 529689039 heartbeat IPC: 0.385579 cumulative IPC: 0.487475 (Simulation time: 0 hr 17 min 58 sec) 
Heartbeat CPU 0 instructions: 261000001 cycles: 532114058 heartbeat IPC: 0.412368 cumulative IPC: 0.487121 (Simulation time: 0 hr 18 min 2 sec) 
Heartbeat CPU 0 instructions: 262000000 cycles: 534551341 heartbeat IPC: 0.410293 cumulative IPC: 0.486759 (Simulation time: 0 hr 18 min 7 sec) 
Heartbeat CPU 0 instructions: 263000001 cycles: 536973819 heartbeat IPC: 0.412801 cumulative IPC: 0.486415 (Simulation time: 0 hr 18 min 11 sec) 
Heartbeat CPU 0 instructions: 264000000 cycles: 539153536 heartbeat IPC: 0.458775 cumulative IPC: 0.4863 (Simulation time: 0 hr 18 min 15 sec) 
Heartbeat CPU 0 instructions: 265000003 cycles: 541542695 heartbeat IPC: 0.418559 cumulative IPC: 0.485991 (Simulation time: 0 hr 18 min 19 sec) 
Heartbeat CPU 0 instructions: 266000000 cycles: 544041613 heartbeat IPC: 0.400172 cumulative IPC: 0.485584 (Simulation time: 0 hr 18 min 23 sec) 
Heartbeat CPU 0 instructions: 267000001 cycles: 546559730 heartbeat IPC: 0.397123 cumulative IPC: 0.485164 (Simulation time: 0 hr 18 min 27 sec) 
Heartbeat CPU 0 instructions: 268000002 cycles: 549131295 heartbeat IPC: 0.388869 cumulative IPC: 0.484699 (Simulation time: 0 hr 18 min 31 sec) 
Heartbeat CPU 0 instructions: 269000000 cycles: 551849676 heartbeat IPC: 0.367865 cumulative IPC: 0.484105 (Simulation time: 0 hr 18 min 35 sec) 
Heartbeat CPU 0 instructions: 270000001 cycles: 554786641 heartbeat IPC: 0.340488 cumulative IPC: 0.483321 (Simulation time: 0 hr 18 min 39 sec) 
Heartbeat CPU 0 instructions: 271000002 cycles: 557884916 heartbeat IPC: 0.322761 cumulative IPC: 0.482401 (Simulation time: 0 hr 18 min 43 sec) 
Heartbeat CPU 0 instructions: 272000002 cycles: 561040133 heartbeat IPC: 0.316935 cumulative IPC: 0.481442 (Simulation time: 0 hr 18 min 48 sec) 
Heartbeat CPU 0 instructions: 273000003 cycles: 563706378 heartbeat IPC: 0.37506 cumulative IPC: 0.480923 (Simulation time: 0 hr 18 min 52 sec) 
Heartbeat CPU 0 instructions: 274000000 cycles: 565572452 heartbeat IPC: 0.535883 cumulative IPC: 0.48111 (Simulation time: 0 hr 18 min 56 sec) 
Heartbeat CPU 0 instructions: 275000000 cycles: 567205218 heartbeat IPC: 0.612458 cumulative IPC: 0.4815 (Simulation time: 0 hr 19 min 0 sec) 
Heartbeat CPU 0 instructions: 276000000 cycles: 568875746 heartbeat IPC: 0.598613 cumulative IPC: 0.481854 (Simulation time: 0 hr 19 min 4 sec) 
Heartbeat CPU 0 instructions: 277000001 cycles: 570596100 heartbeat IPC: 0.581276 cumulative IPC: 0.482163 (Simulation time: 0 hr 19 min 9 sec) 
Heartbeat CPU 0 instructions: 278000001 cycles: 572202734 heartbeat IPC: 0.622419 cumulative IPC: 0.482569 (Simulation time: 0 hr 19 min 13 sec) 
Heartbeat CPU 0 instructions: 279000001 cycles: 573749890 heartbeat IPC: 0.646347 cumulative IPC: 0.483024 (Simulation time: 0 hr 19 min 17 sec) 
Heartbeat CPU 0 instructions: 280000003 cycles: 575462541 heartbeat IPC: 0.583891 cumulative IPC: 0.483333 (Simulation time: 0 hr 19 min 21 sec) 
Heartbeat CPU 0 instructions: 281000001 cycles: 577164442 heartbeat IPC: 0.587577 cumulative IPC: 0.48365 (Simulation time: 0 hr 19 min 25 sec) 
Heartbeat CPU 0 instructions: 282000000 cycles: 578818819 heartbeat IPC: 0.604457 cumulative IPC: 0.484006 (Simulation time: 0 hr 19 min 29 sec) 
Heartbeat CPU 0 instructions: 283000001 cycles: 580503950 heartbeat IPC: 0.593426 cumulative IPC: 0.484333 (Simulation time: 0 hr 19 min 33 sec) 
Heartbeat CPU 0 instructions: 284000001 cycles: 582201080 heartbeat IPC: 0.58923 cumulative IPC: 0.484648 (Simulation time: 0 hr 19 min 37 sec) 
Heartbeat CPU 0 instructions: 285000003 cycles: 583807896 heartbeat IPC: 0.62235 cumulative IPC: 0.485038 (Simulation time: 0 hr 19 min 41 sec) 
Heartbeat CPU 0 instructions: 286000000 cycles: 585495087 heartbeat IPC: 0.592699 cumulative IPC: 0.485357 (Simulation time: 0 hr 19 min 45 sec) 
Heartbeat CPU 0 instructions: 287000000 cycles: 587041094 heartbeat IPC: 0.646828 cumulative IPC: 0.485795 (Simulation time: 0 hr 19 min 49 sec) 
Heartbeat CPU 0 instructions: 288000000 cycles: 588505995 heartbeat IPC: 0.68264 cumulative IPC: 0.486299 (Simulation time: 0 hr 19 min 53 sec) 
Heartbeat CPU 0 instructions: 289000000 cycles: 590021412 heartbeat IPC: 0.659884 cumulative IPC: 0.486758 (Simulation time: 0 hr 19 min 57 sec) 
Heartbeat CPU 0 instructions: 290000001 cycles: 591517385 heartbeat IPC: 0.668462 cumulative IPC: 0.487231 (Simulation time: 0 hr 20 min 2 sec) 
Heartbeat CPU 0 instructions: 291000000 cycles: 592924171 heartbeat IPC: 0.710839 cumulative IPC: 0.487777 (Simulation time: 0 hr 20 min 6 sec) 
Heartbeat CPU 0 instructions: 292000000 cycles: 594348100 heartbeat IPC: 0.702282 cumulative IPC: 0.488306 (Simulation time: 0 hr 20 min 10 sec) 
Heartbeat CPU 0 instructions: 293000002 cycles: 595799728 heartbeat IPC: 0.688883 cumulative IPC: 0.488809 (Simulation time: 0 hr 20 min 14 sec) 
Heartbeat CPU 0 instructions: 294000003 cycles: 597231609 heartbeat IPC: 0.698383 cumulative IPC: 0.489326 (Simulation time: 0 hr 20 min 17 sec) 
Heartbeat CPU 0 instructions: 295000002 cycles: 598625503 heartbeat IPC: 0.717414 cumulative IPC: 0.489873 (Simulation time: 0 hr 20 min 21 sec) 
Heartbeat CPU 0 instructions: 296000001 cycles: 600046150 heartbeat IPC: 0.703904 cumulative IPC: 0.490394 (Simulation time: 0 hr 20 min 25 sec) 
Heartbeat CPU 0 instructions: 297000000 cycles: 601451221 heartbeat IPC: 0.711707 cumulative IPC: 0.490926 (Simulation time: 0 hr 20 min 29 sec) 
Heartbeat CPU 0 instructions: 298000000 cycles: 603046679 heartbeat IPC: 0.626779 cumulative IPC: 0.491296 (Simulation time: 0 hr 20 min 33 sec) 
Heartbeat CPU 0 instructions: 299000000 cycles: 604564414 heartbeat IPC: 0.658877 cumulative IPC: 0.491729 (Simulation time: 0 hr 20 min 36 sec) 
Heartbeat CPU 0 instructions: 300000001 cycles: 606072116 heartbeat IPC: 0.663262 cumulative IPC: 0.492167 (Simulation time: 0 hr 20 min 40 sec) 
Heartbeat CPU 0 instructions: 301000003 cycles: 607478621 heartbeat IPC: 0.710984 cumulative IPC: 0.492689 (Simulation time: 0 hr 20 min 44 sec) 
Heartbeat CPU 0 instructions: 302000000 cycles: 608943832 heartbeat IPC: 0.682494 cumulative IPC: 0.493158 (Simulation time: 0 hr 20 min 48 sec) 
Heartbeat CPU 0 instructions: 303000002 cycles: 610483514 heartbeat IPC: 0.649486 cumulative IPC: 0.493564 (Simulation time: 0 hr 20 min 52 sec) 
Heartbeat CPU 0 instructions: 304000000 cycles: 612018470 heartbeat IPC: 0.651483 cumulative IPC: 0.493971 (Simulation time: 0 hr 20 min 56 sec) 
Heartbeat CPU 0 instructions: 305000001 cycles: 613579227 heartbeat IPC: 0.640715 cumulative IPC: 0.494355 (Simulation time: 0 hr 20 min 59 sec) 
Heartbeat CPU 0 instructions: 306000000 cycles: 615171356 heartbeat IPC: 0.628089 cumulative IPC: 0.494711 (Simulation time: 0 hr 21 min 3 sec) 
Heartbeat CPU 0 instructions: 307000000 cycles: 616688142 heartbeat IPC: 0.659289 cumulative IPC: 0.495127 (Simulation time: 0 hr 21 min 7 sec) 
Heartbeat CPU 0 instructions: 308000000 cycles: 618211612 heartbeat IPC: 0.656396 cumulative IPC: 0.495535 (Simulation time: 0 hr 21 min 11 sec) 
Heartbeat CPU 0 instructions: 309000000 cycles: 619842183 heartbeat IPC: 0.613282 cumulative IPC: 0.495854 (Simulation time: 0 hr 21 min 14 sec) 
Heartbeat CPU 0 instructions: 310000001 cycles: 621601207 heartbeat IPC: 0.568498 cumulative IPC: 0.496065 (Simulation time: 0 hr 21 min 18 sec) 
Heartbeat CPU 0 instructions: 311000003 cycles: 623408849 heartbeat IPC: 0.553208 cumulative IPC: 0.496235 (Simulation time: 0 hr 21 min 22 sec) 
Heartbeat CPU 0 instructions: 312000002 cycles: 625186310 heartbeat IPC: 0.5626 cumulative IPC: 0.496429 (Simulation time: 0 hr 21 min 26 sec) 
Heartbeat CPU 0 instructions: 313000001 cycles: 626898738 heartbeat IPC: 0.583966 cumulative IPC: 0.496675 (Simulation time: 0 hr 21 min 30 sec) 
Heartbeat CPU 0 instructions: 314000001 cycles: 628571142 heartbeat IPC: 0.597942 cumulative IPC: 0.496952 (Simulation time: 0 hr 21 min 34 sec) 
Heartbeat CPU 0 instructions: 315000001 cycles: 630222557 heartbeat IPC: 0.605541 cumulative IPC: 0.497244 (Simulation time: 0 hr 21 min 38 sec) 
Heartbeat CPU 0 instructions: 316000003 cycles: 631911524 heartbeat IPC: 0.592079 cumulative IPC: 0.497505 (Simulation time: 0 hr 21 min 41 sec) 
Heartbeat CPU 0 instructions: 317000000 cycles: 633638819 heartbeat IPC: 0.578938 cumulative IPC: 0.497733 (Simulation time: 0 hr 21 min 45 sec) 
Heartbeat CPU 0 instructions: 318000002 cycles: 635202030 heartbeat IPC: 0.63971 cumulative IPC: 0.498091 (Simulation time: 0 hr 21 min 49 sec) 
Heartbeat CPU 0 instructions: 319000000 cycles: 636803027 heartbeat IPC: 0.62461 cumulative IPC: 0.498418 (Simulation time: 0 hr 21 min 52 sec) 
Heartbeat CPU 0 instructions: 320000003 cycles: 638353607 heartbeat IPC: 0.644922 cumulative IPC: 0.498784 (Simulation time: 0 hr 21 min 56 sec) 
Heartbeat CPU 0 instructions: 321000000 cycles: 639982374 heartbeat IPC: 0.613959 cumulative IPC: 0.499085 (Simulation time: 0 hr 22 min 0 sec) 
Heartbeat CPU 0 instructions: 322000000 cycles: 641840073 heartbeat IPC: 0.5383 cumulative IPC: 0.499201 (Simulation time: 0 hr 22 min 4 sec) 
Heartbeat CPU 0 instructions: 323000002 cycles: 643609430 heartbeat IPC: 0.565178 cumulative IPC: 0.499388 (Simulation time: 0 hr 22 min 8 sec) 
Heartbeat CPU 0 instructions: 324000000 cycles: 645532919 heartbeat IPC: 0.519888 cumulative IPC: 0.49945 (Simulation time: 0 hr 22 min 12 sec) 
Heartbeat CPU 0 instructions: 325000000 cycles: 647955800 heartbeat IPC: 0.412732 cumulative IPC: 0.499117 (Simulation time: 0 hr 22 min 16 sec) 
Heartbeat CPU 0 instructions: 326000001 cycles: 650226441 heartbeat IPC: 0.440405 cumulative IPC: 0.498907 (Simulation time: 0 hr 22 min 20 sec) 
Heartbeat CPU 0 instructions: 327000000 cycles: 652380858 heartbeat IPC: 0.464162 cumulative IPC: 0.498789 (Simulation time: 0 hr 22 min 25 sec) 
Heartbeat CPU 0 instructions: 328000002 cycles: 654218005 heartbeat IPC: 0.544323 cumulative IPC: 0.49892 (Simulation time: 0 hr 22 min 29 sec) 
Heartbeat CPU 0 instructions: 329000000 cycles: 655980246 heartbeat IPC: 0.567458 cumulative IPC: 0.499109 (Simulation time: 0 hr 22 min 33 sec) 
Heartbeat CPU 0 instructions: 330000000 cycles: 657560909 heartbeat IPC: 0.632646 cumulative IPC: 0.499439 (Simulation time: 0 hr 22 min 37 sec) 
Heartbeat CPU 0 instructions: 331000003 cycles: 659191591 heartbeat IPC: 0.613242 cumulative IPC: 0.499728 (Simulation time: 0 hr 22 min 41 sec) 
Heartbeat CPU 0 instructions: 332000001 cycles: 660591794 heartbeat IPC: 0.714181 cumulative IPC: 0.500194 (Simulation time: 0 hr 22 min 44 sec) 
Heartbeat CPU 0 instructions: 333000003 cycles: 662064950 heartbeat IPC: 0.678816 cumulative IPC: 0.500602 (Simulation time: 0 hr 22 min 48 sec) 
Heartbeat CPU 0 instructions: 334000000 cycles: 663445502 heartbeat IPC: 0.724346 cumulative IPC: 0.50108 (Simulation time: 0 hr 22 min 52 sec) 
Heartbeat CPU 0 instructions: 335000001 cycles: 664726842 heartbeat IPC: 0.780434 cumulative IPC: 0.501632 (Simulation time: 0 hr 22 min 56 sec) 
Heartbeat CPU 0 instructions: 336000000 cycles: 665991602 heartbeat IPC: 0.790663 cumulative IPC: 0.502195 (Simulation time: 0 hr 23 min 0 sec) 
Heartbeat CPU 0 instructions: 337000002 cycles: 667419126 heartbeat IPC: 0.700515 cumulative IPC: 0.50263 (Simulation time: 0 hr 23 min 4 sec) 
Heartbeat CPU 0 instructions: 338000000 cycles: 669138666 heartbeat IPC: 0.58155 cumulative IPC: 0.502838 (Simulation time: 0 hr 23 min 8 sec) 
Heartbeat CPU 0 instructions: 339000001 cycles: 670790603 heartbeat IPC: 0.605351 cumulative IPC: 0.503097 (Simulation time: 0 hr 23 min 12 sec) 
Heartbeat CPU 0 instructions: 340000000 cycles: 672285934 heartbeat IPC: 0.668748 cumulative IPC: 0.503475 (Simulation time: 0 hr 23 min 15 sec) 
Heartbeat CPU 0 instructions: 341000000 cycles: 673693803 heartbeat IPC: 0.710293 cumulative IPC: 0.503919 (Simulation time: 0 hr 23 min 19 sec) 
Heartbeat CPU 0 instructions: 342000003 cycles: 675214499 heartbeat IPC: 0.657596 cumulative IPC: 0.504274 (Simulation time: 0 hr 23 min 23 sec) 
Heartbeat CPU 0 instructions: 343000000 cycles: 676703389 heartbeat IPC: 0.671639 cumulative IPC: 0.504651 (Simulation time: 0 hr 23 min 27 sec) 
Heartbeat CPU 0 instructions: 344000000 cycles: 678031066 heartbeat IPC: 0.753195 cumulative IPC: 0.50515 (Simulation time: 0 hr 23 min 31 sec) 
Heartbeat CPU 0 instructions: 345000002 cycles: 679322100 heartbeat IPC: 0.774574 cumulative IPC: 0.505675 (Simulation time: 0 hr 23 min 35 sec) 
Heartbeat CPU 0 instructions: 346000003 cycles: 680568974 heartbeat IPC: 0.802006 cumulative IPC: 0.506232 (Simulation time: 0 hr 23 min 39 sec) 
Heartbeat CPU 0 instructions: 347000001 cycles: 681989603 heartbeat IPC: 0.703912 cumulative IPC: 0.506654 (Simulation time: 0 hr 23 min 43 sec) 
Heartbeat CPU 0 instructions: 348000000 cycles: 683404743 heartbeat IPC: 0.706643 cumulative IPC: 0.507079 (Simulation time: 0 hr 23 min 46 sec) 
Heartbeat CPU 0 instructions: 349000002 cycles: 684823703 heartbeat IPC: 0.704743 cumulative IPC: 0.507499 (Simulation time: 0 hr 23 min 50 sec) 
Heartbeat CPU 0 instructions: 350000001 cycles: 686376328 heartbeat IPC: 0.64407 cumulative IPC: 0.507815 (Simulation time: 0 hr 23 min 54 sec) 
Heartbeat CPU 0 instructions: 351000002 cycles: 688003555 heartbeat IPC: 0.614543 cumulative IPC: 0.508074 (Simulation time: 0 hr 23 min 58 sec) 
Heartbeat CPU 0 instructions: 352000000 cycles: 689626991 heartbeat IPC: 0.615976 cumulative IPC: 0.508335 (Simulation time: 0 hr 24 min 2 sec) 
Heartbeat CPU 0 instructions: 353000000 cycles: 691249989 heartbeat IPC: 0.616144 cumulative IPC: 0.508594 (Simulation time: 0 hr 24 min 6 sec) 
Heartbeat CPU 0 instructions: 354000001 cycles: 692866840 heartbeat IPC: 0.618487 cumulative IPC: 0.508857 (Simulation time: 0 hr 24 min 10 sec) 
Heartbeat CPU 0 instructions: 355000002 cycles: 694576980 heartbeat IPC: 0.584748 cumulative IPC: 0.509048 (Simulation time: 0 hr 24 min 15 sec) 
Heartbeat CPU 0 instructions: 356000003 cycles: 696305401 heartbeat IPC: 0.578563 cumulative IPC: 0.509225 (Simulation time: 0 hr 24 min 19 sec) 
Heartbeat CPU 0 instructions: 357000003 cycles: 698018902 heartbeat IPC: 0.5836 cumulative IPC: 0.509412 (Simulation time: 0 hr 24 min 23 sec) 
Heartbeat CPU 0 instructions: 358000000 cycles: 699936220 heartbeat IPC: 0.52156 cumulative IPC: 0.509446 (Simulation time: 0 hr 24 min 27 sec) 
Heartbeat CPU 0 instructions: 359000001 cycles: 701703726 heartbeat IPC: 0.565769 cumulative IPC: 0.509592 (Simulation time: 0 hr 24 min 31 sec) 
Heartbeat CPU 0 instructions: 360000000 cycles: 703385640 heartbeat IPC: 0.59456 cumulative IPC: 0.5098 (Simulation time: 0 hr 24 min 35 sec) 
Heartbeat CPU 0 instructions: 361000000 cycles: 705010153 heartbeat IPC: 0.615569 cumulative IPC: 0.51005 (Simulation time: 0 hr 24 min 39 sec) 
Heartbeat CPU 0 instructions: 362000003 cycles: 706976736 heartbeat IPC: 0.508498 cumulative IPC: 0.510045 (Simulation time: 0 hr 24 min 43 sec) 
Heartbeat CPU 0 instructions: 363000000 cycles: 708834081 heartbeat IPC: 0.538401 cumulative IPC: 0.510121 (Simulation time: 0 hr 24 min 47 sec) 
Heartbeat CPU 0 instructions: 364000000 cycles: 710559228 heartbeat IPC: 0.579661 cumulative IPC: 0.510294 (Simulation time: 0 hr 24 min 51 sec) 
Heartbeat CPU 0 instructions: 365000000 cycles: 712049641 heartbeat IPC: 0.670955 cumulative IPC: 0.510639 (Simulation time: 0 hr 24 min 54 sec) 
Heartbeat CPU 0 instructions: 366000000 cycles: 713710118 heartbeat IPC: 0.602237 cumulative IPC: 0.510857 (Simulation time: 0 hr 24 min 58 sec) 
Heartbeat CPU 0 instructions: 367000000 cycles: 715355734 heartbeat IPC: 0.607675 cumulative IPC: 0.511085 (Simulation time: 0 hr 25 min 2 sec) 
Heartbeat CPU 0 instructions: 368000000 cycles: 716875323 heartbeat IPC: 0.658073 cumulative IPC: 0.511404 (Simulation time: 0 hr 25 min 6 sec) 
Heartbeat CPU 0 instructions: 369000000 cycles: 718410216 heartbeat IPC: 0.651511 cumulative IPC: 0.511711 (Simulation time: 0 hr 25 min 10 sec) 
Heartbeat CPU 0 instructions: 370000002 cycles: 719999202 heartbeat IPC: 0.629333 cumulative IPC: 0.511976 (Simulation time: 0 hr 25 min 14 sec) 
Heartbeat CPU 0 instructions: 371000000 cycles: 721654418 heartbeat IPC: 0.60415 cumulative IPC: 0.512193 (Simulation time: 0 hr 25 min 18 sec) 
Heartbeat CPU 0 instructions: 372000002 cycles: 723236888 heartbeat IPC: 0.631925 cumulative IPC: 0.512461 (Simulation time: 0 hr 25 min 22 sec) 
Heartbeat CPU 0 instructions: 373000000 cycles: 724896010 heartbeat IPC: 0.602727 cumulative IPC: 0.512673 (Simulation time: 0 hr 25 min 26 sec) 
Heartbeat CPU 0 instructions: 374000000 cycles: 726976053 heartbeat IPC: 0.480759 cumulative IPC: 0.512579 (Simulation time: 0 hr 25 min 30 sec) 
Heartbeat CPU 0 instructions: 375000000 cycles: 729293320 heartbeat IPC: 0.431543 cumulative IPC: 0.512316 (Simulation time: 0 hr 25 min 34 sec) 
Heartbeat CPU 0 instructions: 376000003 cycles: 731765589 heartbeat IPC: 0.404488 cumulative IPC: 0.511943 (Simulation time: 0 hr 25 min 38 sec) 
Heartbeat CPU 0 instructions: 377000002 cycles: 734159111 heartbeat IPC: 0.417794 cumulative IPC: 0.511629 (Simulation time: 0 hr 25 min 42 sec) 
Heartbeat CPU 0 instructions: 378000001 cycles: 736255603 heartbeat IPC: 0.476987 cumulative IPC: 0.511528 (Simulation time: 0 hr 25 min 46 sec) 
Heartbeat CPU 0 instructions: 379000001 cycles: 738459031 heartbeat IPC: 0.453838 cumulative IPC: 0.511351 (Simulation time: 0 hr 25 min 50 sec) 
Heartbeat CPU 0 instructions: 380000003 cycles: 740899723 heartbeat IPC: 0.409721 cumulative IPC: 0.511009 (Simulation time: 0 hr 25 min 54 sec) 
Heartbeat CPU 0 instructions: 381000003 cycles: 743565539 heartbeat IPC: 0.37512 cumulative IPC: 0.51051 (Simulation time: 0 hr 25 min 58 sec) 
Heartbeat CPU 0 instructions: 382000000 cycles: 746482791 heartbeat IPC: 0.342787 cumulative IPC: 0.50984 (Simulation time: 0 hr 26 min 2 sec) 
Heartbeat CPU 0 instructions: 383000003 cycles: 749595585 heartbeat IPC: 0.321256 cumulative IPC: 0.509039 (Simulation time: 0 hr 26 min 6 sec) 
Heartbeat CPU 0 instructions: 384000002 cycles: 752719847 heartbeat IPC: 0.320075 cumulative IPC: 0.508236 (Simulation time: 0 hr 26 min 10 sec) 
Heartbeat CPU 0 instructions: 385000000 cycles: 755622922 heartbeat IPC: 0.344462 cumulative IPC: 0.507593 (Simulation time: 0 hr 26 min 14 sec) 
Heartbeat CPU 0 instructions: 386000002 cycles: 758590160 heartbeat IPC: 0.337014 cumulative IPC: 0.50691 (Simulation time: 0 hr 26 min 18 sec) 
Heartbeat CPU 0 instructions: 387000000 cycles: 761669132 heartbeat IPC: 0.324783 cumulative IPC: 0.506158 (Simulation time: 0 hr 26 min 22 sec) 
Heartbeat CPU 0 instructions: 388000000 cycles: 764697966 heartbeat IPC: 0.33016 cumulative IPC: 0.505445 (Simulation time: 0 hr 26 min 26 sec) 
Heartbeat CPU 0 instructions: 389000003 cycles: 767571672 heartbeat IPC: 0.347984 cumulative IPC: 0.504842 (Simulation time: 0 hr 26 min 30 sec) 
Heartbeat CPU 0 instructions: 390000003 cycles: 770432087 heartbeat IPC: 0.3496 cumulative IPC: 0.504253 (Simulation time: 0 hr 26 min 34 sec) 
Heartbeat CPU 0 instructions: 391000002 cycles: 773283117 heartbeat IPC: 0.35075 cumulative IPC: 0.503674 (Simulation time: 0 hr 26 min 38 sec) 
Heartbeat CPU 0 instructions: 392000000 cycles: 776199315 heartbeat IPC: 0.342912 cumulative IPC: 0.503057 (Simulation time: 0 hr 26 min 42 sec) 
Heartbeat CPU 0 instructions: 393000002 cycles: 779069200 heartbeat IPC: 0.348447 cumulative IPC: 0.502475 (Simulation time: 0 hr 26 min 46 sec) 
Heartbeat CPU 0 instructions: 394000000 cycles: 781966627 heartbeat IPC: 0.345133 cumulative IPC: 0.501879 (Simulation time: 0 hr 26 min 50 sec) 
Heartbeat CPU 0 instructions: 395000002 cycles: 785057851 heartbeat IPC: 0.323497 cumulative IPC: 0.501161 (Simulation time: 0 hr 26 min 54 sec) 
Heartbeat CPU 0 instructions: 396000000 cycles: 788237022 heartbeat IPC: 0.314547 cumulative IPC: 0.500392 (Simulation time: 0 hr 26 min 58 sec) 
Heartbeat CPU 0 instructions: 397000003 cycles: 791693211 heartbeat IPC: 0.289337 cumulative IPC: 0.499451 (Simulation time: 0 hr 27 min 3 sec) 
Heartbeat CPU 0 instructions: 398000002 cycles: 794428348 heartbeat IPC: 0.365612 cumulative IPC: 0.49898 (Simulation time: 0 hr 27 min 7 sec) 
Heartbeat CPU 0 instructions: 399000000 cycles: 795836983 heartbeat IPC: 0.709906 cumulative IPC: 0.499361 (Simulation time: 0 hr 27 min 11 sec) 
Heartbeat CPU 0 instructions: 400000002 cycles: 797301875 heartbeat IPC: 0.682646 cumulative IPC: 0.499705 (Simulation time: 0 hr 27 min 15 sec) 
Heartbeat CPU 0 instructions: 401000002 cycles: 798735638 heartbeat IPC: 0.697465 cumulative IPC: 0.500068 (Simulation time: 0 hr 27 min 19 sec) 
Heartbeat CPU 0 instructions: 402000003 cycles: 800241775 heartbeat IPC: 0.663951 cumulative IPC: 0.500383 (Simulation time: 0 hr 27 min 23 sec) 
Heartbeat CPU 0 instructions: 403000000 cycles: 801832149 heartbeat IPC: 0.628781 cumulative IPC: 0.500643 (Simulation time: 0 hr 27 min 27 sec) 
Heartbeat CPU 0 instructions: 404000002 cycles: 803357539 heartbeat IPC: 0.655571 cumulative IPC: 0.500944 (Simulation time: 0 hr 27 min 31 sec) 
Heartbeat CPU 0 instructions: 405000000 cycles: 805045311 heartbeat IPC: 0.592496 cumulative IPC: 0.50114 (Simulation time: 0 hr 27 min 35 sec) 
Heartbeat CPU 0 instructions: 406000001 cycles: 806702070 heartbeat IPC: 0.603589 cumulative IPC: 0.501354 (Simulation time: 0 hr 27 min 39 sec) 
Heartbeat CPU 0 instructions: 407000000 cycles: 808339513 heartbeat IPC: 0.610708 cumulative IPC: 0.501581 (Simulation time: 0 hr 27 min 43 sec) 
Heartbeat CPU 0 instructions: 408000003 cycles: 810050068 heartbeat IPC: 0.584607 cumulative IPC: 0.50176 (Simulation time: 0 hr 27 min 46 sec) 
Heartbeat CPU 0 instructions: 409000000 cycles: 811965866 heartbeat IPC: 0.521974 cumulative IPC: 0.501808 (Simulation time: 0 hr 27 min 50 sec) 
Heartbeat CPU 0 instructions: 410000000 cycles: 814197750 heartbeat IPC: 0.448052 cumulative IPC: 0.501658 (Simulation time: 0 hr 27 min 54 sec) 
Heartbeat CPU 0 instructions: 411000001 cycles: 816284165 heartbeat IPC: 0.479291 cumulative IPC: 0.5016 (Simulation time: 0 hr 27 min 58 sec) 
Heartbeat CPU 0 instructions: 412000003 cycles: 817802602 heartbeat IPC: 0.658573 cumulative IPC: 0.501897 (Simulation time: 0 hr 28 min 2 sec) 
Heartbeat CPU 0 instructions: 413000001 cycles: 819388606 heartbeat IPC: 0.630514 cumulative IPC: 0.502151 (Simulation time: 0 hr 28 min 6 sec) 
Heartbeat CPU 0 instructions: 414000000 cycles: 820901666 heartbeat IPC: 0.660912 cumulative IPC: 0.50245 (Simulation time: 0 hr 28 min 10 sec) 
Heartbeat CPU 0 instructions: 415000001 cycles: 822389962 heartbeat IPC: 0.67191 cumulative IPC: 0.502763 (Simulation time: 0 hr 28 min 14 sec) 
Heartbeat CPU 0 instructions: 416000001 cycles: 823826076 heartbeat IPC: 0.696324 cumulative IPC: 0.503108 (Simulation time: 0 hr 28 min 18 sec) 
Heartbeat CPU 0 instructions: 417000001 cycles: 825307583 heartbeat IPC: 0.674988 cumulative IPC: 0.503423 (Simulation time: 0 hr 28 min 22 sec) 
Heartbeat CPU 0 instructions: 418000000 cycles: 826780660 heartbeat IPC: 0.67885 cumulative IPC: 0.503742 (Simulation time: 0 hr 28 min 26 sec) 
Heartbeat CPU 0 instructions: 419000000 cycles: 828293435 heartbeat IPC: 0.661037 cumulative IPC: 0.504035 (Simulation time: 0 hr 28 min 29 sec) 
Heartbeat CPU 0 instructions: 420000003 cycles: 829762544 heartbeat IPC: 0.680687 cumulative IPC: 0.504354 (Simulation time: 0 hr 28 min 33 sec) 
Heartbeat CPU 0 instructions: 421000002 cycles: 831127805 heartbeat IPC: 0.73246 cumulative IPC: 0.504737 (Simulation time: 0 hr 28 min 37 sec) 
Heartbeat CPU 0 instructions: 422000000 cycles: 832568403 heartbeat IPC: 0.694155 cumulative IPC: 0.505071 (Simulation time: 0 hr 28 min 41 sec) 
Heartbeat CPU 0 instructions: 423000001 cycles: 834077885 heartbeat IPC: 0.66248 cumulative IPC: 0.505362 (Simulation time: 0 hr 28 min 44 sec) 
Heartbeat CPU 0 instructions: 424000000 cycles: 835621621 heartbeat IPC: 0.647779 cumulative IPC: 0.50563 (Simulation time: 0 hr 28 min 48 sec) 
Heartbeat CPU 0 instructions: 425000001 cycles: 837240155 heartbeat IPC: 0.617844 cumulative IPC: 0.505852 (Simulation time: 0 hr 28 min 52 sec) 
Heartbeat CPU 0 instructions: 426000000 cycles: 838981303 heartbeat IPC: 0.574333 cumulative IPC: 0.505997 (Simulation time: 0 hr 28 min 56 sec) 
Heartbeat CPU 0 instructions: 427000000 cycles: 840563535 heartbeat IPC: 0.632019 cumulative IPC: 0.506239 (Simulation time: 0 hr 29 min 0 sec) 
Heartbeat CPU 0 instructions: 428000003 cycles: 842031791 heartbeat IPC: 0.681082 cumulative IPC: 0.50655 (Simulation time: 0 hr 29 min 4 sec) 
Heartbeat CPU 0 instructions: 429000000 cycles: 843502933 heartbeat IPC: 0.679742 cumulative IPC: 0.506858 (Simulation time: 0 hr 29 min 8 sec) 
Heartbeat CPU 0 instructions: 430000001 cycles: 844966164 heartbeat IPC: 0.68342 cumulative IPC: 0.50717 (Simulation time: 0 hr 29 min 11 sec) 
Heartbeat CPU 0 instructions: 431000002 cycles: 846341175 heartbeat IPC: 0.727268 cumulative IPC: 0.507535 (Simulation time: 0 hr 29 min 15 sec) 
Heartbeat CPU 0 instructions: 432000002 cycles: 847725120 heartbeat IPC: 0.722572 cumulative IPC: 0.507893 (Simulation time: 0 hr 29 min 19 sec) 
Heartbeat CPU 0 instructions: 433000003 cycles: 849110277 heartbeat IPC: 0.721941 cumulative IPC: 0.508249 (Simulation time: 0 hr 29 min 23 sec) 
Heartbeat CPU 0 instructions: 434000002 cycles: 850556552 heartbeat IPC: 0.691431 cumulative IPC: 0.508567 (Simulation time: 0 hr 29 min 27 sec) 
Heartbeat CPU 0 instructions: 435000000 cycles: 851996977 heartbeat IPC: 0.694238 cumulative IPC: 0.508887 (Simulation time: 0 hr 29 min 31 sec) 
Heartbeat CPU 0 instructions: 436000001 cycles: 853443038 heartbeat IPC: 0.691534 cumulative IPC: 0.509203 (Simulation time: 0 hr 29 min 35 sec) 
Heartbeat CPU 0 instructions: 437000000 cycles: 854831223 heartbeat IPC: 0.720364 cumulative IPC: 0.509553 (Simulation time: 0 hr 29 min 39 sec) 
Heartbeat CPU 0 instructions: 438000000 cycles: 856304387 heartbeat IPC: 0.678811 cumulative IPC: 0.50985 (Simulation time: 0 hr 29 min 43 sec) 
Heartbeat CPU 0 instructions: 439000001 cycles: 857959204 heartbeat IPC: 0.604297 cumulative IPC: 0.510036 (Simulation time: 0 hr 29 min 47 sec) 
Heartbeat CPU 0 instructions: 440000000 cycles: 859610969 heartbeat IPC: 0.605412 cumulative IPC: 0.510223 (Simulation time: 0 hr 29 min 51 sec) 
Heartbeat CPU 0 instructions: 441000000 cycles: 861741499 heartbeat IPC: 0.469367 cumulative IPC: 0.51012 (Simulation time: 0 hr 29 min 55 sec) 
Heartbeat CPU 0 instructions: 442000000 cycles: 864003377 heartbeat IPC: 0.442111 cumulative IPC: 0.509938 (Simulation time: 0 hr 29 min 59 sec) 
Heartbeat CPU 0 instructions: 443000002 cycles: 866027153 heartbeat IPC: 0.494127 cumulative IPC: 0.5099 (Simulation time: 0 hr 30 min 3 sec) 
Heartbeat CPU 0 instructions: 444000003 cycles: 867904154 heartbeat IPC: 0.532765 cumulative IPC: 0.509951 (Simulation time: 0 hr 30 min 7 sec) 
Heartbeat CPU 0 instructions: 445000000 cycles: 869789960 heartbeat IPC: 0.530276 cumulative IPC: 0.509996 (Simulation time: 0 hr 30 min 11 sec) 
Heartbeat CPU 0 instructions: 446000000 cycles: 871585242 heartbeat IPC: 0.557016 cumulative IPC: 0.510095 (Simulation time: 0 hr 30 min 16 sec) 
Heartbeat CPU 0 instructions: 447000000 cycles: 873261558 heartbeat IPC: 0.596546 cumulative IPC: 0.510264 (Simulation time: 0 hr 30 min 20 sec) 
Heartbeat CPU 0 instructions: 448000000 cycles: 874918525 heartbeat IPC: 0.603512 cumulative IPC: 0.510444 (Simulation time: 0 hr 30 min 24 sec) 
Heartbeat CPU 0 instructions: 449000002 cycles: 876491563 heartbeat IPC: 0.635714 cumulative IPC: 0.510673 (Simulation time: 0 hr 30 min 28 sec) 
Heartbeat CPU 0 instructions: 450000000 cycles: 878172846 heartbeat IPC: 0.594783 cumulative IPC: 0.510837 (Simulation time: 0 hr 30 min 32 sec) 
Heartbeat CPU 0 instructions: 451000000 cycles: 879909695 heartbeat IPC: 0.575755 cumulative IPC: 0.510968 (Simulation time: 0 hr 30 min 36 sec) 
Heartbeat CPU 0 instructions: 452000000 cycles: 881531030 heartbeat IPC: 0.616776 cumulative IPC: 0.511166 (Simulation time: 0 hr 30 min 40 sec) 
Heartbeat CPU 0 instructions: 453000003 cycles: 883145156 heartbeat IPC: 0.619532 cumulative IPC: 0.511368 (Simulation time: 0 hr 30 min 44 sec) 
Heartbeat CPU 0 instructions: 454000000 cycles: 884719813 heartbeat IPC: 0.635057 cumulative IPC: 0.511593 (Simulation time: 0 hr 30 min 48 sec) 
Heartbeat CPU 0 instructions: 455000000 cycles: 886276378 heartbeat IPC: 0.64244 cumulative IPC: 0.511827 (Simulation time: 0 hr 30 min 52 sec) 
Heartbeat CPU 0 instructions: 456000003 cycles: 887924396 heartbeat IPC: 0.606791 cumulative IPC: 0.512007 (Simulation time: 0 hr 30 min 57 sec) 
Heartbeat CPU 0 instructions: 457000002 cycles: 889812631 heartbeat IPC: 0.529595 cumulative IPC: 0.512045 (Simulation time: 0 hr 31 min 1 sec) 
Heartbeat CPU 0 instructions: 458000000 cycles: 891952344 heartbeat IPC: 0.467351 cumulative IPC: 0.511935 (Simulation time: 0 hr 31 min 5 sec) 
Heartbeat CPU 0 instructions: 459000002 cycles: 894123564 heartbeat IPC: 0.460571 cumulative IPC: 0.511808 (Simulation time: 0 hr 31 min 9 sec) 
Heartbeat CPU 0 instructions: 460000001 cycles: 895819726 heartbeat IPC: 0.589566 cumulative IPC: 0.511958 (Simulation time: 0 hr 31 min 13 sec) 
Heartbeat CPU 0 instructions: 461000001 cycles: 897488474 heartbeat IPC: 0.599252 cumulative IPC: 0.512124 (Simulation time: 0 hr 31 min 17 sec) 
Heartbeat CPU 0 instructions: 462000000 cycles: 899466557 heartbeat IPC: 0.505539 cumulative IPC: 0.512109 (Simulation time: 0 hr 31 min 21 sec) 
Heartbeat CPU 0 instructions: 463000003 cycles: 901472897 heartbeat IPC: 0.498421 cumulative IPC: 0.512078 (Simulation time: 0 hr 31 min 25 sec) 
Heartbeat CPU 0 instructions: 464000000 cycles: 903543768 heartbeat IPC: 0.482887 cumulative IPC: 0.51201 (Simulation time: 0 hr 31 min 30 sec) 
Heartbeat CPU 0 instructions: 465000002 cycles: 905868883 heartbeat IPC: 0.430087 cumulative IPC: 0.511795 (Simulation time: 0 hr 31 min 34 sec) 
Heartbeat CPU 0 instructions: 466000000 cycles: 908373708 heartbeat IPC: 0.399229 cumulative IPC: 0.511479 (Simulation time: 0 hr 31 min 38 sec) 
Heartbeat CPU 0 instructions: 467000000 cycles: 910761423 heartbeat IPC: 0.41881 cumulative IPC: 0.511232 (Simulation time: 0 hr 31 min 42 sec) 
Heartbeat CPU 0 instructions: 468000000 cycles: 912959992 heartbeat IPC: 0.454841 cumulative IPC: 0.511093 (Simulation time: 0 hr 31 min 46 sec) 
Heartbeat CPU 0 instructions: 469000002 cycles: 914818482 heartbeat IPC: 0.538072 cumulative IPC: 0.511149 (Simulation time: 0 hr 31 min 50 sec) 
Heartbeat CPU 0 instructions: 470000001 cycles: 916615771 heartbeat IPC: 0.556393 cumulative IPC: 0.511239 (Simulation time: 0 hr 31 min 55 sec) 
Heartbeat CPU 0 instructions: 471000003 cycles: 918483632 heartbeat IPC: 0.535373 cumulative IPC: 0.511289 (Simulation time: 0 hr 31 min 59 sec) 
Heartbeat CPU 0 instructions: 472000002 cycles: 920271953 heartbeat IPC: 0.559183 cumulative IPC: 0.511384 (Simulation time: 0 hr 32 min 3 sec) 
Heartbeat CPU 0 instructions: 473000000 cycles: 922124274 heartbeat IPC: 0.539862 cumulative IPC: 0.511443 (Simulation time: 0 hr 32 min 7 sec) 
Heartbeat CPU 0 instructions: 474000001 cycles: 924402651 heartbeat IPC: 0.438909 cumulative IPC: 0.51126 (Simulation time: 0 hr 32 min 11 sec) 
Heartbeat CPU 0 instructions: 475000000 cycles: 927277130 heartbeat IPC: 0.347889 cumulative IPC: 0.510745 (Simulation time: 0 hr 32 min 15 sec) 
Heartbeat CPU 0 instructions: 476000000 cycles: 930104169 heartbeat IPC: 0.353727 cumulative IPC: 0.510259 (Simulation time: 0 hr 32 min 20 sec) 
Heartbeat CPU 0 instructions: 477000001 cycles: 933019732 heartbeat IPC: 0.342987 cumulative IPC: 0.509726 (Simulation time: 0 hr 32 min 24 sec) 
Heartbeat CPU 0 instructions: 478000002 cycles: 936282139 heartbeat IPC: 0.306522 cumulative IPC: 0.509005 (Simulation time: 0 hr 32 min 28 sec) 
Heartbeat CPU 0 instructions: 479000000 cycles: 939297523 heartbeat IPC: 0.331632 cumulative IPC: 0.508425 (Simulation time: 0 hr 32 min 33 sec) 
Heartbeat CPU 0 instructions: 480000000 cycles: 942073224 heartbeat IPC: 0.360269 cumulative IPC: 0.507981 (Simulation time: 0 hr 32 min 37 sec) 
Heartbeat CPU 0 instructions: 481000001 cycles: 944724785 heartbeat IPC: 0.377137 cumulative IPC: 0.507607 (Simulation time: 0 hr 32 min 41 sec) 
Heartbeat CPU 0 instructions: 482000003 cycles: 947222419 heartbeat IPC: 0.40038 cumulative IPC: 0.507319 (Simulation time: 0 hr 32 min 45 sec) 
Heartbeat CPU 0 instructions: 483000000 cycles: 949550087 heartbeat IPC: 0.429613 cumulative IPC: 0.507125 (Simulation time: 0 hr 32 min 50 sec) 
Heartbeat CPU 0 instructions: 484000000 cycles: 951896265 heartbeat IPC: 0.426225 cumulative IPC: 0.506922 (Simulation time: 0 hr 32 min 54 sec) 
Heartbeat CPU 0 instructions: 485000000 cycles: 954599936 heartbeat IPC: 0.369867 cumulative IPC: 0.506527 (Simulation time: 0 hr 32 min 58 sec) 
Heartbeat CPU 0 instructions: 486000001 cycles: 957566506 heartbeat IPC: 0.33709 cumulative IPC: 0.505993 (Simulation time: 0 hr 33 min 2 sec) 
Heartbeat CPU 0 instructions: 487000001 cycles: 960517155 heartbeat IPC: 0.338908 cumulative IPC: 0.50547 (Simulation time: 0 hr 33 min 7 sec) 
Heartbeat CPU 0 instructions: 488000000 cycles: 963419933 heartbeat IPC: 0.344497 cumulative IPC: 0.504977 (Simulation time: 0 hr 33 min 11 sec) 
Heartbeat CPU 0 instructions: 489000000 cycles: 966139776 heartbeat IPC: 0.367668 cumulative IPC: 0.504583 (Simulation time: 0 hr 33 min 15 sec) 
Heartbeat CPU 0 instructions: 490000001 cycles: 968836755 heartbeat IPC: 0.370786 cumulative IPC: 0.504204 (Simulation time: 0 hr 33 min 19 sec) 
Heartbeat CPU 0 instructions: 491000003 cycles: 971380841 heartbeat IPC: 0.393069 cumulative IPC: 0.503908 (Simulation time: 0 hr 33 min 23 sec) 
Heartbeat CPU 0 instructions: 492000000 cycles: 974079824 heartbeat IPC: 0.370509 cumulative IPC: 0.503532 (Simulation time: 0 hr 33 min 28 sec) 
Heartbeat CPU 0 instructions: 493000001 cycles: 976721324 heartbeat IPC: 0.378573 cumulative IPC: 0.503188 (Simulation time: 0 hr 33 min 32 sec) 
Heartbeat CPU 0 instructions: 494000001 cycles: 979358760 heartbeat IPC: 0.379156 cumulative IPC: 0.502848 (Simulation time: 0 hr 33 min 36 sec) 
Heartbeat CPU 0 instructions: 495000000 cycles: 981850483 heartbeat IPC: 0.401328 cumulative IPC: 0.502586 (Simulation time: 0 hr 33 min 40 sec) 
Heartbeat CPU 0 instructions: 496000002 cycles: 984254121 heartbeat IPC: 0.416037 cumulative IPC: 0.502371 (Simulation time: 0 hr 33 min 44 sec) 
Heartbeat CPU 0 instructions: 497000000 cycles: 986420204 heartbeat IPC: 0.461662 cumulative IPC: 0.50228 (Simulation time: 0 hr 33 min 49 sec) 
Heartbeat CPU 0 instructions: 498000000 cycles: 988505892 heartbeat IPC: 0.479458 cumulative IPC: 0.502231 (Simulation time: 0 hr 33 min 53 sec) 
Heartbeat CPU 0 instructions: 499000002 cycles: 990533714 heartbeat IPC: 0.493141 cumulative IPC: 0.502212 (Simulation time: 0 hr 33 min 57 sec) 
Heartbeat CPU 0 instructions: 500000000 cycles: 992507942 heartbeat IPC: 0.506526 cumulative IPC: 0.502221 (Simulation time: 0 hr 34 min 1 sec) 
Heartbeat CPU 0 instructions: 501000001 cycles: 994864887 heartbeat IPC: 0.424278 cumulative IPC: 0.502033 (Simulation time: 0 hr 34 min 5 sec) 
Heartbeat CPU 0 instructions: 502000001 cycles: 997403763 heartbeat IPC: 0.393875 cumulative IPC: 0.501753 (Simulation time: 0 hr 34 min 9 sec) 
Heartbeat CPU 0 instructions: 503000002 cycles: 999217730 heartbeat IPC: 0.551278 cumulative IPC: 0.501845 (Simulation time: 0 hr 34 min 14 sec) 
Heartbeat CPU 0 instructions: 504000001 cycles: 1001140957 heartbeat IPC: 0.519959 cumulative IPC: 0.50188 (Simulation time: 0 hr 34 min 18 sec) 
Heartbeat CPU 0 instructions: 505000001 cycles: 1002975235 heartbeat IPC: 0.545174 cumulative IPC: 0.50196 (Simulation time: 0 hr 34 min 22 sec) 
Heartbeat CPU 0 instructions: 506000000 cycles: 1004720252 heartbeat IPC: 0.57306 cumulative IPC: 0.502086 (Simulation time: 0 hr 34 min 26 sec) 
Heartbeat CPU 0 instructions: 507000003 cycles: 1006319842 heartbeat IPC: 0.625162 cumulative IPC: 0.502285 (Simulation time: 0 hr 34 min 30 sec) 
Heartbeat CPU 0 instructions: 508000000 cycles: 1007916093 heartbeat IPC: 0.626466 cumulative IPC: 0.502485 (Simulation time: 0 hr 34 min 34 sec) 
Heartbeat CPU 0 instructions: 509000000 cycles: 1009498377 heartbeat IPC: 0.631998 cumulative IPC: 0.502691 (Simulation time: 0 hr 34 min 38 sec) 
Heartbeat CPU 0 instructions: 510000002 cycles: 1011142479 heartbeat IPC: 0.608236 cumulative IPC: 0.502866 (Simulation time: 0 hr 34 min 42 sec) 
Finished CPU 0 instructions: 500000003 cycles: 994300733 cumulative IPC: 0.502866 (Simulation time: 0 hr 34 min 42 sec) 

ChampSim completed all CPUs

Region of Interest Statistics

CPU 0 cumulative IPC: 0.502866 instructions: 500000003 cycles: 994300733
L1D TOTAL     ACCESS:  124613906  HIT:  110477798  MISS:   14136108
L1D LOAD      ACCESS:  103176206  HIT:   89188717  MISS:   13987489
L1D RFO       ACCESS:   21437700  HIT:   21289081  MISS:     148619
L1D PREFETCH  ACCESS:          0  HIT:          0  MISS:          0
L1D WRITEBACK ACCESS:          0  HIT:          0  MISS:          0
L1D PREFETCH  REQUESTED:          0  ISSUED:          0  USEFUL:          0  USELESS:          0  UAC CORRECT:          0
L1D AVERAGE MISS LATENCY: 40.9465 cycles
L1I TOTAL     ACCESS:   88103353  HIT:   88103232  MISS:        121
L1I LOAD      ACCESS:   88103353  HIT:   88103232  MISS:        121
L1I RFO       ACCESS:          0  HIT:          0  MISS:          0
L1I PREFETCH  ACCESS:          0  HIT:          0  MISS:          0
L1I WRITEBACK ACCESS:          0  HIT:          0  MISS:          0
L1I PREFETCH  REQUESTED:          0  ISSUED:          0  USEFUL:          0  USELESS:          0  UAC CORRECT:          0
L1I AVERAGE MISS LATENCY: 243.496 cycles
L2C TOTAL     ACCESS:   18785541  HIT:   13605911  MISS:    5179630
L2C LOAD      ACCESS:   13987166  HIT:    8833141  MISS:    5154025
L2C RFO       ACCESS:     148541  HIT:     123350  MISS:      25191
L2C PREFETCH  ACCESS:          0  HIT:          0  MISS:          0
L2C WRITEBACK ACCESS:    4649834  HIT:    4649420  MISS:        414
L2C PREFETCH  REQUESTED:          0  ISSUED:          0  USEFUL:          0  USELESS:          0  UAC CORRECT:          0
L2C AVERAGE MISS LATENCY: 63.6581 cycles
LLC TOTAL     ACCESS:   11841596  HIT:   10555990  MISS:    1285606
LLC LOAD      ACCESS:    5153748  HIT:    4357221  MISS:     796527
LLC RFO       ACCESS:      25189  HIT:      23735  MISS:       1454
LLC PREFETCH  ACCESS:    4794562  HIT:    4308408  MISS:     486154
LLC WRITEBACK ACCESS:    1868097  HIT:    1866626  MISS:       1471
LLC PREFETCH  REQUESTED:    4866486  ISSUED:    4866480  USEFUL:     357291  USELESS:     123284  UAC CORRECT:    1066362
LLC AVERAGE MISS LATENCY: 198.338 cycles
Major fault: 0 Minor fault: 6207
performance stats:
mapping cache size: 318266
divergence: 3814594

DRAM Statistics
 CHANNEL 0
 RQ ROW_BUFFER_HIT:     312153  ROW_BUFFER_MISS:     336036
 DBUS_CONGESTED:     284820
 WQ ROW_BUFFER_HIT:     121305  ROW_BUFFER_MISS:     233764  FULL:          0

 CHANNEL 1
 RQ ROW_BUFFER_HIT:     305075  ROW_BUFFER_MISS:     330806
 DBUS_CONGESTED:     284820
 WQ ROW_BUFFER_HIT:     118189  ROW_BUFFER_MISS:     232794  FULL:          0

 AVG_CONGESTED_CYCLE: 15

CPU 0 Branch Prediction Accuracy: 84.5538% MPKI: 29.4901 Average ROB Occupancy at Mispredict: 12.5641

Branch types
NOT_BRANCH: 404539482 80.9079%
BRANCH_DIRECT_JUMP: 34128 0.0068256%
BRANCH_INDIRECT: 0 0%
BRANCH_CONDITIONAL: 95400671 19.0801%
BRANCH_DIRECT_CALL: 12844 0.0025688%
BRANCH_INDIRECT_CALL: 0 0%
BRANCH_RETURN: 12844 0.0025688%
BRANCH_OTHER: 0 0%


gzip: stdout: Broken pipe
