
*** ChampSim Multicore Out-of-Order Simulator ***

Warmup Instructions: 1000000
Prefetch Warmup Instructions: 10000000
Simulation Instructions: 500000000
Stat Printing Period: 1000000
Number of CPUs: 1
LLC sets: 2048
LLC ways: 16
Off-chip DRAM Size: 32768 MB Channels: 2 Width: 64-bit Data Rate: 1024 MT/s

CPU 0 runs /scratch/cluster/cmolder/ML-DPC/ChampSimTraces/spec06/473.astar-s0.trace.gz
Read seed: 854
Heartbeat CPU 0 instructions: 1000002 cycles: 434024 heartbeat IPC: 2.30402 cumulative IPC: 2.30402 (Simulation time: 0 hr 0 min 5 sec) 

Warmup complete CPU 0 instructions: 1000002 cycles: 434024 (Simulation time: 0 hr 0 min 5 sec) 

Heartbeat CPU 0 instructions: 2000000 cycles: 1658114 heartbeat IPC: 0.816932 cumulative IPC: 0.816932 (Simulation time: 0 hr 0 min 9 sec) 
Heartbeat CPU 0 instructions: 3000002 cycles: 2825901 heartbeat IPC: 0.856322 cumulative IPC: 0.836163 (Simulation time: 0 hr 0 min 14 sec) 
Heartbeat CPU 0 instructions: 4000003 cycles: 3979010 heartbeat IPC: 0.867222 cumulative IPC: 0.846266 (Simulation time: 0 hr 0 min 19 sec) 
Heartbeat CPU 0 instructions: 5000000 cycles: 5099180 heartbeat IPC: 0.892719 cumulative IPC: 0.85742 (Simulation time: 0 hr 0 min 24 sec) 
Heartbeat CPU 0 instructions: 6000000 cycles: 6177689 heartbeat IPC: 0.927206 cumulative IPC: 0.870524 (Simulation time: 0 hr 0 min 30 sec) 
Heartbeat CPU 0 instructions: 7000002 cycles: 7241124 heartbeat IPC: 0.940351 cumulative IPC: 0.881433 (Simulation time: 0 hr 0 min 34 sec) 
Heartbeat CPU 0 instructions: 8000002 cycles: 8287829 heartbeat IPC: 0.955379 cumulative IPC: 0.891288 (Simulation time: 0 hr 0 min 39 sec) 
Heartbeat CPU 0 instructions: 9000000 cycles: 9380904 heartbeat IPC: 0.914849 cumulative IPC: 0.894166 (Simulation time: 0 hr 0 min 44 sec) 
Heartbeat CPU 0 instructions: 10000003 cycles: 10538264 heartbeat IPC: 0.864038 cumulative IPC: 0.890715 (Simulation time: 0 hr 0 min 49 sec) 

Warmup complete CPU 0 instructions: 10000003 cycles: 10538264 (Simulation time: 0 hr 0 min 49 sec) 

Heartbeat CPU 0 instructions: 11000000 cycles: 11719262 heartbeat IPC: 0.846739 cumulative IPC: 0.846739 (Simulation time: 0 hr 0 min 54 sec) 
Heartbeat CPU 0 instructions: 12000000 cycles: 12923429 heartbeat IPC: 0.83045 cumulative IPC: 0.838515 (Simulation time: 0 hr 0 min 59 sec) 
Heartbeat CPU 0 instructions: 13000000 cycles: 14119057 heartbeat IPC: 0.836381 cumulative IPC: 0.837802 (Simulation time: 0 hr 1 min 4 sec) 
Heartbeat CPU 0 instructions: 14000000 cycles: 15325261 heartbeat IPC: 0.829047 cumulative IPC: 0.835596 (Simulation time: 0 hr 1 min 9 sec) 
Heartbeat CPU 0 instructions: 15000001 cycles: 16603833 heartbeat IPC: 0.782123 cumulative IPC: 0.824325 (Simulation time: 0 hr 1 min 14 sec) 
Heartbeat CPU 0 instructions: 16000000 cycles: 17934371 heartbeat IPC: 0.751575 cumulative IPC: 0.811237 (Simulation time: 0 hr 1 min 19 sec) 
Heartbeat CPU 0 instructions: 17000000 cycles: 19211766 heartbeat IPC: 0.782843 cumulative IPC: 0.807055 (Simulation time: 0 hr 1 min 25 sec) 
Heartbeat CPU 0 instructions: 18000003 cycles: 20477985 heartbeat IPC: 0.789755 cumulative IPC: 0.804852 (Simulation time: 0 hr 1 min 29 sec) 
Heartbeat CPU 0 instructions: 19000002 cycles: 21702342 heartbeat IPC: 0.816754 cumulative IPC: 0.806157 (Simulation time: 0 hr 1 min 33 sec) 
Heartbeat CPU 0 instructions: 20000000 cycles: 22970773 heartbeat IPC: 0.788374 cumulative IPC: 0.804343 (Simulation time: 0 hr 1 min 38 sec) 
Heartbeat CPU 0 instructions: 21000000 cycles: 24267375 heartbeat IPC: 0.771247 cumulative IPC: 0.801217 (Simulation time: 0 hr 1 min 43 sec) 
Heartbeat CPU 0 instructions: 22000000 cycles: 25714990 heartbeat IPC: 0.690791 cumulative IPC: 0.790684 (Simulation time: 0 hr 1 min 48 sec) 
Heartbeat CPU 0 instructions: 23000002 cycles: 27121084 heartbeat IPC: 0.711191 cumulative IPC: 0.783944 (Simulation time: 0 hr 1 min 52 sec) 
Heartbeat CPU 0 instructions: 24000002 cycles: 28519212 heartbeat IPC: 0.715242 cumulative IPC: 0.778602 (Simulation time: 0 hr 1 min 57 sec) 
Heartbeat CPU 0 instructions: 25000000 cycles: 29795418 heartbeat IPC: 0.783571 cumulative IPC: 0.778931 (Simulation time: 0 hr 2 min 1 sec) 
Heartbeat CPU 0 instructions: 26000003 cycles: 30497650 heartbeat IPC: 1.42404 cumulative IPC: 0.801628 (Simulation time: 0 hr 2 min 6 sec) 
Heartbeat CPU 0 instructions: 27000000 cycles: 31206965 heartbeat IPC: 1.40981 cumulative IPC: 0.8225 (Simulation time: 0 hr 2 min 11 sec) 
Heartbeat CPU 0 instructions: 28000002 cycles: 31957638 heartbeat IPC: 1.33214 cumulative IPC: 0.840361 (Simulation time: 0 hr 2 min 16 sec) 
Heartbeat CPU 0 instructions: 29000003 cycles: 32690633 heartbeat IPC: 1.36427 cumulative IPC: 0.857696 (Simulation time: 0 hr 2 min 21 sec) 
Heartbeat CPU 0 instructions: 30000001 cycles: 33445469 heartbeat IPC: 1.32479 cumulative IPC: 0.873088 (Simulation time: 0 hr 2 min 26 sec) 
Heartbeat CPU 0 instructions: 31000002 cycles: 34197537 heartbeat IPC: 1.32967 cumulative IPC: 0.887601 (Simulation time: 0 hr 2 min 30 sec) 
Heartbeat CPU 0 instructions: 32000001 cycles: 34943317 heartbeat IPC: 1.34088 cumulative IPC: 0.901453 (Simulation time: 0 hr 2 min 35 sec) 
Heartbeat CPU 0 instructions: 33000000 cycles: 35691726 heartbeat IPC: 1.33617 cumulative IPC: 0.914387 (Simulation time: 0 hr 2 min 40 sec) 
Heartbeat CPU 0 instructions: 34000002 cycles: 36433071 heartbeat IPC: 1.3489 cumulative IPC: 0.926827 (Simulation time: 0 hr 2 min 44 sec) 
Heartbeat CPU 0 instructions: 35000001 cycles: 37164508 heartbeat IPC: 1.36717 cumulative IPC: 0.938923 (Simulation time: 0 hr 2 min 50 sec) 
Heartbeat CPU 0 instructions: 36000003 cycles: 37891134 heartbeat IPC: 1.37623 cumulative IPC: 0.95054 (Simulation time: 0 hr 2 min 54 sec) 
Heartbeat CPU 0 instructions: 37000000 cycles: 38651156 heartbeat IPC: 1.31575 cumulative IPC: 0.960413 (Simulation time: 0 hr 2 min 59 sec) 
Heartbeat CPU 0 instructions: 38000002 cycles: 39388683 heartbeat IPC: 1.35589 cumulative IPC: 0.970523 (Simulation time: 0 hr 3 min 4 sec) 
Heartbeat CPU 0 instructions: 39000000 cycles: 40115939 heartbeat IPC: 1.37503 cumulative IPC: 0.980469 (Simulation time: 0 hr 3 min 9 sec) 
Heartbeat CPU 0 instructions: 40000001 cycles: 40848810 heartbeat IPC: 1.3645 cumulative IPC: 0.989754 (Simulation time: 0 hr 3 min 14 sec) 
Heartbeat CPU 0 instructions: 41000003 cycles: 41582732 heartbeat IPC: 1.36255 cumulative IPC: 0.998568 (Simulation time: 0 hr 3 min 18 sec) 
Heartbeat CPU 0 instructions: 42000001 cycles: 42343556 heartbeat IPC: 1.31436 cumulative IPC: 1.00612 (Simulation time: 0 hr 3 min 22 sec) 
Heartbeat CPU 0 instructions: 43000000 cycles: 43128817 heartbeat IPC: 1.27346 cumulative IPC: 1.01256 (Simulation time: 0 hr 3 min 27 sec) 
Heartbeat CPU 0 instructions: 44000000 cycles: 43913502 heartbeat IPC: 1.2744 cumulative IPC: 1.01872 (Simulation time: 0 hr 3 min 31 sec) 
Heartbeat CPU 0 instructions: 45000000 cycles: 44721907 heartbeat IPC: 1.237 cumulative IPC: 1.02388 (Simulation time: 0 hr 3 min 35 sec) 
Heartbeat CPU 0 instructions: 46000003 cycles: 45477839 heartbeat IPC: 1.32287 cumulative IPC: 1.03035 (Simulation time: 0 hr 3 min 39 sec) 
Heartbeat CPU 0 instructions: 47000002 cycles: 46241612 heartbeat IPC: 1.30929 cumulative IPC: 1.03632 (Simulation time: 0 hr 3 min 44 sec) 
Heartbeat CPU 0 instructions: 48000000 cycles: 46995039 heartbeat IPC: 1.32727 cumulative IPC: 1.04233 (Simulation time: 0 hr 3 min 49 sec) 
Heartbeat CPU 0 instructions: 49000000 cycles: 47736727 heartbeat IPC: 1.34828 cumulative IPC: 1.04843 (Simulation time: 0 hr 3 min 54 sec) 
Heartbeat CPU 0 instructions: 50000002 cycles: 48472576 heartbeat IPC: 1.35898 cumulative IPC: 1.05445 (Simulation time: 0 hr 3 min 59 sec) 
Heartbeat CPU 0 instructions: 51000002 cycles: 49225352 heartbeat IPC: 1.32842 cumulative IPC: 1.05979 (Simulation time: 0 hr 4 min 4 sec) 
Heartbeat CPU 0 instructions: 52000002 cycles: 50006604 heartbeat IPC: 1.28 cumulative IPC: 1.06414 (Simulation time: 0 hr 4 min 8 sec) 
Heartbeat CPU 0 instructions: 53000003 cycles: 50778279 heartbeat IPC: 1.29588 cumulative IPC: 1.06859 (Simulation time: 0 hr 4 min 13 sec) 
Heartbeat CPU 0 instructions: 54000000 cycles: 51544100 heartbeat IPC: 1.30578 cumulative IPC: 1.07302 (Simulation time: 0 hr 4 min 18 sec) 
Heartbeat CPU 0 instructions: 55000000 cycles: 52271870 heartbeat IPC: 1.37406 cumulative IPC: 1.07827 (Simulation time: 0 hr 4 min 23 sec) 
Heartbeat CPU 0 instructions: 56000003 cycles: 53029415 heartbeat IPC: 1.32006 cumulative IPC: 1.08258 (Simulation time: 0 hr 4 min 28 sec) 
Heartbeat CPU 0 instructions: 57000001 cycles: 53750552 heartbeat IPC: 1.3867 cumulative IPC: 1.08765 (Simulation time: 0 hr 4 min 33 sec) 
Heartbeat CPU 0 instructions: 58000003 cycles: 54527166 heartbeat IPC: 1.28764 cumulative IPC: 1.09118 (Simulation time: 0 hr 4 min 38 sec) 
Heartbeat CPU 0 instructions: 59000000 cycles: 55270445 heartbeat IPC: 1.34539 cumulative IPC: 1.09541 (Simulation time: 0 hr 4 min 42 sec) 
Heartbeat CPU 0 instructions: 60000003 cycles: 56033845 heartbeat IPC: 1.30993 cumulative IPC: 1.09901 (Simulation time: 0 hr 4 min 47 sec) 
Heartbeat CPU 0 instructions: 61000003 cycles: 56800571 heartbeat IPC: 1.30425 cumulative IPC: 1.10241 (Simulation time: 0 hr 4 min 51 sec) 
Heartbeat CPU 0 instructions: 62000002 cycles: 57568426 heartbeat IPC: 1.30233 cumulative IPC: 1.10567 (Simulation time: 0 hr 4 min 56 sec) 
Heartbeat CPU 0 instructions: 63000003 cycles: 58404756 heartbeat IPC: 1.1957 cumulative IPC: 1.10725 (Simulation time: 0 hr 5 min 1 sec) 
Heartbeat CPU 0 instructions: 64000000 cycles: 59161965 heartbeat IPC: 1.32064 cumulative IPC: 1.11057 (Simulation time: 0 hr 5 min 5 sec) 
Heartbeat CPU 0 instructions: 65000001 cycles: 59922683 heartbeat IPC: 1.31455 cumulative IPC: 1.11371 (Simulation time: 0 hr 5 min 10 sec) 
Heartbeat CPU 0 instructions: 66000000 cycles: 60700040 heartbeat IPC: 1.28641 cumulative IPC: 1.11639 (Simulation time: 0 hr 5 min 15 sec) 
Heartbeat CPU 0 instructions: 67000000 cycles: 61471790 heartbeat IPC: 1.29576 cumulative IPC: 1.11911 (Simulation time: 0 hr 5 min 20 sec) 
Heartbeat CPU 0 instructions: 68000002 cycles: 62241638 heartbeat IPC: 1.29896 cumulative IPC: 1.12178 (Simulation time: 0 hr 5 min 25 sec) 
Heartbeat CPU 0 instructions: 69000002 cycles: 63011887 heartbeat IPC: 1.29828 cumulative IPC: 1.12437 (Simulation time: 0 hr 5 min 29 sec) 
Heartbeat CPU 0 instructions: 70000002 cycles: 63802662 heartbeat IPC: 1.26458 cumulative IPC: 1.12646 (Simulation time: 0 hr 5 min 34 sec) 
Heartbeat CPU 0 instructions: 71000002 cycles: 64593441 heartbeat IPC: 1.26458 cumulative IPC: 1.12848 (Simulation time: 0 hr 5 min 38 sec) 
Heartbeat CPU 0 instructions: 72000002 cycles: 65377069 heartbeat IPC: 1.27612 cumulative IPC: 1.13059 (Simulation time: 0 hr 5 min 43 sec) 
Heartbeat CPU 0 instructions: 73000000 cycles: 66154196 heartbeat IPC: 1.28679 cumulative IPC: 1.13277 (Simulation time: 0 hr 5 min 48 sec) 
Heartbeat CPU 0 instructions: 74000001 cycles: 66929632 heartbeat IPC: 1.2896 cumulative IPC: 1.13493 (Simulation time: 0 hr 5 min 52 sec) 
Heartbeat CPU 0 instructions: 75000002 cycles: 67688499 heartbeat IPC: 1.31776 cumulative IPC: 1.13735 (Simulation time: 0 hr 5 min 57 sec) 
Heartbeat CPU 0 instructions: 76000002 cycles: 68468497 heartbeat IPC: 1.28205 cumulative IPC: 1.1393 (Simulation time: 0 hr 6 min 2 sec) 
Heartbeat CPU 0 instructions: 77000000 cycles: 69297831 heartbeat IPC: 1.20578 cumulative IPC: 1.14024 (Simulation time: 0 hr 6 min 7 sec) 
Heartbeat CPU 0 instructions: 78000001 cycles: 70068833 heartbeat IPC: 1.29701 cumulative IPC: 1.14227 (Simulation time: 0 hr 6 min 12 sec) 
Heartbeat CPU 0 instructions: 79000000 cycles: 70879357 heartbeat IPC: 1.23377 cumulative IPC: 1.1435 (Simulation time: 0 hr 6 min 16 sec) 
Heartbeat CPU 0 instructions: 80000002 cycles: 71761919 heartbeat IPC: 1.13307 cumulative IPC: 1.14335 (Simulation time: 0 hr 6 min 20 sec) 
Heartbeat CPU 0 instructions: 81000000 cycles: 72628109 heartbeat IPC: 1.15448 cumulative IPC: 1.1435 (Simulation time: 0 hr 6 min 24 sec) 
Heartbeat CPU 0 instructions: 82000000 cycles: 73453705 heartbeat IPC: 1.21125 cumulative IPC: 1.14439 (Simulation time: 0 hr 6 min 29 sec) 
Heartbeat CPU 0 instructions: 83000001 cycles: 74250525 heartbeat IPC: 1.25499 cumulative IPC: 1.14578 (Simulation time: 0 hr 6 min 33 sec) 
Heartbeat CPU 0 instructions: 84000000 cycles: 75029459 heartbeat IPC: 1.2838 cumulative IPC: 1.14744 (Simulation time: 0 hr 6 min 38 sec) 
Heartbeat CPU 0 instructions: 85000001 cycles: 75797878 heartbeat IPC: 1.30137 cumulative IPC: 1.14926 (Simulation time: 0 hr 6 min 42 sec) 
Heartbeat CPU 0 instructions: 86000001 cycles: 76572966 heartbeat IPC: 1.29018 cumulative IPC: 1.15091 (Simulation time: 0 hr 6 min 47 sec) 
Heartbeat CPU 0 instructions: 87000001 cycles: 77358073 heartbeat IPC: 1.27371 cumulative IPC: 1.15235 (Simulation time: 0 hr 6 min 52 sec) 
Heartbeat CPU 0 instructions: 88000000 cycles: 78163232 heartbeat IPC: 1.24199 cumulative IPC: 1.15342 (Simulation time: 0 hr 6 min 56 sec) 
Heartbeat CPU 0 instructions: 89000000 cycles: 78926170 heartbeat IPC: 1.31072 cumulative IPC: 1.15517 (Simulation time: 0 hr 7 min 0 sec) 
Heartbeat CPU 0 instructions: 90000001 cycles: 79680764 heartbeat IPC: 1.32522 cumulative IPC: 1.15703 (Simulation time: 0 hr 7 min 5 sec) 
Heartbeat CPU 0 instructions: 91000001 cycles: 80475628 heartbeat IPC: 1.25808 cumulative IPC: 1.15818 (Simulation time: 0 hr 7 min 10 sec) 
Heartbeat CPU 0 instructions: 92000002 cycles: 81286225 heartbeat IPC: 1.23366 cumulative IPC: 1.15904 (Simulation time: 0 hr 7 min 14 sec) 
Heartbeat CPU 0 instructions: 93000000 cycles: 82059878 heartbeat IPC: 1.29257 cumulative IPC: 1.16049 (Simulation time: 0 hr 7 min 18 sec) 
Heartbeat CPU 0 instructions: 94000000 cycles: 82858775 heartbeat IPC: 1.25173 cumulative IPC: 1.1615 (Simulation time: 0 hr 7 min 23 sec) 
Heartbeat CPU 0 instructions: 95000001 cycles: 83673886 heartbeat IPC: 1.22683 cumulative IPC: 1.16222 (Simulation time: 0 hr 7 min 28 sec) 
Heartbeat CPU 0 instructions: 96000000 cycles: 84523062 heartbeat IPC: 1.17761 cumulative IPC: 1.1624 (Simulation time: 0 hr 7 min 33 sec) 
Heartbeat CPU 0 instructions: 97000000 cycles: 85360180 heartbeat IPC: 1.19457 cumulative IPC: 1.16276 (Simulation time: 0 hr 7 min 38 sec) 
Heartbeat CPU 0 instructions: 98000001 cycles: 86196613 heartbeat IPC: 1.19555 cumulative IPC: 1.16312 (Simulation time: 0 hr 7 min 43 sec) 
Heartbeat CPU 0 instructions: 99000000 cycles: 87121464 heartbeat IPC: 1.08125 cumulative IPC: 1.16213 (Simulation time: 0 hr 7 min 48 sec) 
Heartbeat CPU 0 instructions: 100000002 cycles: 87965737 heartbeat IPC: 1.18445 cumulative IPC: 1.16238 (Simulation time: 0 hr 7 min 52 sec) 
Heartbeat CPU 0 instructions: 101000000 cycles: 88817924 heartbeat IPC: 1.17345 cumulative IPC: 1.1625 (Simulation time: 0 hr 7 min 57 sec) 
Heartbeat CPU 0 instructions: 102000000 cycles: 89650185 heartbeat IPC: 1.20155 cumulative IPC: 1.16291 (Simulation time: 0 hr 8 min 1 sec) 
Heartbeat CPU 0 instructions: 103000001 cycles: 90426613 heartbeat IPC: 1.28795 cumulative IPC: 1.16412 (Simulation time: 0 hr 8 min 6 sec) 
Heartbeat CPU 0 instructions: 104000002 cycles: 91209005 heartbeat IPC: 1.27813 cumulative IPC: 1.16523 (Simulation time: 0 hr 8 min 10 sec) 
Heartbeat CPU 0 instructions: 105000000 cycles: 92002391 heartbeat IPC: 1.26042 cumulative IPC: 1.16616 (Simulation time: 0 hr 8 min 15 sec) 
Heartbeat CPU 0 instructions: 106000000 cycles: 92802121 heartbeat IPC: 1.25042 cumulative IPC: 1.16698 (Simulation time: 0 hr 8 min 20 sec) 
Heartbeat CPU 0 instructions: 107000001 cycles: 93596269 heartbeat IPC: 1.25921 cumulative IPC: 1.16786 (Simulation time: 0 hr 8 min 25 sec) 
Heartbeat CPU 0 instructions: 108000002 cycles: 94503526 heartbeat IPC: 1.10222 cumulative IPC: 1.16715 (Simulation time: 0 hr 8 min 30 sec) 
Heartbeat CPU 0 instructions: 109000000 cycles: 95398893 heartbeat IPC: 1.11686 cumulative IPC: 1.16662 (Simulation time: 0 hr 8 min 35 sec) 
Heartbeat CPU 0 instructions: 110000000 cycles: 96229757 heartbeat IPC: 1.20357 cumulative IPC: 1.16698 (Simulation time: 0 hr 8 min 40 sec) 
Heartbeat CPU 0 instructions: 111000003 cycles: 97082263 heartbeat IPC: 1.17302 cumulative IPC: 1.16704 (Simulation time: 0 hr 8 min 45 sec) 
Heartbeat CPU 0 instructions: 112000001 cycles: 97945383 heartbeat IPC: 1.15859 cumulative IPC: 1.16695 (Simulation time: 0 hr 8 min 49 sec) 
Heartbeat CPU 0 instructions: 113000000 cycles: 98794803 heartbeat IPC: 1.17727 cumulative IPC: 1.16705 (Simulation time: 0 hr 8 min 54 sec) 
Heartbeat CPU 0 instructions: 114000003 cycles: 99653577 heartbeat IPC: 1.16445 cumulative IPC: 1.16703 (Simulation time: 0 hr 8 min 58 sec) 
Heartbeat CPU 0 instructions: 115000000 cycles: 100531413 heartbeat IPC: 1.13916 cumulative IPC: 1.16676 (Simulation time: 0 hr 9 min 3 sec) 
Heartbeat CPU 0 instructions: 116000003 cycles: 101446003 heartbeat IPC: 1.09339 cumulative IPC: 1.16602 (Simulation time: 0 hr 9 min 7 sec) 
Heartbeat CPU 0 instructions: 117000000 cycles: 102391258 heartbeat IPC: 1.05791 cumulative IPC: 1.1649 (Simulation time: 0 hr 9 min 11 sec) 
Heartbeat CPU 0 instructions: 118000003 cycles: 103358137 heartbeat IPC: 1.03426 cumulative IPC: 1.16354 (Simulation time: 0 hr 9 min 15 sec) 
Heartbeat CPU 0 instructions: 119000000 cycles: 104270469 heartbeat IPC: 1.09609 cumulative IPC: 1.16289 (Simulation time: 0 hr 9 min 20 sec) 
Heartbeat CPU 0 instructions: 120000000 cycles: 105134021 heartbeat IPC: 1.15801 cumulative IPC: 1.16284 (Simulation time: 0 hr 9 min 25 sec) 
Heartbeat CPU 0 instructions: 121000000 cycles: 106048236 heartbeat IPC: 1.09383 cumulative IPC: 1.16218 (Simulation time: 0 hr 9 min 30 sec) 
Heartbeat CPU 0 instructions: 122000000 cycles: 107012659 heartbeat IPC: 1.03689 cumulative IPC: 1.16093 (Simulation time: 0 hr 9 min 34 sec) 
Heartbeat CPU 0 instructions: 123000001 cycles: 107888301 heartbeat IPC: 1.14202 cumulative IPC: 1.16076 (Simulation time: 0 hr 9 min 38 sec) 
Heartbeat CPU 0 instructions: 124000000 cycles: 108713397 heartbeat IPC: 1.21198 cumulative IPC: 1.16119 (Simulation time: 0 hr 9 min 43 sec) 
Heartbeat CPU 0 instructions: 125000000 cycles: 109517839 heartbeat IPC: 1.2431 cumulative IPC: 1.16186 (Simulation time: 0 hr 9 min 48 sec) 
Heartbeat CPU 0 instructions: 126000001 cycles: 110358625 heartbeat IPC: 1.18936 cumulative IPC: 1.16209 (Simulation time: 0 hr 9 min 53 sec) 
Heartbeat CPU 0 instructions: 127000000 cycles: 111189715 heartbeat IPC: 1.20324 cumulative IPC: 1.16243 (Simulation time: 0 hr 9 min 57 sec) 
Heartbeat CPU 0 instructions: 128000002 cycles: 112030425 heartbeat IPC: 1.18947 cumulative IPC: 1.16265 (Simulation time: 0 hr 10 min 1 sec) 
Heartbeat CPU 0 instructions: 129000000 cycles: 112933966 heartbeat IPC: 1.10675 cumulative IPC: 1.16216 (Simulation time: 0 hr 10 min 6 sec) 
Heartbeat CPU 0 instructions: 130000002 cycles: 113827346 heartbeat IPC: 1.11935 cumulative IPC: 1.16179 (Simulation time: 0 hr 10 min 10 sec) 
Heartbeat CPU 0 instructions: 131000002 cycles: 114691949 heartbeat IPC: 1.1566 cumulative IPC: 1.16174 (Simulation time: 0 hr 10 min 15 sec) 
Heartbeat CPU 0 instructions: 132000000 cycles: 115574084 heartbeat IPC: 1.13361 cumulative IPC: 1.16151 (Simulation time: 0 hr 10 min 20 sec) 
Heartbeat CPU 0 instructions: 133000001 cycles: 116450565 heartbeat IPC: 1.14093 cumulative IPC: 1.16134 (Simulation time: 0 hr 10 min 24 sec) 
Heartbeat CPU 0 instructions: 134000000 cycles: 117296850 heartbeat IPC: 1.18163 cumulative IPC: 1.1615 (Simulation time: 0 hr 10 min 30 sec) 
Heartbeat CPU 0 instructions: 135000000 cycles: 118189939 heartbeat IPC: 1.11971 cumulative IPC: 1.16115 (Simulation time: 0 hr 10 min 34 sec) 
Heartbeat CPU 0 instructions: 136000000 cycles: 119043162 heartbeat IPC: 1.17203 cumulative IPC: 1.16124 (Simulation time: 0 hr 10 min 39 sec) 
Heartbeat CPU 0 instructions: 137000000 cycles: 119878705 heartbeat IPC: 1.19683 cumulative IPC: 1.16151 (Simulation time: 0 hr 10 min 43 sec) 
Heartbeat CPU 0 instructions: 138000000 cycles: 120723693 heartbeat IPC: 1.18345 cumulative IPC: 1.16168 (Simulation time: 0 hr 10 min 48 sec) 
Heartbeat CPU 0 instructions: 139000002 cycles: 121595619 heartbeat IPC: 1.14689 cumulative IPC: 1.16156 (Simulation time: 0 hr 10 min 52 sec) 
Heartbeat CPU 0 instructions: 140000001 cycles: 122521131 heartbeat IPC: 1.08048 cumulative IPC: 1.16089 (Simulation time: 0 hr 10 min 57 sec) 
Heartbeat CPU 0 instructions: 141000003 cycles: 123424915 heartbeat IPC: 1.10646 cumulative IPC: 1.16046 (Simulation time: 0 hr 11 min 2 sec) 
Heartbeat CPU 0 instructions: 142000000 cycles: 124307229 heartbeat IPC: 1.13338 cumulative IPC: 1.16025 (Simulation time: 0 hr 11 min 7 sec) 
Heartbeat CPU 0 instructions: 143000000 cycles: 125198575 heartbeat IPC: 1.1219 cumulative IPC: 1.15995 (Simulation time: 0 hr 11 min 11 sec) 
Heartbeat CPU 0 instructions: 144000000 cycles: 126098295 heartbeat IPC: 1.11146 cumulative IPC: 1.15957 (Simulation time: 0 hr 11 min 15 sec) 
Heartbeat CPU 0 instructions: 145000002 cycles: 127116761 heartbeat IPC: 0.981871 cumulative IPC: 1.15802 (Simulation time: 0 hr 11 min 20 sec) 
Heartbeat CPU 0 instructions: 146000001 cycles: 128240016 heartbeat IPC: 0.890269 cumulative IPC: 1.15546 (Simulation time: 0 hr 11 min 24 sec) 
Heartbeat CPU 0 instructions: 147000002 cycles: 129330693 heartbeat IPC: 0.916863 cumulative IPC: 1.15327 (Simulation time: 0 hr 11 min 28 sec) 
Heartbeat CPU 0 instructions: 148000003 cycles: 130475966 heartbeat IPC: 0.873155 cumulative IPC: 1.1506 (Simulation time: 0 hr 11 min 32 sec) 
Heartbeat CPU 0 instructions: 149000003 cycles: 131524672 heartbeat IPC: 0.953556 cumulative IPC: 1.14889 (Simulation time: 0 hr 11 min 37 sec) 
Heartbeat CPU 0 instructions: 150000000 cycles: 132644481 heartbeat IPC: 0.893007 cumulative IPC: 1.14654 (Simulation time: 0 hr 11 min 41 sec) 
Heartbeat CPU 0 instructions: 151000002 cycles: 133672254 heartbeat IPC: 0.972979 cumulative IPC: 1.14509 (Simulation time: 0 hr 11 min 46 sec) 
Heartbeat CPU 0 instructions: 152000003 cycles: 134716170 heartbeat IPC: 0.957932 cumulative IPC: 1.14352 (Simulation time: 0 hr 11 min 50 sec) 
Heartbeat CPU 0 instructions: 153000000 cycles: 135743143 heartbeat IPC: 0.973733 cumulative IPC: 1.14213 (Simulation time: 0 hr 11 min 54 sec) 
Heartbeat CPU 0 instructions: 154000000 cycles: 136634313 heartbeat IPC: 1.12212 cumulative IPC: 1.14199 (Simulation time: 0 hr 11 min 58 sec) 
Heartbeat CPU 0 instructions: 155000000 cycles: 137538939 heartbeat IPC: 1.10543 cumulative IPC: 1.14173 (Simulation time: 0 hr 12 min 3 sec) 
Heartbeat CPU 0 instructions: 156000001 cycles: 138410368 heartbeat IPC: 1.14754 cumulative IPC: 1.14177 (Simulation time: 0 hr 12 min 7 sec) 
Heartbeat CPU 0 instructions: 157000000 cycles: 139280674 heartbeat IPC: 1.14902 cumulative IPC: 1.14181 (Simulation time: 0 hr 12 min 11 sec) 
Heartbeat CPU 0 instructions: 158000002 cycles: 140177941 heartbeat IPC: 1.1145 cumulative IPC: 1.14163 (Simulation time: 0 hr 12 min 16 sec) 
Heartbeat CPU 0 instructions: 159000002 cycles: 141187193 heartbeat IPC: 0.990833 cumulative IPC: 1.14046 (Simulation time: 0 hr 12 min 20 sec) 
Heartbeat CPU 0 instructions: 160000001 cycles: 142238892 heartbeat IPC: 0.950841 cumulative IPC: 1.13895 (Simulation time: 0 hr 12 min 24 sec) 
Heartbeat CPU 0 instructions: 161000001 cycles: 143381614 heartbeat IPC: 0.875103 cumulative IPC: 1.13668 (Simulation time: 0 hr 12 min 29 sec) 
Heartbeat CPU 0 instructions: 162000000 cycles: 144513787 heartbeat IPC: 0.883256 cumulative IPC: 1.13454 (Simulation time: 0 hr 12 min 33 sec) 
Heartbeat CPU 0 instructions: 163000000 cycles: 145635085 heartbeat IPC: 0.891824 cumulative IPC: 1.13252 (Simulation time: 0 hr 12 min 38 sec) 
Heartbeat CPU 0 instructions: 164000003 cycles: 146721134 heartbeat IPC: 0.920772 cumulative IPC: 1.13083 (Simulation time: 0 hr 12 min 43 sec) 
Heartbeat CPU 0 instructions: 165000000 cycles: 147761287 heartbeat IPC: 0.961394 cumulative IPC: 1.12955 (Simulation time: 0 hr 12 min 47 sec) 
Heartbeat CPU 0 instructions: 166000000 cycles: 148687776 heartbeat IPC: 1.07934 cumulative IPC: 1.12921 (Simulation time: 0 hr 12 min 52 sec) 
Heartbeat CPU 0 instructions: 167000000 cycles: 149577390 heartbeat IPC: 1.12408 cumulative IPC: 1.12918 (Simulation time: 0 hr 12 min 57 sec) 
Heartbeat CPU 0 instructions: 168000000 cycles: 150470691 heartbeat IPC: 1.11944 cumulative IPC: 1.12912 (Simulation time: 0 hr 13 min 1 sec) 
Heartbeat CPU 0 instructions: 169000000 cycles: 151357094 heartbeat IPC: 1.12815 cumulative IPC: 1.12911 (Simulation time: 0 hr 13 min 6 sec) 
Heartbeat CPU 0 instructions: 170000000 cycles: 152313778 heartbeat IPC: 1.04528 cumulative IPC: 1.12854 (Simulation time: 0 hr 13 min 11 sec) 
Heartbeat CPU 0 instructions: 171000001 cycles: 153301879 heartbeat IPC: 1.01204 cumulative IPC: 1.12774 (Simulation time: 0 hr 13 min 16 sec) 
Heartbeat CPU 0 instructions: 172000001 cycles: 154254406 heartbeat IPC: 1.04984 cumulative IPC: 1.12722 (Simulation time: 0 hr 13 min 20 sec) 
Heartbeat CPU 0 instructions: 173000003 cycles: 155148549 heartbeat IPC: 1.11839 cumulative IPC: 1.12717 (Simulation time: 0 hr 13 min 24 sec) 
Heartbeat CPU 0 instructions: 174000003 cycles: 156047828 heartbeat IPC: 1.112 cumulative IPC: 1.12707 (Simulation time: 0 hr 13 min 29 sec) 
Heartbeat CPU 0 instructions: 175000002 cycles: 156907651 heartbeat IPC: 1.16303 cumulative IPC: 1.12728 (Simulation time: 0 hr 13 min 33 sec) 
Heartbeat CPU 0 instructions: 176000000 cycles: 157824258 heartbeat IPC: 1.09098 cumulative IPC: 1.12706 (Simulation time: 0 hr 13 min 38 sec) 
Heartbeat CPU 0 instructions: 177000000 cycles: 158719195 heartbeat IPC: 1.1174 cumulative IPC: 1.127 (Simulation time: 0 hr 13 min 42 sec) 
Heartbeat CPU 0 instructions: 178000003 cycles: 159625600 heartbeat IPC: 1.10326 cumulative IPC: 1.12686 (Simulation time: 0 hr 13 min 46 sec) 
Heartbeat CPU 0 instructions: 179000002 cycles: 160494458 heartbeat IPC: 1.15093 cumulative IPC: 1.127 (Simulation time: 0 hr 13 min 51 sec) 
Heartbeat CPU 0 instructions: 180000001 cycles: 161391309 heartbeat IPC: 1.11501 cumulative IPC: 1.12692 (Simulation time: 0 hr 13 min 55 sec) 
Heartbeat CPU 0 instructions: 181000002 cycles: 162261146 heartbeat IPC: 1.14964 cumulative IPC: 1.12705 (Simulation time: 0 hr 14 min 0 sec) 
Heartbeat CPU 0 instructions: 182000000 cycles: 163201813 heartbeat IPC: 1.06307 cumulative IPC: 1.12666 (Simulation time: 0 hr 14 min 5 sec) 
Heartbeat CPU 0 instructions: 183000000 cycles: 164068608 heartbeat IPC: 1.15368 cumulative IPC: 1.12681 (Simulation time: 0 hr 14 min 10 sec) 
Heartbeat CPU 0 instructions: 184000000 cycles: 164967963 heartbeat IPC: 1.11191 cumulative IPC: 1.12673 (Simulation time: 0 hr 14 min 15 sec) 
Heartbeat CPU 0 instructions: 185000003 cycles: 165894566 heartbeat IPC: 1.07921 cumulative IPC: 1.12644 (Simulation time: 0 hr 14 min 19 sec) 
Heartbeat CPU 0 instructions: 186000002 cycles: 166812557 heartbeat IPC: 1.08933 cumulative IPC: 1.12622 (Simulation time: 0 hr 14 min 24 sec) 
Heartbeat CPU 0 instructions: 187000000 cycles: 167702790 heartbeat IPC: 1.1233 cumulative IPC: 1.12621 (Simulation time: 0 hr 14 min 29 sec) 
Heartbeat CPU 0 instructions: 188000002 cycles: 168568452 heartbeat IPC: 1.15519 cumulative IPC: 1.12637 (Simulation time: 0 hr 14 min 33 sec) 
Heartbeat CPU 0 instructions: 189000003 cycles: 169448640 heartbeat IPC: 1.13612 cumulative IPC: 1.12642 (Simulation time: 0 hr 14 min 38 sec) 
Heartbeat CPU 0 instructions: 190000002 cycles: 170408699 heartbeat IPC: 1.0416 cumulative IPC: 1.12591 (Simulation time: 0 hr 14 min 42 sec) 
Heartbeat CPU 0 instructions: 191000002 cycles: 171364554 heartbeat IPC: 1.04618 cumulative IPC: 1.12544 (Simulation time: 0 hr 14 min 47 sec) 
Heartbeat CPU 0 instructions: 192000003 cycles: 172354023 heartbeat IPC: 1.01064 cumulative IPC: 1.12474 (Simulation time: 0 hr 14 min 51 sec) 
Heartbeat CPU 0 instructions: 193000001 cycles: 173329729 heartbeat IPC: 1.0249 cumulative IPC: 1.12414 (Simulation time: 0 hr 14 min 55 sec) 
Heartbeat CPU 0 instructions: 194000001 cycles: 174319955 heartbeat IPC: 1.00987 cumulative IPC: 1.12345 (Simulation time: 0 hr 15 min 0 sec) 
Heartbeat CPU 0 instructions: 195000002 cycles: 175234699 heartbeat IPC: 1.0932 cumulative IPC: 1.12328 (Simulation time: 0 hr 15 min 4 sec) 
Heartbeat CPU 0 instructions: 196000000 cycles: 176153566 heartbeat IPC: 1.08829 cumulative IPC: 1.12308 (Simulation time: 0 hr 15 min 9 sec) 
Heartbeat CPU 0 instructions: 197000000 cycles: 177028334 heartbeat IPC: 1.14316 cumulative IPC: 1.12319 (Simulation time: 0 hr 15 min 14 sec) 
Heartbeat CPU 0 instructions: 198000000 cycles: 177877657 heartbeat IPC: 1.17741 cumulative IPC: 1.12347 (Simulation time: 0 hr 15 min 19 sec) 
Heartbeat CPU 0 instructions: 199000000 cycles: 178746189 heartbeat IPC: 1.15137 cumulative IPC: 1.12361 (Simulation time: 0 hr 15 min 24 sec) 
Heartbeat CPU 0 instructions: 200000002 cycles: 179593897 heartbeat IPC: 1.17965 cumulative IPC: 1.12389 (Simulation time: 0 hr 15 min 28 sec) 
Heartbeat CPU 0 instructions: 201000000 cycles: 180528965 heartbeat IPC: 1.06944 cumulative IPC: 1.12359 (Simulation time: 0 hr 15 min 33 sec) 
Heartbeat CPU 0 instructions: 202000003 cycles: 181423350 heartbeat IPC: 1.11809 cumulative IPC: 1.12356 (Simulation time: 0 hr 15 min 37 sec) 
Heartbeat CPU 0 instructions: 203000001 cycles: 182323388 heartbeat IPC: 1.11106 cumulative IPC: 1.1235 (Simulation time: 0 hr 15 min 42 sec) 
Heartbeat CPU 0 instructions: 204000003 cycles: 183255245 heartbeat IPC: 1.07313 cumulative IPC: 1.12322 (Simulation time: 0 hr 15 min 47 sec) 
Heartbeat CPU 0 instructions: 205000000 cycles: 184232714 heartbeat IPC: 1.02305 cumulative IPC: 1.12266 (Simulation time: 0 hr 15 min 52 sec) 
Heartbeat CPU 0 instructions: 206000003 cycles: 185185498 heartbeat IPC: 1.04956 cumulative IPC: 1.12226 (Simulation time: 0 hr 15 min 56 sec) 
Heartbeat CPU 0 instructions: 207000000 cycles: 186159099 heartbeat IPC: 1.02711 cumulative IPC: 1.12173 (Simulation time: 0 hr 16 min 1 sec) 
Heartbeat CPU 0 instructions: 208000000 cycles: 187164198 heartbeat IPC: 0.994927 cumulative IPC: 1.12101 (Simulation time: 0 hr 16 min 5 sec) 
Heartbeat CPU 0 instructions: 209000000 cycles: 188168581 heartbeat IPC: 0.995636 cumulative IPC: 1.1203 (Simulation time: 0 hr 16 min 10 sec) 
Heartbeat CPU 0 instructions: 210000001 cycles: 189122732 heartbeat IPC: 1.04805 cumulative IPC: 1.11992 (Simulation time: 0 hr 16 min 14 sec) 
Heartbeat CPU 0 instructions: 211000003 cycles: 190130100 heartbeat IPC: 0.992688 cumulative IPC: 1.1192 (Simulation time: 0 hr 16 min 19 sec) 
Heartbeat CPU 0 instructions: 212000003 cycles: 191101718 heartbeat IPC: 1.02921 cumulative IPC: 1.11872 (Simulation time: 0 hr 16 min 23 sec) 
Heartbeat CPU 0 instructions: 213000001 cycles: 192022178 heartbeat IPC: 1.08641 cumulative IPC: 1.11856 (Simulation time: 0 hr 16 min 28 sec) 
Heartbeat CPU 0 instructions: 214000002 cycles: 192882808 heartbeat IPC: 1.16194 cumulative IPC: 1.11876 (Simulation time: 0 hr 16 min 32 sec) 
Heartbeat CPU 0 instructions: 215000001 cycles: 193737988 heartbeat IPC: 1.16934 cumulative IPC: 1.119 (Simulation time: 0 hr 16 min 37 sec) 
Heartbeat CPU 0 instructions: 216000000 cycles: 194564702 heartbeat IPC: 1.20961 cumulative IPC: 1.1194 (Simulation time: 0 hr 16 min 42 sec) 
Heartbeat CPU 0 instructions: 217000002 cycles: 195417989 heartbeat IPC: 1.17194 cumulative IPC: 1.11965 (Simulation time: 0 hr 16 min 46 sec) 
Heartbeat CPU 0 instructions: 218000001 cycles: 196271460 heartbeat IPC: 1.17168 cumulative IPC: 1.11989 (Simulation time: 0 hr 16 min 51 sec) 
Heartbeat CPU 0 instructions: 219000001 cycles: 197187058 heartbeat IPC: 1.09218 cumulative IPC: 1.11975 (Simulation time: 0 hr 16 min 56 sec) 
Heartbeat CPU 0 instructions: 220000000 cycles: 198062835 heartbeat IPC: 1.14184 cumulative IPC: 1.11985 (Simulation time: 0 hr 17 min 1 sec) 
Heartbeat CPU 0 instructions: 221000000 cycles: 198962127 heartbeat IPC: 1.11199 cumulative IPC: 1.11982 (Simulation time: 0 hr 17 min 6 sec) 
Heartbeat CPU 0 instructions: 222000000 cycles: 199877777 heartbeat IPC: 1.09212 cumulative IPC: 1.11968 (Simulation time: 0 hr 17 min 10 sec) 
Heartbeat CPU 0 instructions: 223000003 cycles: 200884024 heartbeat IPC: 0.993795 cumulative IPC: 1.11902 (Simulation time: 0 hr 17 min 14 sec) 
Heartbeat CPU 0 instructions: 224000001 cycles: 201898508 heartbeat IPC: 0.985721 cumulative IPC: 1.11831 (Simulation time: 0 hr 17 min 19 sec) 
Heartbeat CPU 0 instructions: 225000000 cycles: 202873899 heartbeat IPC: 1.02523 cumulative IPC: 1.11784 (Simulation time: 0 hr 17 min 24 sec) 
Heartbeat CPU 0 instructions: 226000001 cycles: 203824512 heartbeat IPC: 1.05195 cumulative IPC: 1.11751 (Simulation time: 0 hr 17 min 29 sec) 
Heartbeat CPU 0 instructions: 227000003 cycles: 204829969 heartbeat IPC: 0.994575 cumulative IPC: 1.11688 (Simulation time: 0 hr 17 min 34 sec) 
Heartbeat CPU 0 instructions: 228000000 cycles: 205842237 heartbeat IPC: 0.987878 cumulative IPC: 1.11621 (Simulation time: 0 hr 17 min 38 sec) 
Heartbeat CPU 0 instructions: 229000000 cycles: 206825843 heartbeat IPC: 1.01667 cumulative IPC: 1.11571 (Simulation time: 0 hr 17 min 43 sec) 
Heartbeat CPU 0 instructions: 230000002 cycles: 207772933 heartbeat IPC: 1.05587 cumulative IPC: 1.11542 (Simulation time: 0 hr 17 min 47 sec) 
Heartbeat CPU 0 instructions: 231000000 cycles: 208723715 heartbeat IPC: 1.05176 cumulative IPC: 1.11512 (Simulation time: 0 hr 17 min 53 sec) 
Heartbeat CPU 0 instructions: 232000001 cycles: 209601551 heartbeat IPC: 1.13917 cumulative IPC: 1.11522 (Simulation time: 0 hr 17 min 57 sec) 
Heartbeat CPU 0 instructions: 233000002 cycles: 210503286 heartbeat IPC: 1.10897 cumulative IPC: 1.1152 (Simulation time: 0 hr 18 min 1 sec) 
Heartbeat CPU 0 instructions: 234000000 cycles: 211406578 heartbeat IPC: 1.10706 cumulative IPC: 1.11516 (Simulation time: 0 hr 18 min 6 sec) 
Heartbeat CPU 0 instructions: 235000001 cycles: 212343618 heartbeat IPC: 1.06719 cumulative IPC: 1.11494 (Simulation time: 0 hr 18 min 10 sec) 
Heartbeat CPU 0 instructions: 236000000 cycles: 213230539 heartbeat IPC: 1.1275 cumulative IPC: 1.11499 (Simulation time: 0 hr 18 min 15 sec) 
Heartbeat CPU 0 instructions: 237000001 cycles: 214147109 heartbeat IPC: 1.09103 cumulative IPC: 1.11488 (Simulation time: 0 hr 18 min 20 sec) 
Heartbeat CPU 0 instructions: 238000000 cycles: 215024652 heartbeat IPC: 1.13954 cumulative IPC: 1.11499 (Simulation time: 0 hr 18 min 24 sec) 
Heartbeat CPU 0 instructions: 239000001 cycles: 215874485 heartbeat IPC: 1.1767 cumulative IPC: 1.11524 (Simulation time: 0 hr 18 min 29 sec) 
Heartbeat CPU 0 instructions: 240000002 cycles: 216772290 heartbeat IPC: 1.11383 cumulative IPC: 1.11524 (Simulation time: 0 hr 18 min 34 sec) 
Heartbeat CPU 0 instructions: 241000001 cycles: 217637635 heartbeat IPC: 1.15561 cumulative IPC: 1.11541 (Simulation time: 0 hr 18 min 38 sec) 
Heartbeat CPU 0 instructions: 242000000 cycles: 218527151 heartbeat IPC: 1.12421 cumulative IPC: 1.11544 (Simulation time: 0 hr 18 min 43 sec) 
Heartbeat CPU 0 instructions: 243000003 cycles: 219385547 heartbeat IPC: 1.16497 cumulative IPC: 1.11565 (Simulation time: 0 hr 18 min 48 sec) 
Heartbeat CPU 0 instructions: 244000002 cycles: 220248857 heartbeat IPC: 1.15833 cumulative IPC: 1.11582 (Simulation time: 0 hr 18 min 53 sec) 
Heartbeat CPU 0 instructions: 245000001 cycles: 221127406 heartbeat IPC: 1.13824 cumulative IPC: 1.11592 (Simulation time: 0 hr 18 min 57 sec) 
Heartbeat CPU 0 instructions: 246000000 cycles: 222029189 heartbeat IPC: 1.10891 cumulative IPC: 1.11589 (Simulation time: 0 hr 19 min 2 sec) 
Heartbeat CPU 0 instructions: 247000001 cycles: 222921237 heartbeat IPC: 1.12102 cumulative IPC: 1.11591 (Simulation time: 0 hr 19 min 7 sec) 
Heartbeat CPU 0 instructions: 248000002 cycles: 223771476 heartbeat IPC: 1.17614 cumulative IPC: 1.11615 (Simulation time: 0 hr 19 min 11 sec) 
Heartbeat CPU 0 instructions: 249000003 cycles: 224628868 heartbeat IPC: 1.16633 cumulative IPC: 1.11635 (Simulation time: 0 hr 19 min 16 sec) 
Heartbeat CPU 0 instructions: 250000002 cycles: 225495374 heartbeat IPC: 1.15406 cumulative IPC: 1.1165 (Simulation time: 0 hr 19 min 21 sec) 
Heartbeat CPU 0 instructions: 251000003 cycles: 226392851 heartbeat IPC: 1.11424 cumulative IPC: 1.11649 (Simulation time: 0 hr 19 min 25 sec) 
Heartbeat CPU 0 instructions: 252000000 cycles: 227278507 heartbeat IPC: 1.1291 cumulative IPC: 1.11654 (Simulation time: 0 hr 19 min 30 sec) 
Heartbeat CPU 0 instructions: 253000000 cycles: 228215519 heartbeat IPC: 1.06722 cumulative IPC: 1.11633 (Simulation time: 0 hr 19 min 34 sec) 
Heartbeat CPU 0 instructions: 254000000 cycles: 229137808 heartbeat IPC: 1.08426 cumulative IPC: 1.1162 (Simulation time: 0 hr 19 min 39 sec) 
Heartbeat CPU 0 instructions: 255000003 cycles: 230108493 heartbeat IPC: 1.0302 cumulative IPC: 1.11582 (Simulation time: 0 hr 19 min 44 sec) 
Heartbeat CPU 0 instructions: 256000002 cycles: 231008916 heartbeat IPC: 1.11059 cumulative IPC: 1.11579 (Simulation time: 0 hr 19 min 48 sec) 
Heartbeat CPU 0 instructions: 257000003 cycles: 231885983 heartbeat IPC: 1.14016 cumulative IPC: 1.11589 (Simulation time: 0 hr 19 min 53 sec) 
Heartbeat CPU 0 instructions: 258000002 cycles: 232783645 heartbeat IPC: 1.114 cumulative IPC: 1.11588 (Simulation time: 0 hr 19 min 58 sec) 
Heartbeat CPU 0 instructions: 259000001 cycles: 233715735 heartbeat IPC: 1.07286 cumulative IPC: 1.1157 (Simulation time: 0 hr 20 min 2 sec) 
Heartbeat CPU 0 instructions: 260000002 cycles: 234644045 heartbeat IPC: 1.07723 cumulative IPC: 1.11554 (Simulation time: 0 hr 20 min 7 sec) 
Heartbeat CPU 0 instructions: 261000000 cycles: 235600639 heartbeat IPC: 1.04537 cumulative IPC: 1.11525 (Simulation time: 0 hr 20 min 11 sec) 
Heartbeat CPU 0 instructions: 262000000 cycles: 236553050 heartbeat IPC: 1.04997 cumulative IPC: 1.11497 (Simulation time: 0 hr 20 min 16 sec) 
Heartbeat CPU 0 instructions: 263000000 cycles: 237528801 heartbeat IPC: 1.02485 cumulative IPC: 1.11458 (Simulation time: 0 hr 20 min 20 sec) 
Heartbeat CPU 0 instructions: 264000000 cycles: 238513571 heartbeat IPC: 1.01547 cumulative IPC: 1.11416 (Simulation time: 0 hr 20 min 25 sec) 
Heartbeat CPU 0 instructions: 265000003 cycles: 239485442 heartbeat IPC: 1.02895 cumulative IPC: 1.11379 (Simulation time: 0 hr 20 min 30 sec) 
Heartbeat CPU 0 instructions: 266000001 cycles: 240467891 heartbeat IPC: 1.01786 cumulative IPC: 1.11338 (Simulation time: 0 hr 20 min 34 sec) 
Heartbeat CPU 0 instructions: 267000003 cycles: 241384790 heartbeat IPC: 1.09063 cumulative IPC: 1.11329 (Simulation time: 0 hr 20 min 39 sec) 
Heartbeat CPU 0 instructions: 268000000 cycles: 242294714 heartbeat IPC: 1.09899 cumulative IPC: 1.11324 (Simulation time: 0 hr 20 min 44 sec) 
Heartbeat CPU 0 instructions: 269000003 cycles: 243202732 heartbeat IPC: 1.1013 cumulative IPC: 1.11319 (Simulation time: 0 hr 20 min 49 sec) 
Heartbeat CPU 0 instructions: 270000001 cycles: 244069192 heartbeat IPC: 1.15412 cumulative IPC: 1.11334 (Simulation time: 0 hr 20 min 54 sec) 
Heartbeat CPU 0 instructions: 271000002 cycles: 244944055 heartbeat IPC: 1.14304 cumulative IPC: 1.11345 (Simulation time: 0 hr 20 min 59 sec) 
Heartbeat CPU 0 instructions: 272000000 cycles: 245866100 heartbeat IPC: 1.08454 cumulative IPC: 1.11334 (Simulation time: 0 hr 21 min 4 sec) 
Heartbeat CPU 0 instructions: 273000000 cycles: 246768048 heartbeat IPC: 1.10871 cumulative IPC: 1.11332 (Simulation time: 0 hr 21 min 8 sec) 
Heartbeat CPU 0 instructions: 274000000 cycles: 247639150 heartbeat IPC: 1.14797 cumulative IPC: 1.11345 (Simulation time: 0 hr 21 min 14 sec) 
Heartbeat CPU 0 instructions: 275000000 cycles: 248539771 heartbeat IPC: 1.11035 cumulative IPC: 1.11344 (Simulation time: 0 hr 21 min 19 sec) 
Heartbeat CPU 0 instructions: 276000000 cycles: 249413015 heartbeat IPC: 1.14516 cumulative IPC: 1.11355 (Simulation time: 0 hr 21 min 24 sec) 
Heartbeat CPU 0 instructions: 277000002 cycles: 250292845 heartbeat IPC: 1.13659 cumulative IPC: 1.11364 (Simulation time: 0 hr 21 min 29 sec) 
Heartbeat CPU 0 instructions: 278000001 cycles: 251145485 heartbeat IPC: 1.17283 cumulative IPC: 1.11385 (Simulation time: 0 hr 21 min 34 sec) 
Heartbeat CPU 0 instructions: 279000001 cycles: 252008778 heartbeat IPC: 1.15836 cumulative IPC: 1.11401 (Simulation time: 0 hr 21 min 39 sec) 
Heartbeat CPU 0 instructions: 280000003 cycles: 252915661 heartbeat IPC: 1.10268 cumulative IPC: 1.11397 (Simulation time: 0 hr 21 min 44 sec) 
Heartbeat CPU 0 instructions: 281000003 cycles: 253799432 heartbeat IPC: 1.13151 cumulative IPC: 1.11403 (Simulation time: 0 hr 21 min 49 sec) 
Heartbeat CPU 0 instructions: 282000000 cycles: 254680728 heartbeat IPC: 1.13469 cumulative IPC: 1.1141 (Simulation time: 0 hr 21 min 54 sec) 
Heartbeat CPU 0 instructions: 283000001 cycles: 255571122 heartbeat IPC: 1.1231 cumulative IPC: 1.11414 (Simulation time: 0 hr 21 min 59 sec) 
Heartbeat CPU 0 instructions: 284000002 cycles: 256485953 heartbeat IPC: 1.0931 cumulative IPC: 1.11406 (Simulation time: 0 hr 22 min 4 sec) 
Heartbeat CPU 0 instructions: 285000000 cycles: 257427990 heartbeat IPC: 1.06153 cumulative IPC: 1.11386 (Simulation time: 0 hr 22 min 9 sec) 
Heartbeat CPU 0 instructions: 286000000 cycles: 258339796 heartbeat IPC: 1.09672 cumulative IPC: 1.11379 (Simulation time: 0 hr 22 min 14 sec) 
Heartbeat CPU 0 instructions: 287000000 cycles: 259311120 heartbeat IPC: 1.02952 cumulative IPC: 1.11347 (Simulation time: 0 hr 22 min 19 sec) 
Heartbeat CPU 0 instructions: 288000002 cycles: 260271843 heartbeat IPC: 1.04088 cumulative IPC: 1.11319 (Simulation time: 0 hr 22 min 24 sec) 
Heartbeat CPU 0 instructions: 289000003 cycles: 261219380 heartbeat IPC: 1.05537 cumulative IPC: 1.11297 (Simulation time: 0 hr 22 min 28 sec) 
Heartbeat CPU 0 instructions: 290000000 cycles: 262200768 heartbeat IPC: 1.01896 cumulative IPC: 1.1126 (Simulation time: 0 hr 22 min 33 sec) 
Heartbeat CPU 0 instructions: 291000000 cycles: 263157976 heartbeat IPC: 1.04471 cumulative IPC: 1.11234 (Simulation time: 0 hr 22 min 37 sec) 
Heartbeat CPU 0 instructions: 292000001 cycles: 264126467 heartbeat IPC: 1.03254 cumulative IPC: 1.11204 (Simulation time: 0 hr 22 min 42 sec) 
Heartbeat CPU 0 instructions: 293000000 cycles: 265116769 heartbeat IPC: 1.00979 cumulative IPC: 1.11164 (Simulation time: 0 hr 22 min 46 sec) 
Heartbeat CPU 0 instructions: 294000003 cycles: 266106702 heartbeat IPC: 1.01017 cumulative IPC: 1.11125 (Simulation time: 0 hr 22 min 51 sec) 
Heartbeat CPU 0 instructions: 295000002 cycles: 267091436 heartbeat IPC: 1.0155 cumulative IPC: 1.11088 (Simulation time: 0 hr 22 min 56 sec) 
Heartbeat CPU 0 instructions: 296000001 cycles: 268045288 heartbeat IPC: 1.04838 cumulative IPC: 1.11065 (Simulation time: 0 hr 23 min 0 sec) 
Heartbeat CPU 0 instructions: 297000000 cycles: 268988045 heartbeat IPC: 1.06072 cumulative IPC: 1.11047 (Simulation time: 0 hr 23 min 5 sec) 
Heartbeat CPU 0 instructions: 298000000 cycles: 269961894 heartbeat IPC: 1.02685 cumulative IPC: 1.11015 (Simulation time: 0 hr 23 min 9 sec) 
Heartbeat CPU 0 instructions: 299000002 cycles: 270937110 heartbeat IPC: 1.02542 cumulative IPC: 1.10984 (Simulation time: 0 hr 23 min 14 sec) 
Heartbeat CPU 0 instructions: 300000001 cycles: 271851819 heartbeat IPC: 1.09324 cumulative IPC: 1.10978 (Simulation time: 0 hr 23 min 18 sec) 
Heartbeat CPU 0 instructions: 301000001 cycles: 272823832 heartbeat IPC: 1.02879 cumulative IPC: 1.10948 (Simulation time: 0 hr 23 min 23 sec) 
Heartbeat CPU 0 instructions: 302000001 cycles: 273728884 heartbeat IPC: 1.10491 cumulative IPC: 1.10946 (Simulation time: 0 hr 23 min 27 sec) 
Heartbeat CPU 0 instructions: 303000000 cycles: 274663225 heartbeat IPC: 1.07027 cumulative IPC: 1.10932 (Simulation time: 0 hr 23 min 32 sec) 
Heartbeat CPU 0 instructions: 304000001 cycles: 275585696 heartbeat IPC: 1.08405 cumulative IPC: 1.10924 (Simulation time: 0 hr 23 min 36 sec) 
Heartbeat CPU 0 instructions: 305000003 cycles: 276521565 heartbeat IPC: 1.06853 cumulative IPC: 1.10909 (Simulation time: 0 hr 23 min 41 sec) 
Heartbeat CPU 0 instructions: 306000002 cycles: 277565346 heartbeat IPC: 0.958054 cumulative IPC: 1.1085 (Simulation time: 0 hr 23 min 46 sec) 
Heartbeat CPU 0 instructions: 307000000 cycles: 278623647 heartbeat IPC: 0.944909 cumulative IPC: 1.10786 (Simulation time: 0 hr 23 min 50 sec) 
Heartbeat CPU 0 instructions: 308000000 cycles: 279702823 heartbeat IPC: 0.926633 cumulative IPC: 1.10713 (Simulation time: 0 hr 23 min 54 sec) 
Heartbeat CPU 0 instructions: 309000000 cycles: 280781467 heartbeat IPC: 0.92709 cumulative IPC: 1.10641 (Simulation time: 0 hr 23 min 58 sec) 
Heartbeat CPU 0 instructions: 310000003 cycles: 281865837 heartbeat IPC: 0.922197 cumulative IPC: 1.10567 (Simulation time: 0 hr 24 min 3 sec) 
Heartbeat CPU 0 instructions: 311000001 cycles: 282872070 heartbeat IPC: 0.993804 cumulative IPC: 1.10526 (Simulation time: 0 hr 24 min 7 sec) 
Heartbeat CPU 0 instructions: 312000000 cycles: 283850307 heartbeat IPC: 1.02225 cumulative IPC: 1.10496 (Simulation time: 0 hr 24 min 11 sec) 
Heartbeat CPU 0 instructions: 313000000 cycles: 284766083 heartbeat IPC: 1.09197 cumulative IPC: 1.10492 (Simulation time: 0 hr 24 min 16 sec) 
Heartbeat CPU 0 instructions: 314000002 cycles: 285660257 heartbeat IPC: 1.11835 cumulative IPC: 1.10496 (Simulation time: 0 hr 24 min 20 sec) 
Heartbeat CPU 0 instructions: 315000001 cycles: 286565381 heartbeat IPC: 1.10482 cumulative IPC: 1.10496 (Simulation time: 0 hr 24 min 25 sec) 
Heartbeat CPU 0 instructions: 316000000 cycles: 287455726 heartbeat IPC: 1.12316 cumulative IPC: 1.10502 (Simulation time: 0 hr 24 min 29 sec) 
Heartbeat CPU 0 instructions: 317000000 cycles: 288325019 heartbeat IPC: 1.15036 cumulative IPC: 1.10516 (Simulation time: 0 hr 24 min 33 sec) 
Heartbeat CPU 0 instructions: 318000001 cycles: 289205232 heartbeat IPC: 1.13609 cumulative IPC: 1.10526 (Simulation time: 0 hr 24 min 38 sec) 
Heartbeat CPU 0 instructions: 319000000 cycles: 290119985 heartbeat IPC: 1.09319 cumulative IPC: 1.10522 (Simulation time: 0 hr 24 min 43 sec) 
Heartbeat CPU 0 instructions: 320000001 cycles: 291025894 heartbeat IPC: 1.10386 cumulative IPC: 1.10522 (Simulation time: 0 hr 24 min 47 sec) 
Heartbeat CPU 0 instructions: 321000000 cycles: 291907556 heartbeat IPC: 1.13422 cumulative IPC: 1.10531 (Simulation time: 0 hr 24 min 52 sec) 
Heartbeat CPU 0 instructions: 322000003 cycles: 292812811 heartbeat IPC: 1.10466 cumulative IPC: 1.10531 (Simulation time: 0 hr 24 min 57 sec) 
Heartbeat CPU 0 instructions: 323000001 cycles: 293717212 heartbeat IPC: 1.1057 cumulative IPC: 1.10531 (Simulation time: 0 hr 25 min 1 sec) 
Heartbeat CPU 0 instructions: 324000002 cycles: 294617280 heartbeat IPC: 1.11103 cumulative IPC: 1.10533 (Simulation time: 0 hr 25 min 6 sec) 
Heartbeat CPU 0 instructions: 325000003 cycles: 295528701 heartbeat IPC: 1.09719 cumulative IPC: 1.1053 (Simulation time: 0 hr 25 min 10 sec) 
Heartbeat CPU 0 instructions: 326000001 cycles: 296489421 heartbeat IPC: 1.04088 cumulative IPC: 1.10508 (Simulation time: 0 hr 25 min 15 sec) 
Heartbeat CPU 0 instructions: 327000001 cycles: 297410513 heartbeat IPC: 1.08567 cumulative IPC: 1.10502 (Simulation time: 0 hr 25 min 19 sec) 
Heartbeat CPU 0 instructions: 328000001 cycles: 298331556 heartbeat IPC: 1.08573 cumulative IPC: 1.10496 (Simulation time: 0 hr 25 min 24 sec) 
Heartbeat CPU 0 instructions: 329000002 cycles: 299271170 heartbeat IPC: 1.06427 cumulative IPC: 1.10483 (Simulation time: 0 hr 25 min 29 sec) 
Heartbeat CPU 0 instructions: 330000000 cycles: 300185238 heartbeat IPC: 1.09401 cumulative IPC: 1.10479 (Simulation time: 0 hr 25 min 33 sec) 
Heartbeat CPU 0 instructions: 331000001 cycles: 301183186 heartbeat IPC: 1.00206 cumulative IPC: 1.10444 (Simulation time: 0 hr 25 min 38 sec) 
Heartbeat CPU 0 instructions: 332000001 cycles: 302150185 heartbeat IPC: 1.03413 cumulative IPC: 1.10421 (Simulation time: 0 hr 25 min 43 sec) 
Heartbeat CPU 0 instructions: 333000000 cycles: 303072286 heartbeat IPC: 1.08448 cumulative IPC: 1.10415 (Simulation time: 0 hr 25 min 47 sec) 
Heartbeat CPU 0 instructions: 334000000 cycles: 304004893 heartbeat IPC: 1.07226 cumulative IPC: 1.10404 (Simulation time: 0 hr 25 min 52 sec) 
Heartbeat CPU 0 instructions: 335000002 cycles: 304942054 heartbeat IPC: 1.06705 cumulative IPC: 1.10393 (Simulation time: 0 hr 25 min 56 sec) 
Heartbeat CPU 0 instructions: 336000003 cycles: 305831333 heartbeat IPC: 1.12451 cumulative IPC: 1.10399 (Simulation time: 0 hr 26 min 1 sec) 
Heartbeat CPU 0 instructions: 337000001 cycles: 306717266 heartbeat IPC: 1.12875 cumulative IPC: 1.10406 (Simulation time: 0 hr 26 min 6 sec) 
Heartbeat CPU 0 instructions: 338000001 cycles: 307626080 heartbeat IPC: 1.10034 cumulative IPC: 1.10405 (Simulation time: 0 hr 26 min 10 sec) 
Heartbeat CPU 0 instructions: 339000001 cycles: 308516392 heartbeat IPC: 1.1232 cumulative IPC: 1.10411 (Simulation time: 0 hr 26 min 15 sec) 
Heartbeat CPU 0 instructions: 340000000 cycles: 309379005 heartbeat IPC: 1.15927 cumulative IPC: 1.10427 (Simulation time: 0 hr 26 min 19 sec) 
Heartbeat CPU 0 instructions: 341000000 cycles: 310272151 heartbeat IPC: 1.11964 cumulative IPC: 1.10431 (Simulation time: 0 hr 26 min 24 sec) 
Heartbeat CPU 0 instructions: 342000000 cycles: 311118214 heartbeat IPC: 1.18195 cumulative IPC: 1.10453 (Simulation time: 0 hr 26 min 29 sec) 
Heartbeat CPU 0 instructions: 343000001 cycles: 312033603 heartbeat IPC: 1.09243 cumulative IPC: 1.10449 (Simulation time: 0 hr 26 min 33 sec) 
Heartbeat CPU 0 instructions: 344000001 cycles: 312915445 heartbeat IPC: 1.13399 cumulative IPC: 1.10458 (Simulation time: 0 hr 26 min 38 sec) 
Heartbeat CPU 0 instructions: 345000001 cycles: 313895325 heartbeat IPC: 1.02053 cumulative IPC: 1.10431 (Simulation time: 0 hr 26 min 42 sec) 
Heartbeat CPU 0 instructions: 346000003 cycles: 314813804 heartbeat IPC: 1.08876 cumulative IPC: 1.10426 (Simulation time: 0 hr 26 min 46 sec) 
Heartbeat CPU 0 instructions: 347000001 cycles: 315711069 heartbeat IPC: 1.1145 cumulative IPC: 1.10429 (Simulation time: 0 hr 26 min 50 sec) 
Heartbeat CPU 0 instructions: 348000002 cycles: 316647545 heartbeat IPC: 1.06783 cumulative IPC: 1.10418 (Simulation time: 0 hr 26 min 55 sec) 
Heartbeat CPU 0 instructions: 349000003 cycles: 317544773 heartbeat IPC: 1.11454 cumulative IPC: 1.10421 (Simulation time: 0 hr 26 min 59 sec) 
Heartbeat CPU 0 instructions: 350000003 cycles: 318425150 heartbeat IPC: 1.13588 cumulative IPC: 1.1043 (Simulation time: 0 hr 27 min 3 sec) 
Heartbeat CPU 0 instructions: 351000000 cycles: 319319846 heartbeat IPC: 1.11769 cumulative IPC: 1.10434 (Simulation time: 0 hr 27 min 8 sec) 
Heartbeat CPU 0 instructions: 352000000 cycles: 320204317 heartbeat IPC: 1.13062 cumulative IPC: 1.10442 (Simulation time: 0 hr 27 min 13 sec) 
Heartbeat CPU 0 instructions: 353000000 cycles: 321082421 heartbeat IPC: 1.13882 cumulative IPC: 1.10451 (Simulation time: 0 hr 27 min 17 sec) 
Heartbeat CPU 0 instructions: 354000001 cycles: 321915672 heartbeat IPC: 1.20012 cumulative IPC: 1.10477 (Simulation time: 0 hr 27 min 22 sec) 
Heartbeat CPU 0 instructions: 355000000 cycles: 322833451 heartbeat IPC: 1.08959 cumulative IPC: 1.10472 (Simulation time: 0 hr 27 min 26 sec) 
Heartbeat CPU 0 instructions: 356000002 cycles: 323695532 heartbeat IPC: 1.15999 cumulative IPC: 1.10488 (Simulation time: 0 hr 27 min 31 sec) 
Heartbeat CPU 0 instructions: 357000002 cycles: 324597077 heartbeat IPC: 1.10921 cumulative IPC: 1.10489 (Simulation time: 0 hr 27 min 35 sec) 
Heartbeat CPU 0 instructions: 358000002 cycles: 325445908 heartbeat IPC: 1.17809 cumulative IPC: 1.10509 (Simulation time: 0 hr 27 min 40 sec) 
Heartbeat CPU 0 instructions: 359000001 cycles: 326362701 heartbeat IPC: 1.09076 cumulative IPC: 1.10504 (Simulation time: 0 hr 27 min 44 sec) 
Heartbeat CPU 0 instructions: 360000000 cycles: 327276773 heartbeat IPC: 1.094 cumulative IPC: 1.10501 (Simulation time: 0 hr 27 min 49 sec) 
Heartbeat CPU 0 instructions: 361000001 cycles: 328156832 heartbeat IPC: 1.13629 cumulative IPC: 1.1051 (Simulation time: 0 hr 27 min 53 sec) 
Heartbeat CPU 0 instructions: 362000000 cycles: 329056666 heartbeat IPC: 1.11132 cumulative IPC: 1.10512 (Simulation time: 0 hr 27 min 58 sec) 
Heartbeat CPU 0 instructions: 363000000 cycles: 329915417 heartbeat IPC: 1.16448 cumulative IPC: 1.10528 (Simulation time: 0 hr 28 min 3 sec) 
Heartbeat CPU 0 instructions: 364000003 cycles: 330792979 heartbeat IPC: 1.13952 cumulative IPC: 1.10537 (Simulation time: 0 hr 28 min 7 sec) 
Heartbeat CPU 0 instructions: 365000000 cycles: 331686329 heartbeat IPC: 1.11938 cumulative IPC: 1.10541 (Simulation time: 0 hr 28 min 11 sec) 
Heartbeat CPU 0 instructions: 366000000 cycles: 332586575 heartbeat IPC: 1.11081 cumulative IPC: 1.10542 (Simulation time: 0 hr 28 min 16 sec) 
Heartbeat CPU 0 instructions: 367000000 cycles: 333517378 heartbeat IPC: 1.07434 cumulative IPC: 1.10533 (Simulation time: 0 hr 28 min 20 sec) 
Heartbeat CPU 0 instructions: 368000001 cycles: 334416506 heartbeat IPC: 1.11219 cumulative IPC: 1.10535 (Simulation time: 0 hr 28 min 25 sec) 
Heartbeat CPU 0 instructions: 369000002 cycles: 335368272 heartbeat IPC: 1.05068 cumulative IPC: 1.10519 (Simulation time: 0 hr 28 min 29 sec) 
Heartbeat CPU 0 instructions: 370000003 cycles: 336282692 heartbeat IPC: 1.09359 cumulative IPC: 1.10516 (Simulation time: 0 hr 28 min 34 sec) 
Heartbeat CPU 0 instructions: 371000000 cycles: 337199460 heartbeat IPC: 1.09079 cumulative IPC: 1.10512 (Simulation time: 0 hr 28 min 38 sec) 
Heartbeat CPU 0 instructions: 372000000 cycles: 338095531 heartbeat IPC: 1.11598 cumulative IPC: 1.10515 (Simulation time: 0 hr 28 min 43 sec) 
Heartbeat CPU 0 instructions: 373000001 cycles: 339021935 heartbeat IPC: 1.07944 cumulative IPC: 1.10508 (Simulation time: 0 hr 28 min 48 sec) 
Heartbeat CPU 0 instructions: 374000000 cycles: 339929804 heartbeat IPC: 1.10148 cumulative IPC: 1.10507 (Simulation time: 0 hr 28 min 53 sec) 
Heartbeat CPU 0 instructions: 375000000 cycles: 340784112 heartbeat IPC: 1.17054 cumulative IPC: 1.10524 (Simulation time: 0 hr 28 min 58 sec) 
Heartbeat CPU 0 instructions: 376000001 cycles: 341690268 heartbeat IPC: 1.10356 cumulative IPC: 1.10523 (Simulation time: 0 hr 29 min 2 sec) 
Heartbeat CPU 0 instructions: 377000000 cycles: 342562108 heartbeat IPC: 1.147 cumulative IPC: 1.10534 (Simulation time: 0 hr 29 min 7 sec) 
Heartbeat CPU 0 instructions: 378000000 cycles: 343472005 heartbeat IPC: 1.09903 cumulative IPC: 1.10532 (Simulation time: 0 hr 29 min 12 sec) 
Heartbeat CPU 0 instructions: 379000002 cycles: 344370342 heartbeat IPC: 1.11317 cumulative IPC: 1.10535 (Simulation time: 0 hr 29 min 17 sec) 
Heartbeat CPU 0 instructions: 380000003 cycles: 345275961 heartbeat IPC: 1.10422 cumulative IPC: 1.10534 (Simulation time: 0 hr 29 min 22 sec) 
Heartbeat CPU 0 instructions: 381000000 cycles: 346150190 heartbeat IPC: 1.14386 cumulative IPC: 1.10544 (Simulation time: 0 hr 29 min 26 sec) 
Heartbeat CPU 0 instructions: 382000002 cycles: 347010150 heartbeat IPC: 1.16285 cumulative IPC: 1.10559 (Simulation time: 0 hr 29 min 31 sec) 
Heartbeat CPU 0 instructions: 383000002 cycles: 347924889 heartbeat IPC: 1.09321 cumulative IPC: 1.10556 (Simulation time: 0 hr 29 min 35 sec) 
Heartbeat CPU 0 instructions: 384000000 cycles: 348795659 heartbeat IPC: 1.14841 cumulative IPC: 1.10567 (Simulation time: 0 hr 29 min 39 sec) 
Heartbeat CPU 0 instructions: 385000000 cycles: 349694798 heartbeat IPC: 1.11218 cumulative IPC: 1.10568 (Simulation time: 0 hr 29 min 44 sec) 
Heartbeat CPU 0 instructions: 386000001 cycles: 350536494 heartbeat IPC: 1.18808 cumulative IPC: 1.10589 (Simulation time: 0 hr 29 min 48 sec) 
Heartbeat CPU 0 instructions: 387000001 cycles: 351456925 heartbeat IPC: 1.08645 cumulative IPC: 1.10584 (Simulation time: 0 hr 29 min 53 sec) 
Heartbeat CPU 0 instructions: 388000002 cycles: 352387511 heartbeat IPC: 1.07459 cumulative IPC: 1.10575 (Simulation time: 0 hr 29 min 58 sec) 
Heartbeat CPU 0 instructions: 389000000 cycles: 353349068 heartbeat IPC: 1.03998 cumulative IPC: 1.10557 (Simulation time: 0 hr 30 min 2 sec) 
Heartbeat CPU 0 instructions: 390000001 cycles: 354320551 heartbeat IPC: 1.02936 cumulative IPC: 1.10535 (Simulation time: 0 hr 30 min 7 sec) 
Heartbeat CPU 0 instructions: 391000000 cycles: 355341289 heartbeat IPC: 0.979682 cumulative IPC: 1.10498 (Simulation time: 0 hr 30 min 11 sec) 
Heartbeat CPU 0 instructions: 392000003 cycles: 356325318 heartbeat IPC: 1.01623 cumulative IPC: 1.10473 (Simulation time: 0 hr 30 min 16 sec) 
Heartbeat CPU 0 instructions: 393000002 cycles: 357276669 heartbeat IPC: 1.05114 cumulative IPC: 1.10458 (Simulation time: 0 hr 30 min 20 sec) 
Heartbeat CPU 0 instructions: 394000001 cycles: 358286114 heartbeat IPC: 0.990642 cumulative IPC: 1.10425 (Simulation time: 0 hr 30 min 25 sec) 
Heartbeat CPU 0 instructions: 395000001 cycles: 359287270 heartbeat IPC: 0.998845 cumulative IPC: 1.10395 (Simulation time: 0 hr 30 min 29 sec) 
Heartbeat CPU 0 instructions: 396000000 cycles: 360298723 heartbeat IPC: 0.988676 cumulative IPC: 1.10361 (Simulation time: 0 hr 30 min 34 sec) 
Heartbeat CPU 0 instructions: 397000003 cycles: 361291858 heartbeat IPC: 1.00692 cumulative IPC: 1.10334 (Simulation time: 0 hr 30 min 38 sec) 
Heartbeat CPU 0 instructions: 398000000 cycles: 362251967 heartbeat IPC: 1.04155 cumulative IPC: 1.10317 (Simulation time: 0 hr 30 min 43 sec) 
Heartbeat CPU 0 instructions: 399000000 cycles: 363225708 heartbeat IPC: 1.02697 cumulative IPC: 1.10296 (Simulation time: 0 hr 30 min 47 sec) 
Heartbeat CPU 0 instructions: 400000002 cycles: 364174566 heartbeat IPC: 1.0539 cumulative IPC: 1.10283 (Simulation time: 0 hr 30 min 52 sec) 
Heartbeat CPU 0 instructions: 401000000 cycles: 365160821 heartbeat IPC: 1.01393 cumulative IPC: 1.10258 (Simulation time: 0 hr 30 min 57 sec) 
Heartbeat CPU 0 instructions: 402000001 cycles: 366159285 heartbeat IPC: 1.00154 cumulative IPC: 1.1023 (Simulation time: 0 hr 31 min 2 sec) 
Heartbeat CPU 0 instructions: 403000002 cycles: 367142927 heartbeat IPC: 1.01663 cumulative IPC: 1.10206 (Simulation time: 0 hr 31 min 6 sec) 
Heartbeat CPU 0 instructions: 404000001 cycles: 368136731 heartbeat IPC: 1.00623 cumulative IPC: 1.10179 (Simulation time: 0 hr 31 min 11 sec) 
Heartbeat CPU 0 instructions: 405000003 cycles: 369130221 heartbeat IPC: 1.00655 cumulative IPC: 1.10153 (Simulation time: 0 hr 31 min 15 sec) 
Heartbeat CPU 0 instructions: 406000000 cycles: 370148689 heartbeat IPC: 0.981864 cumulative IPC: 1.10119 (Simulation time: 0 hr 31 min 20 sec) 
Heartbeat CPU 0 instructions: 407000000 cycles: 371272974 heartbeat IPC: 0.889454 cumulative IPC: 1.10053 (Simulation time: 0 hr 31 min 24 sec) 
Heartbeat CPU 0 instructions: 408000003 cycles: 372414651 heartbeat IPC: 0.875907 cumulative IPC: 1.09982 (Simulation time: 0 hr 31 min 29 sec) 
Heartbeat CPU 0 instructions: 409000002 cycles: 373526871 heartbeat IPC: 0.899102 cumulative IPC: 1.09921 (Simulation time: 0 hr 31 min 33 sec) 
Heartbeat CPU 0 instructions: 410000001 cycles: 374638627 heartbeat IPC: 0.899477 cumulative IPC: 1.0986 (Simulation time: 0 hr 31 min 38 sec) 
Heartbeat CPU 0 instructions: 411000003 cycles: 375713086 heartbeat IPC: 0.930703 cumulative IPC: 1.0981 (Simulation time: 0 hr 31 min 42 sec) 
Heartbeat CPU 0 instructions: 412000001 cycles: 376750778 heartbeat IPC: 0.963675 cumulative IPC: 1.09772 (Simulation time: 0 hr 31 min 47 sec) 
Heartbeat CPU 0 instructions: 413000001 cycles: 377764813 heartbeat IPC: 0.986159 cumulative IPC: 1.09742 (Simulation time: 0 hr 31 min 51 sec) 
Heartbeat CPU 0 instructions: 414000001 cycles: 378740486 heartbeat IPC: 1.02493 cumulative IPC: 1.09722 (Simulation time: 0 hr 31 min 55 sec) 
Heartbeat CPU 0 instructions: 415000000 cycles: 379755173 heartbeat IPC: 0.985525 cumulative IPC: 1.09692 (Simulation time: 0 hr 31 min 59 sec) 
Heartbeat CPU 0 instructions: 416000003 cycles: 380762973 heartbeat IPC: 0.992263 cumulative IPC: 1.09663 (Simulation time: 0 hr 32 min 4 sec) 
Heartbeat CPU 0 instructions: 417000000 cycles: 381873910 heartbeat IPC: 0.900138 cumulative IPC: 1.09604 (Simulation time: 0 hr 32 min 9 sec) 
Heartbeat CPU 0 instructions: 418000000 cycles: 382993343 heartbeat IPC: 0.893309 cumulative IPC: 1.09543 (Simulation time: 0 hr 32 min 13 sec) 
Heartbeat CPU 0 instructions: 419000001 cycles: 384151555 heartbeat IPC: 0.863401 cumulative IPC: 1.09471 (Simulation time: 0 hr 32 min 17 sec) 
Heartbeat CPU 0 instructions: 420000003 cycles: 385269689 heartbeat IPC: 0.894349 cumulative IPC: 1.09412 (Simulation time: 0 hr 32 min 22 sec) 
Heartbeat CPU 0 instructions: 421000001 cycles: 386395312 heartbeat IPC: 0.888395 cumulative IPC: 1.0935 (Simulation time: 0 hr 32 min 26 sec) 
Heartbeat CPU 0 instructions: 422000002 cycles: 387537479 heartbeat IPC: 0.87553 cumulative IPC: 1.09284 (Simulation time: 0 hr 32 min 30 sec) 
Heartbeat CPU 0 instructions: 423000000 cycles: 388624975 heartbeat IPC: 0.919542 cumulative IPC: 1.09234 (Simulation time: 0 hr 32 min 35 sec) 
Heartbeat CPU 0 instructions: 424000000 cycles: 389727966 heartbeat IPC: 0.906626 cumulative IPC: 1.0918 (Simulation time: 0 hr 32 min 39 sec) 
Heartbeat CPU 0 instructions: 425000003 cycles: 390960885 heartbeat IPC: 0.811086 cumulative IPC: 1.09089 (Simulation time: 0 hr 32 min 44 sec) 
Heartbeat CPU 0 instructions: 426000001 cycles: 392225889 heartbeat IPC: 0.79051 cumulative IPC: 1.0899 (Simulation time: 0 hr 32 min 49 sec) 
Heartbeat CPU 0 instructions: 427000001 cycles: 393464770 heartbeat IPC: 0.80718 cumulative IPC: 1.08898 (Simulation time: 0 hr 32 min 53 sec) 
Heartbeat CPU 0 instructions: 428000002 cycles: 394629555 heartbeat IPC: 0.858528 cumulative IPC: 1.08828 (Simulation time: 0 hr 32 min 58 sec) 
Heartbeat CPU 0 instructions: 429000000 cycles: 395774046 heartbeat IPC: 0.873749 cumulative IPC: 1.08765 (Simulation time: 0 hr 33 min 2 sec) 
Heartbeat CPU 0 instructions: 430000001 cycles: 396882803 heartbeat IPC: 0.901912 cumulative IPC: 1.08711 (Simulation time: 0 hr 33 min 7 sec) 
Heartbeat CPU 0 instructions: 431000001 cycles: 398001819 heartbeat IPC: 0.893642 cumulative IPC: 1.08655 (Simulation time: 0 hr 33 min 11 sec) 
Heartbeat CPU 0 instructions: 432000001 cycles: 399172228 heartbeat IPC: 0.854402 cumulative IPC: 1.08585 (Simulation time: 0 hr 33 min 16 sec) 
Heartbeat CPU 0 instructions: 433000000 cycles: 400296636 heartbeat IPC: 0.889356 cumulative IPC: 1.08529 (Simulation time: 0 hr 33 min 20 sec) 
Heartbeat CPU 0 instructions: 434000003 cycles: 401394611 heartbeat IPC: 0.91077 cumulative IPC: 1.0848 (Simulation time: 0 hr 33 min 25 sec) 
Heartbeat CPU 0 instructions: 435000001 cycles: 402501380 heartbeat IPC: 0.903529 cumulative IPC: 1.08429 (Simulation time: 0 hr 33 min 30 sec) 
Heartbeat CPU 0 instructions: 436000000 cycles: 403560191 heartbeat IPC: 0.944455 cumulative IPC: 1.08391 (Simulation time: 0 hr 33 min 34 sec) 
Heartbeat CPU 0 instructions: 437000003 cycles: 404667861 heartbeat IPC: 0.902799 cumulative IPC: 1.0834 (Simulation time: 0 hr 33 min 38 sec) 
Heartbeat CPU 0 instructions: 438000001 cycles: 405775926 heartbeat IPC: 0.902472 cumulative IPC: 1.08289 (Simulation time: 0 hr 33 min 43 sec) 
Heartbeat CPU 0 instructions: 439000003 cycles: 406877874 heartbeat IPC: 0.907486 cumulative IPC: 1.08241 (Simulation time: 0 hr 33 min 48 sec) 
Heartbeat CPU 0 instructions: 440000000 cycles: 408071649 heartbeat IPC: 0.837676 cumulative IPC: 1.08167 (Simulation time: 0 hr 33 min 53 sec) 
Heartbeat CPU 0 instructions: 441000003 cycles: 409290141 heartbeat IPC: 0.820689 cumulative IPC: 1.08087 (Simulation time: 0 hr 33 min 57 sec) 
Heartbeat CPU 0 instructions: 442000003 cycles: 410597903 heartbeat IPC: 0.764665 cumulative IPC: 1.07984 (Simulation time: 0 hr 34 min 1 sec) 
Heartbeat CPU 0 instructions: 443000003 cycles: 411907797 heartbeat IPC: 0.763421 cumulative IPC: 1.07881 (Simulation time: 0 hr 34 min 6 sec) 
Heartbeat CPU 0 instructions: 444000002 cycles: 413215687 heartbeat IPC: 0.76459 cumulative IPC: 1.07779 (Simulation time: 0 hr 34 min 10 sec) 
Heartbeat CPU 0 instructions: 445000001 cycles: 414456440 heartbeat IPC: 0.805961 cumulative IPC: 1.07695 (Simulation time: 0 hr 34 min 14 sec) 
Heartbeat CPU 0 instructions: 446000000 cycles: 415668777 heartbeat IPC: 0.824852 cumulative IPC: 1.0762 (Simulation time: 0 hr 34 min 19 sec) 
Heartbeat CPU 0 instructions: 447000000 cycles: 416847298 heartbeat IPC: 0.848521 cumulative IPC: 1.07554 (Simulation time: 0 hr 34 min 23 sec) 
Heartbeat CPU 0 instructions: 448000003 cycles: 418007060 heartbeat IPC: 0.862248 cumulative IPC: 1.07493 (Simulation time: 0 hr 34 min 28 sec) 
Heartbeat CPU 0 instructions: 449000000 cycles: 419138428 heartbeat IPC: 0.883883 cumulative IPC: 1.0744 (Simulation time: 0 hr 34 min 32 sec) 
Heartbeat CPU 0 instructions: 450000001 cycles: 420257753 heartbeat IPC: 0.893396 cumulative IPC: 1.07391 (Simulation time: 0 hr 34 min 37 sec) 
Heartbeat CPU 0 instructions: 451000000 cycles: 421367055 heartbeat IPC: 0.901467 cumulative IPC: 1.07344 (Simulation time: 0 hr 34 min 41 sec) 
Heartbeat CPU 0 instructions: 452000002 cycles: 422462196 heartbeat IPC: 0.913126 cumulative IPC: 1.07301 (Simulation time: 0 hr 34 min 46 sec) 
Heartbeat CPU 0 instructions: 453000002 cycles: 423633146 heartbeat IPC: 0.854007 cumulative IPC: 1.07239 (Simulation time: 0 hr 34 min 50 sec) 
Heartbeat CPU 0 instructions: 454000000 cycles: 424695580 heartbeat IPC: 0.941233 cumulative IPC: 1.07206 (Simulation time: 0 hr 34 min 55 sec) 
Heartbeat CPU 0 instructions: 455000000 cycles: 425763439 heartbeat IPC: 0.936453 cumulative IPC: 1.07171 (Simulation time: 0 hr 34 min 59 sec) 
Heartbeat CPU 0 instructions: 456000000 cycles: 426837950 heartbeat IPC: 0.930656 cumulative IPC: 1.07134 (Simulation time: 0 hr 35 min 4 sec) 
Heartbeat CPU 0 instructions: 457000001 cycles: 427926132 heartbeat IPC: 0.918965 cumulative IPC: 1.07095 (Simulation time: 0 hr 35 min 9 sec) 
Heartbeat CPU 0 instructions: 458000000 cycles: 428987523 heartbeat IPC: 0.942159 cumulative IPC: 1.07062 (Simulation time: 0 hr 35 min 13 sec) 
Heartbeat CPU 0 instructions: 459000002 cycles: 429993798 heartbeat IPC: 0.993766 cumulative IPC: 1.07044 (Simulation time: 0 hr 35 min 18 sec) 
Heartbeat CPU 0 instructions: 460000000 cycles: 430980447 heartbeat IPC: 1.01353 cumulative IPC: 1.0703 (Simulation time: 0 hr 35 min 22 sec) 
Heartbeat CPU 0 instructions: 461000003 cycles: 431979158 heartbeat IPC: 1.00129 cumulative IPC: 1.07014 (Simulation time: 0 hr 35 min 27 sec) 
Heartbeat CPU 0 instructions: 462000000 cycles: 432953771 heartbeat IPC: 1.02605 cumulative IPC: 1.07004 (Simulation time: 0 hr 35 min 31 sec) 
Heartbeat CPU 0 instructions: 463000001 cycles: 433940520 heartbeat IPC: 1.01343 cumulative IPC: 1.0699 (Simulation time: 0 hr 35 min 36 sec) 
Heartbeat CPU 0 instructions: 464000003 cycles: 434934553 heartbeat IPC: 1.006 cumulative IPC: 1.06975 (Simulation time: 0 hr 35 min 40 sec) 
Heartbeat CPU 0 instructions: 465000001 cycles: 435905844 heartbeat IPC: 1.02956 cumulative IPC: 1.06966 (Simulation time: 0 hr 35 min 45 sec) 
Heartbeat CPU 0 instructions: 466000002 cycles: 436856288 heartbeat IPC: 1.05214 cumulative IPC: 1.06962 (Simulation time: 0 hr 35 min 49 sec) 
Heartbeat CPU 0 instructions: 467000001 cycles: 437854295 heartbeat IPC: 1.002 cumulative IPC: 1.06947 (Simulation time: 0 hr 35 min 54 sec) 
Heartbeat CPU 0 instructions: 468000000 cycles: 438830241 heartbeat IPC: 1.02465 cumulative IPC: 1.06936 (Simulation time: 0 hr 35 min 59 sec) 
Heartbeat CPU 0 instructions: 469000003 cycles: 439860174 heartbeat IPC: 0.97094 cumulative IPC: 1.06913 (Simulation time: 0 hr 36 min 4 sec) 
Heartbeat CPU 0 instructions: 470000001 cycles: 440829861 heartbeat IPC: 1.03126 cumulative IPC: 1.06904 (Simulation time: 0 hr 36 min 8 sec) 
Heartbeat CPU 0 instructions: 471000002 cycles: 441839084 heartbeat IPC: 0.990862 cumulative IPC: 1.06886 (Simulation time: 0 hr 36 min 13 sec) 
Heartbeat CPU 0 instructions: 472000002 cycles: 442825101 heartbeat IPC: 1.01418 cumulative IPC: 1.06873 (Simulation time: 0 hr 36 min 18 sec) 
Heartbeat CPU 0 instructions: 473000000 cycles: 443805911 heartbeat IPC: 1.01956 cumulative IPC: 1.06862 (Simulation time: 0 hr 36 min 22 sec) 
Heartbeat CPU 0 instructions: 474000003 cycles: 444813078 heartbeat IPC: 0.992887 cumulative IPC: 1.06845 (Simulation time: 0 hr 36 min 27 sec) 
Heartbeat CPU 0 instructions: 475000002 cycles: 445861047 heartbeat IPC: 0.954226 cumulative IPC: 1.06817 (Simulation time: 0 hr 36 min 32 sec) 
Heartbeat CPU 0 instructions: 476000000 cycles: 447002795 heartbeat IPC: 0.875848 cumulative IPC: 1.06767 (Simulation time: 0 hr 36 min 37 sec) 
Heartbeat CPU 0 instructions: 477000003 cycles: 448108358 heartbeat IPC: 0.904519 cumulative IPC: 1.06726 (Simulation time: 0 hr 36 min 41 sec) 
Heartbeat CPU 0 instructions: 478000003 cycles: 449257900 heartbeat IPC: 0.869912 cumulative IPC: 1.06674 (Simulation time: 0 hr 36 min 46 sec) 
Heartbeat CPU 0 instructions: 479000003 cycles: 450356540 heartbeat IPC: 0.910216 cumulative IPC: 1.06635 (Simulation time: 0 hr 36 min 50 sec) 
Heartbeat CPU 0 instructions: 480000003 cycles: 451467928 heartbeat IPC: 0.899776 cumulative IPC: 1.06593 (Simulation time: 0 hr 36 min 55 sec) 
Heartbeat CPU 0 instructions: 481000001 cycles: 452595141 heartbeat IPC: 0.887142 cumulative IPC: 1.06547 (Simulation time: 0 hr 36 min 59 sec) 
Heartbeat CPU 0 instructions: 482000001 cycles: 453704332 heartbeat IPC: 0.901558 cumulative IPC: 1.06506 (Simulation time: 0 hr 37 min 4 sec) 
Heartbeat CPU 0 instructions: 483000000 cycles: 454789671 heartbeat IPC: 0.92137 cumulative IPC: 1.06471 (Simulation time: 0 hr 37 min 8 sec) 
Heartbeat CPU 0 instructions: 484000000 cycles: 455881480 heartbeat IPC: 0.915911 cumulative IPC: 1.06435 (Simulation time: 0 hr 37 min 12 sec) 
Heartbeat CPU 0 instructions: 485000002 cycles: 456925383 heartbeat IPC: 0.957945 cumulative IPC: 1.0641 (Simulation time: 0 hr 37 min 17 sec) 
Heartbeat CPU 0 instructions: 486000002 cycles: 457990821 heartbeat IPC: 0.938581 cumulative IPC: 1.0638 (Simulation time: 0 hr 37 min 21 sec) 
Heartbeat CPU 0 instructions: 487000001 cycles: 459003492 heartbeat IPC: 0.987487 cumulative IPC: 1.06363 (Simulation time: 0 hr 37 min 26 sec) 
Heartbeat CPU 0 instructions: 488000000 cycles: 459989588 heartbeat IPC: 1.0141 cumulative IPC: 1.06352 (Simulation time: 0 hr 37 min 30 sec) 
Heartbeat CPU 0 instructions: 489000002 cycles: 461053006 heartbeat IPC: 0.940366 cumulative IPC: 1.06323 (Simulation time: 0 hr 37 min 35 sec) 
Heartbeat CPU 0 instructions: 490000002 cycles: 462085242 heartbeat IPC: 0.968771 cumulative IPC: 1.06301 (Simulation time: 0 hr 37 min 39 sec) 
Heartbeat CPU 0 instructions: 491000002 cycles: 463131175 heartbeat IPC: 0.956084 cumulative IPC: 1.06277 (Simulation time: 0 hr 37 min 44 sec) 
Heartbeat CPU 0 instructions: 492000000 cycles: 464244498 heartbeat IPC: 0.89821 cumulative IPC: 1.06236 (Simulation time: 0 hr 37 min 48 sec) 
Heartbeat CPU 0 instructions: 493000000 cycles: 465405386 heartbeat IPC: 0.86141 cumulative IPC: 1.06185 (Simulation time: 0 hr 37 min 53 sec) 
Heartbeat CPU 0 instructions: 494000001 cycles: 466596194 heartbeat IPC: 0.839767 cumulative IPC: 1.06127 (Simulation time: 0 hr 37 min 57 sec) 
Heartbeat CPU 0 instructions: 495000000 cycles: 467857350 heartbeat IPC: 0.792922 cumulative IPC: 1.06053 (Simulation time: 0 hr 38 min 2 sec) 
Heartbeat CPU 0 instructions: 496000002 cycles: 469102583 heartbeat IPC: 0.803064 cumulative IPC: 1.05983 (Simulation time: 0 hr 38 min 7 sec) 
Heartbeat CPU 0 instructions: 497000000 cycles: 470341981 heartbeat IPC: 0.806842 cumulative IPC: 1.05915 (Simulation time: 0 hr 38 min 11 sec) 
Heartbeat CPU 0 instructions: 498000000 cycles: 471580425 heartbeat IPC: 0.807465 cumulative IPC: 1.05847 (Simulation time: 0 hr 38 min 16 sec) 
Heartbeat CPU 0 instructions: 499000000 cycles: 472817362 heartbeat IPC: 0.808449 cumulative IPC: 1.0578 (Simulation time: 0 hr 38 min 20 sec) 
Heartbeat CPU 0 instructions: 500000002 cycles: 474137982 heartbeat IPC: 0.757222 cumulative IPC: 1.05695 (Simulation time: 0 hr 38 min 25 sec) 
Heartbeat CPU 0 instructions: 501000001 cycles: 475483747 heartbeat IPC: 0.743071 cumulative IPC: 1.05604 (Simulation time: 0 hr 38 min 29 sec) 
Heartbeat CPU 0 instructions: 502000002 cycles: 476782753 heartbeat IPC: 0.76982 cumulative IPC: 1.05524 (Simulation time: 0 hr 38 min 33 sec) 
Heartbeat CPU 0 instructions: 503000001 cycles: 478045490 heartbeat IPC: 0.79193 cumulative IPC: 1.05453 (Simulation time: 0 hr 38 min 38 sec) 
Heartbeat CPU 0 instructions: 504000000 cycles: 479231725 heartbeat IPC: 0.843002 cumulative IPC: 1.05399 (Simulation time: 0 hr 38 min 42 sec) 
Heartbeat CPU 0 instructions: 505000000 cycles: 480381096 heartbeat IPC: 0.870041 cumulative IPC: 1.05354 (Simulation time: 0 hr 38 min 47 sec) 
Heartbeat CPU 0 instructions: 506000000 cycles: 481483769 heartbeat IPC: 0.906887 cumulative IPC: 1.0532 (Simulation time: 0 hr 38 min 51 sec) 
Heartbeat CPU 0 instructions: 507000001 cycles: 482594180 heartbeat IPC: 0.900568 cumulative IPC: 1.05284 (Simulation time: 0 hr 38 min 56 sec) 
Heartbeat CPU 0 instructions: 508000003 cycles: 483732504 heartbeat IPC: 0.878486 cumulative IPC: 1.05242 (Simulation time: 0 hr 39 min 0 sec) 
Heartbeat CPU 0 instructions: 509000001 cycles: 484835108 heartbeat IPC: 0.906942 cumulative IPC: 1.05208 (Simulation time: 0 hr 39 min 5 sec) 
Heartbeat CPU 0 instructions: 510000000 cycles: 485946831 heartbeat IPC: 0.899504 cumulative IPC: 1.05173 (Simulation time: 0 hr 39 min 10 sec) 
Finished CPU 0 instructions: 500000001 cycles: 475408568 cumulative IPC: 1.05173 (Simulation time: 0 hr 39 min 10 sec) 

ChampSim completed all CPUs

Region of Interest Statistics

CPU 0 cumulative IPC: 1.05173 instructions: 500000001 cycles: 475408568
L1D TOTAL     ACCESS:  139140736  HIT:  136692387  MISS:    2448349
L1D LOAD      ACCESS:   88862457  HIT:   86814541  MISS:    2047916
L1D RFO       ACCESS:   50278279  HIT:   49877846  MISS:     400433
L1D PREFETCH  ACCESS:          0  HIT:          0  MISS:          0
L1D WRITEBACK ACCESS:          0  HIT:          0  MISS:          0
L1D PREFETCH  REQUESTED:          0  ISSUED:          0  USEFUL:          0  USELESS:          0  UAC CORRECT:          0
L1D AVERAGE MISS LATENCY: 95.4284 cycles
L1I TOTAL     ACCESS:   93783445  HIT:   93783359  MISS:         86
L1I LOAD      ACCESS:   93783445  HIT:   93783359  MISS:         86
L1I RFO       ACCESS:          0  HIT:          0  MISS:          0
L1I PREFETCH  ACCESS:          0  HIT:          0  MISS:          0
L1I WRITEBACK ACCESS:          0  HIT:          0  MISS:          0
L1I PREFETCH  REQUESTED:          0  ISSUED:          0  USEFUL:          0  USELESS:          0  UAC CORRECT:          0
L1I AVERAGE MISS LATENCY: 234.581 cycles
L2C TOTAL     ACCESS:    3582015  HIT:    2544374  MISS:    1037641
L2C LOAD      ACCESS:    2047951  HIT:    1325991  MISS:     721960
L2C RFO       ACCESS:     400425  HIT:      84780  MISS:     315645
L2C PREFETCH  ACCESS:          0  HIT:          0  MISS:          0
L2C WRITEBACK ACCESS:    1133639  HIT:    1133603  MISS:         36
L2C PREFETCH  REQUESTED:          0  ISSUED:          0  USEFUL:          0  USELESS:          0  UAC CORRECT:          0
L2C AVERAGE MISS LATENCY: 190.085 cycles
LLC TOTAL     ACCESS:    1799276  HIT:     944911  MISS:     854365
LLC LOAD      ACCESS:     721957  HIT:     131417  MISS:     590540
LLC RFO       ACCESS:     315645  HIT:      51843  MISS:     263802
LLC PREFETCH  ACCESS:          0  HIT:          0  MISS:          0
LLC WRITEBACK ACCESS:     761674  HIT:     761651  MISS:         23
LLC PREFETCH  REQUESTED:          0  ISSUED:          0  USEFUL:          0  USELESS:          0  UAC CORRECT:          0
LLC AVERAGE MISS LATENCY: 193.035 cycles
Major fault: 0 Minor fault: 5713

DRAM Statistics
 CHANNEL 0
 RQ ROW_BUFFER_HIT:     188752  ROW_BUFFER_MISS:     232988
 DBUS_CONGESTED:     107115
 WQ ROW_BUFFER_HIT:      60859  ROW_BUFFER_MISS:     252147  FULL:          0

 CHANNEL 1
 RQ ROW_BUFFER_HIT:     189440  ROW_BUFFER_MISS:     243154
 DBUS_CONGESTED:     107115
 WQ ROW_BUFFER_HIT:      62227  ROW_BUFFER_MISS:     260774  FULL:          0

 AVG_CONGESTED_CYCLE: 13

CPU 0 Branch Prediction Accuracy: 98.893% MPKI: 1.62001 Average ROB Occupancy at Mispredict: 121.387

Branch types
NOT_BRANCH: 426828201 85.3656%
BRANCH_DIRECT_JUMP: 3229447 0.645889%
BRANCH_INDIRECT: 0 0%
BRANCH_CONDITIONAL: 61714440 12.3429%
BRANCH_DIRECT_CALL: 4113958 0.822792%
BRANCH_INDIRECT_CALL: 0 0%
BRANCH_RETURN: 4113958 0.822792%
BRANCH_OTHER: 0 0%


gzip: stdout: Broken pipe
