
*** ChampSim Multicore Out-of-Order Simulator ***

Warmup Instructions: 1000000
Prefetch Warmup Instructions: 10000000
Simulation Instructions: 500000000
Stat Printing Period: 1000000
Number of CPUs: 1
LLC sets: 2048
LLC ways: 16
Off-chip DRAM Size: 32768 MB Channels: 2 Width: 64-bit Data Rate: 1024 MT/s

CPU 0 runs /scratch/cluster/cmolder/ML-DPC/ChampSimTraces/spec06/482.sphinx3-s0.trace.gz
Read seed: 1086
Heartbeat CPU 0 instructions: 1000002 cycles: 323145 heartbeat IPC: 3.09459 cumulative IPC: 3.09459 (Simulation time: 0 hr 0 min 4 sec) 

Warmup complete CPU 0 instructions: 1000002 cycles: 323145 (Simulation time: 0 hr 0 min 4 sec) 

Heartbeat CPU 0 instructions: 2000002 cycles: 1853016 heartbeat IPC: 0.65365 cumulative IPC: 0.65365 (Simulation time: 0 hr 0 min 8 sec) 
Heartbeat CPU 0 instructions: 3000002 cycles: 3755522 heartbeat IPC: 0.525623 cumulative IPC: 0.582687 (Simulation time: 0 hr 0 min 13 sec) 
Heartbeat CPU 0 instructions: 4000003 cycles: 5083529 heartbeat IPC: 0.753009 cumulative IPC: 0.630201 (Simulation time: 0 hr 0 min 17 sec) 
Heartbeat CPU 0 instructions: 5000000 cycles: 6438641 heartbeat IPC: 0.737944 cumulative IPC: 0.654076 (Simulation time: 0 hr 0 min 21 sec) 
Heartbeat CPU 0 instructions: 6000000 cycles: 8298526 heartbeat IPC: 0.537668 cumulative IPC: 0.626929 (Simulation time: 0 hr 0 min 26 sec) 
Heartbeat CPU 0 instructions: 7000001 cycles: 9750599 heartbeat IPC: 0.688671 cumulative IPC: 0.636439 (Simulation time: 0 hr 0 min 30 sec) 
Heartbeat CPU 0 instructions: 8000002 cycles: 11104338 heartbeat IPC: 0.738696 cumulative IPC: 0.649279 (Simulation time: 0 hr 0 min 34 sec) 
Heartbeat CPU 0 instructions: 9000000 cycles: 12651621 heartbeat IPC: 0.646293 cumulative IPC: 0.648904 (Simulation time: 0 hr 0 min 39 sec) 
Heartbeat CPU 0 instructions: 10000003 cycles: 14470737 heartbeat IPC: 0.549719 cumulative IPC: 0.636151 (Simulation time: 0 hr 0 min 44 sec) 

Warmup complete CPU 0 instructions: 10000003 cycles: 14470737 (Simulation time: 0 hr 0 min 44 sec) 

Heartbeat CPU 0 instructions: 11000000 cycles: 15749343 heartbeat IPC: 0.782099 cumulative IPC: 0.782099 (Simulation time: 0 hr 0 min 48 sec) 
Heartbeat CPU 0 instructions: 12000001 cycles: 17100970 heartbeat IPC: 0.73985 cumulative IPC: 0.760388 (Simulation time: 0 hr 0 min 52 sec) 
Heartbeat CPU 0 instructions: 13000001 cycles: 19015006 heartbeat IPC: 0.522456 cumulative IPC: 0.660172 (Simulation time: 0 hr 0 min 57 sec) 
Heartbeat CPU 0 instructions: 14000001 cycles: 20375843 heartbeat IPC: 0.734842 cumulative IPC: 0.67738 (Simulation time: 0 hr 1 min 1 sec) 
Heartbeat CPU 0 instructions: 15000003 cycles: 21727739 heartbeat IPC: 0.739703 cumulative IPC: 0.68899 (Simulation time: 0 hr 1 min 5 sec) 
Heartbeat CPU 0 instructions: 16000001 cycles: 23363273 heartbeat IPC: 0.61142 cumulative IPC: 0.674723 (Simulation time: 0 hr 1 min 10 sec) 
Heartbeat CPU 0 instructions: 17000000 cycles: 24745321 heartbeat IPC: 0.723563 cumulative IPC: 0.681292 (Simulation time: 0 hr 1 min 14 sec) 
Heartbeat CPU 0 instructions: 18000001 cycles: 25570514 heartbeat IPC: 1.21184 cumulative IPC: 0.720735 (Simulation time: 0 hr 1 min 17 sec) 
Heartbeat CPU 0 instructions: 19000002 cycles: 26841636 heartbeat IPC: 0.786707 cumulative IPC: 0.727514 (Simulation time: 0 hr 1 min 21 sec) 
Heartbeat CPU 0 instructions: 20000000 cycles: 28199850 heartbeat IPC: 0.73626 cumulative IPC: 0.728379 (Simulation time: 0 hr 1 min 25 sec) 
Heartbeat CPU 0 instructions: 21000001 cycles: 30063307 heartbeat IPC: 0.536638 cumulative IPC: 0.705464 (Simulation time: 0 hr 1 min 30 sec) 
Heartbeat CPU 0 instructions: 22000000 cycles: 31533731 heartbeat IPC: 0.680075 cumulative IPC: 0.703276 (Simulation time: 0 hr 1 min 34 sec) 
Heartbeat CPU 0 instructions: 23000002 cycles: 32890134 heartbeat IPC: 0.737246 cumulative IPC: 0.705778 (Simulation time: 0 hr 1 min 38 sec) 
Heartbeat CPU 0 instructions: 24000002 cycles: 34365874 heartbeat IPC: 0.677626 cumulative IPC: 0.70369 (Simulation time: 0 hr 1 min 43 sec) 
Heartbeat CPU 0 instructions: 25000000 cycles: 35903144 heartbeat IPC: 0.650503 cumulative IPC: 0.699875 (Simulation time: 0 hr 1 min 47 sec) 
Heartbeat CPU 0 instructions: 26000003 cycles: 37124226 heartbeat IPC: 0.818948 cumulative IPC: 0.706293 (Simulation time: 0 hr 1 min 51 sec) 
Heartbeat CPU 0 instructions: 27000000 cycles: 38439609 heartbeat IPC: 0.760233 cumulative IPC: 0.709253 (Simulation time: 0 hr 1 min 56 sec) 
Heartbeat CPU 0 instructions: 28000003 cycles: 40017744 heartbeat IPC: 0.633661 cumulative IPC: 0.704584 (Simulation time: 0 hr 2 min 0 sec) 
Heartbeat CPU 0 instructions: 29000001 cycles: 41207571 heartbeat IPC: 0.840457 cumulative IPC: 0.71063 (Simulation time: 0 hr 2 min 4 sec) 
Heartbeat CPU 0 instructions: 30000002 cycles: 42499380 heartbeat IPC: 0.774109 cumulative IPC: 0.713556 (Simulation time: 0 hr 2 min 9 sec) 
Heartbeat CPU 0 instructions: 31000002 cycles: 43983641 heartbeat IPC: 0.673736 cumulative IPC: 0.711553 (Simulation time: 0 hr 2 min 13 sec) 
Heartbeat CPU 0 instructions: 32000003 cycles: 45220842 heartbeat IPC: 0.808277 cumulative IPC: 0.715445 (Simulation time: 0 hr 2 min 17 sec) 
Heartbeat CPU 0 instructions: 33000000 cycles: 46506069 heartbeat IPC: 0.77807 cumulative IPC: 0.717957 (Simulation time: 0 hr 2 min 22 sec) 
Heartbeat CPU 0 instructions: 34000000 cycles: 48442866 heartbeat IPC: 0.516316 cumulative IPC: 0.706461 (Simulation time: 0 hr 2 min 26 sec) 
Heartbeat CPU 0 instructions: 35000000 cycles: 49843453 heartbeat IPC: 0.713986 cumulative IPC: 0.706759 (Simulation time: 0 hr 2 min 30 sec) 
Heartbeat CPU 0 instructions: 36000001 cycles: 51195386 heartbeat IPC: 0.739682 cumulative IPC: 0.707971 (Simulation time: 0 hr 2 min 35 sec) 
Heartbeat CPU 0 instructions: 37000000 cycles: 52759609 heartbeat IPC: 0.639294 cumulative IPC: 0.705166 (Simulation time: 0 hr 2 min 39 sec) 
Heartbeat CPU 0 instructions: 38000001 cycles: 54633376 heartbeat IPC: 0.533685 cumulative IPC: 0.697165 (Simulation time: 0 hr 2 min 44 sec) 
Heartbeat CPU 0 instructions: 39000003 cycles: 55903442 heartbeat IPC: 0.787362 cumulative IPC: 0.69993 (Simulation time: 0 hr 2 min 48 sec) 
Heartbeat CPU 0 instructions: 40000001 cycles: 57251640 heartbeat IPC: 0.741729 cumulative IPC: 0.701247 (Simulation time: 0 hr 2 min 52 sec) 
Heartbeat CPU 0 instructions: 41000002 cycles: 59141290 heartbeat IPC: 0.529199 cumulative IPC: 0.693969 (Simulation time: 0 hr 2 min 57 sec) 
Heartbeat CPU 0 instructions: 42000003 cycles: 60504472 heartbeat IPC: 0.733579 cumulative IPC: 0.695142 (Simulation time: 0 hr 3 min 1 sec) 
Heartbeat CPU 0 instructions: 43000000 cycles: 61850049 heartbeat IPC: 0.743173 cumulative IPC: 0.696506 (Simulation time: 0 hr 3 min 5 sec) 
Heartbeat CPU 0 instructions: 44000000 cycles: 63501335 heartbeat IPC: 0.605589 cumulative IPC: 0.693444 (Simulation time: 0 hr 3 min 10 sec) 
Heartbeat CPU 0 instructions: 45000000 cycles: 65154591 heartbeat IPC: 0.604867 cumulative IPC: 0.690555 (Simulation time: 0 hr 3 min 15 sec) 
Heartbeat CPU 0 instructions: 46000002 cycles: 66405831 heartbeat IPC: 0.799209 cumulative IPC: 0.693173 (Simulation time: 0 hr 3 min 19 sec) 
Heartbeat CPU 0 instructions: 47000001 cycles: 67754121 heartbeat IPC: 0.741679 cumulative IPC: 0.6944 (Simulation time: 0 hr 3 min 23 sec) 
Heartbeat CPU 0 instructions: 48000003 cycles: 69365477 heartbeat IPC: 0.620597 cumulative IPC: 0.692234 (Simulation time: 0 hr 3 min 28 sec) 
Heartbeat CPU 0 instructions: 49000000 cycles: 70589609 heartbeat IPC: 0.816903 cumulative IPC: 0.694953 (Simulation time: 0 hr 3 min 32 sec) 
Heartbeat CPU 0 instructions: 50000001 cycles: 71890704 heartbeat IPC: 0.768584 cumulative IPC: 0.696622 (Simulation time: 0 hr 3 min 36 sec) 
Heartbeat CPU 0 instructions: 51000003 cycles: 73740395 heartbeat IPC: 0.540632 cumulative IPC: 0.691754 (Simulation time: 0 hr 3 min 41 sec) 
Heartbeat CPU 0 instructions: 52000002 cycles: 75013808 heartbeat IPC: 0.78529 cumulative IPC: 0.693721 (Simulation time: 0 hr 3 min 45 sec) 
Heartbeat CPU 0 instructions: 53000003 cycles: 76356284 heartbeat IPC: 0.744893 cumulative IPC: 0.694831 (Simulation time: 0 hr 3 min 49 sec) 
Heartbeat CPU 0 instructions: 54000000 cycles: 78152015 heartbeat IPC: 0.556875 cumulative IPC: 0.690941 (Simulation time: 0 hr 3 min 54 sec) 
Heartbeat CPU 0 instructions: 55000000 cycles: 79509551 heartbeat IPC: 0.736629 cumulative IPC: 0.691894 (Simulation time: 0 hr 3 min 58 sec) 
Heartbeat CPU 0 instructions: 56000003 cycles: 80855570 heartbeat IPC: 0.742934 cumulative IPC: 0.692929 (Simulation time: 0 hr 4 min 2 sec) 
Heartbeat CPU 0 instructions: 57000001 cycles: 82390480 heartbeat IPC: 0.651503 cumulative IPC: 0.691993 (Simulation time: 0 hr 4 min 7 sec) 
Heartbeat CPU 0 instructions: 58000000 cycles: 84159573 heartbeat IPC: 0.565261 cumulative IPC: 0.688776 (Simulation time: 0 hr 4 min 12 sec) 
Heartbeat CPU 0 instructions: 59000003 cycles: 85361103 heartbeat IPC: 0.832275 cumulative IPC: 0.691208 (Simulation time: 0 hr 4 min 15 sec) 
Heartbeat CPU 0 instructions: 60000001 cycles: 86704223 heartbeat IPC: 0.744534 cumulative IPC: 0.6922 (Simulation time: 0 hr 4 min 20 sec) 
Heartbeat CPU 0 instructions: 61000000 cycles: 88493751 heartbeat IPC: 0.558806 cumulative IPC: 0.688975 (Simulation time: 0 hr 4 min 24 sec) 
Heartbeat CPU 0 instructions: 62000002 cycles: 89095166 heartbeat IPC: 1.66275 cumulative IPC: 0.696823 (Simulation time: 0 hr 4 min 27 sec) 
Heartbeat CPU 0 instructions: 63000000 cycles: 90391767 heartbeat IPC: 0.771246 cumulative IPC: 0.698094 (Simulation time: 0 hr 4 min 31 sec) 
Heartbeat CPU 0 instructions: 64000001 cycles: 91743333 heartbeat IPC: 0.739883 cumulative IPC: 0.698825 (Simulation time: 0 hr 4 min 36 sec) 
Heartbeat CPU 0 instructions: 65000001 cycles: 93467426 heartbeat IPC: 0.580015 cumulative IPC: 0.696232 (Simulation time: 0 hr 4 min 40 sec) 
Heartbeat CPU 0 instructions: 66000000 cycles: 94986993 heartbeat IPC: 0.658082 cumulative IPC: 0.695512 (Simulation time: 0 hr 4 min 45 sec) 
Heartbeat CPU 0 instructions: 67000003 cycles: 96291832 heartbeat IPC: 0.76638 cumulative IPC: 0.696642 (Simulation time: 0 hr 4 min 49 sec) 
Heartbeat CPU 0 instructions: 68000003 cycles: 97707726 heartbeat IPC: 0.706268 cumulative IPC: 0.696806 (Simulation time: 0 hr 4 min 53 sec) 
Heartbeat CPU 0 instructions: 69000003 cycles: 99544066 heartbeat IPC: 0.544561 cumulative IPC: 0.693519 (Simulation time: 0 hr 4 min 58 sec) 
Heartbeat CPU 0 instructions: 70000003 cycles: 100797486 heartbeat IPC: 0.797817 cumulative IPC: 0.695034 (Simulation time: 0 hr 5 min 2 sec) 
Heartbeat CPU 0 instructions: 71000001 cycles: 102138336 heartbeat IPC: 0.745794 cumulative IPC: 0.69581 (Simulation time: 0 hr 5 min 7 sec) 
Heartbeat CPU 0 instructions: 72000000 cycles: 104027341 heartbeat IPC: 0.529379 cumulative IPC: 0.6923 (Simulation time: 0 hr 5 min 11 sec) 
Heartbeat CPU 0 instructions: 73000003 cycles: 105324454 heartbeat IPC: 0.770945 cumulative IPC: 0.693422 (Simulation time: 0 hr 5 min 15 sec) 
Heartbeat CPU 0 instructions: 74000001 cycles: 106671811 heartbeat IPC: 0.742192 cumulative IPC: 0.694135 (Simulation time: 0 hr 5 min 20 sec) 
Heartbeat CPU 0 instructions: 75000000 cycles: 108418947 heartbeat IPC: 0.572365 cumulative IPC: 0.691871 (Simulation time: 0 hr 5 min 25 sec) 
Heartbeat CPU 0 instructions: 76000000 cycles: 109859953 heartbeat IPC: 0.69396 cumulative IPC: 0.691902 (Simulation time: 0 hr 5 min 29 sec) 
Heartbeat CPU 0 instructions: 77000000 cycles: 111200096 heartbeat IPC: 0.746189 cumulative IPC: 0.692654 (Simulation time: 0 hr 5 min 33 sec) 
Heartbeat CPU 0 instructions: 78000003 cycles: 112670915 heartbeat IPC: 0.679895 cumulative IPC: 0.692463 (Simulation time: 0 hr 5 min 38 sec) 
Heartbeat CPU 0 instructions: 79000002 cycles: 114458512 heartbeat IPC: 0.55941 cumulative IPC: 0.690084 (Simulation time: 0 hr 5 min 42 sec) 
Heartbeat CPU 0 instructions: 80000001 cycles: 115689942 heartbeat IPC: 0.812063 cumulative IPC: 0.691568 (Simulation time: 0 hr 5 min 46 sec) 
Heartbeat CPU 0 instructions: 81000000 cycles: 117031003 heartbeat IPC: 0.745677 cumulative IPC: 0.692276 (Simulation time: 0 hr 5 min 51 sec) 
Heartbeat CPU 0 instructions: 82000001 cycles: 118892602 heartbeat IPC: 0.537173 cumulative IPC: 0.689511 (Simulation time: 0 hr 5 min 56 sec) 
Heartbeat CPU 0 instructions: 83000001 cycles: 120168608 heartbeat IPC: 0.783695 cumulative IPC: 0.690648 (Simulation time: 0 hr 5 min 59 sec) 
Heartbeat CPU 0 instructions: 84000000 cycles: 121513807 heartbeat IPC: 0.743384 cumulative IPC: 0.69131 (Simulation time: 0 hr 6 min 4 sec) 
Heartbeat CPU 0 instructions: 85000003 cycles: 123293497 heartbeat IPC: 0.561897 cumulative IPC: 0.689194 (Simulation time: 0 hr 6 min 9 sec) 
Heartbeat CPU 0 instructions: 86000003 cycles: 124673005 heartbeat IPC: 0.724896 cumulative IPC: 0.689641 (Simulation time: 0 hr 6 min 13 sec) 
Heartbeat CPU 0 instructions: 87000002 cycles: 126015932 heartbeat IPC: 0.744641 cumulative IPC: 0.690303 (Simulation time: 0 hr 6 min 17 sec) 
Heartbeat CPU 0 instructions: 88000000 cycles: 127630060 heartbeat IPC: 0.619528 cumulative IPC: 0.689294 (Simulation time: 0 hr 6 min 22 sec) 
Heartbeat CPU 0 instructions: 89000001 cycles: 129262553 heartbeat IPC: 0.612561 cumulative IPC: 0.688202 (Simulation time: 0 hr 6 min 26 sec) 
Heartbeat CPU 0 instructions: 90000001 cycles: 130517275 heartbeat IPC: 0.796989 cumulative IPC: 0.689379 (Simulation time: 0 hr 6 min 30 sec) 
Heartbeat CPU 0 instructions: 91000002 cycles: 131865843 heartbeat IPC: 0.741528 cumulative IPC: 0.689978 (Simulation time: 0 hr 6 min 35 sec) 
Heartbeat CPU 0 instructions: 92000001 cycles: 133773917 heartbeat IPC: 0.524088 cumulative IPC: 0.687325 (Simulation time: 0 hr 6 min 40 sec) 
Heartbeat CPU 0 instructions: 93000001 cycles: 135021850 heartbeat IPC: 0.801325 cumulative IPC: 0.688505 (Simulation time: 0 hr 6 min 44 sec) 
Heartbeat CPU 0 instructions: 94000000 cycles: 136360285 heartbeat IPC: 0.747141 cumulative IPC: 0.689148 (Simulation time: 0 hr 6 min 48 sec) 
Heartbeat CPU 0 instructions: 95000000 cycles: 138239921 heartbeat IPC: 0.532018 cumulative IPC: 0.686762 (Simulation time: 0 hr 6 min 53 sec) 
Heartbeat CPU 0 instructions: 96000003 cycles: 139561146 heartbeat IPC: 0.756876 cumulative IPC: 0.687503 (Simulation time: 0 hr 6 min 57 sec) 
Heartbeat CPU 0 instructions: 97000002 cycles: 140910521 heartbeat IPC: 0.741083 cumulative IPC: 0.688075 (Simulation time: 0 hr 7 min 1 sec) 
Heartbeat CPU 0 instructions: 98000002 cycles: 142627895 heartbeat IPC: 0.582284 cumulative IPC: 0.686657 (Simulation time: 0 hr 7 min 6 sec) 
Heartbeat CPU 0 instructions: 99000000 cycles: 144361425 heartbeat IPC: 0.576856 cumulative IPC: 0.685192 (Simulation time: 0 hr 7 min 11 sec) 
Heartbeat CPU 0 instructions: 100000003 cycles: 145628879 heartbeat IPC: 0.788986 cumulative IPC: 0.686195 (Simulation time: 0 hr 7 min 15 sec) 
Heartbeat CPU 0 instructions: 101000003 cycles: 146986380 heartbeat IPC: 0.736648 cumulative IPC: 0.686711 (Simulation time: 0 hr 7 min 19 sec) 
Heartbeat CPU 0 instructions: 102000003 cycles: 149168234 heartbeat IPC: 0.458326 cumulative IPC: 0.683012 (Simulation time: 0 hr 7 min 24 sec) 
Heartbeat CPU 0 instructions: 103000002 cycles: 149969964 heartbeat IPC: 1.2473 cumulative IPC: 0.686351 (Simulation time: 0 hr 7 min 27 sec) 
Heartbeat CPU 0 instructions: 104000000 cycles: 151094436 heartbeat IPC: 0.889305 cumulative IPC: 0.688021 (Simulation time: 0 hr 7 min 31 sec) 
Heartbeat CPU 0 instructions: 105000000 cycles: 152394763 heartbeat IPC: 0.769037 cumulative IPC: 0.688785 (Simulation time: 0 hr 7 min 35 sec) 
Heartbeat CPU 0 instructions: 106000000 cycles: 153820804 heartbeat IPC: 0.701242 cumulative IPC: 0.688912 (Simulation time: 0 hr 7 min 40 sec) 
Heartbeat CPU 0 instructions: 107000001 cycles: 156073905 heartbeat IPC: 0.443833 cumulative IPC: 0.685013 (Simulation time: 0 hr 7 min 45 sec) 
Heartbeat CPU 0 instructions: 108000001 cycles: 157460778 heartbeat IPC: 0.721047 cumulative IPC: 0.685362 (Simulation time: 0 hr 7 min 49 sec) 
Heartbeat CPU 0 instructions: 109000001 cycles: 158821829 heartbeat IPC: 0.734726 cumulative IPC: 0.685828 (Simulation time: 0 hr 7 min 53 sec) 
Heartbeat CPU 0 instructions: 110000000 cycles: 160561819 heartbeat IPC: 0.574715 cumulative IPC: 0.684504 (Simulation time: 0 hr 7 min 58 sec) 
Heartbeat CPU 0 instructions: 111000002 cycles: 162697561 heartbeat IPC: 0.468222 cumulative IPC: 0.681388 (Simulation time: 0 hr 8 min 3 sec) 
Heartbeat CPU 0 instructions: 112000000 cycles: 164067466 heartbeat IPC: 0.729976 cumulative IPC: 0.681833 (Simulation time: 0 hr 8 min 7 sec) 
Heartbeat CPU 0 instructions: 113000002 cycles: 165437924 heartbeat IPC: 0.729685 cumulative IPC: 0.682267 (Simulation time: 0 hr 8 min 11 sec) 
Heartbeat CPU 0 instructions: 114000001 cycles: 167341816 heartbeat IPC: 0.525239 cumulative IPC: 0.680312 (Simulation time: 0 hr 8 min 16 sec) 
Heartbeat CPU 0 instructions: 115000003 cycles: 169456399 heartbeat IPC: 0.472907 cumulative IPC: 0.677482 (Simulation time: 0 hr 8 min 21 sec) 
Heartbeat CPU 0 instructions: 116000002 cycles: 170775913 heartbeat IPC: 0.757854 cumulative IPC: 0.67816 (Simulation time: 0 hr 8 min 25 sec) 
Heartbeat CPU 0 instructions: 117000001 cycles: 172145597 heartbeat IPC: 0.730095 cumulative IPC: 0.678612 (Simulation time: 0 hr 8 min 29 sec) 
Heartbeat CPU 0 instructions: 118000000 cycles: 174117513 heartbeat IPC: 0.50712 cumulative IPC: 0.676493 (Simulation time: 0 hr 8 min 34 sec) 
Heartbeat CPU 0 instructions: 119000000 cycles: 175743962 heartbeat IPC: 0.614836 cumulative IPC: 0.675872 (Simulation time: 0 hr 8 min 39 sec) 
Heartbeat CPU 0 instructions: 120000002 cycles: 177054923 heartbeat IPC: 0.762801 cumulative IPC: 0.676573 (Simulation time: 0 hr 8 min 43 sec) 
Heartbeat CPU 0 instructions: 121000000 cycles: 178467472 heartbeat IPC: 0.707939 cumulative IPC: 0.676843 (Simulation time: 0 hr 8 min 47 sec) 
Heartbeat CPU 0 instructions: 122000001 cycles: 180492709 heartbeat IPC: 0.49377 cumulative IPC: 0.674609 (Simulation time: 0 hr 8 min 52 sec) 
Heartbeat CPU 0 instructions: 123000001 cycles: 181757897 heartbeat IPC: 0.790396 cumulative IPC: 0.675485 (Simulation time: 0 hr 8 min 56 sec) 
Heartbeat CPU 0 instructions: 124000003 cycles: 183111030 heartbeat IPC: 0.739027 cumulative IPC: 0.675995 (Simulation time: 0 hr 9 min 1 sec) 
Heartbeat CPU 0 instructions: 125000000 cycles: 184999754 heartbeat IPC: 0.529456 cumulative IPC: 0.674372 (Simulation time: 0 hr 9 min 6 sec) 
Heartbeat CPU 0 instructions: 126000002 cycles: 186344643 heartbeat IPC: 0.743557 cumulative IPC: 0.674913 (Simulation time: 0 hr 9 min 9 sec) 
Heartbeat CPU 0 instructions: 127000000 cycles: 187691757 heartbeat IPC: 0.742326 cumulative IPC: 0.675438 (Simulation time: 0 hr 9 min 14 sec) 
Heartbeat CPU 0 instructions: 128000001 cycles: 189126301 heartbeat IPC: 0.697086 cumulative IPC: 0.675615 (Simulation time: 0 hr 9 min 19 sec) 
Heartbeat CPU 0 instructions: 129000000 cycles: 190455600 heartbeat IPC: 0.752275 cumulative IPC: 0.676194 (Simulation time: 0 hr 9 min 22 sec) 
Heartbeat CPU 0 instructions: 130000002 cycles: 191739283 heartbeat IPC: 0.77901 cumulative IPC: 0.676939 (Simulation time: 0 hr 9 min 27 sec) 
Heartbeat CPU 0 instructions: 131000002 cycles: 193072626 heartbeat IPC: 0.749995 cumulative IPC: 0.677484 (Simulation time: 0 hr 9 min 31 sec) 
Heartbeat CPU 0 instructions: 132000000 cycles: 194454246 heartbeat IPC: 0.723787 cumulative IPC: 0.67784 (Simulation time: 0 hr 9 min 35 sec) 
Heartbeat CPU 0 instructions: 133000001 cycles: 195736819 heartbeat IPC: 0.779683 cumulative IPC: 0.67856 (Simulation time: 0 hr 9 min 40 sec) 
Heartbeat CPU 0 instructions: 134000001 cycles: 197135756 heartbeat IPC: 0.714828 cumulative IPC: 0.678838 (Simulation time: 0 hr 9 min 44 sec) 
Heartbeat CPU 0 instructions: 135000000 cycles: 199001614 heartbeat IPC: 0.535946 cumulative IPC: 0.677393 (Simulation time: 0 hr 9 min 49 sec) 
Heartbeat CPU 0 instructions: 136000002 cycles: 200263285 heartbeat IPC: 0.792601 cumulative IPC: 0.678176 (Simulation time: 0 hr 9 min 53 sec) 
Heartbeat CPU 0 instructions: 137000001 cycles: 201612339 heartbeat IPC: 0.741259 cumulative IPC: 0.67863 (Simulation time: 0 hr 9 min 57 sec) 
Heartbeat CPU 0 instructions: 138000002 cycles: 203527172 heartbeat IPC: 0.522239 cumulative IPC: 0.677046 (Simulation time: 0 hr 10 min 2 sec) 
Heartbeat CPU 0 instructions: 139000000 cycles: 204843466 heartbeat IPC: 0.759707 cumulative IPC: 0.677618 (Simulation time: 0 hr 10 min 6 sec) 
Heartbeat CPU 0 instructions: 140000000 cycles: 206192896 heartbeat IPC: 0.741054 cumulative IPC: 0.678065 (Simulation time: 0 hr 10 min 11 sec) 
Heartbeat CPU 0 instructions: 141000002 cycles: 207901055 heartbeat IPC: 0.585427 cumulative IPC: 0.677246 (Simulation time: 0 hr 10 min 15 sec) 
Heartbeat CPU 0 instructions: 142000001 cycles: 209414470 heartbeat IPC: 0.660757 cumulative IPC: 0.677118 (Simulation time: 0 hr 10 min 19 sec) 
Heartbeat CPU 0 instructions: 143000000 cycles: 210725932 heartbeat IPC: 0.762507 cumulative IPC: 0.677689 (Simulation time: 0 hr 10 min 24 sec) 
Heartbeat CPU 0 instructions: 144000000 cycles: 212153730 heartbeat IPC: 0.700379 cumulative IPC: 0.677853 (Simulation time: 0 hr 10 min 28 sec) 
Heartbeat CPU 0 instructions: 145000003 cycles: 213985948 heartbeat IPC: 0.545788 cumulative IPC: 0.67664 (Simulation time: 0 hr 10 min 33 sec) 
Heartbeat CPU 0 instructions: 146000001 cycles: 215236318 heartbeat IPC: 0.799762 cumulative IPC: 0.677407 (Simulation time: 0 hr 10 min 37 sec) 
Heartbeat CPU 0 instructions: 147000001 cycles: 216579113 heartbeat IPC: 0.744715 cumulative IPC: 0.677854 (Simulation time: 0 hr 10 min 41 sec) 
Heartbeat CPU 0 instructions: 148000002 cycles: 218456104 heartbeat IPC: 0.532768 cumulative IPC: 0.676519 (Simulation time: 0 hr 10 min 46 sec) 
Heartbeat CPU 0 instructions: 149000002 cycles: 219070794 heartbeat IPC: 1.62684 cumulative IPC: 0.679374 (Simulation time: 0 hr 10 min 49 sec) 
Heartbeat CPU 0 instructions: 150000002 cycles: 220249258 heartbeat IPC: 0.848562 cumulative IPC: 0.680343 (Simulation time: 0 hr 10 min 53 sec) 
Heartbeat CPU 0 instructions: 151000003 cycles: 221604111 heartbeat IPC: 0.738088 cumulative IPC: 0.680721 (Simulation time: 0 hr 10 min 57 sec) 
Heartbeat CPU 0 instructions: 152000000 cycles: 223173576 heartbeat IPC: 0.637158 cumulative IPC: 0.680393 (Simulation time: 0 hr 11 min 2 sec) 
Heartbeat CPU 0 instructions: 153000000 cycles: 224946513 heartbeat IPC: 0.564036 cumulative IPC: 0.679413 (Simulation time: 0 hr 11 min 7 sec) 
Heartbeat CPU 0 instructions: 154000000 cycles: 226154443 heartbeat IPC: 0.827863 cumulative IPC: 0.68026 (Simulation time: 0 hr 11 min 10 sec) 
Heartbeat CPU 0 instructions: 155000001 cycles: 227500670 heartbeat IPC: 0.742818 cumulative IPC: 0.680656 (Simulation time: 0 hr 11 min 15 sec) 
Heartbeat CPU 0 instructions: 156000002 cycles: 229376724 heartbeat IPC: 0.533034 cumulative IPC: 0.679367 (Simulation time: 0 hr 11 min 20 sec) 
Heartbeat CPU 0 instructions: 157000003 cycles: 230653927 heartbeat IPC: 0.782962 cumulative IPC: 0.679979 (Simulation time: 0 hr 11 min 24 sec) 
Heartbeat CPU 0 instructions: 158000002 cycles: 231997465 heartbeat IPC: 0.744303 cumulative IPC: 0.680376 (Simulation time: 0 hr 11 min 28 sec) 
Heartbeat CPU 0 instructions: 159000001 cycles: 233766181 heartbeat IPC: 0.565381 cumulative IPC: 0.679449 (Simulation time: 0 hr 11 min 33 sec) 
Heartbeat CPU 0 instructions: 160000001 cycles: 235158693 heartbeat IPC: 0.718127 cumulative IPC: 0.679693 (Simulation time: 0 hr 11 min 37 sec) 
Heartbeat CPU 0 instructions: 161000003 cycles: 236498661 heartbeat IPC: 0.746288 cumulative IPC: 0.680095 (Simulation time: 0 hr 11 min 41 sec) 
Heartbeat CPU 0 instructions: 162000002 cycles: 238095344 heartbeat IPC: 0.626298 cumulative IPC: 0.679711 (Simulation time: 0 hr 11 min 46 sec) 
Heartbeat CPU 0 instructions: 163000001 cycles: 239775818 heartbeat IPC: 0.59507 cumulative IPC: 0.679079 (Simulation time: 0 hr 11 min 50 sec) 
Heartbeat CPU 0 instructions: 164000003 cycles: 241023637 heartbeat IPC: 0.8014 cumulative IPC: 0.679753 (Simulation time: 0 hr 11 min 54 sec) 
Heartbeat CPU 0 instructions: 165000000 cycles: 242370049 heartbeat IPC: 0.742712 cumulative IPC: 0.680125 (Simulation time: 0 hr 11 min 59 sec) 
Heartbeat CPU 0 instructions: 166000000 cycles: 244297042 heartbeat IPC: 0.518943 cumulative IPC: 0.678773 (Simulation time: 0 hr 12 min 4 sec) 
Heartbeat CPU 0 instructions: 167000002 cycles: 245576416 heartbeat IPC: 0.781634 cumulative IPC: 0.679343 (Simulation time: 0 hr 12 min 8 sec) 
Heartbeat CPU 0 instructions: 168000000 cycles: 246924260 heartbeat IPC: 0.741924 cumulative IPC: 0.679706 (Simulation time: 0 hr 12 min 12 sec) 
Heartbeat CPU 0 instructions: 169000000 cycles: 248712931 heartbeat IPC: 0.559074 cumulative IPC: 0.678785 (Simulation time: 0 hr 12 min 17 sec) 
Heartbeat CPU 0 instructions: 170000003 cycles: 250126952 heartbeat IPC: 0.707205 cumulative IPC: 0.678955 (Simulation time: 0 hr 12 min 21 sec) 
Heartbeat CPU 0 instructions: 171000003 cycles: 251470987 heartbeat IPC: 0.744028 cumulative IPC: 0.679324 (Simulation time: 0 hr 12 min 25 sec) 
Heartbeat CPU 0 instructions: 172000000 cycles: 253064839 heartbeat IPC: 0.627409 cumulative IPC: 0.678977 (Simulation time: 0 hr 12 min 30 sec) 
Heartbeat CPU 0 instructions: 173000000 cycles: 254767954 heartbeat IPC: 0.587159 cumulative IPC: 0.678327 (Simulation time: 0 hr 12 min 35 sec) 
Heartbeat CPU 0 instructions: 174000002 cycles: 256012010 heartbeat IPC: 0.803824 cumulative IPC: 0.678973 (Simulation time: 0 hr 12 min 39 sec) 
Heartbeat CPU 0 instructions: 175000003 cycles: 257357257 heartbeat IPC: 0.743359 cumulative IPC: 0.67933 (Simulation time: 0 hr 12 min 43 sec) 
Heartbeat CPU 0 instructions: 176000000 cycles: 259257859 heartbeat IPC: 0.526147 cumulative IPC: 0.67814 (Simulation time: 0 hr 12 min 48 sec) 
Heartbeat CPU 0 instructions: 177000001 cycles: 260533877 heartbeat IPC: 0.783689 cumulative IPC: 0.678688 (Simulation time: 0 hr 12 min 52 sec) 
Heartbeat CPU 0 instructions: 178000002 cycles: 261878165 heartbeat IPC: 0.743889 cumulative IPC: 0.679042 (Simulation time: 0 hr 12 min 56 sec) 
Heartbeat CPU 0 instructions: 179000003 cycles: 263681124 heartbeat IPC: 0.554644 cumulative IPC: 0.678142 (Simulation time: 0 hr 13 min 1 sec) 
Heartbeat CPU 0 instructions: 180000000 cycles: 265071035 heartbeat IPC: 0.719468 cumulative IPC: 0.678371 (Simulation time: 0 hr 13 min 5 sec) 
Heartbeat CPU 0 instructions: 181000000 cycles: 266416038 heartbeat IPC: 0.743493 cumulative IPC: 0.678719 (Simulation time: 0 hr 13 min 10 sec) 
Heartbeat CPU 0 instructions: 182000000 cycles: 268072334 heartbeat IPC: 0.603757 cumulative IPC: 0.678229 (Simulation time: 0 hr 13 min 14 sec) 
Heartbeat CPU 0 instructions: 183000000 cycles: 269734196 heartbeat IPC: 0.601735 cumulative IPC: 0.677731 (Simulation time: 0 hr 13 min 19 sec) 
Heartbeat CPU 0 instructions: 184000000 cycles: 271021318 heartbeat IPC: 0.776927 cumulative IPC: 0.678229 (Simulation time: 0 hr 13 min 23 sec) 
Heartbeat CPU 0 instructions: 185000000 cycles: 272392068 heartbeat IPC: 0.729528 cumulative IPC: 0.678501 (Simulation time: 0 hr 13 min 27 sec) 
Heartbeat CPU 0 instructions: 186000001 cycles: 274554290 heartbeat IPC: 0.462488 cumulative IPC: 0.676706 (Simulation time: 0 hr 13 min 32 sec) 
Heartbeat CPU 0 instructions: 187000000 cycles: 275892690 heartbeat IPC: 0.74716 cumulative IPC: 0.677066 (Simulation time: 0 hr 13 min 36 sec) 
Heartbeat CPU 0 instructions: 188000000 cycles: 277253266 heartbeat IPC: 0.734983 cumulative IPC: 0.677366 (Simulation time: 0 hr 13 min 41 sec) 
Heartbeat CPU 0 instructions: 189000002 cycles: 279042748 heartbeat IPC: 0.558822 cumulative IPC: 0.676564 (Simulation time: 0 hr 13 min 46 sec) 
Heartbeat CPU 0 instructions: 190000002 cycles: 280564330 heartbeat IPC: 0.657211 cumulative IPC: 0.676454 (Simulation time: 0 hr 13 min 50 sec) 
Heartbeat CPU 0 instructions: 191000001 cycles: 281324760 heartbeat IPC: 1.31504 cumulative IPC: 0.678273 (Simulation time: 0 hr 13 min 53 sec) 
Heartbeat CPU 0 instructions: 192000000 cycles: 282625320 heartbeat IPC: 0.768899 cumulative IPC: 0.678713 (Simulation time: 0 hr 13 min 57 sec) 
Heartbeat CPU 0 instructions: 193000001 cycles: 283989009 heartbeat IPC: 0.733306 cumulative IPC: 0.678989 (Simulation time: 0 hr 14 min 1 sec) 
Heartbeat CPU 0 instructions: 194000003 cycles: 285901851 heartbeat IPC: 0.522783 cumulative IPC: 0.677888 (Simulation time: 0 hr 14 min 6 sec) 
Heartbeat CPU 0 instructions: 195000000 cycles: 287768075 heartbeat IPC: 0.53584 cumulative IPC: 0.676918 (Simulation time: 0 hr 14 min 11 sec) 
Heartbeat CPU 0 instructions: 196000000 cycles: 288993316 heartbeat IPC: 0.816166 cumulative IPC: 0.67754 (Simulation time: 0 hr 14 min 15 sec) 
Heartbeat CPU 0 instructions: 197000001 cycles: 290359259 heartbeat IPC: 0.732096 cumulative IPC: 0.67781 (Simulation time: 0 hr 14 min 19 sec) 
Heartbeat CPU 0 instructions: 198000000 cycles: 292453588 heartbeat IPC: 0.477479 cumulative IPC: 0.676301 (Simulation time: 0 hr 14 min 24 sec) 
Heartbeat CPU 0 instructions: 199000000 cycles: 293945628 heartbeat IPC: 0.670223 cumulative IPC: 0.676268 (Simulation time: 0 hr 14 min 28 sec) 
Heartbeat CPU 0 instructions: 200000002 cycles: 295302163 heartbeat IPC: 0.737174 cumulative IPC: 0.676562 (Simulation time: 0 hr 14 min 33 sec) 
Heartbeat CPU 0 instructions: 201000001 cycles: 296965533 heartbeat IPC: 0.601189 cumulative IPC: 0.676119 (Simulation time: 0 hr 14 min 37 sec) 
Heartbeat CPU 0 instructions: 202000002 cycles: 298953983 heartbeat IPC: 0.502905 cumulative IPC: 0.674908 (Simulation time: 0 hr 14 min 42 sec) 
Heartbeat CPU 0 instructions: 203000001 cycles: 300242879 heartbeat IPC: 0.775857 cumulative IPC: 0.675363 (Simulation time: 0 hr 14 min 46 sec) 
Heartbeat CPU 0 instructions: 204000002 cycles: 301608821 heartbeat IPC: 0.732096 cumulative IPC: 0.675633 (Simulation time: 0 hr 14 min 51 sec) 
Heartbeat CPU 0 instructions: 205000002 cycles: 303631721 heartbeat IPC: 0.49434 cumulative IPC: 0.674365 (Simulation time: 0 hr 14 min 56 sec) 
Heartbeat CPU 0 instructions: 206000002 cycles: 305162936 heartbeat IPC: 0.653076 cumulative IPC: 0.674253 (Simulation time: 0 hr 15 min 0 sec) 
Heartbeat CPU 0 instructions: 207000003 cycles: 306517718 heartbeat IPC: 0.738127 cumulative IPC: 0.674549 (Simulation time: 0 hr 15 min 4 sec) 
Heartbeat CPU 0 instructions: 208000001 cycles: 308024570 heartbeat IPC: 0.663634 cumulative IPC: 0.674493 (Simulation time: 0 hr 15 min 9 sec) 
Heartbeat CPU 0 instructions: 209000000 cycles: 310128696 heartbeat IPC: 0.475256 cumulative IPC: 0.673075 (Simulation time: 0 hr 15 min 14 sec) 
Heartbeat CPU 0 instructions: 210000002 cycles: 311463785 heartbeat IPC: 0.749015 cumulative IPC: 0.673416 (Simulation time: 0 hr 15 min 18 sec) 
Heartbeat CPU 0 instructions: 211000003 cycles: 312827970 heartbeat IPC: 0.733039 cumulative IPC: 0.673689 (Simulation time: 0 hr 15 min 22 sec) 
Heartbeat CPU 0 instructions: 212000000 cycles: 314726511 heartbeat IPC: 0.526719 cumulative IPC: 0.67276 (Simulation time: 0 hr 15 min 27 sec) 
Heartbeat CPU 0 instructions: 213000003 cycles: 316623408 heartbeat IPC: 0.527178 cumulative IPC: 0.671846 (Simulation time: 0 hr 15 min 32 sec) 
Heartbeat CPU 0 instructions: 214000002 cycles: 317932159 heartbeat IPC: 0.764087 cumulative IPC: 0.672244 (Simulation time: 0 hr 15 min 36 sec) 
Heartbeat CPU 0 instructions: 215000001 cycles: 319298144 heartbeat IPC: 0.732072 cumulative IPC: 0.672512 (Simulation time: 0 hr 15 min 40 sec) 
Heartbeat CPU 0 instructions: 216000000 cycles: 321476432 heartbeat IPC: 0.459076 cumulative IPC: 0.670997 (Simulation time: 0 hr 15 min 45 sec) 
Heartbeat CPU 0 instructions: 217000001 cycles: 323163761 heartbeat IPC: 0.592653 cumulative IPC: 0.670569 (Simulation time: 0 hr 15 min 50 sec) 
Heartbeat CPU 0 instructions: 218000001 cycles: 324471546 heartbeat IPC: 0.764652 cumulative IPC: 0.670966 (Simulation time: 0 hr 15 min 54 sec) 
Heartbeat CPU 0 instructions: 219000002 cycles: 325894754 heartbeat IPC: 0.702639 cumulative IPC: 0.671111 (Simulation time: 0 hr 15 min 59 sec) 
Heartbeat CPU 0 instructions: 220000000 cycles: 328115963 heartbeat IPC: 0.450204 cumulative IPC: 0.669546 (Simulation time: 0 hr 16 min 4 sec) 
Heartbeat CPU 0 instructions: 221000000 cycles: 329730314 heartbeat IPC: 0.619444 cumulative IPC: 0.66929 (Simulation time: 0 hr 16 min 8 sec) 
Heartbeat CPU 0 instructions: 222000001 cycles: 331097850 heartbeat IPC: 0.731243 cumulative IPC: 0.669557 (Simulation time: 0 hr 16 min 12 sec) 
Heartbeat CPU 0 instructions: 223000000 cycles: 332735206 heartbeat IPC: 0.61074 cumulative IPC: 0.669255 (Simulation time: 0 hr 16 min 17 sec) 
Heartbeat CPU 0 instructions: 224000000 cycles: 334965687 heartbeat IPC: 0.448334 cumulative IPC: 0.667717 (Simulation time: 0 hr 16 min 22 sec) 
Heartbeat CPU 0 instructions: 225000003 cycles: 336511162 heartbeat IPC: 0.647052 cumulative IPC: 0.667618 (Simulation time: 0 hr 16 min 26 sec) 
Heartbeat CPU 0 instructions: 226000001 cycles: 337876921 heartbeat IPC: 0.732192 cumulative IPC: 0.667891 (Simulation time: 0 hr 16 min 30 sec) 
Heartbeat CPU 0 instructions: 227000002 cycles: 339501765 heartbeat IPC: 0.615444 cumulative IPC: 0.667629 (Simulation time: 0 hr 16 min 35 sec) 
Heartbeat CPU 0 instructions: 228000003 cycles: 341689023 heartbeat IPC: 0.457194 cumulative IPC: 0.666222 (Simulation time: 0 hr 16 min 40 sec) 
Heartbeat CPU 0 instructions: 229000000 cycles: 343278881 heartbeat IPC: 0.628985 cumulative IPC: 0.666042 (Simulation time: 0 hr 16 min 44 sec) 
Heartbeat CPU 0 instructions: 230000000 cycles: 344643096 heartbeat IPC: 0.733022 cumulative IPC: 0.666319 (Simulation time: 0 hr 16 min 49 sec) 
Heartbeat CPU 0 instructions: 231000000 cycles: 346223887 heartbeat IPC: 0.632595 cumulative IPC: 0.666158 (Simulation time: 0 hr 16 min 53 sec) 
Heartbeat CPU 0 instructions: 232000002 cycles: 348439009 heartbeat IPC: 0.451443 cumulative IPC: 0.664734 (Simulation time: 0 hr 16 min 58 sec) 
Heartbeat CPU 0 instructions: 233000003 cycles: 350016689 heartbeat IPC: 0.633843 cumulative IPC: 0.664589 (Simulation time: 0 hr 17 min 3 sec) 
Heartbeat CPU 0 instructions: 234000001 cycles: 351378688 heartbeat IPC: 0.734213 cumulative IPC: 0.66487 (Simulation time: 0 hr 17 min 7 sec) 
Heartbeat CPU 0 instructions: 235000000 cycles: 352954394 heartbeat IPC: 0.634636 cumulative IPC: 0.664729 (Simulation time: 0 hr 17 min 12 sec) 
Heartbeat CPU 0 instructions: 236000000 cycles: 355187387 heartbeat IPC: 0.447829 cumulative IPC: 0.663308 (Simulation time: 0 hr 17 min 17 sec) 
Heartbeat CPU 0 instructions: 237000002 cycles: 356782462 heartbeat IPC: 0.626931 cumulative IPC: 0.663138 (Simulation time: 0 hr 17 min 21 sec) 
Heartbeat CPU 0 instructions: 238000002 cycles: 358144356 heartbeat IPC: 0.734272 cumulative IPC: 0.66342 (Simulation time: 0 hr 17 min 25 sec) 
Heartbeat CPU 0 instructions: 239000003 cycles: 359714727 heartbeat IPC: 0.636793 cumulative IPC: 0.663299 (Simulation time: 0 hr 17 min 30 sec) 
Heartbeat CPU 0 instructions: 240000000 cycles: 361937476 heartbeat IPC: 0.449892 cumulative IPC: 0.661934 (Simulation time: 0 hr 17 min 35 sec) 
Heartbeat CPU 0 instructions: 241000000 cycles: 363319418 heartbeat IPC: 0.723619 cumulative IPC: 0.662178 (Simulation time: 0 hr 17 min 39 sec) 
Heartbeat CPU 0 instructions: 242000000 cycles: 364316608 heartbeat IPC: 1.00282 cumulative IPC: 0.663149 (Simulation time: 0 hr 17 min 42 sec) 
Heartbeat CPU 0 instructions: 243000000 cycles: 365584606 heartbeat IPC: 0.788645 cumulative IPC: 0.663602 (Simulation time: 0 hr 17 min 46 sec) 
Heartbeat CPU 0 instructions: 244000003 cycles: 366979543 heartbeat IPC: 0.71688 cumulative IPC: 0.663813 (Simulation time: 0 hr 17 min 51 sec) 
Heartbeat CPU 0 instructions: 245000003 cycles: 369052429 heartbeat IPC: 0.482419 cumulative IPC: 0.662753 (Simulation time: 0 hr 17 min 56 sec) 
Heartbeat CPU 0 instructions: 246000001 cycles: 371258012 heartbeat IPC: 0.453394 cumulative IPC: 0.661459 (Simulation time: 0 hr 18 min 1 sec) 
Heartbeat CPU 0 instructions: 247000003 cycles: 372624884 heartbeat IPC: 0.731599 cumulative IPC: 0.661726 (Simulation time: 0 hr 18 min 5 sec) 
Heartbeat CPU 0 instructions: 248000002 cycles: 373993238 heartbeat IPC: 0.730804 cumulative IPC: 0.661989 (Simulation time: 0 hr 18 min 9 sec) 
Heartbeat CPU 0 instructions: 249000000 cycles: 375761506 heartbeat IPC: 0.565524 cumulative IPC: 0.661517 (Simulation time: 0 hr 18 min 14 sec) 
Heartbeat CPU 0 instructions: 250000000 cycles: 377981450 heartbeat IPC: 0.450462 cumulative IPC: 0.660228 (Simulation time: 0 hr 18 min 19 sec) 
Heartbeat CPU 0 instructions: 251000000 cycles: 379633782 heartbeat IPC: 0.605205 cumulative IPC: 0.659979 (Simulation time: 0 hr 18 min 23 sec) 
Heartbeat CPU 0 instructions: 252000000 cycles: 380990286 heartbeat IPC: 0.737189 cumulative IPC: 0.660265 (Simulation time: 0 hr 18 min 28 sec) 
Heartbeat CPU 0 instructions: 253000000 cycles: 382500470 heartbeat IPC: 0.662171 cumulative IPC: 0.660273 (Simulation time: 0 hr 18 min 32 sec) 
Heartbeat CPU 0 instructions: 254000000 cycles: 384747675 heartbeat IPC: 0.444997 cumulative IPC: 0.658966 (Simulation time: 0 hr 18 min 37 sec) 
Heartbeat CPU 0 instructions: 255000000 cycles: 386801063 heartbeat IPC: 0.487 cumulative IPC: 0.658018 (Simulation time: 0 hr 18 min 42 sec) 
Heartbeat CPU 0 instructions: 256000000 cycles: 388146295 heartbeat IPC: 0.743366 cumulative IPC: 0.658325 (Simulation time: 0 hr 18 min 46 sec) 
Heartbeat CPU 0 instructions: 257000003 cycles: 389531982 heartbeat IPC: 0.721666 cumulative IPC: 0.658559 (Simulation time: 0 hr 18 min 51 sec) 
Heartbeat CPU 0 instructions: 258000003 cycles: 391517366 heartbeat IPC: 0.503681 cumulative IPC: 0.657744 (Simulation time: 0 hr 18 min 56 sec) 
Heartbeat CPU 0 instructions: 259000001 cycles: 393769277 heartbeat IPC: 0.444066 cumulative IPC: 0.656475 (Simulation time: 0 hr 19 min 1 sec) 
Heartbeat CPU 0 instructions: 260000002 cycles: 395288261 heartbeat IPC: 0.658335 cumulative IPC: 0.656482 (Simulation time: 0 hr 19 min 5 sec) 
Heartbeat CPU 0 instructions: 261000001 cycles: 396650623 heartbeat IPC: 0.734019 cumulative IPC: 0.656759 (Simulation time: 0 hr 19 min 9 sec) 
Heartbeat CPU 0 instructions: 262000003 cycles: 398312180 heartbeat IPC: 0.601846 cumulative IPC: 0.656521 (Simulation time: 0 hr 19 min 14 sec) 
Heartbeat CPU 0 instructions: 263000001 cycles: 400641570 heartbeat IPC: 0.429296 cumulative IPC: 0.65515 (Simulation time: 0 hr 19 min 19 sec) 
Heartbeat CPU 0 instructions: 264000000 cycles: 402381961 heartbeat IPC: 0.574583 cumulative IPC: 0.654789 (Simulation time: 0 hr 19 min 23 sec) 
Heartbeat CPU 0 instructions: 265000000 cycles: 403692578 heartbeat IPC: 0.762999 cumulative IPC: 0.655153 (Simulation time: 0 hr 19 min 28 sec) 
Heartbeat CPU 0 instructions: 266000000 cycles: 405139493 heartbeat IPC: 0.691126 cumulative IPC: 0.655287 (Simulation time: 0 hr 19 min 32 sec) 
Heartbeat CPU 0 instructions: 267000003 cycles: 407506346 heartbeat IPC: 0.422503 cumulative IPC: 0.653885 (Simulation time: 0 hr 19 min 37 sec) 
Heartbeat CPU 0 instructions: 268000000 cycles: 409295737 heartbeat IPC: 0.558848 cumulative IPC: 0.653454 (Simulation time: 0 hr 19 min 42 sec) 
Heartbeat CPU 0 instructions: 269000002 cycles: 410580886 heartbeat IPC: 0.778121 cumulative IPC: 0.653859 (Simulation time: 0 hr 19 min 46 sec) 
Heartbeat CPU 0 instructions: 270000001 cycles: 411976061 heartbeat IPC: 0.716755 cumulative IPC: 0.654079 (Simulation time: 0 hr 19 min 50 sec) 
Heartbeat CPU 0 instructions: 271000000 cycles: 414308702 heartbeat IPC: 0.428698 cumulative IPC: 0.652764 (Simulation time: 0 hr 19 min 56 sec) 
Heartbeat CPU 0 instructions: 272000000 cycles: 415939887 heartbeat IPC: 0.613051 cumulative IPC: 0.652603 (Simulation time: 0 hr 20 min 0 sec) 
Heartbeat CPU 0 instructions: 273000002 cycles: 417274073 heartbeat IPC: 0.749522 cumulative IPC: 0.652924 (Simulation time: 0 hr 20 min 4 sec) 
Heartbeat CPU 0 instructions: 274000000 cycles: 418727951 heartbeat IPC: 0.687814 cumulative IPC: 0.65305 (Simulation time: 0 hr 20 min 9 sec) 
Heartbeat CPU 0 instructions: 275000000 cycles: 420997225 heartbeat IPC: 0.44067 cumulative IPC: 0.651864 (Simulation time: 0 hr 20 min 14 sec) 
Heartbeat CPU 0 instructions: 276000003 cycles: 422464773 heartbeat IPC: 0.681411 cumulative IPC: 0.65197 (Simulation time: 0 hr 20 min 18 sec) 
Heartbeat CPU 0 instructions: 277000002 cycles: 423825630 heartbeat IPC: 0.73483 cumulative IPC: 0.652246 (Simulation time: 0 hr 20 min 22 sec) 
Heartbeat CPU 0 instructions: 278000000 cycles: 425421846 heartbeat IPC: 0.62648 cumulative IPC: 0.652146 (Simulation time: 0 hr 20 min 27 sec) 
Heartbeat CPU 0 instructions: 279000000 cycles: 427584068 heartbeat IPC: 0.462487 cumulative IPC: 0.651153 (Simulation time: 0 hr 20 min 32 sec) 
Heartbeat CPU 0 instructions: 280000001 cycles: 428866673 heartbeat IPC: 0.779664 cumulative IPC: 0.651551 (Simulation time: 0 hr 20 min 36 sec) 
Heartbeat CPU 0 instructions: 281000000 cycles: 430230492 heartbeat IPC: 0.733234 cumulative IPC: 0.651819 (Simulation time: 0 hr 20 min 40 sec) 
Heartbeat CPU 0 instructions: 282000000 cycles: 432129459 heartbeat IPC: 0.526602 cumulative IPC: 0.651249 (Simulation time: 0 hr 20 min 45 sec) 
Heartbeat CPU 0 instructions: 283000003 cycles: 433908550 heartbeat IPC: 0.562086 cumulative IPC: 0.650871 (Simulation time: 0 hr 20 min 50 sec) 
Heartbeat CPU 0 instructions: 284000001 cycles: 435150874 heartbeat IPC: 0.804941 cumulative IPC: 0.651326 (Simulation time: 0 hr 20 min 54 sec) 
Heartbeat CPU 0 instructions: 285000000 cycles: 436509034 heartbeat IPC: 0.73629 cumulative IPC: 0.6516 (Simulation time: 0 hr 20 min 58 sec) 
Heartbeat CPU 0 instructions: 286000000 cycles: 438677221 heartbeat IPC: 0.461215 cumulative IPC: 0.650627 (Simulation time: 0 hr 21 min 3 sec) 
Heartbeat CPU 0 instructions: 287000003 cycles: 440108008 heartbeat IPC: 0.698918 cumulative IPC: 0.650789 (Simulation time: 0 hr 21 min 7 sec) 
Heartbeat CPU 0 instructions: 288000003 cycles: 441467258 heartbeat IPC: 0.7357 cumulative IPC: 0.651059 (Simulation time: 0 hr 21 min 12 sec) 
Heartbeat CPU 0 instructions: 289000002 cycles: 443173866 heartbeat IPC: 0.585957 cumulative IPC: 0.6508 (Simulation time: 0 hr 21 min 16 sec) 
Heartbeat CPU 0 instructions: 290000000 cycles: 445366174 heartbeat IPC: 0.456139 cumulative IPC: 0.64981 (Simulation time: 0 hr 21 min 21 sec) 
Heartbeat CPU 0 instructions: 291000003 cycles: 445959676 heartbeat IPC: 1.68492 cumulative IPC: 0.651233 (Simulation time: 0 hr 21 min 24 sec) 
Heartbeat CPU 0 instructions: 292000000 cycles: 447137389 heartbeat IPC: 0.849101 cumulative IPC: 0.651772 (Simulation time: 0 hr 21 min 28 sec) 
Heartbeat CPU 0 instructions: 293000000 cycles: 448497445 heartbeat IPC: 0.735264 cumulative IPC: 0.652034 (Simulation time: 0 hr 21 min 32 sec) 
Heartbeat CPU 0 instructions: 294000003 cycles: 450112955 heartbeat IPC: 0.619001 cumulative IPC: 0.651911 (Simulation time: 0 hr 21 min 37 sec) 
Heartbeat CPU 0 instructions: 295000001 cycles: 452398035 heartbeat IPC: 0.437621 cumulative IPC: 0.650793 (Simulation time: 0 hr 21 min 42 sec) 
Heartbeat CPU 0 instructions: 296000003 cycles: 453750324 heartbeat IPC: 0.739488 cumulative IPC: 0.651066 (Simulation time: 0 hr 21 min 46 sec) 
Heartbeat CPU 0 instructions: 297000000 cycles: 455112562 heartbeat IPC: 0.734084 cumulative IPC: 0.651323 (Simulation time: 0 hr 21 min 51 sec) 
Heartbeat CPU 0 instructions: 298000002 cycles: 456875547 heartbeat IPC: 0.567221 cumulative IPC: 0.650988 (Simulation time: 0 hr 21 min 55 sec) 
Heartbeat CPU 0 instructions: 299000002 cycles: 459017663 heartbeat IPC: 0.466828 cumulative IPC: 0.6501 (Simulation time: 0 hr 22 min 0 sec) 
Heartbeat CPU 0 instructions: 300000000 cycles: 460330226 heartbeat IPC: 0.761867 cumulative IPC: 0.650429 (Simulation time: 0 hr 22 min 4 sec) 
Heartbeat CPU 0 instructions: 301000002 cycles: 461697771 heartbeat IPC: 0.731239 cumulative IPC: 0.650676 (Simulation time: 0 hr 22 min 9 sec) 
Heartbeat CPU 0 instructions: 302000003 cycles: 463585740 heartbeat IPC: 0.52967 cumulative IPC: 0.650168 (Simulation time: 0 hr 22 min 14 sec) 
Heartbeat CPU 0 instructions: 303000002 cycles: 465610192 heartbeat IPC: 0.49396 cumulative IPC: 0.649467 (Simulation time: 0 hr 22 min 18 sec) 
Heartbeat CPU 0 instructions: 304000003 cycles: 466897780 heartbeat IPC: 0.776647 cumulative IPC: 0.649829 (Simulation time: 0 hr 22 min 22 sec) 
Heartbeat CPU 0 instructions: 305000000 cycles: 468267754 heartbeat IPC: 0.729939 cumulative IPC: 0.65007 (Simulation time: 0 hr 22 min 27 sec) 
Heartbeat CPU 0 instructions: 306000000 cycles: 470322286 heartbeat IPC: 0.486729 cumulative IPC: 0.649334 (Simulation time: 0 hr 22 min 32 sec) 
Heartbeat CPU 0 instructions: 307000000 cycles: 472189534 heartbeat IPC: 0.535547 cumulative IPC: 0.64887 (Simulation time: 0 hr 22 min 37 sec) 
Heartbeat CPU 0 instructions: 308000000 cycles: 473412548 heartbeat IPC: 0.817652 cumulative IPC: 0.64932 (Simulation time: 0 hr 22 min 40 sec) 
Heartbeat CPU 0 instructions: 309000002 cycles: 474779682 heartbeat IPC: 0.731459 cumulative IPC: 0.649564 (Simulation time: 0 hr 22 min 45 sec) 
Heartbeat CPU 0 instructions: 310000000 cycles: 476896940 heartbeat IPC: 0.472308 cumulative IPC: 0.648752 (Simulation time: 0 hr 22 min 50 sec) 
Heartbeat CPU 0 instructions: 311000002 cycles: 478391381 heartbeat IPC: 0.669148 cumulative IPC: 0.648818 (Simulation time: 0 hr 22 min 54 sec) 
Heartbeat CPU 0 instructions: 312000000 cycles: 479747135 heartbeat IPC: 0.737595 cumulative IPC: 0.649077 (Simulation time: 0 hr 22 min 58 sec) 
Heartbeat CPU 0 instructions: 313000001 cycles: 481403757 heartbeat IPC: 0.603639 cumulative IPC: 0.648915 (Simulation time: 0 hr 23 min 3 sec) 
Heartbeat CPU 0 instructions: 314000003 cycles: 483516327 heartbeat IPC: 0.473358 cumulative IPC: 0.648125 (Simulation time: 0 hr 23 min 8 sec) 
Heartbeat CPU 0 instructions: 315000003 cycles: 484828604 heartbeat IPC: 0.762034 cumulative IPC: 0.648442 (Simulation time: 0 hr 23 min 12 sec) 
Heartbeat CPU 0 instructions: 316000003 cycles: 486196298 heartbeat IPC: 0.731158 cumulative IPC: 0.648682 (Simulation time: 0 hr 23 min 17 sec) 
Heartbeat CPU 0 instructions: 317000001 cycles: 488189000 heartbeat IPC: 0.50183 cumulative IPC: 0.648064 (Simulation time: 0 hr 23 min 22 sec) 
Heartbeat CPU 0 instructions: 318000002 cycles: 490097874 heartbeat IPC: 0.52387 cumulative IPC: 0.647566 (Simulation time: 0 hr 23 min 26 sec) 
Heartbeat CPU 0 instructions: 319000000 cycles: 491319299 heartbeat IPC: 0.818714 cumulative IPC: 0.648004 (Simulation time: 0 hr 23 min 30 sec) 
Heartbeat CPU 0 instructions: 320000000 cycles: 492685481 heartbeat IPC: 0.731967 cumulative IPC: 0.648244 (Simulation time: 0 hr 23 min 35 sec) 
Heartbeat CPU 0 instructions: 321000001 cycles: 494918488 heartbeat IPC: 0.447827 cumulative IPC: 0.647313 (Simulation time: 0 hr 23 min 40 sec) 
Heartbeat CPU 0 instructions: 322000001 cycles: 496412103 heartbeat IPC: 0.669517 cumulative IPC: 0.647382 (Simulation time: 0 hr 23 min 44 sec) 
Heartbeat CPU 0 instructions: 323000001 cycles: 497768882 heartbeat IPC: 0.73704 cumulative IPC: 0.647633 (Simulation time: 0 hr 23 min 48 sec) 
Heartbeat CPU 0 instructions: 324000000 cycles: 499345791 heartbeat IPC: 0.634151 cumulative IPC: 0.64759 (Simulation time: 0 hr 23 min 53 sec) 
Heartbeat CPU 0 instructions: 325000001 cycles: 501264584 heartbeat IPC: 0.521161 cumulative IPC: 0.647091 (Simulation time: 0 hr 23 min 58 sec) 
Heartbeat CPU 0 instructions: 326000003 cycles: 502535966 heartbeat IPC: 0.786547 cumulative IPC: 0.647454 (Simulation time: 0 hr 24 min 2 sec) 
Heartbeat CPU 0 instructions: 327000002 cycles: 503887365 heartbeat IPC: 0.739973 cumulative IPC: 0.64771 (Simulation time: 0 hr 24 min 6 sec) 
Heartbeat CPU 0 instructions: 328000003 cycles: 505899491 heartbeat IPC: 0.496987 cumulative IPC: 0.647093 (Simulation time: 0 hr 24 min 11 sec) 
Heartbeat CPU 0 instructions: 329000002 cycles: 507229958 heartbeat IPC: 0.751615 cumulative IPC: 0.647375 (Simulation time: 0 hr 24 min 15 sec) 
Heartbeat CPU 0 instructions: 330000000 cycles: 508578864 heartbeat IPC: 0.74134 cumulative IPC: 0.647632 (Simulation time: 0 hr 24 min 19 sec) 
Heartbeat CPU 0 instructions: 331000003 cycles: 510308944 heartbeat IPC: 0.57801 cumulative IPC: 0.647389 (Simulation time: 0 hr 24 min 24 sec) 
Heartbeat CPU 0 instructions: 332000000 cycles: 511971966 heartbeat IPC: 0.601313 cumulative IPC: 0.647235 (Simulation time: 0 hr 24 min 29 sec) 
Heartbeat CPU 0 instructions: 333000002 cycles: 513243367 heartbeat IPC: 0.786536 cumulative IPC: 0.64759 (Simulation time: 0 hr 24 min 33 sec) 
Heartbeat CPU 0 instructions: 334000002 cycles: 514610140 heartbeat IPC: 0.73165 cumulative IPC: 0.647819 (Simulation time: 0 hr 24 min 37 sec) 
Heartbeat CPU 0 instructions: 335000002 cycles: 516259990 heartbeat IPC: 0.606116 cumulative IPC: 0.647682 (Simulation time: 0 hr 24 min 42 sec) 
Heartbeat CPU 0 instructions: 336000002 cycles: 517434587 heartbeat IPC: 0.851356 cumulative IPC: 0.648158 (Simulation time: 0 hr 24 min 46 sec) 
Heartbeat CPU 0 instructions: 337000002 cycles: 518732445 heartbeat IPC: 0.7705 cumulative IPC: 0.648473 (Simulation time: 0 hr 24 min 50 sec) 
Heartbeat CPU 0 instructions: 338000000 cycles: 519768910 heartbeat IPC: 0.964816 cumulative IPC: 0.649122 (Simulation time: 0 hr 24 min 54 sec) 
Heartbeat CPU 0 instructions: 339000001 cycles: 520665106 heartbeat IPC: 1.11583 cumulative IPC: 0.649948 (Simulation time: 0 hr 24 min 57 sec) 
Heartbeat CPU 0 instructions: 340000000 cycles: 521866534 heartbeat IPC: 0.832342 cumulative IPC: 0.65038 (Simulation time: 0 hr 25 min 1 sec) 
Heartbeat CPU 0 instructions: 341000000 cycles: 523151189 heartbeat IPC: 0.778419 cumulative IPC: 0.650703 (Simulation time: 0 hr 25 min 6 sec) 
Heartbeat CPU 0 instructions: 342000000 cycles: 524510274 heartbeat IPC: 0.735789 cumulative IPC: 0.65093 (Simulation time: 0 hr 25 min 10 sec) 
Heartbeat CPU 0 instructions: 343000002 cycles: 525663229 heartbeat IPC: 0.867338 cumulative IPC: 0.651418 (Simulation time: 0 hr 25 min 14 sec) 
Heartbeat CPU 0 instructions: 344000003 cycles: 526873915 heartbeat IPC: 0.825979 cumulative IPC: 0.65183 (Simulation time: 0 hr 25 min 18 sec) 
Heartbeat CPU 0 instructions: 345000001 cycles: 528179152 heartbeat IPC: 0.766143 cumulative IPC: 0.652121 (Simulation time: 0 hr 25 min 23 sec) 
Heartbeat CPU 0 instructions: 346000003 cycles: 529290988 heartbeat IPC: 0.899415 cumulative IPC: 0.652655 (Simulation time: 0 hr 25 min 26 sec) 
Heartbeat CPU 0 instructions: 347000003 cycles: 530452723 heartbeat IPC: 0.860781 cumulative IPC: 0.653124 (Simulation time: 0 hr 25 min 31 sec) 
Heartbeat CPU 0 instructions: 348000003 cycles: 531759721 heartbeat IPC: 0.765112 cumulative IPC: 0.653407 (Simulation time: 0 hr 25 min 35 sec) 
Heartbeat CPU 0 instructions: 349000001 cycles: 532851402 heartbeat IPC: 0.916017 cumulative IPC: 0.65396 (Simulation time: 0 hr 25 min 39 sec) 
Heartbeat CPU 0 instructions: 350000001 cycles: 534017995 heartbeat IPC: 0.857197 cumulative IPC: 0.654416 (Simulation time: 0 hr 25 min 43 sec) 
Heartbeat CPU 0 instructions: 351000003 cycles: 535350304 heartbeat IPC: 0.750578 cumulative IPC: 0.654662 (Simulation time: 0 hr 25 min 47 sec) 
Heartbeat CPU 0 instructions: 352000000 cycles: 536487870 heartbeat IPC: 0.879067 cumulative IPC: 0.655151 (Simulation time: 0 hr 25 min 51 sec) 
Heartbeat CPU 0 instructions: 353000003 cycles: 537685073 heartbeat IPC: 0.835283 cumulative IPC: 0.655563 (Simulation time: 0 hr 25 min 56 sec) 
Heartbeat CPU 0 instructions: 354000000 cycles: 539603347 heartbeat IPC: 0.5213 cumulative IPC: 0.655073 (Simulation time: 0 hr 26 min 0 sec) 
Heartbeat CPU 0 instructions: 355000002 cycles: 540904629 heartbeat IPC: 0.768474 cumulative IPC: 0.655353 (Simulation time: 0 hr 26 min 4 sec) 
Heartbeat CPU 0 instructions: 356000002 cycles: 542262022 heartbeat IPC: 0.736706 cumulative IPC: 0.655562 (Simulation time: 0 hr 26 min 9 sec) 
Heartbeat CPU 0 instructions: 357000002 cycles: 544120438 heartbeat IPC: 0.538093 cumulative IPC: 0.65515 (Simulation time: 0 hr 26 min 14 sec) 
Heartbeat CPU 0 instructions: 358000003 cycles: 545507335 heartbeat IPC: 0.721035 cumulative IPC: 0.655322 (Simulation time: 0 hr 26 min 18 sec) 
Heartbeat CPU 0 instructions: 359000001 cycles: 546857173 heartbeat IPC: 0.740828 cumulative IPC: 0.655539 (Simulation time: 0 hr 26 min 22 sec) 
Heartbeat CPU 0 instructions: 360000003 cycles: 548388849 heartbeat IPC: 0.652881 cumulative IPC: 0.655531 (Simulation time: 0 hr 26 min 27 sec) 
Heartbeat CPU 0 instructions: 361000000 cycles: 550214336 heartbeat IPC: 0.547797 cumulative IPC: 0.655164 (Simulation time: 0 hr 26 min 31 sec) 
Heartbeat CPU 0 instructions: 362000002 cycles: 551455633 heartbeat IPC: 0.805611 cumulative IPC: 0.655512 (Simulation time: 0 hr 26 min 35 sec) 
Heartbeat CPU 0 instructions: 363000000 cycles: 552804918 heartbeat IPC: 0.741132 cumulative IPC: 0.655726 (Simulation time: 0 hr 26 min 40 sec) 
Heartbeat CPU 0 instructions: 364000001 cycles: 554742974 heartbeat IPC: 0.515981 cumulative IPC: 0.655225 (Simulation time: 0 hr 26 min 45 sec) 
Heartbeat CPU 0 instructions: 365000000 cycles: 556068482 heartbeat IPC: 0.754427 cumulative IPC: 0.655468 (Simulation time: 0 hr 26 min 49 sec) 
Heartbeat CPU 0 instructions: 366000003 cycles: 557420802 heartbeat IPC: 0.739472 cumulative IPC: 0.655677 (Simulation time: 0 hr 26 min 53 sec) 
Heartbeat CPU 0 instructions: 367000002 cycles: 559169074 heartbeat IPC: 0.571993 cumulative IPC: 0.655409 (Simulation time: 0 hr 26 min 58 sec) 
Heartbeat CPU 0 instructions: 368000001 cycles: 560749939 heartbeat IPC: 0.632564 cumulative IPC: 0.655343 (Simulation time: 0 hr 27 min 2 sec) 
Heartbeat CPU 0 instructions: 369000003 cycles: 562052231 heartbeat IPC: 0.767878 cumulative IPC: 0.65561 (Simulation time: 0 hr 27 min 6 sec) 
Heartbeat CPU 0 instructions: 370000000 cycles: 563448858 heartbeat IPC: 0.716009 cumulative IPC: 0.655764 (Simulation time: 0 hr 27 min 11 sec) 
Heartbeat CPU 0 instructions: 371000002 cycles: 565418596 heartbeat IPC: 0.507683 cumulative IPC: 0.655234 (Simulation time: 0 hr 27 min 16 sec) 
Heartbeat CPU 0 instructions: 372000002 cycles: 566699454 heartbeat IPC: 0.780727 cumulative IPC: 0.655526 (Simulation time: 0 hr 27 min 20 sec) 
Heartbeat CPU 0 instructions: 373000000 cycles: 568050349 heartbeat IPC: 0.740249 cumulative IPC: 0.655732 (Simulation time: 0 hr 27 min 24 sec) 
Heartbeat CPU 0 instructions: 374000000 cycles: 569932847 heartbeat IPC: 0.531209 cumulative IPC: 0.65531 (Simulation time: 0 hr 27 min 29 sec) 
Heartbeat CPU 0 instructions: 375000003 cycles: 571332585 heartbeat IPC: 0.714422 cumulative IPC: 0.655459 (Simulation time: 0 hr 27 min 33 sec) 
Heartbeat CPU 0 instructions: 376000001 cycles: 572684861 heartbeat IPC: 0.739493 cumulative IPC: 0.655662 (Simulation time: 0 hr 27 min 37 sec) 
Heartbeat CPU 0 instructions: 377000000 cycles: 574210419 heartbeat IPC: 0.655497 cumulative IPC: 0.655662 (Simulation time: 0 hr 27 min 42 sec) 
Heartbeat CPU 0 instructions: 378000001 cycles: 575754624 heartbeat IPC: 0.647583 cumulative IPC: 0.65564 (Simulation time: 0 hr 27 min 46 sec) 
Heartbeat CPU 0 instructions: 379000001 cycles: 576452781 heartbeat IPC: 1.43234 cumulative IPC: 0.656605 (Simulation time: 0 hr 27 min 49 sec) 
Heartbeat CPU 0 instructions: 380000000 cycles: 577766571 heartbeat IPC: 0.761156 cumulative IPC: 0.656848 (Simulation time: 0 hr 27 min 53 sec) 
Heartbeat CPU 0 instructions: 381000003 cycles: 579123224 heartbeat IPC: 0.73711 cumulative IPC: 0.657041 (Simulation time: 0 hr 27 min 58 sec) 
Heartbeat CPU 0 instructions: 382000003 cycles: 580925273 heartbeat IPC: 0.554924 cumulative IPC: 0.656716 (Simulation time: 0 hr 28 min 2 sec) 
Heartbeat CPU 0 instructions: 383000002 cycles: 582575787 heartbeat IPC: 0.605871 cumulative IPC: 0.656569 (Simulation time: 0 hr 28 min 7 sec) 
Heartbeat CPU 0 instructions: 384000003 cycles: 583861144 heartbeat IPC: 0.777995 cumulative IPC: 0.656843 (Simulation time: 0 hr 28 min 11 sec) 
Heartbeat CPU 0 instructions: 385000000 cycles: 585240945 heartbeat IPC: 0.72474 cumulative IPC: 0.657007 (Simulation time: 0 hr 28 min 15 sec) 
Heartbeat CPU 0 instructions: 386000001 cycles: 587291871 heartbeat IPC: 0.487585 cumulative IPC: 0.6564 (Simulation time: 0 hr 28 min 20 sec) 
Heartbeat CPU 0 instructions: 387000003 cycles: 588604835 heartbeat IPC: 0.761637 cumulative IPC: 0.656641 (Simulation time: 0 hr 28 min 24 sec) 
Heartbeat CPU 0 instructions: 388000000 cycles: 589963230 heartbeat IPC: 0.736161 cumulative IPC: 0.656829 (Simulation time: 0 hr 28 min 29 sec) 
Heartbeat CPU 0 instructions: 389000000 cycles: 591813663 heartbeat IPC: 0.540414 cumulative IPC: 0.656456 (Simulation time: 0 hr 28 min 34 sec) 
Heartbeat CPU 0 instructions: 390000002 cycles: 593346003 heartbeat IPC: 0.652598 cumulative IPC: 0.656445 (Simulation time: 0 hr 28 min 38 sec) 
Heartbeat CPU 0 instructions: 391000000 cycles: 594676101 heartbeat IPC: 0.751823 cumulative IPC: 0.656664 (Simulation time: 0 hr 28 min 42 sec) 
Heartbeat CPU 0 instructions: 392000000 cycles: 596128655 heartbeat IPC: 0.688443 cumulative IPC: 0.656743 (Simulation time: 0 hr 28 min 47 sec) 
Heartbeat CPU 0 instructions: 393000001 cycles: 598050528 heartbeat IPC: 0.520326 cumulative IPC: 0.656294 (Simulation time: 0 hr 28 min 51 sec) 
Heartbeat CPU 0 instructions: 394000003 cycles: 599308080 heartbeat IPC: 0.795197 cumulative IPC: 0.656593 (Simulation time: 0 hr 28 min 55 sec) 
Heartbeat CPU 0 instructions: 395000001 cycles: 600662409 heartbeat IPC: 0.738372 cumulative IPC: 0.656782 (Simulation time: 0 hr 29 min 0 sec) 
Heartbeat CPU 0 instructions: 396000000 cycles: 602533747 heartbeat IPC: 0.534377 cumulative IPC: 0.656392 (Simulation time: 0 hr 29 min 5 sec) 
Heartbeat CPU 0 instructions: 397000001 cycles: 603938585 heartbeat IPC: 0.711827 cumulative IPC: 0.656524 (Simulation time: 0 hr 29 min 9 sec) 
Heartbeat CPU 0 instructions: 398000001 cycles: 605285838 heartbeat IPC: 0.742251 cumulative IPC: 0.65672 (Simulation time: 0 hr 29 min 13 sec) 
Heartbeat CPU 0 instructions: 399000002 cycles: 606952878 heartbeat IPC: 0.599866 cumulative IPC: 0.65656 (Simulation time: 0 hr 29 min 18 sec) 
Heartbeat CPU 0 instructions: 400000000 cycles: 608652603 heartbeat IPC: 0.588329 cumulative IPC: 0.656365 (Simulation time: 0 hr 29 min 22 sec) 
Heartbeat CPU 0 instructions: 401000000 cycles: 609891016 heartbeat IPC: 0.807485 cumulative IPC: 0.656679 (Simulation time: 0 hr 29 min 26 sec) 
Heartbeat CPU 0 instructions: 402000002 cycles: 611245179 heartbeat IPC: 0.738465 cumulative IPC: 0.656865 (Simulation time: 0 hr 29 min 31 sec) 
Heartbeat CPU 0 instructions: 403000001 cycles: 613197926 heartbeat IPC: 0.512099 cumulative IPC: 0.656392 (Simulation time: 0 hr 29 min 36 sec) 
Heartbeat CPU 0 instructions: 404000002 cycles: 614517208 heartbeat IPC: 0.757989 cumulative IPC: 0.656616 (Simulation time: 0 hr 29 min 40 sec) 
Heartbeat CPU 0 instructions: 405000000 cycles: 615870861 heartbeat IPC: 0.73874 cumulative IPC: 0.656801 (Simulation time: 0 hr 29 min 44 sec) 
Heartbeat CPU 0 instructions: 406000000 cycles: 617776277 heartbeat IPC: 0.52482 cumulative IPC: 0.656384 (Simulation time: 0 hr 29 min 49 sec) 
Heartbeat CPU 0 instructions: 407000000 cycles: 619240068 heartbeat IPC: 0.683158 cumulative IPC: 0.656449 (Simulation time: 0 hr 29 min 53 sec) 
Heartbeat CPU 0 instructions: 408000000 cycles: 620593693 heartbeat IPC: 0.738757 cumulative IPC: 0.656632 (Simulation time: 0 hr 29 min 58 sec) 
Heartbeat CPU 0 instructions: 409000002 cycles: 622105509 heartbeat IPC: 0.661457 cumulative IPC: 0.656644 (Simulation time: 0 hr 30 min 2 sec) 
Heartbeat CPU 0 instructions: 410000001 cycles: 624065806 heartbeat IPC: 0.510126 cumulative IPC: 0.656173 (Simulation time: 0 hr 30 min 7 sec) 
Heartbeat CPU 0 instructions: 411000003 cycles: 625371287 heartbeat IPC: 0.766003 cumulative IPC: 0.656408 (Simulation time: 0 hr 30 min 11 sec) 
Heartbeat CPU 0 instructions: 412000002 cycles: 626728582 heartbeat IPC: 0.736759 cumulative IPC: 0.656586 (Simulation time: 0 hr 30 min 15 sec) 
Heartbeat CPU 0 instructions: 413000001 cycles: 628693684 heartbeat IPC: 0.508879 cumulative IPC: 0.656114 (Simulation time: 0 hr 30 min 20 sec) 
Heartbeat CPU 0 instructions: 414000003 cycles: 630188069 heartbeat IPC: 0.669173 cumulative IPC: 0.656145 (Simulation time: 0 hr 30 min 24 sec) 
Heartbeat CPU 0 instructions: 415000001 cycles: 631542918 heartbeat IPC: 0.738088 cumulative IPC: 0.656325 (Simulation time: 0 hr 30 min 29 sec) 
Heartbeat CPU 0 instructions: 416000002 cycles: 633098553 heartbeat IPC: 0.642825 cumulative IPC: 0.656291 (Simulation time: 0 hr 30 min 33 sec) 
Heartbeat CPU 0 instructions: 417000000 cycles: 635103902 heartbeat IPC: 0.498665 cumulative IPC: 0.655782 (Simulation time: 0 hr 30 min 38 sec) 
Heartbeat CPU 0 instructions: 418000000 cycles: 636419939 heartbeat IPC: 0.759857 cumulative IPC: 0.656002 (Simulation time: 0 hr 30 min 42 sec) 
Heartbeat CPU 0 instructions: 419000001 cycles: 637780099 heartbeat IPC: 0.735208 cumulative IPC: 0.656175 (Simulation time: 0 hr 30 min 47 sec) 
Heartbeat CPU 0 instructions: 420000002 cycles: 639722724 heartbeat IPC: 0.514768 cumulative IPC: 0.655736 (Simulation time: 0 hr 30 min 52 sec) 
Heartbeat CPU 0 instructions: 421000001 cycles: 641374937 heartbeat IPC: 0.605248 cumulative IPC: 0.655603 (Simulation time: 0 hr 30 min 56 sec) 
Heartbeat CPU 0 instructions: 422000002 cycles: 642685511 heartbeat IPC: 0.763025 cumulative IPC: 0.655827 (Simulation time: 0 hr 31 min 0 sec) 
Heartbeat CPU 0 instructions: 423000003 cycles: 644100818 heartbeat IPC: 0.706561 cumulative IPC: 0.655941 (Simulation time: 0 hr 31 min 5 sec) 
Heartbeat CPU 0 instructions: 424000003 cycles: 646251126 heartbeat IPC: 0.46505 cumulative IPC: 0.655291 (Simulation time: 0 hr 31 min 10 sec) 
Heartbeat CPU 0 instructions: 425000000 cycles: 646858738 heartbeat IPC: 1.64578 cumulative IPC: 0.656243 (Simulation time: 0 hr 31 min 13 sec) 
Heartbeat CPU 0 instructions: 426000003 cycles: 648162393 heartbeat IPC: 0.767076 cumulative IPC: 0.656471 (Simulation time: 0 hr 31 min 16 sec) 
Heartbeat CPU 0 instructions: 427000003 cycles: 649526962 heartbeat IPC: 0.732832 cumulative IPC: 0.656635 (Simulation time: 0 hr 31 min 21 sec) 
Heartbeat CPU 0 instructions: 428000002 cycles: 651208925 heartbeat IPC: 0.594543 cumulative IPC: 0.656471 (Simulation time: 0 hr 31 min 26 sec) 
Heartbeat CPU 0 instructions: 429000000 cycles: 653160634 heartbeat IPC: 0.51237 cumulative IPC: 0.65603 (Simulation time: 0 hr 31 min 31 sec) 
Heartbeat CPU 0 instructions: 430000000 cycles: 654425928 heartbeat IPC: 0.79033 cumulative IPC: 0.656296 (Simulation time: 0 hr 31 min 35 sec) 
Heartbeat CPU 0 instructions: 431000001 cycles: 655783171 heartbeat IPC: 0.736788 cumulative IPC: 0.656466 (Simulation time: 0 hr 31 min 39 sec) 
Heartbeat CPU 0 instructions: 432000000 cycles: 657781077 heartbeat IPC: 0.500524 cumulative IPC: 0.655982 (Simulation time: 0 hr 31 min 44 sec) 
Heartbeat CPU 0 instructions: 433000001 cycles: 659305105 heartbeat IPC: 0.656157 cumulative IPC: 0.655982 (Simulation time: 0 hr 31 min 48 sec) 
Heartbeat CPU 0 instructions: 434000000 cycles: 660661415 heartbeat IPC: 0.737294 cumulative IPC: 0.656153 (Simulation time: 0 hr 31 min 53 sec) 
Heartbeat CPU 0 instructions: 435000000 cycles: 662240064 heartbeat IPC: 0.633453 cumulative IPC: 0.656098 (Simulation time: 0 hr 31 min 57 sec) 
Heartbeat CPU 0 instructions: 436000000 cycles: 664305338 heartbeat IPC: 0.484197 cumulative IPC: 0.655551 (Simulation time: 0 hr 32 min 2 sec) 
Heartbeat CPU 0 instructions: 437000000 cycles: 665614273 heartbeat IPC: 0.76398 cumulative IPC: 0.655769 (Simulation time: 0 hr 32 min 6 sec) 
Heartbeat CPU 0 instructions: 438000002 cycles: 666978824 heartbeat IPC: 0.732843 cumulative IPC: 0.655931 (Simulation time: 0 hr 32 min 11 sec) 
Heartbeat CPU 0 instructions: 439000000 cycles: 668917733 heartbeat IPC: 0.515753 cumulative IPC: 0.655515 (Simulation time: 0 hr 32 min 15 sec) 
Heartbeat CPU 0 instructions: 440000000 cycles: 670593841 heartbeat IPC: 0.59662 cumulative IPC: 0.655365 (Simulation time: 0 hr 32 min 20 sec) 
Heartbeat CPU 0 instructions: 441000002 cycles: 671895505 heartbeat IPC: 0.768249 cumulative IPC: 0.655588 (Simulation time: 0 hr 32 min 24 sec) 
Heartbeat CPU 0 instructions: 442000003 cycles: 673302725 heartbeat IPC: 0.710622 cumulative IPC: 0.655706 (Simulation time: 0 hr 32 min 29 sec) 
Heartbeat CPU 0 instructions: 443000003 cycles: 675476311 heartbeat IPC: 0.460069 cumulative IPC: 0.655063 (Simulation time: 0 hr 32 min 34 sec) 
Heartbeat CPU 0 instructions: 444000001 cycles: 676830908 heartbeat IPC: 0.738225 cumulative IPC: 0.655233 (Simulation time: 0 hr 32 min 38 sec) 
Heartbeat CPU 0 instructions: 445000000 cycles: 678190030 heartbeat IPC: 0.735768 cumulative IPC: 0.655398 (Simulation time: 0 hr 32 min 42 sec) 
Heartbeat CPU 0 instructions: 446000002 cycles: 680060848 heartbeat IPC: 0.534527 cumulative IPC: 0.655058 (Simulation time: 0 hr 32 min 47 sec) 
Heartbeat CPU 0 instructions: 447000000 cycles: 682017419 heartbeat IPC: 0.511097 cumulative IPC: 0.654636 (Simulation time: 0 hr 32 min 52 sec) 
Heartbeat CPU 0 instructions: 448000000 cycles: 683274637 heartbeat IPC: 0.795407 cumulative IPC: 0.6549 (Simulation time: 0 hr 32 min 56 sec) 
Heartbeat CPU 0 instructions: 449000002 cycles: 684641473 heartbeat IPC: 0.731618 cumulative IPC: 0.655057 (Simulation time: 0 hr 33 min 0 sec) 
Heartbeat CPU 0 instructions: 450000003 cycles: 686799158 heartbeat IPC: 0.46346 cumulative IPC: 0.654442 (Simulation time: 0 hr 33 min 5 sec) 
Heartbeat CPU 0 instructions: 451000000 cycles: 688325479 heartbeat IPC: 0.655168 cumulative IPC: 0.654444 (Simulation time: 0 hr 33 min 9 sec) 
Heartbeat CPU 0 instructions: 452000003 cycles: 689680112 heartbeat IPC: 0.73821 cumulative IPC: 0.654612 (Simulation time: 0 hr 33 min 14 sec) 
Heartbeat CPU 0 instructions: 453000002 cycles: 691182034 heartbeat IPC: 0.665813 cumulative IPC: 0.654637 (Simulation time: 0 hr 33 min 18 sec) 
Heartbeat CPU 0 instructions: 454000003 cycles: 693325551 heartbeat IPC: 0.466523 cumulative IPC: 0.654043 (Simulation time: 0 hr 33 min 23 sec) 
Heartbeat CPU 0 instructions: 455000000 cycles: 694629750 heartbeat IPC: 0.766752 cumulative IPC: 0.654259 (Simulation time: 0 hr 33 min 27 sec) 
Heartbeat CPU 0 instructions: 456000002 cycles: 695989492 heartbeat IPC: 0.735435 cumulative IPC: 0.654421 (Simulation time: 0 hr 33 min 32 sec) 
Heartbeat CPU 0 instructions: 457000002 cycles: 697880151 heartbeat IPC: 0.528916 cumulative IPC: 0.654074 (Simulation time: 0 hr 33 min 37 sec) 
Heartbeat CPU 0 instructions: 458000003 cycles: 699607697 heartbeat IPC: 0.578856 cumulative IPC: 0.653884 (Simulation time: 0 hr 33 min 41 sec) 
Heartbeat CPU 0 instructions: 459000001 cycles: 700860684 heartbeat IPC: 0.798091 cumulative IPC: 0.654147 (Simulation time: 0 hr 33 min 45 sec) 
Heartbeat CPU 0 instructions: 460000001 cycles: 702218682 heartbeat IPC: 0.736378 cumulative IPC: 0.654309 (Simulation time: 0 hr 33 min 50 sec) 
Heartbeat CPU 0 instructions: 461000002 cycles: 704340029 heartbeat IPC: 0.471399 cumulative IPC: 0.653747 (Simulation time: 0 hr 33 min 55 sec) 
Heartbeat CPU 0 instructions: 462000000 cycles: 705639725 heartbeat IPC: 0.769409 cumulative IPC: 0.653965 (Simulation time: 0 hr 33 min 59 sec) 
Heartbeat CPU 0 instructions: 463000003 cycles: 706993010 heartbeat IPC: 0.738945 cumulative IPC: 0.654131 (Simulation time: 0 hr 34 min 3 sec) 
Heartbeat CPU 0 instructions: 464000003 cycles: 708834289 heartbeat IPC: 0.543101 cumulative IPC: 0.653836 (Simulation time: 0 hr 34 min 8 sec) 
Heartbeat CPU 0 instructions: 465000001 cycles: 710471376 heartbeat IPC: 0.61084 cumulative IPC: 0.653735 (Simulation time: 0 hr 34 min 13 sec) 
Heartbeat CPU 0 instructions: 466000002 cycles: 711755116 heartbeat IPC: 0.778975 cumulative IPC: 0.653966 (Simulation time: 0 hr 34 min 17 sec) 
Heartbeat CPU 0 instructions: 467000001 cycles: 713131302 heartbeat IPC: 0.726645 cumulative IPC: 0.654109 (Simulation time: 0 hr 34 min 21 sec) 
Heartbeat CPU 0 instructions: 468000001 cycles: 715159505 heartbeat IPC: 0.493047 cumulative IPC: 0.653643 (Simulation time: 0 hr 34 min 26 sec) 
Heartbeat CPU 0 instructions: 469000000 cycles: 716449525 heartbeat IPC: 0.775181 cumulative IPC: 0.653866 (Simulation time: 0 hr 34 min 30 sec) 
Heartbeat CPU 0 instructions: 470000003 cycles: 717802016 heartbeat IPC: 0.739379 cumulative IPC: 0.65403 (Simulation time: 0 hr 34 min 35 sec) 
Heartbeat CPU 0 instructions: 471000001 cycles: 719713561 heartbeat IPC: 0.523136 cumulative IPC: 0.653676 (Simulation time: 0 hr 34 min 39 sec) 
Heartbeat CPU 0 instructions: 472000000 cycles: 720881345 heartbeat IPC: 0.856322 cumulative IPC: 0.654011 (Simulation time: 0 hr 34 min 43 sec) 
Heartbeat CPU 0 instructions: 473000000 cycles: 722009074 heartbeat IPC: 0.886738 cumulative IPC: 0.654382 (Simulation time: 0 hr 34 min 47 sec) 
Heartbeat CPU 0 instructions: 474000002 cycles: 723291958 heartbeat IPC: 0.779495 cumulative IPC: 0.654608 (Simulation time: 0 hr 34 min 51 sec) 
Heartbeat CPU 0 instructions: 475000003 cycles: 724888344 heartbeat IPC: 0.626416 cumulative IPC: 0.654545 (Simulation time: 0 hr 34 min 56 sec) 
Heartbeat CPU 0 instructions: 476000000 cycles: 726792682 heartbeat IPC: 0.525115 cumulative IPC: 0.654199 (Simulation time: 0 hr 35 min 1 sec) 
Heartbeat CPU 0 instructions: 477000003 cycles: 728042926 heartbeat IPC: 0.799846 cumulative IPC: 0.654454 (Simulation time: 0 hr 35 min 5 sec) 
Heartbeat CPU 0 instructions: 478000002 cycles: 729382510 heartbeat IPC: 0.7465 cumulative IPC: 0.654626 (Simulation time: 0 hr 35 min 9 sec) 
Heartbeat CPU 0 instructions: 479000001 cycles: 731215682 heartbeat IPC: 0.545502 cumulative IPC: 0.654347 (Simulation time: 0 hr 35 min 14 sec) 
Heartbeat CPU 0 instructions: 480000001 cycles: 732507641 heartbeat IPC: 0.774018 cumulative IPC: 0.654562 (Simulation time: 0 hr 35 min 18 sec) 
Heartbeat CPU 0 instructions: 481000002 cycles: 733849090 heartbeat IPC: 0.745463 cumulative IPC: 0.654732 (Simulation time: 0 hr 35 min 22 sec) 
Heartbeat CPU 0 instructions: 482000000 cycles: 735575111 heartbeat IPC: 0.579366 cumulative IPC: 0.654552 (Simulation time: 0 hr 35 min 27 sec) 
Heartbeat CPU 0 instructions: 483000001 cycles: 737144399 heartbeat IPC: 0.637232 cumulative IPC: 0.654514 (Simulation time: 0 hr 35 min 31 sec) 
Heartbeat CPU 0 instructions: 484000000 cycles: 738488486 heartbeat IPC: 0.743999 cumulative IPC: 0.65468 (Simulation time: 0 hr 35 min 36 sec) 
Heartbeat CPU 0 instructions: 485000002 cycles: 739943579 heartbeat IPC: 0.687243 cumulative IPC: 0.654745 (Simulation time: 0 hr 35 min 40 sec) 
Heartbeat CPU 0 instructions: 486000002 cycles: 742183279 heartbeat IPC: 0.446488 cumulative IPC: 0.654104 (Simulation time: 0 hr 35 min 45 sec) 
Heartbeat CPU 0 instructions: 487000000 cycles: 743670235 heartbeat IPC: 0.672513 cumulative IPC: 0.654142 (Simulation time: 0 hr 35 min 49 sec) 
Heartbeat CPU 0 instructions: 488000002 cycles: 745030137 heartbeat IPC: 0.735349 cumulative IPC: 0.654293 (Simulation time: 0 hr 35 min 54 sec) 
Heartbeat CPU 0 instructions: 489000000 cycles: 746621050 heartbeat IPC: 0.628569 cumulative IPC: 0.654237 (Simulation time: 0 hr 35 min 58 sec) 
Heartbeat CPU 0 instructions: 490000000 cycles: 748860478 heartbeat IPC: 0.446543 cumulative IPC: 0.653604 (Simulation time: 0 hr 36 min 3 sec) 
Heartbeat CPU 0 instructions: 491000000 cycles: 750199981 heartbeat IPC: 0.746546 cumulative IPC: 0.653773 (Simulation time: 0 hr 36 min 7 sec) 
Heartbeat CPU 0 instructions: 492000001 cycles: 751563015 heartbeat IPC: 0.733658 cumulative IPC: 0.653921 (Simulation time: 0 hr 36 min 12 sec) 
Heartbeat CPU 0 instructions: 493000002 cycles: 753306153 heartbeat IPC: 0.573679 cumulative IPC: 0.653732 (Simulation time: 0 hr 36 min 17 sec) 
Heartbeat CPU 0 instructions: 494000000 cycles: 755405672 heartbeat IPC: 0.476299 cumulative IPC: 0.653229 (Simulation time: 0 hr 36 min 22 sec) 
Heartbeat CPU 0 instructions: 495000000 cycles: 756745472 heartbeat IPC: 0.74638 cumulative IPC: 0.653397 (Simulation time: 0 hr 36 min 26 sec) 
Heartbeat CPU 0 instructions: 496000003 cycles: 758110231 heartbeat IPC: 0.732732 cumulative IPC: 0.653542 (Simulation time: 0 hr 36 min 30 sec) 
Heartbeat CPU 0 instructions: 497000000 cycles: 760032493 heartbeat IPC: 0.520219 cumulative IPC: 0.653199 (Simulation time: 0 hr 36 min 35 sec) 
Heartbeat CPU 0 instructions: 498000003 cycles: 761986758 heartbeat IPC: 0.511703 cumulative IPC: 0.652829 (Simulation time: 0 hr 36 min 40 sec) 
Heartbeat CPU 0 instructions: 499000003 cycles: 763254653 heartbeat IPC: 0.788709 cumulative IPC: 0.653059 (Simulation time: 0 hr 36 min 44 sec) 
Heartbeat CPU 0 instructions: 500000001 cycles: 764613026 heartbeat IPC: 0.736173 cumulative IPC: 0.653209 (Simulation time: 0 hr 36 min 48 sec) 
Heartbeat CPU 0 instructions: 501000001 cycles: 766730253 heartbeat IPC: 0.472316 cumulative IPC: 0.6527 (Simulation time: 0 hr 36 min 53 sec) 
Heartbeat CPU 0 instructions: 502000000 cycles: 768385120 heartbeat IPC: 0.604278 cumulative IPC: 0.652594 (Simulation time: 0 hr 36 min 58 sec) 
Heartbeat CPU 0 instructions: 503000001 cycles: 769689266 heartbeat IPC: 0.766786 cumulative IPC: 0.652791 (Simulation time: 0 hr 37 min 2 sec) 
Heartbeat CPU 0 instructions: 504000003 cycles: 771094631 heartbeat IPC: 0.71156 cumulative IPC: 0.6529 (Simulation time: 0 hr 37 min 6 sec) 
Heartbeat CPU 0 instructions: 505000000 cycles: 773243343 heartbeat IPC: 0.465394 cumulative IPC: 0.652369 (Simulation time: 0 hr 37 min 11 sec) 
Heartbeat CPU 0 instructions: 506000000 cycles: 774556761 heartbeat IPC: 0.761372 cumulative IPC: 0.652558 (Simulation time: 0 hr 37 min 15 sec) 
Heartbeat CPU 0 instructions: 507000003 cycles: 775914238 heartbeat IPC: 0.736663 cumulative IPC: 0.652708 (Simulation time: 0 hr 37 min 20 sec) 
Heartbeat CPU 0 instructions: 508000001 cycles: 777724568 heartbeat IPC: 0.552384 cumulative IPC: 0.65247 (Simulation time: 0 hr 37 min 25 sec) 
Heartbeat CPU 0 instructions: 509000001 cycles: 778931718 heartbeat IPC: 0.828397 cumulative IPC: 0.652748 (Simulation time: 0 hr 37 min 28 sec) 
Heartbeat CPU 0 instructions: 510000003 cycles: 779834128 heartbeat IPC: 1.10815 cumulative IPC: 0.653284 (Simulation time: 0 hr 37 min 32 sec) 
Finished CPU 0 instructions: 500000000 cycles: 765363391 cumulative IPC: 0.653284 (Simulation time: 0 hr 37 min 32 sec) 

ChampSim completed all CPUs

Region of Interest Statistics

CPU 0 cumulative IPC: 0.653284 instructions: 500000000 cycles: 765363391
L1D TOTAL     ACCESS:   75647404  HIT:   67792503  MISS:    7854901
L1D LOAD      ACCESS:   66561240  HIT:   59298930  MISS:    7262310
L1D RFO       ACCESS:    9086164  HIT:    8493573  MISS:     592591
L1D PREFETCH  ACCESS:          0  HIT:          0  MISS:          0
L1D WRITEBACK ACCESS:          0  HIT:          0  MISS:          0
L1D PREFETCH  REQUESTED:          0  ISSUED:          0  USEFUL:          0  USELESS:          0  UAC CORRECT:          0
L1D AVERAGE MISS LATENCY: 149.767 cycles
L1I TOTAL     ACCESS:   85549944  HIT:   85545300  MISS:       4644
L1I LOAD      ACCESS:   85549944  HIT:   85545300  MISS:       4644
L1I RFO       ACCESS:          0  HIT:          0  MISS:          0
L1I PREFETCH  ACCESS:          0  HIT:          0  MISS:          0
L1I WRITEBACK ACCESS:          0  HIT:          0  MISS:          0
L1I PREFETCH  REQUESTED:          0  ISSUED:          0  USEFUL:          0  USELESS:          0  UAC CORRECT:          0
L1I AVERAGE MISS LATENCY: 124.666 cycles
L2C TOTAL     ACCESS:    8626849  HIT:    1985911  MISS:    6640938
L2C LOAD      ACCESS:    7266936  HIT:    1181520  MISS:    6085416
L2C RFO       ACCESS:     592549  HIT:      38631  MISS:     553918
L2C PREFETCH  ACCESS:          0  HIT:          0  MISS:          0
L2C WRITEBACK ACCESS:     767364  HIT:     765760  MISS:       1604
L2C PREFETCH  REQUESTED:          0  ISSUED:          0  USEFUL:          0  USELESS:          0  UAC CORRECT:          0
L2C AVERAGE MISS LATENCY: 159.439 cycles
LLC TOTAL     ACCESS:    7326618  HIT:    1115266  MISS:    6211352
LLC LOAD      ACCESS:    6085415  HIT:     312244  MISS:    5773171
LLC RFO       ACCESS:     553918  HIT:     117705  MISS:     436213
LLC PREFETCH  ACCESS:          0  HIT:          0  MISS:          0
LLC WRITEBACK ACCESS:     687285  HIT:     685317  MISS:       1968
LLC PREFETCH  REQUESTED:          0  ISSUED:          0  USEFUL:          0  USELESS:          0  UAC CORRECT:          0
LLC AVERAGE MISS LATENCY: 136.419 cycles
Major fault: 0 Minor fault: 3607

DRAM Statistics
 CHANNEL 0
 RQ ROW_BUFFER_HIT:    2814829  ROW_BUFFER_MISS:     293960
 DBUS_CONGESTED:     867321
 WQ ROW_BUFFER_HIT:     167365  ROW_BUFFER_MISS:     119684  FULL:          0

 CHANNEL 1
 RQ ROW_BUFFER_HIT:    2806146  ROW_BUFFER_MISS:     294398
 DBUS_CONGESTED:     867321
 WQ ROW_BUFFER_HIT:     170789  ROW_BUFFER_MISS:     114738  FULL:          0

 AVG_CONGESTED_CYCLE: 17

CPU 0 Branch Prediction Accuracy: 98.9561% MPKI: 0.950124 Average ROB Occupancy at Mispredict: 141.366

Branch types
NOT_BRANCH: 454492919 90.8986%
BRANCH_DIRECT_JUMP: 438956 0.0877912%
BRANCH_INDIRECT: 314 6.28e-05%
BRANCH_CONDITIONAL: 43632679 8.72654%
BRANCH_DIRECT_CALL: 717050 0.14341%
BRANCH_INDIRECT_CALL: 591 0.0001182%
BRANCH_RETURN: 717641 0.143528%
BRANCH_OTHER: 0 0%


gzip: stdout: Broken pipe
