
*** ChampSim Multicore Out-of-Order Simulator ***

Warmup Instructions: 1000000
Prefetch Warmup Instructions: 10000000
Simulation Instructions: 500000000
Stat Printing Period: 1000000
Number of CPUs: 1
LLC sets: 2048
LLC ways: 16
Off-chip DRAM Size: 32768 MB Channels: 2 Width: 64-bit Data Rate: 1024 MT/s

CPU 0 runs /scratch/cluster/cmolder/ML-DPC/ChampSimTraces/spec06/482.sphinx3-s0.trace.gz
Read seed: 1086
Heartbeat CPU 0 instructions: 1000002 cycles: 323145 heartbeat IPC: 3.09459 cumulative IPC: 3.09459 (Simulation time: 0 hr 0 min 3 sec) 

Warmup complete CPU 0 instructions: 1000002 cycles: 323145 (Simulation time: 0 hr 0 min 3 sec) 

Heartbeat CPU 0 instructions: 2000002 cycles: 1853016 heartbeat IPC: 0.65365 cumulative IPC: 0.65365 (Simulation time: 0 hr 0 min 8 sec) 
Heartbeat CPU 0 instructions: 3000002 cycles: 3755522 heartbeat IPC: 0.525623 cumulative IPC: 0.582687 (Simulation time: 0 hr 0 min 12 sec) 
Heartbeat CPU 0 instructions: 4000003 cycles: 5083529 heartbeat IPC: 0.753009 cumulative IPC: 0.630201 (Simulation time: 0 hr 0 min 16 sec) 
Heartbeat CPU 0 instructions: 5000000 cycles: 6438641 heartbeat IPC: 0.737944 cumulative IPC: 0.654076 (Simulation time: 0 hr 0 min 21 sec) 
Heartbeat CPU 0 instructions: 6000000 cycles: 8298526 heartbeat IPC: 0.537668 cumulative IPC: 0.626929 (Simulation time: 0 hr 0 min 25 sec) 
Heartbeat CPU 0 instructions: 7000001 cycles: 9750599 heartbeat IPC: 0.688671 cumulative IPC: 0.636439 (Simulation time: 0 hr 0 min 29 sec) 
Heartbeat CPU 0 instructions: 8000002 cycles: 11104338 heartbeat IPC: 0.738696 cumulative IPC: 0.649279 (Simulation time: 0 hr 0 min 34 sec) 
Heartbeat CPU 0 instructions: 9000000 cycles: 12651621 heartbeat IPC: 0.646293 cumulative IPC: 0.648904 (Simulation time: 0 hr 0 min 38 sec) 
Heartbeat CPU 0 instructions: 10000003 cycles: 14470737 heartbeat IPC: 0.549719 cumulative IPC: 0.636151 (Simulation time: 0 hr 0 min 43 sec) 

Warmup complete CPU 0 instructions: 10000003 cycles: 14470737 (Simulation time: 0 hr 0 min 43 sec) 

Heartbeat CPU 0 instructions: 11000000 cycles: 15255391 heartbeat IPC: 1.27444 cumulative IPC: 1.27444 (Simulation time: 0 hr 0 min 47 sec) 
Heartbeat CPU 0 instructions: 12000001 cycles: 15882387 heartbeat IPC: 1.59491 cumulative IPC: 1.41678 (Simulation time: 0 hr 0 min 50 sec) 
Heartbeat CPU 0 instructions: 13000001 cycles: 17220708 heartbeat IPC: 0.747205 cumulative IPC: 1.09092 (Simulation time: 0 hr 0 min 55 sec) 
Heartbeat CPU 0 instructions: 14000001 cycles: 18092524 heartbeat IPC: 1.14703 cumulative IPC: 1.10443 (Simulation time: 0 hr 0 min 58 sec) 
Heartbeat CPU 0 instructions: 15000003 cycles: 18736860 heartbeat IPC: 1.55199 cumulative IPC: 1.17202 (Simulation time: 0 hr 1 min 2 sec) 
Heartbeat CPU 0 instructions: 16000001 cycles: 19709654 heartbeat IPC: 1.02796 cumulative IPC: 1.14527 (Simulation time: 0 hr 1 min 6 sec) 
Heartbeat CPU 0 instructions: 17000000 cycles: 20825788 heartbeat IPC: 0.895949 cumulative IPC: 1.10149 (Simulation time: 0 hr 1 min 10 sec) 
Heartbeat CPU 0 instructions: 18000001 cycles: 21488403 heartbeat IPC: 1.50917 cumulative IPC: 1.13998 (Simulation time: 0 hr 1 min 13 sec) 
Heartbeat CPU 0 instructions: 19000002 cycles: 22225716 heartbeat IPC: 1.35628 cumulative IPC: 1.16054 (Simulation time: 0 hr 1 min 16 sec) 
Heartbeat CPU 0 instructions: 20000000 cycles: 22858091 heartbeat IPC: 1.58134 cumulative IPC: 1.19227 (Simulation time: 0 hr 1 min 20 sec) 
Heartbeat CPU 0 instructions: 21000001 cycles: 24076647 heartbeat IPC: 0.820644 cumulative IPC: 1.14513 (Simulation time: 0 hr 1 min 25 sec) 
Heartbeat CPU 0 instructions: 22000000 cycles: 25068583 heartbeat IPC: 1.00813 cumulative IPC: 1.13231 (Simulation time: 0 hr 1 min 28 sec) 
Heartbeat CPU 0 instructions: 23000003 cycles: 25716977 heartbeat IPC: 1.54228 cumulative IPC: 1.15594 (Simulation time: 0 hr 1 min 32 sec) 
Heartbeat CPU 0 instructions: 24000002 cycles: 26522346 heartbeat IPC: 1.24167 cumulative IPC: 1.16167 (Simulation time: 0 hr 1 min 36 sec) 
Heartbeat CPU 0 instructions: 25000000 cycles: 27519801 heartbeat IPC: 1.00255 cumulative IPC: 1.14951 (Simulation time: 0 hr 1 min 40 sec) 
Heartbeat CPU 0 instructions: 26000003 cycles: 28137836 heartbeat IPC: 1.61804 cumulative IPC: 1.17069 (Simulation time: 0 hr 1 min 44 sec) 
Heartbeat CPU 0 instructions: 27000000 cycles: 28778005 heartbeat IPC: 1.56208 cumulative IPC: 1.18821 (Simulation time: 0 hr 1 min 48 sec) 
Heartbeat CPU 0 instructions: 28000003 cycles: 29783455 heartbeat IPC: 0.994583 cumulative IPC: 1.17549 (Simulation time: 0 hr 1 min 52 sec) 
Heartbeat CPU 0 instructions: 29000001 cycles: 30451912 heartbeat IPC: 1.49598 cumulative IPC: 1.1889 (Simulation time: 0 hr 1 min 55 sec) 
Heartbeat CPU 0 instructions: 30000002 cycles: 31048222 heartbeat IPC: 1.67698 cumulative IPC: 1.20646 (Simulation time: 0 hr 1 min 59 sec) 
Heartbeat CPU 0 instructions: 31000002 cycles: 31931448 heartbeat IPC: 1.13221 cumulative IPC: 1.2027 (Simulation time: 0 hr 2 min 3 sec) 
Heartbeat CPU 0 instructions: 32000003 cycles: 32678557 heartbeat IPC: 1.33849 cumulative IPC: 1.20827 (Simulation time: 0 hr 2 min 6 sec) 
Heartbeat CPU 0 instructions: 33000000 cycles: 33279533 heartbeat IPC: 1.66395 cumulative IPC: 1.22283 (Simulation time: 0 hr 2 min 10 sec) 
Heartbeat CPU 0 instructions: 34000000 cycles: 34633053 heartbeat IPC: 0.738814 cumulative IPC: 1.19034 (Simulation time: 0 hr 2 min 15 sec) 
Heartbeat CPU 0 instructions: 35000000 cycles: 35522657 heartbeat IPC: 1.1241 cumulative IPC: 1.18754 (Simulation time: 0 hr 2 min 18 sec) 
Heartbeat CPU 0 instructions: 36000001 cycles: 36154986 heartbeat IPC: 1.58146 cumulative IPC: 1.19903 (Simulation time: 0 hr 2 min 22 sec) 
Heartbeat CPU 0 instructions: 37000000 cycles: 37029664 heartbeat IPC: 1.14328 cumulative IPC: 1.19687 (Simulation time: 0 hr 2 min 26 sec) 
Heartbeat CPU 0 instructions: 38000001 cycles: 38259422 heartbeat IPC: 0.813169 cumulative IPC: 1.17703 (Simulation time: 0 hr 2 min 30 sec) 
Heartbeat CPU 0 instructions: 39000003 cycles: 39008474 heartbeat IPC: 1.33502 cumulative IPC: 1.18185 (Simulation time: 0 hr 2 min 34 sec) 
Heartbeat CPU 0 instructions: 40000003 cycles: 39663900 heartbeat IPC: 1.52573 cumulative IPC: 1.1908 (Simulation time: 0 hr 2 min 38 sec) 
Heartbeat CPU 0 instructions: 41000002 cycles: 40951859 heartbeat IPC: 0.776421 cumulative IPC: 1.17065 (Simulation time: 0 hr 2 min 42 sec) 
Heartbeat CPU 0 instructions: 42000003 cycles: 41802983 heartbeat IPC: 1.17492 cumulative IPC: 1.17078 (Simulation time: 0 hr 2 min 46 sec) 
Heartbeat CPU 0 instructions: 43000000 cycles: 42422473 heartbeat IPC: 1.61423 cumulative IPC: 1.18061 (Simulation time: 0 hr 2 min 49 sec) 
Heartbeat CPU 0 instructions: 44000000 cycles: 43429982 heartbeat IPC: 0.992547 cumulative IPC: 1.17406 (Simulation time: 0 hr 2 min 54 sec) 
Heartbeat CPU 0 instructions: 45000000 cycles: 44495865 heartbeat IPC: 0.938189 cumulative IPC: 1.16569 (Simulation time: 0 hr 2 min 58 sec) 
Heartbeat CPU 0 instructions: 46000002 cycles: 45162974 heartbeat IPC: 1.49901 cumulative IPC: 1.17294 (Simulation time: 0 hr 3 min 1 sec) 
Heartbeat CPU 0 instructions: 47000001 cycles: 45781402 heartbeat IPC: 1.617 cumulative IPC: 1.18171 (Simulation time: 0 hr 3 min 5 sec) 
Heartbeat CPU 0 instructions: 48000003 cycles: 46830875 heartbeat IPC: 0.952861 cumulative IPC: 1.17428 (Simulation time: 0 hr 3 min 9 sec) 
Heartbeat CPU 0 instructions: 49000000 cycles: 47544189 heartbeat IPC: 1.4019 cumulative IPC: 1.17919 (Simulation time: 0 hr 3 min 13 sec) 
Heartbeat CPU 0 instructions: 50000001 cycles: 48162459 heartbeat IPC: 1.61742 cumulative IPC: 1.18724 (Simulation time: 0 hr 3 min 17 sec) 
Heartbeat CPU 0 instructions: 51000003 cycles: 49460946 heartbeat IPC: 0.770129 cumulative IPC: 1.17176 (Simulation time: 0 hr 3 min 21 sec) 
Heartbeat CPU 0 instructions: 52000002 cycles: 50216277 heartbeat IPC: 1.32392 cumulative IPC: 1.17497 (Simulation time: 0 hr 3 min 24 sec) 
Heartbeat CPU 0 instructions: 53000003 cycles: 50829676 heartbeat IPC: 1.63026 cumulative IPC: 1.18265 (Simulation time: 0 hr 3 min 28 sec) 
Heartbeat CPU 0 instructions: 54000000 cycles: 52019737 heartbeat IPC: 0.840291 cumulative IPC: 1.1718 (Simulation time: 0 hr 3 min 33 sec) 
Heartbeat CPU 0 instructions: 55000000 cycles: 52933120 heartbeat IPC: 1.09483 cumulative IPC: 1.16997 (Simulation time: 0 hr 3 min 36 sec) 
Heartbeat CPU 0 instructions: 56000003 cycles: 53544046 heartbeat IPC: 1.63686 cumulative IPC: 1.17727 (Simulation time: 0 hr 3 min 40 sec) 
Heartbeat CPU 0 instructions: 57000001 cycles: 54414731 heartbeat IPC: 1.14852 cumulative IPC: 1.17665 (Simulation time: 0 hr 3 min 44 sec) 
Heartbeat CPU 0 instructions: 58000000 cycles: 55608922 heartbeat IPC: 0.837386 cumulative IPC: 1.1668 (Simulation time: 0 hr 3 min 48 sec) 
Heartbeat CPU 0 instructions: 59000003 cycles: 56282215 heartbeat IPC: 1.48524 cumulative IPC: 1.17193 (Simulation time: 0 hr 3 min 52 sec) 
Heartbeat CPU 0 instructions: 60000001 cycles: 56932377 heartbeat IPC: 1.53808 cumulative IPC: 1.17753 (Simulation time: 0 hr 3 min 56 sec) 
Heartbeat CPU 0 instructions: 61000000 cycles: 58269244 heartbeat IPC: 0.748017 cumulative IPC: 1.16442 (Simulation time: 0 hr 4 min 0 sec) 
Heartbeat CPU 0 instructions: 62000002 cycles: 58864866 heartbeat IPC: 1.67892 cumulative IPC: 1.17133 (Simulation time: 0 hr 4 min 3 sec) 
Heartbeat CPU 0 instructions: 63000000 cycles: 59630649 heartbeat IPC: 1.30585 cumulative IPC: 1.17361 (Simulation time: 0 hr 4 min 6 sec) 
Heartbeat CPU 0 instructions: 64000001 cycles: 60265969 heartbeat IPC: 1.57401 cumulative IPC: 1.17916 (Simulation time: 0 hr 4 min 10 sec) 
Heartbeat CPU 0 instructions: 65000001 cycles: 61332760 heartbeat IPC: 0.937391 cumulative IPC: 1.17366 (Simulation time: 0 hr 4 min 14 sec) 
Heartbeat CPU 0 instructions: 66000000 cycles: 62366683 heartbeat IPC: 0.967189 cumulative IPC: 1.1692 (Simulation time: 0 hr 4 min 18 sec) 
Heartbeat CPU 0 instructions: 67000003 cycles: 62992275 heartbeat IPC: 1.59849 cumulative IPC: 1.17474 (Simulation time: 0 hr 4 min 22 sec) 
Heartbeat CPU 0 instructions: 68000003 cycles: 63740079 heartbeat IPC: 1.33725 cumulative IPC: 1.1772 (Simulation time: 0 hr 4 min 26 sec) 
Heartbeat CPU 0 instructions: 69000002 cycles: 64983882 heartbeat IPC: 0.803985 cumulative IPC: 1.16801 (Simulation time: 0 hr 4 min 30 sec) 
Heartbeat CPU 0 instructions: 70000003 cycles: 65728942 heartbeat IPC: 1.34218 cumulative IPC: 1.17054 (Simulation time: 0 hr 4 min 34 sec) 
Heartbeat CPU 0 instructions: 71000001 cycles: 66350248 heartbeat IPC: 1.60951 cumulative IPC: 1.1758 (Simulation time: 0 hr 4 min 38 sec) 
Heartbeat CPU 0 instructions: 72000000 cycles: 67648730 heartbeat IPC: 0.770129 cumulative IPC: 1.1659 (Simulation time: 0 hr 4 min 42 sec) 
Heartbeat CPU 0 instructions: 73000003 cycles: 68403943 heartbeat IPC: 1.32413 cumulative IPC: 1.16811 (Simulation time: 0 hr 4 min 45 sec) 
Heartbeat CPU 0 instructions: 74000001 cycles: 69029277 heartbeat IPC: 1.59914 cumulative IPC: 1.17305 (Simulation time: 0 hr 4 min 49 sec) 
Heartbeat CPU 0 instructions: 75000000 cycles: 70121554 heartbeat IPC: 0.915518 cumulative IPC: 1.168 (Simulation time: 0 hr 4 min 54 sec) 
Heartbeat CPU 0 instructions: 76000000 cycles: 71110903 heartbeat IPC: 1.01077 cumulative IPC: 1.16525 (Simulation time: 0 hr 4 min 57 sec) 
Heartbeat CPU 0 instructions: 77000000 cycles: 71724463 heartbeat IPC: 1.62983 cumulative IPC: 1.17023 (Simulation time: 0 hr 5 min 1 sec) 
Heartbeat CPU 0 instructions: 78000003 cycles: 72496431 heartbeat IPC: 1.29539 cumulative IPC: 1.17189 (Simulation time: 0 hr 5 min 5 sec) 
Heartbeat CPU 0 instructions: 79000002 cycles: 73703130 heartbeat IPC: 0.828706 cumulative IPC: 1.1649 (Simulation time: 0 hr 5 min 9 sec) 
Heartbeat CPU 0 instructions: 80000001 cycles: 74425600 heartbeat IPC: 1.38414 cumulative IPC: 1.16754 (Simulation time: 0 hr 5 min 13 sec) 
Heartbeat CPU 0 instructions: 81000000 cycles: 75046450 heartbeat IPC: 1.61069 cumulative IPC: 1.17209 (Simulation time: 0 hr 5 min 17 sec) 
Heartbeat CPU 0 instructions: 82000000 cycles: 76328211 heartbeat IPC: 0.780177 cumulative IPC: 1.16397 (Simulation time: 0 hr 5 min 21 sec) 
Heartbeat CPU 0 instructions: 83000001 cycles: 77084444 heartbeat IPC: 1.32235 cumulative IPC: 1.16588 (Simulation time: 0 hr 5 min 25 sec) 
Heartbeat CPU 0 instructions: 84000000 cycles: 77700086 heartbeat IPC: 1.62432 cumulative IPC: 1.17034 (Simulation time: 0 hr 5 min 28 sec) 
Heartbeat CPU 0 instructions: 85000003 cycles: 78896269 heartbeat IPC: 0.835995 cumulative IPC: 1.16413 (Simulation time: 0 hr 5 min 33 sec) 
Heartbeat CPU 0 instructions: 86000003 cycles: 79804702 heartbeat IPC: 1.1008 cumulative IPC: 1.16325 (Simulation time: 0 hr 5 min 36 sec) 
Heartbeat CPU 0 instructions: 87000002 cycles: 80419049 heartbeat IPC: 1.62774 cumulative IPC: 1.16758 (Simulation time: 0 hr 5 min 40 sec) 
Heartbeat CPU 0 instructions: 88000000 cycles: 81387545 heartbeat IPC: 1.03253 cumulative IPC: 1.16563 (Simulation time: 0 hr 5 min 45 sec) 
Heartbeat CPU 0 instructions: 89000001 cycles: 82486324 heartbeat IPC: 0.910102 cumulative IPC: 1.1615 (Simulation time: 0 hr 5 min 48 sec) 
Heartbeat CPU 0 instructions: 90000001 cycles: 83142939 heartbeat IPC: 1.52296 cumulative IPC: 1.16495 (Simulation time: 0 hr 5 min 52 sec) 
Heartbeat CPU 0 instructions: 91000001 cycles: 83804940 heartbeat IPC: 1.51057 cumulative IPC: 1.16825 (Simulation time: 0 hr 5 min 56 sec) 
Heartbeat CPU 0 instructions: 92000000 cycles: 85140250 heartbeat IPC: 0.748889 cumulative IPC: 1.16033 (Simulation time: 0 hr 6 min 0 sec) 
Heartbeat CPU 0 instructions: 93000001 cycles: 85856581 heartbeat IPC: 1.396 cumulative IPC: 1.1627 (Simulation time: 0 hr 6 min 4 sec) 
Heartbeat CPU 0 instructions: 94000002 cycles: 86474652 heartbeat IPC: 1.61794 cumulative IPC: 1.1666 (Simulation time: 0 hr 6 min 8 sec) 
Heartbeat CPU 0 instructions: 95000003 cycles: 87763579 heartbeat IPC: 0.77584 cumulative IPC: 1.15973 (Simulation time: 0 hr 6 min 12 sec) 
Heartbeat CPU 0 instructions: 96000003 cycles: 88565023 heartbeat IPC: 1.24775 cumulative IPC: 1.16068 (Simulation time: 0 hr 6 min 16 sec) 
Heartbeat CPU 0 instructions: 97000002 cycles: 89185490 heartbeat IPC: 1.61169 cumulative IPC: 1.16443 (Simulation time: 0 hr 6 min 19 sec) 
Heartbeat CPU 0 instructions: 98000002 cycles: 90211134 heartbeat IPC: 0.974997 cumulative IPC: 1.16186 (Simulation time: 0 hr 6 min 24 sec) 
Heartbeat CPU 0 instructions: 99000000 cycles: 91399415 heartbeat IPC: 0.84155 cumulative IPC: 1.15692 (Simulation time: 0 hr 6 min 28 sec) 
Heartbeat CPU 0 instructions: 100000003 cycles: 92053332 heartbeat IPC: 1.52925 cumulative IPC: 1.16005 (Simulation time: 0 hr 6 min 31 sec) 
Heartbeat CPU 0 instructions: 101000003 cycles: 92681855 heartbeat IPC: 1.59103 cumulative IPC: 1.16352 (Simulation time: 0 hr 6 min 35 sec) 
Heartbeat CPU 0 instructions: 102000003 cycles: 94223186 heartbeat IPC: 0.64879 cumulative IPC: 1.15357 (Simulation time: 0 hr 6 min 40 sec) 
Heartbeat CPU 0 instructions: 103000002 cycles: 94989343 heartbeat IPC: 1.30521 cumulative IPC: 1.15501 (Simulation time: 0 hr 6 min 43 sec) 
Heartbeat CPU 0 instructions: 104000000 cycles: 95762935 heartbeat IPC: 1.29267 cumulative IPC: 1.15632 (Simulation time: 0 hr 6 min 46 sec) 
Heartbeat CPU 0 instructions: 105000000 cycles: 96443970 heartbeat IPC: 1.46835 cumulative IPC: 1.15891 (Simulation time: 0 hr 6 min 50 sec) 
Heartbeat CPU 0 instructions: 106000000 cycles: 97175271 heartbeat IPC: 1.36743 cumulative IPC: 1.16076 (Simulation time: 0 hr 6 min 54 sec) 
Heartbeat CPU 0 instructions: 107000001 cycles: 98830296 heartbeat IPC: 0.604221 cumulative IPC: 1.14984 (Simulation time: 0 hr 6 min 58 sec) 
Heartbeat CPU 0 instructions: 108000001 cycles: 99648736 heartbeat IPC: 1.22184 cumulative IPC: 1.15053 (Simulation time: 0 hr 7 min 2 sec) 
Heartbeat CPU 0 instructions: 109000001 cycles: 100282268 heartbeat IPC: 1.57845 cumulative IPC: 1.15369 (Simulation time: 0 hr 7 min 6 sec) 
Heartbeat CPU 0 instructions: 110000000 cycles: 101343111 heartbeat IPC: 0.942646 cumulative IPC: 1.15111 (Simulation time: 0 hr 7 min 10 sec) 
Heartbeat CPU 0 instructions: 111000002 cycles: 102834894 heartbeat IPC: 0.67034 cumulative IPC: 1.143 (Simulation time: 0 hr 7 min 15 sec) 
Heartbeat CPU 0 instructions: 112000000 cycles: 103670342 heartbeat IPC: 1.19696 cumulative IPC: 1.1435 (Simulation time: 0 hr 7 min 18 sec) 
Heartbeat CPU 0 instructions: 113000001 cycles: 104302859 heartbeat IPC: 1.58099 cumulative IPC: 1.14658 (Simulation time: 0 hr 7 min 22 sec) 
Heartbeat CPU 0 instructions: 114000001 cycles: 105507886 heartbeat IPC: 0.829857 cumulative IPC: 1.14239 (Simulation time: 0 hr 7 min 26 sec) 
Heartbeat CPU 0 instructions: 115000003 cycles: 106978412 heartbeat IPC: 0.68003 cumulative IPC: 1.13504 (Simulation time: 0 hr 7 min 31 sec) 
Heartbeat CPU 0 instructions: 116000002 cycles: 107761484 heartbeat IPC: 1.27702 cumulative IPC: 1.13623 (Simulation time: 0 hr 7 min 34 sec) 
Heartbeat CPU 0 instructions: 117000001 cycles: 108399453 heartbeat IPC: 1.56747 cumulative IPC: 1.13916 (Simulation time: 0 hr 7 min 38 sec) 
Heartbeat CPU 0 instructions: 118000000 cycles: 109683489 heartbeat IPC: 0.778794 cumulative IPC: 1.1343 (Simulation time: 0 hr 7 min 43 sec) 
Heartbeat CPU 0 instructions: 119000000 cycles: 110809891 heartbeat IPC: 0.887783 cumulative IPC: 1.13142 (Simulation time: 0 hr 7 min 46 sec) 
Heartbeat CPU 0 instructions: 120000002 cycles: 111442199 heartbeat IPC: 1.58151 cumulative IPC: 1.13435 (Simulation time: 0 hr 7 min 50 sec) 
Heartbeat CPU 0 instructions: 121000000 cycles: 112170067 heartbeat IPC: 1.37387 cumulative IPC: 1.13614 (Simulation time: 0 hr 7 min 54 sec) 
Heartbeat CPU 0 instructions: 122000001 cycles: 113587808 heartbeat IPC: 0.705348 cumulative IPC: 1.12998 (Simulation time: 0 hr 7 min 58 sec) 
Heartbeat CPU 0 instructions: 123000001 cycles: 114355273 heartbeat IPC: 1.30299 cumulative IPC: 1.13131 (Simulation time: 0 hr 8 min 2 sec) 
Heartbeat CPU 0 instructions: 124000003 cycles: 114977015 heartbeat IPC: 1.60839 cumulative IPC: 1.13426 (Simulation time: 0 hr 8 min 6 sec) 
Heartbeat CPU 0 instructions: 125000000 cycles: 116214597 heartbeat IPC: 0.808025 cumulative IPC: 1.13029 (Simulation time: 0 hr 8 min 10 sec) 
Heartbeat CPU 0 instructions: 126000002 cycles: 117075169 heartbeat IPC: 1.16202 cumulative IPC: 1.13056 (Simulation time: 0 hr 8 min 14 sec) 
Heartbeat CPU 0 instructions: 127000000 cycles: 117721711 heartbeat IPC: 1.54669 cumulative IPC: 1.13316 (Simulation time: 0 hr 8 min 18 sec) 
Heartbeat CPU 0 instructions: 128000001 cycles: 118535321 heartbeat IPC: 1.22909 cumulative IPC: 1.13391 (Simulation time: 0 hr 8 min 22 sec) 
Heartbeat CPU 0 instructions: 129000000 cycles: 119410138 heartbeat IPC: 1.1431 cumulative IPC: 1.13399 (Simulation time: 0 hr 8 min 25 sec) 
Heartbeat CPU 0 instructions: 130000002 cycles: 119999898 heartbeat IPC: 1.69561 cumulative IPC: 1.13713 (Simulation time: 0 hr 8 min 29 sec) 
Heartbeat CPU 0 instructions: 131000002 cycles: 120721902 heartbeat IPC: 1.38503 cumulative IPC: 1.13881 (Simulation time: 0 hr 8 min 33 sec) 
Heartbeat CPU 0 instructions: 132000000 cycles: 121650352 heartbeat IPC: 1.07706 cumulative IPC: 1.13828 (Simulation time: 0 hr 8 min 36 sec) 
Heartbeat CPU 0 instructions: 133000001 cycles: 122249009 heartbeat IPC: 1.67041 cumulative IPC: 1.14123 (Simulation time: 0 hr 8 min 40 sec) 
Heartbeat CPU 0 instructions: 134000001 cycles: 123007101 heartbeat IPC: 1.3191 cumulative IPC: 1.14247 (Simulation time: 0 hr 8 min 44 sec) 
Heartbeat CPU 0 instructions: 135000003 cycles: 124261948 heartbeat IPC: 0.796911 cumulative IPC: 1.13852 (Simulation time: 0 hr 8 min 49 sec) 
Heartbeat CPU 0 instructions: 136000002 cycles: 124991913 heartbeat IPC: 1.36993 cumulative IPC: 1.14005 (Simulation time: 0 hr 8 min 52 sec) 
Heartbeat CPU 0 instructions: 137000001 cycles: 125612806 heartbeat IPC: 1.61058 cumulative IPC: 1.14268 (Simulation time: 0 hr 8 min 56 sec) 
Heartbeat CPU 0 instructions: 138000003 cycles: 126975440 heartbeat IPC: 0.733874 cumulative IPC: 1.13773 (Simulation time: 0 hr 9 min 0 sec) 
Heartbeat CPU 0 instructions: 139000000 cycles: 127766167 heartbeat IPC: 1.26466 cumulative IPC: 1.13862 (Simulation time: 0 hr 9 min 4 sec) 
Heartbeat CPU 0 instructions: 140000000 cycles: 128387126 heartbeat IPC: 1.61041 cumulative IPC: 1.14119 (Simulation time: 0 hr 9 min 8 sec) 
Heartbeat CPU 0 instructions: 141000002 cycles: 129524660 heartbeat IPC: 0.879096 cumulative IPC: 1.1386 (Simulation time: 0 hr 9 min 12 sec) 
Heartbeat CPU 0 instructions: 142000001 cycles: 130524582 heartbeat IPC: 1.00008 cumulative IPC: 1.1374 (Simulation time: 0 hr 9 min 16 sec) 
Heartbeat CPU 0 instructions: 143000000 cycles: 131173305 heartbeat IPC: 1.54149 cumulative IPC: 1.13965 (Simulation time: 0 hr 9 min 19 sec) 
Heartbeat CPU 0 instructions: 144000000 cycles: 131915082 heartbeat IPC: 1.34811 cumulative IPC: 1.14097 (Simulation time: 0 hr 9 min 23 sec) 
Heartbeat CPU 0 instructions: 145000003 cycles: 133150167 heartbeat IPC: 0.809663 cumulative IPC: 1.13752 (Simulation time: 0 hr 9 min 28 sec) 
Heartbeat CPU 0 instructions: 146000001 cycles: 133855664 heartbeat IPC: 1.41744 cumulative IPC: 1.13917 (Simulation time: 0 hr 9 min 31 sec) 
Heartbeat CPU 0 instructions: 147000001 cycles: 134479849 heartbeat IPC: 1.60209 cumulative IPC: 1.14158 (Simulation time: 0 hr 9 min 35 sec) 
Heartbeat CPU 0 instructions: 148000002 cycles: 135835240 heartbeat IPC: 0.737795 cumulative IPC: 1.13707 (Simulation time: 0 hr 9 min 39 sec) 
Heartbeat CPU 0 instructions: 149000002 cycles: 136439295 heartbeat IPC: 1.65548 cumulative IPC: 1.13964 (Simulation time: 0 hr 9 min 42 sec) 
Heartbeat CPU 0 instructions: 150000001 cycles: 137201799 heartbeat IPC: 1.31147 cumulative IPC: 1.14071 (Simulation time: 0 hr 9 min 46 sec) 
Heartbeat CPU 0 instructions: 151000003 cycles: 137834201 heartbeat IPC: 1.58128 cumulative IPC: 1.14296 (Simulation time: 0 hr 9 min 50 sec) 
Heartbeat CPU 0 instructions: 152000000 cycles: 138747455 heartbeat IPC: 1.09498 cumulative IPC: 1.14261 (Simulation time: 0 hr 9 min 54 sec) 
Heartbeat CPU 0 instructions: 153000000 cycles: 139906788 heartbeat IPC: 0.862565 cumulative IPC: 1.14002 (Simulation time: 0 hr 9 min 58 sec) 
Heartbeat CPU 0 instructions: 154000000 cycles: 140583079 heartbeat IPC: 1.47865 cumulative IPC: 1.14184 (Simulation time: 0 hr 10 min 1 sec) 
Heartbeat CPU 0 instructions: 155000001 cycles: 141231097 heartbeat IPC: 1.54317 cumulative IPC: 1.14389 (Simulation time: 0 hr 10 min 5 sec) 
Heartbeat CPU 0 instructions: 156000002 cycles: 142516434 heartbeat IPC: 0.778007 cumulative IPC: 1.14022 (Simulation time: 0 hr 10 min 10 sec) 
Heartbeat CPU 0 instructions: 157000003 cycles: 143226343 heartbeat IPC: 1.40863 cumulative IPC: 1.1417 (Simulation time: 0 hr 10 min 13 sec) 
Heartbeat CPU 0 instructions: 158000002 cycles: 143847115 heartbeat IPC: 1.6109 cumulative IPC: 1.14395 (Simulation time: 0 hr 10 min 17 sec) 
Heartbeat CPU 0 instructions: 159000001 cycles: 145006605 heartbeat IPC: 0.862447 cumulative IPC: 1.14145 (Simulation time: 0 hr 10 min 21 sec) 
Heartbeat CPU 0 instructions: 160000001 cycles: 145926648 heartbeat IPC: 1.08691 cumulative IPC: 1.14107 (Simulation time: 0 hr 10 min 25 sec) 
Heartbeat CPU 0 instructions: 161000003 cycles: 146535377 heartbeat IPC: 1.64277 cumulative IPC: 1.14338 (Simulation time: 0 hr 10 min 29 sec) 
Heartbeat CPU 0 instructions: 162000002 cycles: 147461043 heartbeat IPC: 1.0803 cumulative IPC: 1.14294 (Simulation time: 0 hr 10 min 33 sec) 
Heartbeat CPU 0 instructions: 163000001 cycles: 148548411 heartbeat IPC: 0.919651 cumulative IPC: 1.14113 (Simulation time: 0 hr 10 min 37 sec) 
Heartbeat CPU 0 instructions: 164000003 cycles: 149183711 heartbeat IPC: 1.57406 cumulative IPC: 1.14317 (Simulation time: 0 hr 10 min 40 sec) 
Heartbeat CPU 0 instructions: 165000000 cycles: 149805914 heartbeat IPC: 1.60719 cumulative IPC: 1.1453 (Simulation time: 0 hr 10 min 44 sec) 
Heartbeat CPU 0 instructions: 166000000 cycles: 151147483 heartbeat IPC: 0.745396 cumulative IPC: 1.14138 (Simulation time: 0 hr 10 min 49 sec) 
Heartbeat CPU 0 instructions: 167000002 cycles: 151890074 heartbeat IPC: 1.34664 cumulative IPC: 1.14249 (Simulation time: 0 hr 10 min 52 sec) 
Heartbeat CPU 0 instructions: 168000000 cycles: 152537618 heartbeat IPC: 1.54429 cumulative IPC: 1.14437 (Simulation time: 0 hr 10 min 56 sec) 
Heartbeat CPU 0 instructions: 169000000 cycles: 153710859 heartbeat IPC: 0.85234 cumulative IPC: 1.14191 (Simulation time: 0 hr 11 min 0 sec) 
Heartbeat CPU 0 instructions: 170000003 cycles: 154657637 heartbeat IPC: 1.05622 cumulative IPC: 1.14133 (Simulation time: 0 hr 11 min 4 sec) 
Heartbeat CPU 0 instructions: 171000003 cycles: 155277100 heartbeat IPC: 1.6143 cumulative IPC: 1.14341 (Simulation time: 0 hr 11 min 8 sec) 
Heartbeat CPU 0 instructions: 172000000 cycles: 156198693 heartbeat IPC: 1.08507 cumulative IPC: 1.14303 (Simulation time: 0 hr 11 min 12 sec) 
Heartbeat CPU 0 instructions: 173000000 cycles: 157344281 heartbeat IPC: 0.872914 cumulative IPC: 1.14087 (Simulation time: 0 hr 11 min 16 sec) 
Heartbeat CPU 0 instructions: 174000002 cycles: 157978669 heartbeat IPC: 1.57633 cumulative IPC: 1.14279 (Simulation time: 0 hr 11 min 19 sec) 
Heartbeat CPU 0 instructions: 175000003 cycles: 158632015 heartbeat IPC: 1.53058 cumulative IPC: 1.14455 (Simulation time: 0 hr 11 min 23 sec) 
Heartbeat CPU 0 instructions: 176000000 cycles: 159954266 heartbeat IPC: 0.756284 cumulative IPC: 1.14102 (Simulation time: 0 hr 11 min 28 sec) 
Heartbeat CPU 0 instructions: 177000001 cycles: 160692890 heartbeat IPC: 1.35387 cumulative IPC: 1.1421 (Simulation time: 0 hr 11 min 31 sec) 
Heartbeat CPU 0 instructions: 178000002 cycles: 161326871 heartbeat IPC: 1.57734 cumulative IPC: 1.14398 (Simulation time: 0 hr 11 min 35 sec) 
Heartbeat CPU 0 instructions: 179000002 cycles: 162595794 heartbeat IPC: 0.78807 cumulative IPC: 1.14093 (Simulation time: 0 hr 11 min 40 sec) 
Heartbeat CPU 0 instructions: 180000000 cycles: 163460683 heartbeat IPC: 1.15622 cumulative IPC: 1.14102 (Simulation time: 0 hr 11 min 43 sec) 
Heartbeat CPU 0 instructions: 181000000 cycles: 164111348 heartbeat IPC: 1.53689 cumulative IPC: 1.14274 (Simulation time: 0 hr 11 min 47 sec) 
Heartbeat CPU 0 instructions: 182000001 cycles: 165099345 heartbeat IPC: 1.01215 cumulative IPC: 1.14188 (Simulation time: 0 hr 11 min 51 sec) 
Heartbeat CPU 0 instructions: 183000000 cycles: 166212786 heartbeat IPC: 0.898116 cumulative IPC: 1.14009 (Simulation time: 0 hr 11 min 55 sec) 
Heartbeat CPU 0 instructions: 184000000 cycles: 166883354 heartbeat IPC: 1.49127 cumulative IPC: 1.14164 (Simulation time: 0 hr 11 min 59 sec) 
Heartbeat CPU 0 instructions: 185000000 cycles: 167581505 heartbeat IPC: 1.43235 cumulative IPC: 1.14296 (Simulation time: 0 hr 12 min 3 sec) 
Heartbeat CPU 0 instructions: 186000001 cycles: 169132198 heartbeat IPC: 0.644874 cumulative IPC: 1.13797 (Simulation time: 0 hr 12 min 7 sec) 
Heartbeat CPU 0 instructions: 187000000 cycles: 169981842 heartbeat IPC: 1.17696 cumulative IPC: 1.13818 (Simulation time: 0 hr 12 min 11 sec) 
Heartbeat CPU 0 instructions: 188000000 cycles: 170607157 heartbeat IPC: 1.59919 cumulative IPC: 1.14003 (Simulation time: 0 hr 12 min 15 sec) 
Heartbeat CPU 0 instructions: 189000002 cycles: 171780188 heartbeat IPC: 0.852494 cumulative IPC: 1.13788 (Simulation time: 0 hr 12 min 19 sec) 
Heartbeat CPU 0 instructions: 190000002 cycles: 172976595 heartbeat IPC: 0.835836 cumulative IPC: 1.1356 (Simulation time: 0 hr 12 min 23 sec) 
Heartbeat CPU 0 instructions: 191000001 cycles: 173613630 heartbeat IPC: 1.56977 cumulative IPC: 1.13734 (Simulation time: 0 hr 12 min 26 sec) 
Heartbeat CPU 0 instructions: 192000000 cycles: 174384729 heartbeat IPC: 1.29685 cumulative IPC: 1.13811 (Simulation time: 0 hr 12 min 30 sec) 
Heartbeat CPU 0 instructions: 193000001 cycles: 175026785 heartbeat IPC: 1.5575 cumulative IPC: 1.13979 (Simulation time: 0 hr 12 min 34 sec) 
Heartbeat CPU 0 instructions: 194000003 cycles: 176306226 heartbeat IPC: 0.781593 cumulative IPC: 1.13696 (Simulation time: 0 hr 12 min 38 sec) 
Heartbeat CPU 0 instructions: 195000000 cycles: 177566499 heartbeat IPC: 0.793477 cumulative IPC: 1.1343 (Simulation time: 0 hr 12 min 42 sec) 
Heartbeat CPU 0 instructions: 196000000 cycles: 178217210 heartbeat IPC: 1.53678 cumulative IPC: 1.1359 (Simulation time: 0 hr 12 min 46 sec) 
Heartbeat CPU 0 instructions: 197000001 cycles: 178886662 heartbeat IPC: 1.49376 cumulative IPC: 1.13736 (Simulation time: 0 hr 12 min 50 sec) 
Heartbeat CPU 0 instructions: 198000000 cycles: 180347436 heartbeat IPC: 0.684568 cumulative IPC: 1.13337 (Simulation time: 0 hr 12 min 54 sec) 
Heartbeat CPU 0 instructions: 199000000 cycles: 181345715 heartbeat IPC: 1.00172 cumulative IPC: 1.13258 (Simulation time: 0 hr 12 min 58 sec) 
Heartbeat CPU 0 instructions: 200000002 cycles: 181967118 heartbeat IPC: 1.60926 cumulative IPC: 1.13435 (Simulation time: 0 hr 13 min 2 sec) 
Heartbeat CPU 0 instructions: 201000001 cycles: 182933774 heartbeat IPC: 1.03449 cumulative IPC: 1.13378 (Simulation time: 0 hr 13 min 6 sec) 
Heartbeat CPU 0 instructions: 202000002 cycles: 184306427 heartbeat IPC: 0.728517 cumulative IPC: 1.1305 (Simulation time: 0 hr 13 min 11 sec) 
Heartbeat CPU 0 instructions: 203000001 cycles: 185081962 heartbeat IPC: 1.28943 cumulative IPC: 1.13123 (Simulation time: 0 hr 13 min 14 sec) 
Heartbeat CPU 0 instructions: 204000002 cycles: 185724228 heartbeat IPC: 1.55699 cumulative IPC: 1.13282 (Simulation time: 0 hr 13 min 18 sec) 
Heartbeat CPU 0 instructions: 205000002 cycles: 187074148 heartbeat IPC: 0.740785 cumulative IPC: 1.12976 (Simulation time: 0 hr 13 min 23 sec) 
Heartbeat CPU 0 instructions: 206000002 cycles: 188150662 heartbeat IPC: 0.928924 cumulative IPC: 1.12851 (Simulation time: 0 hr 13 min 26 sec) 
Heartbeat CPU 0 instructions: 207000003 cycles: 188803583 heartbeat IPC: 1.53158 cumulative IPC: 1.13002 (Simulation time: 0 hr 13 min 30 sec) 
Heartbeat CPU 0 instructions: 208000001 cycles: 189652008 heartbeat IPC: 1.17865 cumulative IPC: 1.13026 (Simulation time: 0 hr 13 min 34 sec) 
Heartbeat CPU 0 instructions: 209000000 cycles: 191144992 heartbeat IPC: 0.669799 cumulative IPC: 1.12637 (Simulation time: 0 hr 13 min 39 sec) 
Heartbeat CPU 0 instructions: 210000002 cycles: 191937565 heartbeat IPC: 1.26172 cumulative IPC: 1.12697 (Simulation time: 0 hr 13 min 42 sec) 
Heartbeat CPU 0 instructions: 211000003 cycles: 192575366 heartbeat IPC: 1.56789 cumulative IPC: 1.12855 (Simulation time: 0 hr 13 min 46 sec) 
Heartbeat CPU 0 instructions: 212000000 cycles: 193802718 heartbeat IPC: 0.81476 cumulative IPC: 1.1264 (Simulation time: 0 hr 13 min 51 sec) 
Heartbeat CPU 0 instructions: 213000003 cycles: 195082645 heartbeat IPC: 0.781297 cumulative IPC: 1.12396 (Simulation time: 0 hr 13 min 55 sec) 
Heartbeat CPU 0 instructions: 214000002 cycles: 195833972 heartbeat IPC: 1.33098 cumulative IPC: 1.12481 (Simulation time: 0 hr 13 min 58 sec) 
Heartbeat CPU 0 instructions: 215000001 cycles: 196492364 heartbeat IPC: 1.51885 cumulative IPC: 1.12624 (Simulation time: 0 hr 14 min 2 sec) 
Heartbeat CPU 0 instructions: 216000000 cycles: 198009814 heartbeat IPC: 0.659 cumulative IPC: 1.12238 (Simulation time: 0 hr 14 min 7 sec) 
Heartbeat CPU 0 instructions: 217000001 cycles: 199174171 heartbeat IPC: 0.858844 cumulative IPC: 1.12072 (Simulation time: 0 hr 14 min 11 sec) 
Heartbeat CPU 0 instructions: 218000001 cycles: 199849729 heartbeat IPC: 1.48026 cumulative IPC: 1.12203 (Simulation time: 0 hr 14 min 15 sec) 
Heartbeat CPU 0 instructions: 219000002 cycles: 200554039 heartbeat IPC: 1.41983 cumulative IPC: 1.12315 (Simulation time: 0 hr 14 min 19 sec) 
Heartbeat CPU 0 instructions: 220000000 cycles: 202118417 heartbeat IPC: 0.63923 cumulative IPC: 1.11912 (Simulation time: 0 hr 14 min 23 sec) 
Heartbeat CPU 0 instructions: 221000002 cycles: 203274078 heartbeat IPC: 0.865307 cumulative IPC: 1.11756 (Simulation time: 0 hr 14 min 27 sec) 
Heartbeat CPU 0 instructions: 222000001 cycles: 203917965 heartbeat IPC: 1.55307 cumulative IPC: 1.11905 (Simulation time: 0 hr 14 min 31 sec) 
Heartbeat CPU 0 instructions: 223000000 cycles: 204868488 heartbeat IPC: 1.05205 cumulative IPC: 1.11871 (Simulation time: 0 hr 14 min 35 sec) 
Heartbeat CPU 0 instructions: 224000000 cycles: 206437199 heartbeat IPC: 0.637466 cumulative IPC: 1.11478 (Simulation time: 0 hr 14 min 40 sec) 
Heartbeat CPU 0 instructions: 225000003 cycles: 207495679 heartbeat IPC: 0.944754 cumulative IPC: 1.11385 (Simulation time: 0 hr 14 min 44 sec) 
Heartbeat CPU 0 instructions: 226000001 cycles: 208159468 heartbeat IPC: 1.5065 cumulative IPC: 1.11519 (Simulation time: 0 hr 14 min 48 sec) 
Heartbeat CPU 0 instructions: 227000002 cycles: 209078548 heartbeat IPC: 1.08805 cumulative IPC: 1.11506 (Simulation time: 0 hr 14 min 52 sec) 
Heartbeat CPU 0 instructions: 228000003 cycles: 210597596 heartbeat IPC: 0.658308 cumulative IPC: 1.11153 (Simulation time: 0 hr 14 min 56 sec) 
Heartbeat CPU 0 instructions: 229000000 cycles: 211721638 heartbeat IPC: 0.889644 cumulative IPC: 1.11026 (Simulation time: 0 hr 15 min 0 sec) 
Heartbeat CPU 0 instructions: 230000000 cycles: 212348895 heartbeat IPC: 1.59424 cumulative IPC: 1.1118 (Simulation time: 0 hr 15 min 4 sec) 
Heartbeat CPU 0 instructions: 231000000 cycles: 213300793 heartbeat IPC: 1.05053 cumulative IPC: 1.1115 (Simulation time: 0 hr 15 min 8 sec) 
Heartbeat CPU 0 instructions: 232000002 cycles: 214845379 heartbeat IPC: 0.647424 cumulative IPC: 1.10792 (Simulation time: 0 hr 15 min 13 sec) 
Heartbeat CPU 0 instructions: 233000003 cycles: 215928669 heartbeat IPC: 0.923115 cumulative IPC: 1.10693 (Simulation time: 0 hr 15 min 16 sec) 
Heartbeat CPU 0 instructions: 234000001 cycles: 216578417 heartbeat IPC: 1.53906 cumulative IPC: 1.10832 (Simulation time: 0 hr 15 min 20 sec) 
Heartbeat CPU 0 instructions: 235000002 cycles: 217462913 heartbeat IPC: 1.13059 cumulative IPC: 1.10842 (Simulation time: 0 hr 15 min 25 sec) 
Heartbeat CPU 0 instructions: 236000001 cycles: 219020181 heartbeat IPC: 0.64215 cumulative IPC: 1.10487 (Simulation time: 0 hr 15 min 29 sec) 
Heartbeat CPU 0 instructions: 237000002 cycles: 220107286 heartbeat IPC: 0.919875 cumulative IPC: 1.10389 (Simulation time: 0 hr 15 min 33 sec) 
Heartbeat CPU 0 instructions: 238000002 cycles: 220725343 heartbeat IPC: 1.61797 cumulative IPC: 1.10543 (Simulation time: 0 hr 15 min 37 sec) 
Heartbeat CPU 0 instructions: 239000003 cycles: 221627310 heartbeat IPC: 1.10869 cumulative IPC: 1.10544 (Simulation time: 0 hr 15 min 41 sec) 
Heartbeat CPU 0 instructions: 240000000 cycles: 223173893 heartbeat IPC: 0.646585 cumulative IPC: 1.10204 (Simulation time: 0 hr 15 min 46 sec) 
Heartbeat CPU 0 instructions: 241000000 cycles: 224326419 heartbeat IPC: 0.867659 cumulative IPC: 1.10076 (Simulation time: 0 hr 15 min 49 sec) 
Heartbeat CPU 0 instructions: 242000000 cycles: 225040851 heartbeat IPC: 1.39971 cumulative IPC: 1.10177 (Simulation time: 0 hr 15 min 53 sec) 
Heartbeat CPU 0 instructions: 243000000 cycles: 225816257 heartbeat IPC: 1.28965 cumulative IPC: 1.10246 (Simulation time: 0 hr 15 min 56 sec) 
Heartbeat CPU 0 instructions: 244000001 cycles: 226524087 heartbeat IPC: 1.41277 cumulative IPC: 1.1035 (Simulation time: 0 hr 16 min 0 sec) 
Heartbeat CPU 0 instructions: 245000002 cycles: 227894804 heartbeat IPC: 0.729546 cumulative IPC: 1.10109 (Simulation time: 0 hr 16 min 5 sec) 
Heartbeat CPU 0 instructions: 246000000 cycles: 229444092 heartbeat IPC: 0.645456 cumulative IPC: 1.09781 (Simulation time: 0 hr 16 min 9 sec) 
Heartbeat CPU 0 instructions: 247000003 cycles: 230273634 heartbeat IPC: 1.20549 cumulative IPC: 1.09822 (Simulation time: 0 hr 16 min 13 sec) 
Heartbeat CPU 0 instructions: 248000002 cycles: 230919028 heartbeat IPC: 1.54944 cumulative IPC: 1.09957 (Simulation time: 0 hr 16 min 17 sec) 
Heartbeat CPU 0 instructions: 249000000 cycles: 231989615 heartbeat IPC: 0.934065 cumulative IPC: 1.09876 (Simulation time: 0 hr 16 min 21 sec) 
Heartbeat CPU 0 instructions: 250000000 cycles: 233496652 heartbeat IPC: 0.663554 cumulative IPC: 1.09576 (Simulation time: 0 hr 16 min 25 sec) 
Heartbeat CPU 0 instructions: 251000000 cycles: 234642444 heartbeat IPC: 0.872759 cumulative IPC: 1.0946 (Simulation time: 0 hr 16 min 29 sec) 
Heartbeat CPU 0 instructions: 252000000 cycles: 235328477 heartbeat IPC: 1.45766 cumulative IPC: 1.09573 (Simulation time: 0 hr 16 min 33 sec) 
Heartbeat CPU 0 instructions: 253000000 cycles: 236132564 heartbeat IPC: 1.24365 cumulative IPC: 1.09626 (Simulation time: 0 hr 16 min 37 sec) 
Heartbeat CPU 0 instructions: 254000000 cycles: 237658451 heartbeat IPC: 0.655357 cumulative IPC: 1.09325 (Simulation time: 0 hr 16 min 42 sec) 
Heartbeat CPU 0 instructions: 255000000 cycles: 239094151 heartbeat IPC: 0.696524 cumulative IPC: 1.09071 (Simulation time: 0 hr 16 min 46 sec) 
Heartbeat CPU 0 instructions: 256000000 cycles: 239897738 heartbeat IPC: 1.24442 cumulative IPC: 1.09126 (Simulation time: 0 hr 16 min 50 sec) 
Heartbeat CPU 0 instructions: 257000003 cycles: 240553568 heartbeat IPC: 1.52479 cumulative IPC: 1.09252 (Simulation time: 0 hr 16 min 54 sec) 
Heartbeat CPU 0 instructions: 258000003 cycles: 241830640 heartbeat IPC: 0.783041 cumulative IPC: 1.09078 (Simulation time: 0 hr 16 min 58 sec) 
Heartbeat CPU 0 instructions: 259000001 cycles: 243419615 heartbeat IPC: 0.629335 cumulative IPC: 1.08758 (Simulation time: 0 hr 17 min 3 sec) 
Heartbeat CPU 0 instructions: 260000002 cycles: 244467374 heartbeat IPC: 0.954419 cumulative IPC: 1.08697 (Simulation time: 0 hr 17 min 6 sec) 
Heartbeat CPU 0 instructions: 261000001 cycles: 245114407 heartbeat IPC: 1.54551 cumulative IPC: 1.08826 (Simulation time: 0 hr 17 min 10 sec) 
Heartbeat CPU 0 instructions: 262000003 cycles: 246081643 heartbeat IPC: 1.03388 cumulative IPC: 1.08803 (Simulation time: 0 hr 17 min 15 sec) 
Heartbeat CPU 0 instructions: 263000001 cycles: 247692477 heartbeat IPC: 0.620795 cumulative IPC: 1.0848 (Simulation time: 0 hr 17 min 19 sec) 
Heartbeat CPU 0 instructions: 264000000 cycles: 248908630 heartbeat IPC: 0.822264 cumulative IPC: 1.08344 (Simulation time: 0 hr 17 min 23 sec) 
Heartbeat CPU 0 instructions: 265000000 cycles: 249543122 heartbeat IPC: 1.57606 cumulative IPC: 1.08477 (Simulation time: 0 hr 17 min 27 sec) 
Heartbeat CPU 0 instructions: 266000000 cycles: 250283047 heartbeat IPC: 1.35149 cumulative IPC: 1.08561 (Simulation time: 0 hr 17 min 31 sec) 
Heartbeat CPU 0 instructions: 267000003 cycles: 251936027 heartbeat IPC: 0.60497 cumulative IPC: 1.08226 (Simulation time: 0 hr 17 min 36 sec) 
Heartbeat CPU 0 instructions: 268000000 cycles: 253176431 heartbeat IPC: 0.806187 cumulative IPC: 1.08083 (Simulation time: 0 hr 17 min 40 sec) 
Heartbeat CPU 0 instructions: 269000002 cycles: 253859825 heartbeat IPC: 1.46329 cumulative IPC: 1.08192 (Simulation time: 0 hr 17 min 43 sec) 
Heartbeat CPU 0 instructions: 270000001 cycles: 254539380 heartbeat IPC: 1.47155 cumulative IPC: 1.08302 (Simulation time: 0 hr 17 min 47 sec) 
Heartbeat CPU 0 instructions: 271000000 cycles: 256182631 heartbeat IPC: 0.608549 cumulative IPC: 1.0798 (Simulation time: 0 hr 17 min 52 sec) 
Heartbeat CPU 0 instructions: 272000000 cycles: 257292928 heartbeat IPC: 0.90066 cumulative IPC: 1.07898 (Simulation time: 0 hr 17 min 56 sec) 
Heartbeat CPU 0 instructions: 273000002 cycles: 257930222 heartbeat IPC: 1.56914 cumulative IPC: 1.08026 (Simulation time: 0 hr 18 min 0 sec) 
Heartbeat CPU 0 instructions: 274000000 cycles: 258718467 heartbeat IPC: 1.26864 cumulative IPC: 1.08087 (Simulation time: 0 hr 18 min 4 sec) 
Heartbeat CPU 0 instructions: 275000000 cycles: 260326219 heartbeat IPC: 0.621986 cumulative IPC: 1.07787 (Simulation time: 0 hr 18 min 8 sec) 
Heartbeat CPU 0 instructions: 276000003 cycles: 261327642 heartbeat IPC: 0.998582 cumulative IPC: 1.07755 (Simulation time: 0 hr 18 min 12 sec) 
Heartbeat CPU 0 instructions: 277000002 cycles: 261947137 heartbeat IPC: 1.61422 cumulative IPC: 1.07889 (Simulation time: 0 hr 18 min 16 sec) 
Heartbeat CPU 0 instructions: 278000000 cycles: 262868979 heartbeat IPC: 1.08478 cumulative IPC: 1.07891 (Simulation time: 0 hr 18 min 20 sec) 
Heartbeat CPU 0 instructions: 279000000 cycles: 264399188 heartbeat IPC: 0.653506 cumulative IPC: 1.07631 (Simulation time: 0 hr 18 min 24 sec) 
Heartbeat CPU 0 instructions: 280000001 cycles: 265168550 heartbeat IPC: 1.29978 cumulative IPC: 1.07699 (Simulation time: 0 hr 18 min 28 sec) 
Heartbeat CPU 0 instructions: 281000000 cycles: 265796136 heartbeat IPC: 1.59341 cumulative IPC: 1.07828 (Simulation time: 0 hr 18 min 32 sec) 
Heartbeat CPU 0 instructions: 282000000 cycles: 267004306 heartbeat IPC: 0.827698 cumulative IPC: 1.07708 (Simulation time: 0 hr 18 min 36 sec) 
Heartbeat CPU 0 instructions: 283000003 cycles: 268219777 heartbeat IPC: 0.822729 cumulative IPC: 1.07587 (Simulation time: 0 hr 18 min 40 sec) 
Heartbeat CPU 0 instructions: 284000001 cycles: 268868281 heartbeat IPC: 1.54201 cumulative IPC: 1.07705 (Simulation time: 0 hr 18 min 44 sec) 
Heartbeat CPU 0 instructions: 285000000 cycles: 269503554 heartbeat IPC: 1.57412 cumulative IPC: 1.07829 (Simulation time: 0 hr 18 min 48 sec) 
Heartbeat CPU 0 instructions: 286000000 cycles: 271088701 heartbeat IPC: 0.630856 cumulative IPC: 1.07553 (Simulation time: 0 hr 18 min 52 sec) 
Heartbeat CPU 0 instructions: 287000003 cycles: 272011040 heartbeat IPC: 1.0842 cumulative IPC: 1.07556 (Simulation time: 0 hr 18 min 56 sec) 
Heartbeat CPU 0 instructions: 288000000 cycles: 272666833 heartbeat IPC: 1.52487 cumulative IPC: 1.0767 (Simulation time: 0 hr 19 min 0 sec) 
Heartbeat CPU 0 instructions: 289000002 cycles: 273671432 heartbeat IPC: 0.995424 cumulative IPC: 1.07639 (Simulation time: 0 hr 19 min 4 sec) 
Heartbeat CPU 0 instructions: 290000000 cycles: 275277210 heartbeat IPC: 0.62275 cumulative IPC: 1.07359 (Simulation time: 0 hr 19 min 9 sec) 
Heartbeat CPU 0 instructions: 291000003 cycles: 275866092 heartbeat IPC: 1.69814 cumulative IPC: 1.075 (Simulation time: 0 hr 19 min 11 sec) 
Heartbeat CPU 0 instructions: 292000000 cycles: 276620997 heartbeat IPC: 1.32467 cumulative IPC: 1.07572 (Simulation time: 0 hr 19 min 15 sec) 
Heartbeat CPU 0 instructions: 293000000 cycles: 277269558 heartbeat IPC: 1.54188 cumulative IPC: 1.07687 (Simulation time: 0 hr 19 min 19 sec) 
Heartbeat CPU 0 instructions: 294000003 cycles: 278209412 heartbeat IPC: 1.064 cumulative IPC: 1.07682 (Simulation time: 0 hr 19 min 23 sec) 
Heartbeat CPU 0 instructions: 295000001 cycles: 279846894 heartbeat IPC: 0.610693 cumulative IPC: 1.07395 (Simulation time: 0 hr 19 min 27 sec) 
Heartbeat CPU 0 instructions: 296000003 cycles: 280682160 heartbeat IPC: 1.19723 cumulative IPC: 1.07433 (Simulation time: 0 hr 19 min 31 sec) 
Heartbeat CPU 0 instructions: 297000000 cycles: 281307417 heartbeat IPC: 1.59934 cumulative IPC: 1.07556 (Simulation time: 0 hr 19 min 35 sec) 
Heartbeat CPU 0 instructions: 298000002 cycles: 282389825 heartbeat IPC: 0.923868 cumulative IPC: 1.07495 (Simulation time: 0 hr 19 min 39 sec) 
Heartbeat CPU 0 instructions: 299000001 cycles: 283880656 heartbeat IPC: 0.670766 cumulative IPC: 1.07271 (Simulation time: 0 hr 19 min 44 sec) 
Heartbeat CPU 0 instructions: 300000000 cycles: 284670094 heartbeat IPC: 1.26672 cumulative IPC: 1.07328 (Simulation time: 0 hr 19 min 47 sec) 
Heartbeat CPU 0 instructions: 301000003 cycles: 285302132 heartbeat IPC: 1.58219 cumulative IPC: 1.07447 (Simulation time: 0 hr 19 min 51 sec) 
Heartbeat CPU 0 instructions: 302000003 cycles: 286510306 heartbeat IPC: 0.827695 cumulative IPC: 1.07337 (Simulation time: 0 hr 19 min 55 sec) 
Heartbeat CPU 0 instructions: 303000002 cycles: 287886039 heartbeat IPC: 0.726884 cumulative IPC: 1.07163 (Simulation time: 0 hr 20 min 0 sec) 
Heartbeat CPU 0 instructions: 304000003 cycles: 288649799 heartbeat IPC: 1.30931 cumulative IPC: 1.07229 (Simulation time: 0 hr 20 min 3 sec) 
Heartbeat CPU 0 instructions: 305000000 cycles: 289292509 heartbeat IPC: 1.55591 cumulative IPC: 1.07342 (Simulation time: 0 hr 20 min 7 sec) 
Heartbeat CPU 0 instructions: 306000000 cycles: 290657233 heartbeat IPC: 0.732749 cumulative IPC: 1.07174 (Simulation time: 0 hr 20 min 12 sec) 
Heartbeat CPU 0 instructions: 307000000 cycles: 291912385 heartbeat IPC: 0.796716 cumulative IPC: 1.0705 (Simulation time: 0 hr 20 min 16 sec) 
Heartbeat CPU 0 instructions: 308000000 cycles: 292615915 heartbeat IPC: 1.4214 cumulative IPC: 1.07138 (Simulation time: 0 hr 20 min 19 sec) 
Heartbeat CPU 0 instructions: 309000002 cycles: 293248018 heartbeat IPC: 1.58202 cumulative IPC: 1.07254 (Simulation time: 0 hr 20 min 23 sec) 
Heartbeat CPU 0 instructions: 310000000 cycles: 294735903 heartbeat IPC: 0.672094 cumulative IPC: 1.07041 (Simulation time: 0 hr 20 min 28 sec) 
Heartbeat CPU 0 instructions: 311000002 cycles: 295759245 heartbeat IPC: 0.977192 cumulative IPC: 1.07008 (Simulation time: 0 hr 20 min 32 sec) 
Heartbeat CPU 0 instructions: 312000000 cycles: 296385525 heartbeat IPC: 1.59673 cumulative IPC: 1.07125 (Simulation time: 0 hr 20 min 35 sec) 
Heartbeat CPU 0 instructions: 313000001 cycles: 297391813 heartbeat IPC: 0.993752 cumulative IPC: 1.07097 (Simulation time: 0 hr 20 min 40 sec) 
Heartbeat CPU 0 instructions: 314000003 cycles: 298868556 heartbeat IPC: 0.677167 cumulative IPC: 1.06893 (Simulation time: 0 hr 20 min 44 sec) 
Heartbeat CPU 0 instructions: 315000003 cycles: 299673899 heartbeat IPC: 1.24171 cumulative IPC: 1.06941 (Simulation time: 0 hr 20 min 48 sec) 
Heartbeat CPU 0 instructions: 316000003 cycles: 300305841 heartbeat IPC: 1.58242 cumulative IPC: 1.07055 (Simulation time: 0 hr 20 min 52 sec) 
Heartbeat CPU 0 instructions: 317000001 cycles: 301633535 heartbeat IPC: 0.753184 cumulative IPC: 1.06908 (Simulation time: 0 hr 20 min 56 sec) 
Heartbeat CPU 0 instructions: 318000002 cycles: 302937524 heartbeat IPC: 0.766878 cumulative IPC: 1.06771 (Simulation time: 0 hr 21 min 0 sec) 
Heartbeat CPU 0 instructions: 319000000 cycles: 303599125 heartbeat IPC: 1.51148 cumulative IPC: 1.06873 (Simulation time: 0 hr 21 min 4 sec) 
Heartbeat CPU 0 instructions: 320000000 cycles: 304299316 heartbeat IPC: 1.42818 cumulative IPC: 1.0696 (Simulation time: 0 hr 21 min 8 sec) 
Heartbeat CPU 0 instructions: 321000001 cycles: 305883599 heartbeat IPC: 0.631201 cumulative IPC: 1.06721 (Simulation time: 0 hr 21 min 13 sec) 
Heartbeat CPU 0 instructions: 322000001 cycles: 306907606 heartbeat IPC: 0.976556 cumulative IPC: 1.0669 (Simulation time: 0 hr 21 min 16 sec) 
Heartbeat CPU 0 instructions: 323000001 cycles: 307532770 heartbeat IPC: 1.59958 cumulative IPC: 1.06803 (Simulation time: 0 hr 21 min 20 sec) 
Heartbeat CPU 0 instructions: 324000000 cycles: 308506543 heartbeat IPC: 1.02693 cumulative IPC: 1.0679 (Simulation time: 0 hr 21 min 24 sec) 
Heartbeat CPU 0 instructions: 325000001 cycles: 309811593 heartbeat IPC: 0.766255 cumulative IPC: 1.06656 (Simulation time: 0 hr 21 min 29 sec) 
Heartbeat CPU 0 instructions: 326000003 cycles: 310572796 heartbeat IPC: 1.31371 cumulative IPC: 1.0672 (Simulation time: 0 hr 21 min 32 sec) 
Heartbeat CPU 0 instructions: 327000002 cycles: 311230291 heartbeat IPC: 1.52092 cumulative IPC: 1.0682 (Simulation time: 0 hr 21 min 36 sec) 
Heartbeat CPU 0 instructions: 328000003 cycles: 312636866 heartbeat IPC: 0.710948 cumulative IPC: 1.06652 (Simulation time: 0 hr 21 min 40 sec) 
Heartbeat CPU 0 instructions: 329000002 cycles: 313473468 heartbeat IPC: 1.19531 cumulative IPC: 1.06688 (Simulation time: 0 hr 21 min 44 sec) 
Heartbeat CPU 0 instructions: 330000000 cycles: 314096551 heartbeat IPC: 1.60492 cumulative IPC: 1.068 (Simulation time: 0 hr 21 min 48 sec) 
Heartbeat CPU 0 instructions: 331000003 cycles: 315170657 heartbeat IPC: 0.93101 cumulative IPC: 1.06751 (Simulation time: 0 hr 21 min 52 sec) 
Heartbeat CPU 0 instructions: 332000000 cycles: 316287295 heartbeat IPC: 0.895543 cumulative IPC: 1.06687 (Simulation time: 0 hr 21 min 56 sec) 
Heartbeat CPU 0 instructions: 333000002 cycles: 316918360 heartbeat IPC: 1.58463 cumulative IPC: 1.06795 (Simulation time: 0 hr 22 min 0 sec) 
Heartbeat CPU 0 instructions: 334000002 cycles: 317660360 heartbeat IPC: 1.34771 cumulative IPC: 1.06864 (Simulation time: 0 hr 22 min 4 sec) 
Heartbeat CPU 0 instructions: 335000002 cycles: 318775330 heartbeat IPC: 0.896885 cumulative IPC: 1.06801 (Simulation time: 0 hr 22 min 8 sec) 
Heartbeat CPU 0 instructions: 336000002 cycles: 319419940 heartbeat IPC: 1.55133 cumulative IPC: 1.06903 (Simulation time: 0 hr 22 min 11 sec) 
Heartbeat CPU 0 instructions: 337000002 cycles: 320022928 heartbeat IPC: 1.65841 cumulative IPC: 1.07019 (Simulation time: 0 hr 22 min 15 sec) 
Heartbeat CPU 0 instructions: 338000000 cycles: 320832311 heartbeat IPC: 1.23551 cumulative IPC: 1.07063 (Simulation time: 0 hr 22 min 19 sec) 
Heartbeat CPU 0 instructions: 339000001 cycles: 321508296 heartbeat IPC: 1.47932 cumulative IPC: 1.07153 (Simulation time: 0 hr 22 min 22 sec) 
Heartbeat CPU 0 instructions: 340000000 cycles: 322192905 heartbeat IPC: 1.46069 cumulative IPC: 1.0724 (Simulation time: 0 hr 22 min 25 sec) 
Heartbeat CPU 0 instructions: 341000000 cycles: 322804718 heartbeat IPC: 1.63449 cumulative IPC: 1.07351 (Simulation time: 0 hr 22 min 29 sec) 
Heartbeat CPU 0 instructions: 342000000 cycles: 323635139 heartbeat IPC: 1.20421 cumulative IPC: 1.07386 (Simulation time: 0 hr 22 min 33 sec) 
Heartbeat CPU 0 instructions: 343000002 cycles: 324310494 heartbeat IPC: 1.48071 cumulative IPC: 1.07475 (Simulation time: 0 hr 22 min 37 sec) 
Heartbeat CPU 0 instructions: 344000003 cycles: 324897841 heartbeat IPC: 1.70257 cumulative IPC: 1.07594 (Simulation time: 0 hr 22 min 41 sec) 
Heartbeat CPU 0 instructions: 345000001 cycles: 325670024 heartbeat IPC: 1.29503 cumulative IPC: 1.07648 (Simulation time: 0 hr 22 min 44 sec) 
Heartbeat CPU 0 instructions: 346000003 cycles: 326329983 heartbeat IPC: 1.51525 cumulative IPC: 1.07741 (Simulation time: 0 hr 22 min 48 sec) 
Heartbeat CPU 0 instructions: 347000003 cycles: 326940773 heartbeat IPC: 1.63722 cumulative IPC: 1.0785 (Simulation time: 0 hr 22 min 52 sec) 
Heartbeat CPU 0 instructions: 348000002 cycles: 327732970 heartbeat IPC: 1.26231 cumulative IPC: 1.07897 (Simulation time: 0 hr 22 min 56 sec) 
Heartbeat CPU 0 instructions: 349000001 cycles: 328408516 heartbeat IPC: 1.48028 cumulative IPC: 1.07983 (Simulation time: 0 hr 22 min 59 sec) 
Heartbeat CPU 0 instructions: 350000001 cycles: 329017236 heartbeat IPC: 1.64279 cumulative IPC: 1.08092 (Simulation time: 0 hr 23 min 3 sec) 
Heartbeat CPU 0 instructions: 351000003 cycles: 329844792 heartbeat IPC: 1.20838 cumulative IPC: 1.08126 (Simulation time: 0 hr 23 min 7 sec) 
Heartbeat CPU 0 instructions: 352000000 cycles: 330482135 heartbeat IPC: 1.56901 cumulative IPC: 1.08224 (Simulation time: 0 hr 23 min 10 sec) 
Heartbeat CPU 0 instructions: 353000003 cycles: 331072263 heartbeat IPC: 1.69455 cumulative IPC: 1.08338 (Simulation time: 0 hr 23 min 14 sec) 
Heartbeat CPU 0 instructions: 354000000 cycles: 332392694 heartbeat IPC: 0.757326 cumulative IPC: 1.08203 (Simulation time: 0 hr 23 min 18 sec) 
Heartbeat CPU 0 instructions: 355000002 cycles: 333182004 heartbeat IPC: 1.26693 cumulative IPC: 1.08248 (Simulation time: 0 hr 23 min 22 sec) 
Heartbeat CPU 0 instructions: 356000002 cycles: 333804979 heartbeat IPC: 1.6052 cumulative IPC: 1.0835 (Simulation time: 0 hr 23 min 26 sec) 
Heartbeat CPU 0 instructions: 357000002 cycles: 334995090 heartbeat IPC: 0.840258 cumulative IPC: 1.0826 (Simulation time: 0 hr 23 min 30 sec) 
Heartbeat CPU 0 instructions: 358000003 cycles: 335899505 heartbeat IPC: 1.10569 cumulative IPC: 1.08267 (Simulation time: 0 hr 23 min 34 sec) 
Heartbeat CPU 0 instructions: 359000001 cycles: 336513308 heartbeat IPC: 1.62918 cumulative IPC: 1.08371 (Simulation time: 0 hr 23 min 37 sec) 
Heartbeat CPU 0 instructions: 360000003 cycles: 337352532 heartbeat IPC: 1.19158 cumulative IPC: 1.08399 (Simulation time: 0 hr 23 min 42 sec) 
Heartbeat CPU 0 instructions: 361000000 cycles: 338547284 heartbeat IPC: 0.836991 cumulative IPC: 1.08308 (Simulation time: 0 hr 23 min 46 sec) 
Heartbeat CPU 0 instructions: 362000002 cycles: 339240259 heartbeat IPC: 1.44306 cumulative IPC: 1.08385 (Simulation time: 0 hr 23 min 49 sec) 
Heartbeat CPU 0 instructions: 363000000 cycles: 339861413 heartbeat IPC: 1.6099 cumulative IPC: 1.08485 (Simulation time: 0 hr 23 min 53 sec) 
Heartbeat CPU 0 instructions: 364000001 cycles: 341178868 heartbeat IPC: 0.75904 cumulative IPC: 1.08354 (Simulation time: 0 hr 23 min 58 sec) 
Heartbeat CPU 0 instructions: 365000000 cycles: 341972612 heartbeat IPC: 1.25985 cumulative IPC: 1.08396 (Simulation time: 0 hr 24 min 1 sec) 
Heartbeat CPU 0 instructions: 366000003 cycles: 342619658 heartbeat IPC: 1.54549 cumulative IPC: 1.08487 (Simulation time: 0 hr 24 min 5 sec) 
Heartbeat CPU 0 instructions: 367000002 cycles: 343704885 heartbeat IPC: 0.921465 cumulative IPC: 1.08433 (Simulation time: 0 hr 24 min 9 sec) 
Heartbeat CPU 0 instructions: 368000001 cycles: 344770807 heartbeat IPC: 0.938154 cumulative IPC: 1.08386 (Simulation time: 0 hr 24 min 13 sec) 
Heartbeat CPU 0 instructions: 369000003 cycles: 345468674 heartbeat IPC: 1.43294 cumulative IPC: 1.0846 (Simulation time: 0 hr 24 min 17 sec) 
Heartbeat CPU 0 instructions: 370000000 cycles: 346156233 heartbeat IPC: 1.45442 cumulative IPC: 1.08537 (Simulation time: 0 hr 24 min 21 sec) 
Heartbeat CPU 0 instructions: 371000002 cycles: 347520181 heartbeat IPC: 0.733167 cumulative IPC: 1.08392 (Simulation time: 0 hr 24 min 25 sec) 
Heartbeat CPU 0 instructions: 372000002 cycles: 348298624 heartbeat IPC: 1.28462 cumulative IPC: 1.08439 (Simulation time: 0 hr 24 min 29 sec) 
Heartbeat CPU 0 instructions: 373000000 cycles: 348916910 heartbeat IPC: 1.61737 cumulative IPC: 1.08538 (Simulation time: 0 hr 24 min 33 sec) 
Heartbeat CPU 0 instructions: 374000000 cycles: 350133458 heartbeat IPC: 0.821998 cumulative IPC: 1.08442 (Simulation time: 0 hr 24 min 37 sec) 
Heartbeat CPU 0 instructions: 375000003 cycles: 351033377 heartbeat IPC: 1.11121 cumulative IPC: 1.08449 (Simulation time: 0 hr 24 min 40 sec) 
Heartbeat CPU 0 instructions: 376000001 cycles: 351647596 heartbeat IPC: 1.62808 cumulative IPC: 1.08548 (Simulation time: 0 hr 24 min 44 sec) 
Heartbeat CPU 0 instructions: 377000000 cycles: 352491274 heartbeat IPC: 1.18529 cumulative IPC: 1.08573 (Simulation time: 0 hr 24 min 48 sec) 
Heartbeat CPU 0 instructions: 378000001 cycles: 353689871 heartbeat IPC: 0.83431 cumulative IPC: 1.08484 (Simulation time: 0 hr 24 min 52 sec) 
Heartbeat CPU 0 instructions: 379000001 cycles: 354307779 heartbeat IPC: 1.61836 cumulative IPC: 1.08581 (Simulation time: 0 hr 24 min 55 sec) 
Heartbeat CPU 0 instructions: 380000000 cycles: 355104313 heartbeat IPC: 1.25544 cumulative IPC: 1.08621 (Simulation time: 0 hr 24 min 59 sec) 
Heartbeat CPU 0 instructions: 381000003 cycles: 355729504 heartbeat IPC: 1.59952 cumulative IPC: 1.08715 (Simulation time: 0 hr 25 min 3 sec) 
Heartbeat CPU 0 instructions: 382000003 cycles: 356921607 heartbeat IPC: 0.838854 cumulative IPC: 1.08629 (Simulation time: 0 hr 25 min 7 sec) 
Heartbeat CPU 0 instructions: 383000002 cycles: 358030455 heartbeat IPC: 0.901836 cumulative IPC: 1.08569 (Simulation time: 0 hr 25 min 11 sec) 
Heartbeat CPU 0 instructions: 384000003 cycles: 358666008 heartbeat IPC: 1.57343 cumulative IPC: 1.08659 (Simulation time: 0 hr 25 min 15 sec) 
Heartbeat CPU 0 instructions: 385000000 cycles: 359325335 heartbeat IPC: 1.51669 cumulative IPC: 1.08741 (Simulation time: 0 hr 25 min 19 sec) 
Heartbeat CPU 0 instructions: 386000002 cycles: 360772784 heartbeat IPC: 0.690872 cumulative IPC: 1.08576 (Simulation time: 0 hr 25 min 23 sec) 
Heartbeat CPU 0 instructions: 387000003 cycles: 361548897 heartbeat IPC: 1.28847 cumulative IPC: 1.08621 (Simulation time: 0 hr 25 min 27 sec) 
Heartbeat CPU 0 instructions: 388000000 cycles: 362170643 heartbeat IPC: 1.60837 cumulative IPC: 1.08714 (Simulation time: 0 hr 25 min 30 sec) 
Heartbeat CPU 0 instructions: 389000000 cycles: 363340259 heartbeat IPC: 0.854981 cumulative IPC: 1.08637 (Simulation time: 0 hr 25 min 35 sec) 
Heartbeat CPU 0 instructions: 390000002 cycles: 364359829 heartbeat IPC: 0.980808 cumulative IPC: 1.08606 (Simulation time: 0 hr 25 min 39 sec) 
Heartbeat CPU 0 instructions: 391000000 cycles: 365017928 heartbeat IPC: 1.51953 cumulative IPC: 1.08687 (Simulation time: 0 hr 25 min 42 sec) 
Heartbeat CPU 0 instructions: 392000000 cycles: 365818218 heartbeat IPC: 1.24955 cumulative IPC: 1.08724 (Simulation time: 0 hr 25 min 46 sec) 
Heartbeat CPU 0 instructions: 393000001 cycles: 367127805 heartbeat IPC: 0.7636 cumulative IPC: 1.08604 (Simulation time: 0 hr 25 min 51 sec) 
Heartbeat CPU 0 instructions: 394000003 cycles: 367836078 heartbeat IPC: 1.41189 cumulative IPC: 1.08669 (Simulation time: 0 hr 25 min 54 sec) 
Heartbeat CPU 0 instructions: 395000001 cycles: 368466334 heartbeat IPC: 1.58665 cumulative IPC: 1.08758 (Simulation time: 0 hr 25 min 58 sec) 
Heartbeat CPU 0 instructions: 396000000 cycles: 369717968 heartbeat IPC: 0.798955 cumulative IPC: 1.08657 (Simulation time: 0 hr 26 min 2 sec) 
Heartbeat CPU 0 instructions: 397000001 cycles: 370637403 heartbeat IPC: 1.08763 cumulative IPC: 1.08657 (Simulation time: 0 hr 26 min 6 sec) 
Heartbeat CPU 0 instructions: 398000001 cycles: 371260165 heartbeat IPC: 1.60575 cumulative IPC: 1.08748 (Simulation time: 0 hr 26 min 10 sec) 
Heartbeat CPU 0 instructions: 399000002 cycles: 372269675 heartbeat IPC: 0.990581 cumulative IPC: 1.0872 (Simulation time: 0 hr 26 min 14 sec) 
Heartbeat CPU 0 instructions: 400000000 cycles: 373406196 heartbeat IPC: 0.879876 cumulative IPC: 1.08655 (Simulation time: 0 hr 26 min 18 sec) 
Heartbeat CPU 0 instructions: 401000000 cycles: 374072681 heartbeat IPC: 1.50041 cumulative IPC: 1.08731 (Simulation time: 0 hr 26 min 22 sec) 
Heartbeat CPU 0 instructions: 402000002 cycles: 374735875 heartbeat IPC: 1.50786 cumulative IPC: 1.08809 (Simulation time: 0 hr 26 min 26 sec) 
Heartbeat CPU 0 instructions: 403000001 cycles: 376104507 heartbeat IPC: 0.730656 cumulative IPC: 1.08673 (Simulation time: 0 hr 26 min 30 sec) 
Heartbeat CPU 0 instructions: 404000002 cycles: 376884190 heartbeat IPC: 1.28257 cumulative IPC: 1.08716 (Simulation time: 0 hr 26 min 34 sec) 
Heartbeat CPU 0 instructions: 405000000 cycles: 377537853 heartbeat IPC: 1.52984 cumulative IPC: 1.08795 (Simulation time: 0 hr 26 min 38 sec) 
Heartbeat CPU 0 instructions: 406000000 cycles: 378770557 heartbeat IPC: 0.811225 cumulative IPC: 1.08702 (Simulation time: 0 hr 26 min 42 sec) 
Heartbeat CPU 0 instructions: 407000000 cycles: 379796580 heartbeat IPC: 0.974637 cumulative IPC: 1.0867 (Simulation time: 0 hr 26 min 46 sec) 
Heartbeat CPU 0 instructions: 408000000 cycles: 380429952 heartbeat IPC: 1.57885 cumulative IPC: 1.08755 (Simulation time: 0 hr 26 min 50 sec) 
Heartbeat CPU 0 instructions: 409000002 cycles: 381258965 heartbeat IPC: 1.20626 cumulative IPC: 1.08782 (Simulation time: 0 hr 26 min 54 sec) 
Heartbeat CPU 0 instructions: 410000001 cycles: 382584701 heartbeat IPC: 0.754297 cumulative IPC: 1.08662 (Simulation time: 0 hr 26 min 58 sec) 
Heartbeat CPU 0 instructions: 411000003 cycles: 383338049 heartbeat IPC: 1.32741 cumulative IPC: 1.08711 (Simulation time: 0 hr 27 min 1 sec) 
Heartbeat CPU 0 instructions: 412000002 cycles: 383980775 heartbeat IPC: 1.55587 cumulative IPC: 1.08793 (Simulation time: 0 hr 27 min 5 sec) 
Heartbeat CPU 0 instructions: 413000001 cycles: 385296950 heartbeat IPC: 0.759777 cumulative IPC: 1.08676 (Simulation time: 0 hr 27 min 10 sec) 
Heartbeat CPU 0 instructions: 414000003 cycles: 386314590 heartbeat IPC: 0.982668 cumulative IPC: 1.08648 (Simulation time: 0 hr 27 min 13 sec) 
Heartbeat CPU 0 instructions: 415000001 cycles: 386956460 heartbeat IPC: 1.55794 cumulative IPC: 1.08729 (Simulation time: 0 hr 27 min 17 sec) 
Heartbeat CPU 0 instructions: 416000002 cycles: 387869178 heartbeat IPC: 1.09563 cumulative IPC: 1.08731 (Simulation time: 0 hr 27 min 22 sec) 
Heartbeat CPU 0 instructions: 417000000 cycles: 389235171 heartbeat IPC: 0.732067 cumulative IPC: 1.08602 (Simulation time: 0 hr 27 min 26 sec) 
Heartbeat CPU 0 instructions: 418000000 cycles: 389999050 heartbeat IPC: 1.30911 cumulative IPC: 1.08647 (Simulation time: 0 hr 27 min 29 sec) 
Heartbeat CPU 0 instructions: 419000001 cycles: 390660730 heartbeat IPC: 1.51131 cumulative IPC: 1.08722 (Simulation time: 0 hr 27 min 33 sec) 
Heartbeat CPU 0 instructions: 420000001 cycles: 391910213 heartbeat IPC: 0.800331 cumulative IPC: 1.08627 (Simulation time: 0 hr 27 min 38 sec) 
Heartbeat CPU 0 instructions: 421000001 cycles: 393058848 heartbeat IPC: 0.870599 cumulative IPC: 1.08561 (Simulation time: 0 hr 27 min 42 sec) 
Heartbeat CPU 0 instructions: 422000002 cycles: 393688467 heartbeat IPC: 1.58826 cumulative IPC: 1.08645 (Simulation time: 0 hr 27 min 45 sec) 
Heartbeat CPU 0 instructions: 423000003 cycles: 394377232 heartbeat IPC: 1.45188 cumulative IPC: 1.08711 (Simulation time: 0 hr 27 min 49 sec) 
Heartbeat CPU 0 instructions: 424000003 cycles: 395956432 heartbeat IPC: 0.633232 cumulative IPC: 1.08523 (Simulation time: 0 hr 27 min 54 sec) 
Heartbeat CPU 0 instructions: 425000000 cycles: 396553473 heartbeat IPC: 1.67492 cumulative IPC: 1.08615 (Simulation time: 0 hr 27 min 57 sec) 
Heartbeat CPU 0 instructions: 426000003 cycles: 397389003 heartbeat IPC: 1.19685 cumulative IPC: 1.08639 (Simulation time: 0 hr 28 min 0 sec) 
Heartbeat CPU 0 instructions: 427000003 cycles: 398054827 heartbeat IPC: 1.5019 cumulative IPC: 1.08711 (Simulation time: 0 hr 28 min 4 sec) 
Heartbeat CPU 0 instructions: 428000002 cycles: 399044870 heartbeat IPC: 1.01006 cumulative IPC: 1.08692 (Simulation time: 0 hr 28 min 9 sec) 
Heartbeat CPU 0 instructions: 429000000 cycles: 400361265 heartbeat IPC: 0.759649 cumulative IPC: 1.0858 (Simulation time: 0 hr 28 min 13 sec) 
Heartbeat CPU 0 instructions: 430000000 cycles: 401116210 heartbeat IPC: 1.3246 cumulative IPC: 1.08627 (Simulation time: 0 hr 28 min 16 sec) 
Heartbeat CPU 0 instructions: 431000001 cycles: 401751892 heartbeat IPC: 1.57312 cumulative IPC: 1.08707 (Simulation time: 0 hr 28 min 20 sec) 
Heartbeat CPU 0 instructions: 432000001 cycles: 403099709 heartbeat IPC: 0.74194 cumulative IPC: 1.08587 (Simulation time: 0 hr 28 min 25 sec) 
Heartbeat CPU 0 instructions: 433000001 cycles: 404129459 heartbeat IPC: 0.97111 cumulative IPC: 1.08557 (Simulation time: 0 hr 28 min 28 sec) 
Heartbeat CPU 0 instructions: 434000000 cycles: 404750763 heartbeat IPC: 1.60952 cumulative IPC: 1.0864 (Simulation time: 0 hr 28 min 32 sec) 
Heartbeat CPU 0 instructions: 435000000 cycles: 405639330 heartbeat IPC: 1.12541 cumulative IPC: 1.08649 (Simulation time: 0 hr 28 min 36 sec) 
Heartbeat CPU 0 instructions: 436000000 cycles: 407068713 heartbeat IPC: 0.699603 cumulative IPC: 1.08508 (Simulation time: 0 hr 28 min 41 sec) 
Heartbeat CPU 0 instructions: 437000000 cycles: 407824216 heartbeat IPC: 1.32362 cumulative IPC: 1.08554 (Simulation time: 0 hr 28 min 44 sec) 
Heartbeat CPU 0 instructions: 438000002 cycles: 408463279 heartbeat IPC: 1.56479 cumulative IPC: 1.08632 (Simulation time: 0 hr 28 min 48 sec) 
Heartbeat CPU 0 instructions: 439000000 cycles: 409721066 heartbeat IPC: 0.795046 cumulative IPC: 1.08539 (Simulation time: 0 hr 28 min 53 sec) 
Heartbeat CPU 0 instructions: 440000000 cycles: 410881470 heartbeat IPC: 0.861769 cumulative IPC: 1.08473 (Simulation time: 0 hr 28 min 57 sec) 
Heartbeat CPU 0 instructions: 441000002 cycles: 411541147 heartbeat IPC: 1.5159 cumulative IPC: 1.08545 (Simulation time: 0 hr 29 min 0 sec) 
Heartbeat CPU 0 instructions: 442000002 cycles: 412298242 heartbeat IPC: 1.32084 cumulative IPC: 1.0859 (Simulation time: 0 hr 29 min 4 sec) 
Heartbeat CPU 0 instructions: 443000003 cycles: 413857184 heartbeat IPC: 0.641461 cumulative IPC: 1.08416 (Simulation time: 0 hr 29 min 9 sec) 
Heartbeat CPU 0 instructions: 444000001 cycles: 414706370 heartbeat IPC: 1.1776 cumulative IPC: 1.08436 (Simulation time: 0 hr 29 min 12 sec) 
Heartbeat CPU 0 instructions: 445000000 cycles: 415341587 heartbeat IPC: 1.57426 cumulative IPC: 1.08514 (Simulation time: 0 hr 29 min 16 sec) 
Heartbeat CPU 0 instructions: 446000002 cycles: 416517542 heartbeat IPC: 0.850374 cumulative IPC: 1.08445 (Simulation time: 0 hr 29 min 21 sec) 
Heartbeat CPU 0 instructions: 447000000 cycles: 417812496 heartbeat IPC: 0.772227 cumulative IPC: 1.08345 (Simulation time: 0 hr 29 min 25 sec) 
Heartbeat CPU 0 instructions: 448000001 cycles: 418524056 heartbeat IPC: 1.40536 cumulative IPC: 1.08402 (Simulation time: 0 hr 29 min 29 sec) 
Heartbeat CPU 0 instructions: 449000002 cycles: 419171350 heartbeat IPC: 1.54489 cumulative IPC: 1.08475 (Simulation time: 0 hr 29 min 32 sec) 
Heartbeat CPU 0 instructions: 450000003 cycles: 420626098 heartbeat IPC: 0.687405 cumulative IPC: 1.08333 (Simulation time: 0 hr 29 min 37 sec) 
Heartbeat CPU 0 instructions: 451000000 cycles: 421690315 heartbeat IPC: 0.939655 cumulative IPC: 1.08295 (Simulation time: 0 hr 29 min 41 sec) 
Heartbeat CPU 0 instructions: 452000003 cycles: 422317129 heartbeat IPC: 1.59537 cumulative IPC: 1.08374 (Simulation time: 0 hr 29 min 45 sec) 
Heartbeat CPU 0 instructions: 453000002 cycles: 423147107 heartbeat IPC: 1.20485 cumulative IPC: 1.08399 (Simulation time: 0 hr 29 min 49 sec) 
Heartbeat CPU 0 instructions: 454000003 cycles: 424656808 heartbeat IPC: 0.662383 cumulative IPC: 1.08244 (Simulation time: 0 hr 29 min 53 sec) 
Heartbeat CPU 0 instructions: 455000000 cycles: 425482101 heartbeat IPC: 1.21169 cumulative IPC: 1.0827 (Simulation time: 0 hr 29 min 57 sec) 
Heartbeat CPU 0 instructions: 456000002 cycles: 426104290 heartbeat IPC: 1.60723 cumulative IPC: 1.08349 (Simulation time: 0 hr 30 min 1 sec) 
Heartbeat CPU 0 instructions: 457000002 cycles: 427319314 heartbeat IPC: 0.823029 cumulative IPC: 1.08272 (Simulation time: 0 hr 30 min 5 sec) 
Heartbeat CPU 0 instructions: 458000003 cycles: 428427328 heartbeat IPC: 0.902517 cumulative IPC: 1.08224 (Simulation time: 0 hr 30 min 9 sec) 
Heartbeat CPU 0 instructions: 459000001 cycles: 429101689 heartbeat IPC: 1.48288 cumulative IPC: 1.08289 (Simulation time: 0 hr 30 min 13 sec) 
Heartbeat CPU 0 instructions: 460000001 cycles: 429731936 heartbeat IPC: 1.58668 cumulative IPC: 1.08366 (Simulation time: 0 hr 30 min 17 sec) 
Heartbeat CPU 0 instructions: 461000002 cycles: 431240623 heartbeat IPC: 0.662829 cumulative IPC: 1.08213 (Simulation time: 0 hr 30 min 21 sec) 
Heartbeat CPU 0 instructions: 462000000 cycles: 432055614 heartbeat IPC: 1.22701 cumulative IPC: 1.08241 (Simulation time: 0 hr 30 min 25 sec) 
Heartbeat CPU 0 instructions: 463000003 cycles: 432674209 heartbeat IPC: 1.61657 cumulative IPC: 1.0832 (Simulation time: 0 hr 30 min 28 sec) 
Heartbeat CPU 0 instructions: 464000003 cycles: 433818050 heartbeat IPC: 0.874247 cumulative IPC: 1.08263 (Simulation time: 0 hr 30 min 33 sec) 
Heartbeat CPU 0 instructions: 465000001 cycles: 434904001 heartbeat IPC: 0.92085 cumulative IPC: 1.08222 (Simulation time: 0 hr 30 min 37 sec) 
Heartbeat CPU 0 instructions: 466000003 cycles: 435541971 heartbeat IPC: 1.56747 cumulative IPC: 1.08295 (Simulation time: 0 hr 30 min 40 sec) 
Heartbeat CPU 0 instructions: 467000001 cycles: 436190079 heartbeat IPC: 1.54295 cumulative IPC: 1.08366 (Simulation time: 0 hr 30 min 44 sec) 
Heartbeat CPU 0 instructions: 468000001 cycles: 437608253 heartbeat IPC: 0.705132 cumulative IPC: 1.08239 (Simulation time: 0 hr 30 min 49 sec) 
Heartbeat CPU 0 instructions: 469000000 cycles: 438362318 heartbeat IPC: 1.32614 cumulative IPC: 1.08282 (Simulation time: 0 hr 30 min 52 sec) 
Heartbeat CPU 0 instructions: 470000003 cycles: 438996876 heartbeat IPC: 1.5759 cumulative IPC: 1.08356 (Simulation time: 0 hr 30 min 56 sec) 
Heartbeat CPU 0 instructions: 471000001 cycles: 440329666 heartbeat IPC: 0.750304 cumulative IPC: 1.08252 (Simulation time: 0 hr 31 min 1 sec) 
Heartbeat CPU 0 instructions: 472000000 cycles: 441387872 heartbeat IPC: 0.944995 cumulative IPC: 1.08218 (Simulation time: 0 hr 31 min 4 sec) 
Heartbeat CPU 0 instructions: 473000000 cycles: 442156501 heartbeat IPC: 1.30102 cumulative IPC: 1.08257 (Simulation time: 0 hr 31 min 8 sec) 
Heartbeat CPU 0 instructions: 474000002 cycles: 442835418 heartbeat IPC: 1.47294 cumulative IPC: 1.08319 (Simulation time: 0 hr 31 min 11 sec) 
Heartbeat CPU 0 instructions: 475000001 cycles: 443743519 heartbeat IPC: 1.1012 cumulative IPC: 1.08323 (Simulation time: 0 hr 31 min 16 sec) 
Heartbeat CPU 0 instructions: 476000000 cycles: 445044737 heartbeat IPC: 0.76851 cumulative IPC: 1.08228 (Simulation time: 0 hr 31 min 21 sec) 
Heartbeat CPU 0 instructions: 477000003 cycles: 445743463 heartbeat IPC: 1.43118 cumulative IPC: 1.08284 (Simulation time: 0 hr 31 min 24 sec) 
Heartbeat CPU 0 instructions: 478000002 cycles: 446360369 heartbeat IPC: 1.62099 cumulative IPC: 1.08361 (Simulation time: 0 hr 31 min 28 sec) 
Heartbeat CPU 0 instructions: 479000001 cycles: 447616684 heartbeat IPC: 0.795978 cumulative IPC: 1.08278 (Simulation time: 0 hr 31 min 32 sec) 
Heartbeat CPU 0 instructions: 480000001 cycles: 448414095 heartbeat IPC: 1.25406 cumulative IPC: 1.08309 (Simulation time: 0 hr 31 min 36 sec) 
Heartbeat CPU 0 instructions: 481000002 cycles: 449029846 heartbeat IPC: 1.62403 cumulative IPC: 1.08386 (Simulation time: 0 hr 31 min 40 sec) 
Heartbeat CPU 0 instructions: 482000000 cycles: 450114918 heartbeat IPC: 0.921596 cumulative IPC: 1.08345 (Simulation time: 0 hr 31 min 44 sec) 
Heartbeat CPU 0 instructions: 483000001 cycles: 451188605 heartbeat IPC: 0.931371 cumulative IPC: 1.08308 (Simulation time: 0 hr 31 min 48 sec) 
Heartbeat CPU 0 instructions: 484000000 cycles: 451852290 heartbeat IPC: 1.50674 cumulative IPC: 1.08372 (Simulation time: 0 hr 31 min 52 sec) 
Heartbeat CPU 0 instructions: 485000002 cycles: 452650770 heartbeat IPC: 1.25238 cumulative IPC: 1.08403 (Simulation time: 0 hr 31 min 56 sec) 
Heartbeat CPU 0 instructions: 486000003 cycles: 454209342 heartbeat IPC: 0.641614 cumulative IPC: 1.08246 (Simulation time: 0 hr 32 min 0 sec) 
Heartbeat CPU 0 instructions: 487000000 cycles: 455202915 heartbeat IPC: 1.00647 cumulative IPC: 1.08229 (Simulation time: 0 hr 32 min 4 sec) 
Heartbeat CPU 0 instructions: 488000001 cycles: 455822140 heartbeat IPC: 1.61492 cumulative IPC: 1.08304 (Simulation time: 0 hr 32 min 8 sec) 
Heartbeat CPU 0 instructions: 489000000 cycles: 456731335 heartbeat IPC: 1.09987 cumulative IPC: 1.08307 (Simulation time: 0 hr 32 min 12 sec) 
Heartbeat CPU 0 instructions: 490000001 cycles: 458301868 heartbeat IPC: 0.636727 cumulative IPC: 1.08149 (Simulation time: 0 hr 32 min 16 sec) 
Heartbeat CPU 0 instructions: 491000000 cycles: 459085843 heartbeat IPC: 1.27555 cumulative IPC: 1.08183 (Simulation time: 0 hr 32 min 20 sec) 
Heartbeat CPU 0 instructions: 492000001 cycles: 459712696 heartbeat IPC: 1.59527 cumulative IPC: 1.08256 (Simulation time: 0 hr 32 min 24 sec) 
Heartbeat CPU 0 instructions: 493000002 cycles: 460798599 heartbeat IPC: 0.920893 cumulative IPC: 1.08216 (Simulation time: 0 hr 32 min 28 sec) 
Heartbeat CPU 0 instructions: 494000000 cycles: 462239819 heartbeat IPC: 0.693855 cumulative IPC: 1.08091 (Simulation time: 0 hr 32 min 33 sec) 
Heartbeat CPU 0 instructions: 495000000 cycles: 463014726 heartbeat IPC: 1.29048 cumulative IPC: 1.08128 (Simulation time: 0 hr 32 min 36 sec) 
Heartbeat CPU 0 instructions: 496000003 cycles: 463642857 heartbeat IPC: 1.59203 cumulative IPC: 1.08199 (Simulation time: 0 hr 32 min 40 sec) 
Heartbeat CPU 0 instructions: 497000000 cycles: 464890909 heartbeat IPC: 0.801246 cumulative IPC: 1.08121 (Simulation time: 0 hr 32 min 44 sec) 
Heartbeat CPU 0 instructions: 498000003 cycles: 466173079 heartbeat IPC: 0.77993 cumulative IPC: 1.08036 (Simulation time: 0 hr 32 min 49 sec) 
Heartbeat CPU 0 instructions: 499000003 cycles: 466902705 heartbeat IPC: 1.37057 cumulative IPC: 1.08083 (Simulation time: 0 hr 32 min 52 sec) 
Heartbeat CPU 0 instructions: 500000001 cycles: 467552232 heartbeat IPC: 1.53958 cumulative IPC: 1.08148 (Simulation time: 0 hr 32 min 56 sec) 
Heartbeat CPU 0 instructions: 501000001 cycles: 468966210 heartbeat IPC: 0.707225 cumulative IPC: 1.08032 (Simulation time: 0 hr 33 min 1 sec) 
Heartbeat CPU 0 instructions: 502000000 cycles: 470106640 heartbeat IPC: 0.876861 cumulative IPC: 1.07981 (Simulation time: 0 hr 33 min 5 sec) 
Heartbeat CPU 0 instructions: 503000000 cycles: 470741410 heartbeat IPC: 1.57537 cumulative IPC: 1.0805 (Simulation time: 0 hr 33 min 8 sec) 
Heartbeat CPU 0 instructions: 504000003 cycles: 471451900 heartbeat IPC: 1.40748 cumulative IPC: 1.08101 (Simulation time: 0 hr 33 min 12 sec) 
Heartbeat CPU 0 instructions: 505000000 cycles: 472985341 heartbeat IPC: 0.652126 cumulative IPC: 1.07957 (Simulation time: 0 hr 33 min 17 sec) 
Heartbeat CPU 0 instructions: 506000000 cycles: 473796397 heartbeat IPC: 1.23296 cumulative IPC: 1.07984 (Simulation time: 0 hr 33 min 20 sec) 
Heartbeat CPU 0 instructions: 507000003 cycles: 474414766 heartbeat IPC: 1.61716 cumulative IPC: 1.08057 (Simulation time: 0 hr 33 min 24 sec) 
Heartbeat CPU 0 instructions: 508000001 cycles: 475539158 heartbeat IPC: 0.889368 cumulative IPC: 1.0801 (Simulation time: 0 hr 33 min 29 sec) 
Heartbeat CPU 0 instructions: 509000001 cycles: 476526525 heartbeat IPC: 1.01279 cumulative IPC: 1.07996 (Simulation time: 0 hr 33 min 32 sec) 
Heartbeat CPU 0 instructions: 510000003 cycles: 477195217 heartbeat IPC: 1.49546 cumulative IPC: 1.08056 (Simulation time: 0 hr 33 min 36 sec) 
Finished CPU 0 instructions: 500000000 cycles: 462724480 cumulative IPC: 1.08056 (Simulation time: 0 hr 33 min 36 sec) 

ChampSim completed all CPUs

Region of Interest Statistics

CPU 0 cumulative IPC: 1.08056 instructions: 500000000 cycles: 462724480
L1D TOTAL     ACCESS:   75870383  HIT:   68015314  MISS:    7855069
L1D LOAD      ACCESS:   66908739  HIT:   59646262  MISS:    7262477
L1D RFO       ACCESS:    8961644  HIT:    8369052  MISS:     592592
L1D PREFETCH  ACCESS:          0  HIT:          0  MISS:          0
L1D WRITEBACK ACCESS:          0  HIT:          0  MISS:          0
L1D PREFETCH  REQUESTED:          0  ISSUED:          0  USEFUL:          0  USELESS:          0  UAC CORRECT:          0
L1D AVERAGE MISS LATENCY: 79.2284 cycles
L1I TOTAL     ACCESS:   83863534  HIT:   83858890  MISS:       4644
L1I LOAD      ACCESS:   83863534  HIT:   83858890  MISS:       4644
L1I RFO       ACCESS:          0  HIT:          0  MISS:          0
L1I PREFETCH  ACCESS:          0  HIT:          0  MISS:          0
L1I WRITEBACK ACCESS:          0  HIT:          0  MISS:          0
L1I PREFETCH  REQUESTED:          0  ISSUED:          0  USEFUL:          0  USELESS:          0  UAC CORRECT:          0
L1I AVERAGE MISS LATENCY: 124.029 cycles
L2C TOTAL     ACCESS:    8627013  HIT:    1986069  MISS:    6640944
L2C LOAD      ACCESS:    7267096  HIT:    1181674  MISS:    6085422
L2C RFO       ACCESS:     592550  HIT:      38632  MISS:     553918
L2C PREFETCH  ACCESS:          0  HIT:          0  MISS:          0
L2C WRITEBACK ACCESS:     767367  HIT:     765763  MISS:       1604
L2C PREFETCH  REQUESTED:          0  ISSUED:          0  USEFUL:          0  USELESS:          0  UAC CORRECT:          0
L2C AVERAGE MISS LATENCY: 75.9381 cycles
LLC TOTAL     ACCESS:   12485581  HIT:    5483632  MISS:    7001949
LLC LOAD      ACCESS:    6085420  HIT:    4235639  MISS:    1849781
LLC RFO       ACCESS:     553918  HIT:     106176  MISS:     447742
LLC PREFETCH  ACCESS:    5158959  HIT:     458438  MISS:    4700521
LLC WRITEBACK ACCESS:     687284  HIT:     683379  MISS:       3905
LLC PREFETCH  REQUESTED:    6082806  ISSUED:    6082092  USEFUL:    3976400  USELESS:     719387  UAC CORRECT:     958101
LLC AVERAGE MISS LATENCY: 135.237 cycles
Major fault: 0 Minor fault: 3607

DRAM Statistics
 CHANNEL 0
 RQ ROW_BUFFER_HIT:    3084377  ROW_BUFFER_MISS:     418510
 DBUS_CONGESTED:    1466202
 WQ ROW_BUFFER_HIT:     242179  ROW_BUFFER_MISS:      57134  FULL:          0

 CHANNEL 1
 RQ ROW_BUFFER_HIT:    3087630  ROW_BUFFER_MISS:     407471
 DBUS_CONGESTED:    1466202
 WQ ROW_BUFFER_HIT:     235087  ROW_BUFFER_MISS:      63078  FULL:          0

 AVG_CONGESTED_CYCLE: 16

CPU 0 Branch Prediction Accuracy: 98.9561% MPKI: 0.950124 Average ROB Occupancy at Mispredict: 136.116

Branch types
NOT_BRANCH: 454492919 90.8986%
BRANCH_DIRECT_JUMP: 438956 0.0877912%
BRANCH_INDIRECT: 314 6.28e-05%
BRANCH_CONDITIONAL: 43632679 8.72654%
BRANCH_DIRECT_CALL: 717050 0.14341%
BRANCH_INDIRECT_CALL: 591 0.0001182%
BRANCH_RETURN: 717641 0.143528%
BRANCH_OTHER: 0 0%


gzip: stdout: Broken pipe
