
*** ChampSim Multicore Out-of-Order Simulator ***

Warmup Instructions: 1000000
Prefetch Warmup Instructions: 10000000
Simulation Instructions: 500000000
Stat Printing Period: 1000000
Number of CPUs: 1
LLC sets: 2048
LLC ways: 16
Off-chip DRAM Size: 32768 MB Channels: 2 Width: 64-bit Data Rate: 1024 MT/s

CPU 0 runs /scratch/cluster/cmolder/ML-DPC/ChampSimTraces/spec06/482.sphinx3-s2.trace.gz
Read seed: 1041
Heartbeat CPU 0 instructions: 1000000 cycles: 365896 heartbeat IPC: 2.73302 cumulative IPC: 2.73302 (Simulation time: 0 hr 0 min 5 sec) 

Warmup complete CPU 0 instructions: 1000004 cycles: 365897 (Simulation time: 0 hr 0 min 5 sec) 

Heartbeat CPU 0 instructions: 2000003 cycles: 2466351 heartbeat IPC: 0.476089 cumulative IPC: 0.476087 (Simulation time: 0 hr 0 min 10 sec) 
Heartbeat CPU 0 instructions: 3000002 cycles: 4099283 heartbeat IPC: 0.612395 cumulative IPC: 0.535706 (Simulation time: 0 hr 0 min 14 sec) 
Heartbeat CPU 0 instructions: 4000002 cycles: 5464142 heartbeat IPC: 0.732676 cumulative IPC: 0.588437 (Simulation time: 0 hr 0 min 18 sec) 
Heartbeat CPU 0 instructions: 5000001 cycles: 7095315 heartbeat IPC: 0.613055 cumulative IPC: 0.594405 (Simulation time: 0 hr 0 min 23 sec) 
Heartbeat CPU 0 instructions: 6000000 cycles: 9285702 heartbeat IPC: 0.45654 cumulative IPC: 0.56055 (Simulation time: 0 hr 0 min 29 sec) 
Heartbeat CPU 0 instructions: 7000000 cycles: 11374114 heartbeat IPC: 0.478833 cumulative IPC: 0.545047 (Simulation time: 0 hr 0 min 34 sec) 
Heartbeat CPU 0 instructions: 8000001 cycles: 12999945 heartbeat IPC: 0.615071 cumulative IPC: 0.554058 (Simulation time: 0 hr 0 min 38 sec) 
Heartbeat CPU 0 instructions: 9000001 cycles: 14362930 heartbeat IPC: 0.733684 cumulative IPC: 0.571549 (Simulation time: 0 hr 0 min 43 sec) 
Heartbeat CPU 0 instructions: 10000001 cycles: 15981390 heartbeat IPC: 0.617871 cumulative IPC: 0.576351 (Simulation time: 0 hr 0 min 47 sec) 

Warmup complete CPU 0 instructions: 10000001 cycles: 15981390 (Simulation time: 0 hr 0 min 47 sec) 

Heartbeat CPU 0 instructions: 11000000 cycles: 17280748 heartbeat IPC: 0.76961 cumulative IPC: 0.76961 (Simulation time: 0 hr 0 min 52 sec) 
Heartbeat CPU 0 instructions: 12000000 cycles: 18518283 heartbeat IPC: 0.808058 cumulative IPC: 0.788366 (Simulation time: 0 hr 0 min 56 sec) 
Heartbeat CPU 0 instructions: 13000002 cycles: 19554948 heartbeat IPC: 0.964634 cumulative IPC: 0.8395 (Simulation time: 0 hr 1 min 0 sec) 
Heartbeat CPU 0 instructions: 14000002 cycles: 20375185 heartbeat IPC: 1.21916 cumulative IPC: 0.910375 (Simulation time: 0 hr 1 min 4 sec) 
Heartbeat CPU 0 instructions: 15000000 cycles: 21282951 heartbeat IPC: 1.1016 cumulative IPC: 0.943118 (Simulation time: 0 hr 1 min 9 sec) 
Heartbeat CPU 0 instructions: 16000000 cycles: 22580862 heartbeat IPC: 0.770469 cumulative IPC: 0.909163 (Simulation time: 0 hr 1 min 13 sec) 
Heartbeat CPU 0 instructions: 17000001 cycles: 23814814 heartbeat IPC: 0.810405 cumulative IPC: 0.893607 (Simulation time: 0 hr 1 min 18 sec) 
Heartbeat CPU 0 instructions: 18000000 cycles: 24935957 heartbeat IPC: 0.891946 cumulative IPC: 0.893399 (Simulation time: 0 hr 1 min 22 sec) 
Heartbeat CPU 0 instructions: 19000000 cycles: 25749167 heartbeat IPC: 1.22969 cumulative IPC: 0.921397 (Simulation time: 0 hr 1 min 26 sec) 
Heartbeat CPU 0 instructions: 20000002 cycles: 26595450 heartbeat IPC: 1.18164 cumulative IPC: 0.942147 (Simulation time: 0 hr 1 min 30 sec) 
Heartbeat CPU 0 instructions: 21000001 cycles: 27927970 heartbeat IPC: 0.750457 cumulative IPC: 0.920766 (Simulation time: 0 hr 1 min 35 sec) 
Heartbeat CPU 0 instructions: 22000000 cycles: 29202458 heartbeat IPC: 0.784628 cumulative IPC: 0.907642 (Simulation time: 0 hr 1 min 39 sec) 
Heartbeat CPU 0 instructions: 23000002 cycles: 30483737 heartbeat IPC: 0.780472 cumulative IPC: 0.896407 (Simulation time: 0 hr 1 min 44 sec) 
Heartbeat CPU 0 instructions: 24000003 cycles: 31312746 heartbeat IPC: 1.20626 cumulative IPC: 0.913161 (Simulation time: 0 hr 1 min 47 sec) 
Heartbeat CPU 0 instructions: 25000000 cycles: 32131344 heartbeat IPC: 1.2216 cumulative IPC: 0.928795 (Simulation time: 0 hr 1 min 52 sec) 
Heartbeat CPU 0 instructions: 26000002 cycles: 33276446 heartbeat IPC: 0.873286 cumulative IPC: 0.92512 (Simulation time: 0 hr 1 min 56 sec) 
Heartbeat CPU 0 instructions: 27000002 cycles: 34543468 heartbeat IPC: 0.789252 cumulative IPC: 0.915846 (Simulation time: 0 hr 2 min 1 sec) 
Heartbeat CPU 0 instructions: 28000003 cycles: 35844750 heartbeat IPC: 0.768474 cumulative IPC: 0.906191 (Simulation time: 0 hr 2 min 5 sec) 
Heartbeat CPU 0 instructions: 29000003 cycles: 36752200 heartbeat IPC: 1.10199 cumulative IPC: 0.914745 (Simulation time: 0 hr 2 min 9 sec) 
Heartbeat CPU 0 instructions: 30000000 cycles: 37560771 heartbeat IPC: 1.23675 cumulative IPC: 0.926811 (Simulation time: 0 hr 2 min 13 sec) 
Heartbeat CPU 0 instructions: 31000001 cycles: 38607690 heartbeat IPC: 0.955185 cumulative IPC: 0.928123 (Simulation time: 0 hr 2 min 18 sec) 
Heartbeat CPU 0 instructions: 32000002 cycles: 39905955 heartbeat IPC: 0.77026 cumulative IPC: 0.919557 (Simulation time: 0 hr 2 min 22 sec) 
Heartbeat CPU 0 instructions: 33000000 cycles: 41146296 heartbeat IPC: 0.806228 cumulative IPC: 0.913971 (Simulation time: 0 hr 2 min 27 sec) 
Heartbeat CPU 0 instructions: 34000001 cycles: 42148189 heartbeat IPC: 0.998112 cumulative IPC: 0.917193 (Simulation time: 0 hr 2 min 30 sec) 
Heartbeat CPU 0 instructions: 35000003 cycles: 42961390 heartbeat IPC: 1.22971 cumulative IPC: 0.926612 (Simulation time: 0 hr 2 min 35 sec) 
Heartbeat CPU 0 instructions: 36000001 cycles: 43968626 heartbeat IPC: 0.992814 cumulative IPC: 0.928995 (Simulation time: 0 hr 2 min 39 sec) 
Heartbeat CPU 0 instructions: 37000002 cycles: 45265119 heartbeat IPC: 0.771312 cumulative IPC: 0.922014 (Simulation time: 0 hr 2 min 44 sec) 
Heartbeat CPU 0 instructions: 38000001 cycles: 46491120 heartbeat IPC: 0.815659 cumulative IPC: 0.91774 (Simulation time: 0 hr 2 min 48 sec) 
Heartbeat CPU 0 instructions: 39000000 cycles: 47485466 heartbeat IPC: 1.00569 cumulative IPC: 0.920516 (Simulation time: 0 hr 2 min 52 sec) 
Heartbeat CPU 0 instructions: 40000003 cycles: 48295551 heartbeat IPC: 1.23444 cumulative IPC: 0.928386 (Simulation time: 0 hr 2 min 56 sec) 
Heartbeat CPU 0 instructions: 41000000 cycles: 49292144 heartbeat IPC: 1.00342 cumulative IPC: 0.93063 (Simulation time: 0 hr 3 min 1 sec) 
Heartbeat CPU 0 instructions: 42000001 cycles: 50606936 heartbeat IPC: 0.760577 cumulative IPC: 0.924173 (Simulation time: 0 hr 3 min 5 sec) 
Heartbeat CPU 0 instructions: 43000003 cycles: 51874472 heartbeat IPC: 0.788934 cumulative IPC: 0.919397 (Simulation time: 0 hr 3 min 10 sec) 
Heartbeat CPU 0 instructions: 44000000 cycles: 52802925 heartbeat IPC: 1.07706 cumulative IPC: 0.923373 (Simulation time: 0 hr 3 min 14 sec) 
Heartbeat CPU 0 instructions: 45000001 cycles: 53611286 heartbeat IPC: 1.23707 cumulative IPC: 0.930112 (Simulation time: 0 hr 3 min 18 sec) 
Heartbeat CPU 0 instructions: 46000002 cycles: 54656223 heartbeat IPC: 0.956996 cumulative IPC: 0.930838 (Simulation time: 0 hr 3 min 22 sec) 
Heartbeat CPU 0 instructions: 47000003 cycles: 55951622 heartbeat IPC: 0.771964 cumulative IPC: 0.925689 (Simulation time: 0 hr 3 min 27 sec) 
Heartbeat CPU 0 instructions: 48000002 cycles: 57252922 heartbeat IPC: 0.768462 cumulative IPC: 0.920732 (Simulation time: 0 hr 3 min 31 sec) 
Heartbeat CPU 0 instructions: 49000002 cycles: 58117865 heartbeat IPC: 1.15615 cumulative IPC: 0.925564 (Simulation time: 0 hr 3 min 35 sec) 
Heartbeat CPU 0 instructions: 50000000 cycles: 58930155 heartbeat IPC: 1.23108 cumulative IPC: 0.931342 (Simulation time: 0 hr 3 min 40 sec) 
Heartbeat CPU 0 instructions: 51000000 cycles: 59986716 heartbeat IPC: 0.946467 cumulative IPC: 0.931705 (Simulation time: 0 hr 3 min 44 sec) 
Heartbeat CPU 0 instructions: 52000000 cycles: 61274213 heartbeat IPC: 0.776701 cumulative IPC: 0.927299 (Simulation time: 0 hr 3 min 49 sec) 
Heartbeat CPU 0 instructions: 53000001 cycles: 62666209 heartbeat IPC: 0.718394 cumulative IPC: 0.92107 (Simulation time: 0 hr 3 min 53 sec) 
Heartbeat CPU 0 instructions: 54000003 cycles: 63396122 heartbeat IPC: 1.37003 cumulative IPC: 0.927982 (Simulation time: 0 hr 3 min 56 sec) 
Heartbeat CPU 0 instructions: 55000000 cycles: 64198288 heartbeat IPC: 1.24662 cumulative IPC: 0.933283 (Simulation time: 0 hr 4 min 0 sec) 
Heartbeat CPU 0 instructions: 56000000 cycles: 65169125 heartbeat IPC: 1.03004 cumulative IPC: 0.935192 (Simulation time: 0 hr 4 min 5 sec) 
Heartbeat CPU 0 instructions: 57000000 cycles: 66441139 heartbeat IPC: 0.786155 cumulative IPC: 0.931435 (Simulation time: 0 hr 4 min 10 sec) 
Heartbeat CPU 0 instructions: 58000000 cycles: 67432716 heartbeat IPC: 1.00849 cumulative IPC: 0.932921 (Simulation time: 0 hr 4 min 14 sec) 
Heartbeat CPU 0 instructions: 59000002 cycles: 68223751 heartbeat IPC: 1.26417 cumulative IPC: 0.937936 (Simulation time: 0 hr 4 min 18 sec) 
Heartbeat CPU 0 instructions: 60000000 cycles: 69085504 heartbeat IPC: 1.16042 cumulative IPC: 0.941547 (Simulation time: 0 hr 4 min 22 sec) 
Heartbeat CPU 0 instructions: 61000002 cycles: 70132929 heartbeat IPC: 0.954724 cumulative IPC: 0.941801 (Simulation time: 0 hr 4 min 26 sec) 
Heartbeat CPU 0 instructions: 62000002 cycles: 70923844 heartbeat IPC: 1.26436 cumulative IPC: 0.946445 (Simulation time: 0 hr 4 min 30 sec) 
Heartbeat CPU 0 instructions: 63000001 cycles: 71735294 heartbeat IPC: 1.23236 cumulative IPC: 0.950606 (Simulation time: 0 hr 4 min 34 sec) 
Heartbeat CPU 0 instructions: 64000000 cycles: 72867218 heartbeat IPC: 0.883451 cumulative IPC: 0.94927 (Simulation time: 0 hr 4 min 39 sec) 
Heartbeat CPU 0 instructions: 65000000 cycles: 73686538 heartbeat IPC: 1.22052 cumulative IPC: 0.953121 (Simulation time: 0 hr 4 min 43 sec) 
Heartbeat CPU 0 instructions: 66000000 cycles: 74500669 heartbeat IPC: 1.2283 cumulative IPC: 0.95695 (Simulation time: 0 hr 4 min 47 sec) 
Heartbeat CPU 0 instructions: 67000001 cycles: 75641448 heartbeat IPC: 0.876595 cumulative IPC: 0.955413 (Simulation time: 0 hr 4 min 52 sec) 
Heartbeat CPU 0 instructions: 68000001 cycles: 77024621 heartbeat IPC: 0.722975 cumulative IPC: 0.950146 (Simulation time: 0 hr 4 min 56 sec) 
Heartbeat CPU 0 instructions: 69000000 cycles: 77839554 heartbeat IPC: 1.22709 cumulative IPC: 0.953795 (Simulation time: 0 hr 5 min 0 sec) 
Heartbeat CPU 0 instructions: 70000001 cycles: 78650548 heartbeat IPC: 1.23306 cumulative IPC: 0.957409 (Simulation time: 0 hr 5 min 4 sec) 
Heartbeat CPU 0 instructions: 71000003 cycles: 79697579 heartbeat IPC: 0.955083 cumulative IPC: 0.957371 (Simulation time: 0 hr 5 min 9 sec) 
Heartbeat CPU 0 instructions: 72000001 cycles: 80975835 heartbeat IPC: 0.782314 cumulative IPC: 0.953928 (Simulation time: 0 hr 5 min 13 sec) 
Heartbeat CPU 0 instructions: 73000002 cycles: 81784759 heartbeat IPC: 1.23621 cumulative IPC: 0.957398 (Simulation time: 0 hr 5 min 17 sec) 
Heartbeat CPU 0 instructions: 74000003 cycles: 82600545 heartbeat IPC: 1.22581 cumulative IPC: 0.960685 (Simulation time: 0 hr 5 min 21 sec) 
Heartbeat CPU 0 instructions: 75000000 cycles: 83702936 heartbeat IPC: 0.907116 cumulative IPC: 0.959813 (Simulation time: 0 hr 5 min 26 sec) 
Heartbeat CPU 0 instructions: 76000002 cycles: 84851561 heartbeat IPC: 0.870608 cumulative IPC: 0.958325 (Simulation time: 0 hr 5 min 30 sec) 
Heartbeat CPU 0 instructions: 77000000 cycles: 85673717 heartbeat IPC: 1.21631 cumulative IPC: 0.961368 (Simulation time: 0 hr 5 min 34 sec) 
Heartbeat CPU 0 instructions: 78000003 cycles: 86487516 heartbeat IPC: 1.22881 cumulative IPC: 0.964455 (Simulation time: 0 hr 5 min 38 sec) 
Heartbeat CPU 0 instructions: 79000002 cycles: 87699200 heartbeat IPC: 0.825297 cumulative IPC: 0.962104 (Simulation time: 0 hr 5 min 43 sec) 
Heartbeat CPU 0 instructions: 80000002 cycles: 88733015 heartbeat IPC: 0.967291 cumulative IPC: 0.962178 (Simulation time: 0 hr 5 min 47 sec) 
Heartbeat CPU 0 instructions: 81000002 cycles: 89558987 heartbeat IPC: 1.21069 cumulative IPC: 0.964968 (Simulation time: 0 hr 5 min 51 sec) 
Heartbeat CPU 0 instructions: 82000001 cycles: 90385869 heartbeat IPC: 1.20936 cumulative IPC: 0.967684 (Simulation time: 0 hr 5 min 55 sec) 
Heartbeat CPU 0 instructions: 83000000 cycles: 91662295 heartbeat IPC: 0.783437 cumulative IPC: 0.964576 (Simulation time: 0 hr 6 min 0 sec) 
Heartbeat CPU 0 instructions: 84000003 cycles: 92531926 heartbeat IPC: 1.14992 cumulative IPC: 0.966682 (Simulation time: 0 hr 6 min 4 sec) 
Heartbeat CPU 0 instructions: 85000000 cycles: 93335965 heartbeat IPC: 1.24372 cumulative IPC: 0.969561 (Simulation time: 0 hr 6 min 8 sec) 
Heartbeat CPU 0 instructions: 86000002 cycles: 94345760 heartbeat IPC: 0.990302 cumulative IPC: 0.969829 (Simulation time: 0 hr 6 min 13 sec) 
Heartbeat CPU 0 instructions: 87000003 cycles: 95423570 heartbeat IPC: 0.927808 cumulative IPC: 0.969258 (Simulation time: 0 hr 6 min 17 sec) 
Heartbeat CPU 0 instructions: 88000000 cycles: 96238527 heartbeat IPC: 1.22705 cumulative IPC: 0.971876 (Simulation time: 0 hr 6 min 21 sec) 
Heartbeat CPU 0 instructions: 89000002 cycles: 97064987 heartbeat IPC: 1.20998 cumulative IPC: 0.974303 (Simulation time: 0 hr 6 min 25 sec) 
Heartbeat CPU 0 instructions: 90000001 cycles: 98260115 heartbeat IPC: 0.83673 cumulative IPC: 0.972305 (Simulation time: 0 hr 6 min 30 sec) 
Heartbeat CPU 0 instructions: 91000000 cycles: 98986058 heartbeat IPC: 1.37752 cumulative IPC: 0.975849 (Simulation time: 0 hr 6 min 33 sec) 
Heartbeat CPU 0 instructions: 92000000 cycles: 99709701 heartbeat IPC: 1.3819 cumulative IPC: 0.979358 (Simulation time: 0 hr 6 min 36 sec) 
Heartbeat CPU 0 instructions: 93000000 cycles: 100511415 heartbeat IPC: 1.24733 cumulative IPC: 0.9819 (Simulation time: 0 hr 6 min 41 sec) 
Heartbeat CPU 0 instructions: 94000000 cycles: 101373576 heartbeat IPC: 1.15988 cumulative IPC: 0.983697 (Simulation time: 0 hr 6 min 45 sec) 
Heartbeat CPU 0 instructions: 95000002 cycles: 102600724 heartbeat IPC: 0.814899 cumulative IPC: 0.981305 (Simulation time: 0 hr 6 min 49 sec) 
Heartbeat CPU 0 instructions: 96000003 cycles: 103413165 heartbeat IPC: 1.23086 cumulative IPC: 0.983624 (Simulation time: 0 hr 6 min 53 sec) 
Heartbeat CPU 0 instructions: 97000001 cycles: 104229690 heartbeat IPC: 1.2247 cumulative IPC: 0.985855 (Simulation time: 0 hr 6 min 58 sec) 
Heartbeat CPU 0 instructions: 98000001 cycles: 105351061 heartbeat IPC: 0.891766 cumulative IPC: 0.984674 (Simulation time: 0 hr 7 min 2 sec) 
Heartbeat CPU 0 instructions: 99000000 cycles: 106339171 heartbeat IPC: 1.01203 cumulative IPC: 0.984973 (Simulation time: 0 hr 7 min 6 sec) 
Heartbeat CPU 0 instructions: 100000003 cycles: 107136832 heartbeat IPC: 1.25367 cumulative IPC: 0.987325 (Simulation time: 0 hr 7 min 10 sec) 
Heartbeat CPU 0 instructions: 101000003 cycles: 107977673 heartbeat IPC: 1.18929 cumulative IPC: 0.98917 (Simulation time: 0 hr 7 min 15 sec) 
Heartbeat CPU 0 instructions: 102000000 cycles: 109292105 heartbeat IPC: 0.760783 cumulative IPC: 0.985953 (Simulation time: 0 hr 7 min 19 sec) 
Heartbeat CPU 0 instructions: 103000000 cycles: 110181834 heartbeat IPC: 1.12394 cumulative IPC: 0.987256 (Simulation time: 0 hr 7 min 23 sec) 
Heartbeat CPU 0 instructions: 104000000 cycles: 110990102 heartbeat IPC: 1.23721 cumulative IPC: 0.989383 (Simulation time: 0 hr 7 min 27 sec) 
Heartbeat CPU 0 instructions: 105000003 cycles: 112016437 heartbeat IPC: 0.974344 cumulative IPC: 0.989222 (Simulation time: 0 hr 7 min 32 sec) 
Heartbeat CPU 0 instructions: 106000001 cycles: 113323041 heartbeat IPC: 0.765341 cumulative IPC: 0.986217 (Simulation time: 0 hr 7 min 36 sec) 
Heartbeat CPU 0 instructions: 107000002 cycles: 114138553 heartbeat IPC: 1.22622 cumulative IPC: 0.988211 (Simulation time: 0 hr 7 min 40 sec) 
Heartbeat CPU 0 instructions: 108000001 cycles: 114953631 heartbeat IPC: 1.22688 cumulative IPC: 0.990177 (Simulation time: 0 hr 7 min 44 sec) 
Heartbeat CPU 0 instructions: 109000002 cycles: 116021930 heartbeat IPC: 0.936068 cumulative IPC: 0.989599 (Simulation time: 0 hr 7 min 49 sec) 
Heartbeat CPU 0 instructions: 110000000 cycles: 117235995 heartbeat IPC: 0.823677 cumulative IPC: 0.987609 (Simulation time: 0 hr 7 min 53 sec) 
Heartbeat CPU 0 instructions: 111000000 cycles: 118045739 heartbeat IPC: 1.23496 cumulative IPC: 0.989572 (Simulation time: 0 hr 7 min 57 sec) 
Heartbeat CPU 0 instructions: 112000003 cycles: 118859712 heartbeat IPC: 1.22855 cumulative IPC: 0.991463 (Simulation time: 0 hr 8 min 2 sec) 
Heartbeat CPU 0 instructions: 113000003 cycles: 120004607 heartbeat IPC: 0.873443 cumulative IPC: 0.990164 (Simulation time: 0 hr 8 min 6 sec) 
Heartbeat CPU 0 instructions: 114000001 cycles: 121105055 heartbeat IPC: 0.908719 cumulative IPC: 0.989311 (Simulation time: 0 hr 8 min 11 sec) 
Heartbeat CPU 0 instructions: 115000003 cycles: 121926991 heartbeat IPC: 1.21664 cumulative IPC: 0.991075 (Simulation time: 0 hr 8 min 14 sec) 
Heartbeat CPU 0 instructions: 116000000 cycles: 122748570 heartbeat IPC: 1.21716 cumulative IPC: 0.992814 (Simulation time: 0 hr 8 min 19 sec) 
Heartbeat CPU 0 instructions: 117000003 cycles: 124034068 heartbeat IPC: 0.777911 cumulative IPC: 0.990258 (Simulation time: 0 hr 8 min 23 sec) 
Heartbeat CPU 0 instructions: 118000002 cycles: 124956144 heartbeat IPC: 1.08451 cumulative IPC: 0.991055 (Simulation time: 0 hr 8 min 27 sec) 
Heartbeat CPU 0 instructions: 119000001 cycles: 125767578 heartbeat IPC: 1.23238 cumulative IPC: 0.992839 (Simulation time: 0 hr 8 min 31 sec) 
Heartbeat CPU 0 instructions: 120000003 cycles: 126706181 heartbeat IPC: 1.06542 cumulative IPC: 0.993454 (Simulation time: 0 hr 8 min 36 sec) 
Heartbeat CPU 0 instructions: 121000000 cycles: 128027690 heartbeat IPC: 0.756708 cumulative IPC: 0.990662 (Simulation time: 0 hr 8 min 40 sec) 
Heartbeat CPU 0 instructions: 122000003 cycles: 128849294 heartbeat IPC: 1.21714 cumulative IPC: 0.99231 (Simulation time: 0 hr 8 min 44 sec) 
Heartbeat CPU 0 instructions: 123000002 cycles: 129664730 heartbeat IPC: 1.22634 cumulative IPC: 0.993989 (Simulation time: 0 hr 8 min 49 sec) 
Heartbeat CPU 0 instructions: 124000003 cycles: 130738054 heartbeat IPC: 0.931686 cumulative IPC: 0.993406 (Simulation time: 0 hr 8 min 53 sec) 
Heartbeat CPU 0 instructions: 125000003 cycles: 131951239 heartbeat IPC: 0.824277 cumulative IPC: 0.991637 (Simulation time: 0 hr 8 min 58 sec) 
Heartbeat CPU 0 instructions: 126000000 cycles: 132774295 heartbeat IPC: 1.21498 cumulative IPC: 0.993211 (Simulation time: 0 hr 9 min 1 sec) 
Heartbeat CPU 0 instructions: 127000001 cycles: 133594022 heartbeat IPC: 1.21992 cumulative IPC: 0.994791 (Simulation time: 0 hr 9 min 6 sec) 
Heartbeat CPU 0 instructions: 128000002 cycles: 134789394 heartbeat IPC: 0.83656 cumulative IPC: 0.993199 (Simulation time: 0 hr 9 min 10 sec) 
Heartbeat CPU 0 instructions: 129000000 cycles: 135967385 heartbeat IPC: 0.848901 cumulative IPC: 0.991782 (Simulation time: 0 hr 9 min 15 sec) 
Heartbeat CPU 0 instructions: 130000000 cycles: 136789292 heartbeat IPC: 1.21668 cumulative IPC: 0.993312 (Simulation time: 0 hr 9 min 19 sec) 
Heartbeat CPU 0 instructions: 131000002 cycles: 137606677 heartbeat IPC: 1.22342 cumulative IPC: 0.994859 (Simulation time: 0 hr 9 min 23 sec) 
Heartbeat CPU 0 instructions: 132000000 cycles: 138821014 heartbeat IPC: 0.823493 cumulative IPC: 0.993165 (Simulation time: 0 hr 9 min 28 sec) 
Heartbeat CPU 0 instructions: 133000000 cycles: 140057269 heartbeat IPC: 0.808895 cumulative IPC: 0.991329 (Simulation time: 0 hr 9 min 32 sec) 
Heartbeat CPU 0 instructions: 134000000 cycles: 140875067 heartbeat IPC: 1.2228 cumulative IPC: 0.992844 (Simulation time: 0 hr 9 min 36 sec) 
Heartbeat CPU 0 instructions: 135000001 cycles: 141692652 heartbeat IPC: 1.22312 cumulative IPC: 0.994342 (Simulation time: 0 hr 9 min 40 sec) 
Heartbeat CPU 0 instructions: 136000003 cycles: 142850808 heartbeat IPC: 0.863443 cumulative IPC: 0.993147 (Simulation time: 0 hr 9 min 45 sec) 
Heartbeat CPU 0 instructions: 137000002 cycles: 144050636 heartbeat IPC: 0.833452 cumulative IPC: 0.991651 (Simulation time: 0 hr 9 min 49 sec) 
Heartbeat CPU 0 instructions: 138000000 cycles: 144879294 heartbeat IPC: 1.20677 cumulative IPC: 0.993034 (Simulation time: 0 hr 9 min 53 sec) 
Heartbeat CPU 0 instructions: 139000002 cycles: 145697009 heartbeat IPC: 1.22292 cumulative IPC: 0.994483 (Simulation time: 0 hr 9 min 57 sec) 
Heartbeat CPU 0 instructions: 140000001 cycles: 146895005 heartbeat IPC: 0.834727 cumulative IPC: 0.993021 (Simulation time: 0 hr 10 min 2 sec) 
Heartbeat CPU 0 instructions: 141000000 cycles: 148117244 heartbeat IPC: 0.81817 cumulative IPC: 0.991404 (Simulation time: 0 hr 10 min 6 sec) 
Heartbeat CPU 0 instructions: 142000003 cycles: 148719897 heartbeat IPC: 1.65933 cumulative IPC: 0.994436 (Simulation time: 0 hr 10 min 9 sec) 
Heartbeat CPU 0 instructions: 143000000 cycles: 149521937 heartbeat IPC: 1.24682 cumulative IPC: 0.995952 (Simulation time: 0 hr 10 min 13 sec) 
Heartbeat CPU 0 instructions: 144000002 cycles: 150338154 heartbeat IPC: 1.22517 cumulative IPC: 0.997345 (Simulation time: 0 hr 10 min 17 sec) 
Heartbeat CPU 0 instructions: 145000001 cycles: 151428801 heartbeat IPC: 0.916886 cumulative IPC: 0.996697 (Simulation time: 0 hr 10 min 22 sec) 
Heartbeat CPU 0 instructions: 146000000 cycles: 152698631 heartbeat IPC: 0.787506 cumulative IPC: 0.994754 (Simulation time: 0 hr 10 min 27 sec) 
Heartbeat CPU 0 instructions: 147000000 cycles: 153511329 heartbeat IPC: 1.23047 cumulative IPC: 0.996147 (Simulation time: 0 hr 10 min 30 sec) 
Heartbeat CPU 0 instructions: 148000000 cycles: 154325164 heartbeat IPC: 1.22875 cumulative IPC: 0.997515 (Simulation time: 0 hr 10 min 35 sec) 
Heartbeat CPU 0 instructions: 149000002 cycles: 155441085 heartbeat IPC: 0.896123 cumulative IPC: 0.996704 (Simulation time: 0 hr 10 min 39 sec) 
Heartbeat CPU 0 instructions: 150000001 cycles: 156633771 heartbeat IPC: 0.838443 cumulative IPC: 0.995362 (Simulation time: 0 hr 10 min 44 sec) 
Heartbeat CPU 0 instructions: 151000003 cycles: 157449019 heartbeat IPC: 1.22662 cumulative IPC: 0.996694 (Simulation time: 0 hr 10 min 47 sec) 
Heartbeat CPU 0 instructions: 152000003 cycles: 158262486 heartbeat IPC: 1.22931 cumulative IPC: 0.998024 (Simulation time: 0 hr 10 min 52 sec) 
Heartbeat CPU 0 instructions: 153000001 cycles: 159449099 heartbeat IPC: 0.842733 cumulative IPC: 0.99674 (Simulation time: 0 hr 10 min 56 sec) 
Heartbeat CPU 0 instructions: 154000000 cycles: 160501085 heartbeat IPC: 0.950582 cumulative IPC: 0.996404 (Simulation time: 0 hr 11 min 1 sec) 
Heartbeat CPU 0 instructions: 155000000 cycles: 161336046 heartbeat IPC: 1.19766 cumulative IPC: 0.99756 (Simulation time: 0 hr 11 min 5 sec) 
Heartbeat CPU 0 instructions: 156000002 cycles: 162165633 heartbeat IPC: 1.20542 cumulative IPC: 0.99874 (Simulation time: 0 hr 11 min 9 sec) 
Heartbeat CPU 0 instructions: 157000001 cycles: 163456757 heartbeat IPC: 0.774518 cumulative IPC: 0.996777 (Simulation time: 0 hr 11 min 14 sec) 
Heartbeat CPU 0 instructions: 158000000 cycles: 164440533 heartbeat IPC: 1.01649 cumulative IPC: 0.996907 (Simulation time: 0 hr 11 min 18 sec) 
Heartbeat CPU 0 instructions: 159000001 cycles: 165245329 heartbeat IPC: 1.24255 cumulative IPC: 0.998232 (Simulation time: 0 hr 11 min 22 sec) 
Heartbeat CPU 0 instructions: 160000001 cycles: 166108176 heartbeat IPC: 1.15895 cumulative IPC: 0.999155 (Simulation time: 0 hr 11 min 26 sec) 
Heartbeat CPU 0 instructions: 161000000 cycles: 167430149 heartbeat IPC: 0.756444 cumulative IPC: 0.997037 (Simulation time: 0 hr 11 min 31 sec) 
Heartbeat CPU 0 instructions: 162000001 cycles: 168316349 heartbeat IPC: 1.12841 cumulative IPC: 0.997801 (Simulation time: 0 hr 11 min 35 sec) 
Heartbeat CPU 0 instructions: 163000000 cycles: 169123091 heartbeat IPC: 1.23955 cumulative IPC: 0.999075 (Simulation time: 0 hr 11 min 39 sec) 
Heartbeat CPU 0 instructions: 164000001 cycles: 170129461 heartbeat IPC: 0.993671 cumulative IPC: 0.999039 (Simulation time: 0 hr 11 min 43 sec) 
Heartbeat CPU 0 instructions: 165000000 cycles: 171388773 heartbeat IPC: 0.794084 cumulative IPC: 0.997379 (Simulation time: 0 hr 11 min 48 sec) 
Heartbeat CPU 0 instructions: 166000002 cycles: 172206472 heartbeat IPC: 1.22295 cumulative IPC: 0.998559 (Simulation time: 0 hr 11 min 52 sec) 
Heartbeat CPU 0 instructions: 167000001 cycles: 173023439 heartbeat IPC: 1.22404 cumulative IPC: 0.999732 (Simulation time: 0 hr 11 min 56 sec) 
Heartbeat CPU 0 instructions: 168000002 cycles: 174145478 heartbeat IPC: 0.891236 cumulative IPC: 0.998963 (Simulation time: 0 hr 12 min 1 sec) 
Heartbeat CPU 0 instructions: 169000002 cycles: 175316751 heartbeat IPC: 0.853772 cumulative IPC: 0.997895 (Simulation time: 0 hr 12 min 5 sec) 
Heartbeat CPU 0 instructions: 170000000 cycles: 176146607 heartbeat IPC: 1.20503 cumulative IPC: 0.998968 (Simulation time: 0 hr 12 min 9 sec) 
Heartbeat CPU 0 instructions: 171000001 cycles: 176963054 heartbeat IPC: 1.22482 cumulative IPC: 1.00011 (Simulation time: 0 hr 12 min 13 sec) 
Heartbeat CPU 0 instructions: 172000001 cycles: 178179800 heartbeat IPC: 0.821864 cumulative IPC: 0.998777 (Simulation time: 0 hr 12 min 18 sec) 
Heartbeat CPU 0 instructions: 173000002 cycles: 179316278 heartbeat IPC: 0.879912 cumulative IPC: 0.99795 (Simulation time: 0 hr 12 min 22 sec) 
Heartbeat CPU 0 instructions: 174000000 cycles: 180140490 heartbeat IPC: 1.21328 cumulative IPC: 0.999031 (Simulation time: 0 hr 12 min 26 sec) 
Heartbeat CPU 0 instructions: 175000000 cycles: 180964734 heartbeat IPC: 1.21323 cumulative IPC: 1.0001 (Simulation time: 0 hr 12 min 31 sec) 
Heartbeat CPU 0 instructions: 176000000 cycles: 182192190 heartbeat IPC: 0.814693 cumulative IPC: 0.998732 (Simulation time: 0 hr 12 min 35 sec) 
Heartbeat CPU 0 instructions: 177000001 cycles: 183323702 heartbeat IPC: 0.883774 cumulative IPC: 0.997954 (Simulation time: 0 hr 12 min 40 sec) 
Heartbeat CPU 0 instructions: 178000002 cycles: 184145971 heartbeat IPC: 1.21615 cumulative IPC: 0.999021 (Simulation time: 0 hr 12 min 44 sec) 
Heartbeat CPU 0 instructions: 179000003 cycles: 184964337 heartbeat IPC: 1.22195 cumulative IPC: 1.0001 (Simulation time: 0 hr 12 min 48 sec) 
Heartbeat CPU 0 instructions: 180000000 cycles: 186174210 heartbeat IPC: 0.826531 cumulative IPC: 0.998867 (Simulation time: 0 hr 12 min 53 sec) 
Heartbeat CPU 0 instructions: 181000001 cycles: 187374476 heartbeat IPC: 0.833149 cumulative IPC: 0.997707 (Simulation time: 0 hr 12 min 57 sec) 
Heartbeat CPU 0 instructions: 182000003 cycles: 188193374 heartbeat IPC: 1.22116 cumulative IPC: 0.998769 (Simulation time: 0 hr 13 min 1 sec) 
Heartbeat CPU 0 instructions: 183000001 cycles: 189011231 heartbeat IPC: 1.22271 cumulative IPC: 0.999828 (Simulation time: 0 hr 13 min 5 sec) 
Heartbeat CPU 0 instructions: 184000000 cycles: 190195707 heartbeat IPC: 0.844254 cumulative IPC: 0.99877 (Simulation time: 0 hr 13 min 10 sec) 
Heartbeat CPU 0 instructions: 185000000 cycles: 191343900 heartbeat IPC: 0.870934 cumulative IPC: 0.997933 (Simulation time: 0 hr 13 min 14 sec) 
Heartbeat CPU 0 instructions: 186000001 cycles: 192168786 heartbeat IPC: 1.21229 cumulative IPC: 0.998936 (Simulation time: 0 hr 13 min 18 sec) 
Heartbeat CPU 0 instructions: 187000000 cycles: 192989934 heartbeat IPC: 1.21781 cumulative IPC: 0.999952 (Simulation time: 0 hr 13 min 23 sec) 
Heartbeat CPU 0 instructions: 188000000 cycles: 194233102 heartbeat IPC: 0.804397 cumulative IPC: 0.998588 (Simulation time: 0 hr 13 min 27 sec) 
Heartbeat CPU 0 instructions: 189000000 cycles: 195250957 heartbeat IPC: 0.982458 cumulative IPC: 0.998496 (Simulation time: 0 hr 13 min 31 sec) 
Heartbeat CPU 0 instructions: 190000000 cycles: 195872060 heartbeat IPC: 1.61004 cumulative IPC: 1.00061 (Simulation time: 0 hr 13 min 34 sec) 
Heartbeat CPU 0 instructions: 191000003 cycles: 196668713 heartbeat IPC: 1.25526 cumulative IPC: 1.00173 (Simulation time: 0 hr 13 min 38 sec) 
Heartbeat CPU 0 instructions: 192000000 cycles: 197488470 heartbeat IPC: 1.21987 cumulative IPC: 1.00272 (Simulation time: 0 hr 13 min 42 sec) 
Heartbeat CPU 0 instructions: 193000001 cycles: 198703160 heartbeat IPC: 0.823256 cumulative IPC: 1.00152 (Simulation time: 0 hr 13 min 47 sec) 
Heartbeat CPU 0 instructions: 194000003 cycles: 199688467 heartbeat IPC: 1.01491 cumulative IPC: 1.00159 (Simulation time: 0 hr 13 min 51 sec) 
Heartbeat CPU 0 instructions: 195000001 cycles: 200490881 heartbeat IPC: 1.24624 cumulative IPC: 1.00266 (Simulation time: 0 hr 13 min 55 sec) 
Heartbeat CPU 0 instructions: 196000000 cycles: 201352314 heartbeat IPC: 1.16086 cumulative IPC: 1.00339 (Simulation time: 0 hr 14 min 0 sec) 
Heartbeat CPU 0 instructions: 197000001 cycles: 202636101 heartbeat IPC: 0.778946 cumulative IPC: 1.00185 (Simulation time: 0 hr 14 min 4 sec) 
Heartbeat CPU 0 instructions: 198000000 cycles: 203451876 heartbeat IPC: 1.22583 cumulative IPC: 1.00282 (Simulation time: 0 hr 14 min 8 sec) 
Heartbeat CPU 0 instructions: 199000001 cycles: 204271506 heartbeat IPC: 1.22006 cumulative IPC: 1.00377 (Simulation time: 0 hr 14 min 12 sec) 
Heartbeat CPU 0 instructions: 200000002 cycles: 205430670 heartbeat IPC: 0.862692 cumulative IPC: 1.00291 (Simulation time: 0 hr 14 min 17 sec) 
Heartbeat CPU 0 instructions: 201000001 cycles: 206518121 heartbeat IPC: 0.919581 cumulative IPC: 1.00243 (Simulation time: 0 hr 14 min 21 sec) 
Heartbeat CPU 0 instructions: 202000000 cycles: 207319824 heartbeat IPC: 1.24734 cumulative IPC: 1.00346 (Simulation time: 0 hr 14 min 25 sec) 
Heartbeat CPU 0 instructions: 203000001 cycles: 208156161 heartbeat IPC: 1.19569 cumulative IPC: 1.00429 (Simulation time: 0 hr 14 min 30 sec) 
Heartbeat CPU 0 instructions: 204000003 cycles: 209556269 heartbeat IPC: 0.714232 cumulative IPC: 1.0022 (Simulation time: 0 hr 14 min 34 sec) 
Heartbeat CPU 0 instructions: 205000003 cycles: 210551145 heartbeat IPC: 1.00515 cumulative IPC: 1.00221 (Simulation time: 0 hr 14 min 38 sec) 
Heartbeat CPU 0 instructions: 206000002 cycles: 211369991 heartbeat IPC: 1.22123 cumulative IPC: 1.00313 (Simulation time: 0 hr 14 min 43 sec) 
Heartbeat CPU 0 instructions: 207000000 cycles: 212257638 heartbeat IPC: 1.12657 cumulative IPC: 1.00369 (Simulation time: 0 hr 14 min 47 sec) 
Heartbeat CPU 0 instructions: 208000000 cycles: 213665799 heartbeat IPC: 0.710146 cumulative IPC: 1.0016 (Simulation time: 0 hr 14 min 52 sec) 
Heartbeat CPU 0 instructions: 209000000 cycles: 214721114 heartbeat IPC: 0.947584 cumulative IPC: 1.00131 (Simulation time: 0 hr 14 min 56 sec) 
Heartbeat CPU 0 instructions: 210000000 cycles: 215533720 heartbeat IPC: 1.23061 cumulative IPC: 1.00224 (Simulation time: 0 hr 15 min 0 sec) 
Heartbeat CPU 0 instructions: 211000001 cycles: 216379656 heartbeat IPC: 1.18212 cumulative IPC: 1.003 (Simulation time: 0 hr 15 min 4 sec) 
Heartbeat CPU 0 instructions: 212000000 cycles: 217760534 heartbeat IPC: 0.724176 cumulative IPC: 1.00109 (Simulation time: 0 hr 15 min 9 sec) 
Heartbeat CPU 0 instructions: 213000001 cycles: 218974524 heartbeat IPC: 0.823731 cumulative IPC: 1.00003 (Simulation time: 0 hr 15 min 13 sec) 
Heartbeat CPU 0 instructions: 214000000 cycles: 219847498 heartbeat IPC: 1.14551 cumulative IPC: 1.00066 (Simulation time: 0 hr 15 min 17 sec) 
Heartbeat CPU 0 instructions: 215000000 cycles: 220668839 heartbeat IPC: 1.21752 cumulative IPC: 1.00153 (Simulation time: 0 hr 15 min 21 sec) 
Heartbeat CPU 0 instructions: 216000001 cycles: 221969125 heartbeat IPC: 0.769062 cumulative IPC: 1.00006 (Simulation time: 0 hr 15 min 26 sec) 
Heartbeat CPU 0 instructions: 217000002 cycles: 223306106 heartbeat IPC: 0.747955 cumulative IPC: 0.998434 (Simulation time: 0 hr 15 min 30 sec) 
Heartbeat CPU 0 instructions: 218000000 cycles: 224436398 heartbeat IPC: 0.884725 cumulative IPC: 0.997817 (Simulation time: 0 hr 15 min 35 sec) 
Heartbeat CPU 0 instructions: 219000001 cycles: 225307765 heartbeat IPC: 1.14762 cumulative IPC: 0.998441 (Simulation time: 0 hr 15 min 39 sec) 
Heartbeat CPU 0 instructions: 220000000 cycles: 226145685 heartbeat IPC: 1.19343 cumulative IPC: 0.999218 (Simulation time: 0 hr 15 min 43 sec) 
Heartbeat CPU 0 instructions: 221000001 cycles: 227422377 heartbeat IPC: 0.783275 cumulative IPC: 0.997914 (Simulation time: 0 hr 15 min 48 sec) 
Heartbeat CPU 0 instructions: 222000000 cycles: 228706496 heartbeat IPC: 0.778743 cumulative IPC: 0.996591 (Simulation time: 0 hr 15 min 52 sec) 
Heartbeat CPU 0 instructions: 223000002 cycles: 229903666 heartbeat IPC: 0.835305 cumulative IPC: 0.995689 (Simulation time: 0 hr 15 min 56 sec) 
Heartbeat CPU 0 instructions: 224000003 cycles: 230748792 heartbeat IPC: 1.18326 cumulative IPC: 0.996427 (Simulation time: 0 hr 16 min 0 sec) 
Heartbeat CPU 0 instructions: 225000001 cycles: 231583142 heartbeat IPC: 1.19854 cumulative IPC: 0.997209 (Simulation time: 0 hr 16 min 5 sec) 
Heartbeat CPU 0 instructions: 226000000 cycles: 232812710 heartbeat IPC: 0.813293 cumulative IPC: 0.996166 (Simulation time: 0 hr 16 min 9 sec) 
Heartbeat CPU 0 instructions: 227000003 cycles: 234055757 heartbeat IPC: 0.804477 cumulative IPC: 0.995073 (Simulation time: 0 hr 16 min 14 sec) 
Heartbeat CPU 0 instructions: 228000000 cycles: 235394516 heartbeat IPC: 0.746958 cumulative IPC: 0.99356 (Simulation time: 0 hr 16 min 18 sec) 
Heartbeat CPU 0 instructions: 229000001 cycles: 236235240 heartbeat IPC: 1.18945 cumulative IPC: 0.994307 (Simulation time: 0 hr 16 min 22 sec) 
Heartbeat CPU 0 instructions: 230000003 cycles: 237054916 heartbeat IPC: 1.22 cumulative IPC: 0.995144 (Simulation time: 0 hr 16 min 26 sec) 
Heartbeat CPU 0 instructions: 231000000 cycles: 238138523 heartbeat IPC: 0.922841 cumulative IPC: 0.994791 (Simulation time: 0 hr 16 min 31 sec) 
Heartbeat CPU 0 instructions: 232000002 cycles: 239393085 heartbeat IPC: 0.797093 cumulative IPC: 0.993681 (Simulation time: 0 hr 16 min 35 sec) 
Heartbeat CPU 0 instructions: 233000001 cycles: 240649754 heartbeat IPC: 0.795754 cumulative IPC: 0.992574 (Simulation time: 0 hr 16 min 40 sec) 
Heartbeat CPU 0 instructions: 234000000 cycles: 241745795 heartbeat IPC: 0.912374 cumulative IPC: 0.992185 (Simulation time: 0 hr 16 min 44 sec) 
Heartbeat CPU 0 instructions: 235000001 cycles: 242555392 heartbeat IPC: 1.23518 cumulative IPC: 0.993053 (Simulation time: 0 hr 16 min 48 sec) 
Heartbeat CPU 0 instructions: 236000001 cycles: 243414852 heartbeat IPC: 1.16352 cumulative IPC: 0.993697 (Simulation time: 0 hr 16 min 52 sec) 
Heartbeat CPU 0 instructions: 237000002 cycles: 244736796 heartbeat IPC: 0.756462 cumulative IPC: 0.992326 (Simulation time: 0 hr 16 min 57 sec) 
Heartbeat CPU 0 instructions: 238000002 cycles: 245984277 heartbeat IPC: 0.801615 cumulative IPC: 0.991292 (Simulation time: 0 hr 17 min 2 sec) 
Heartbeat CPU 0 instructions: 239000001 cycles: 247180327 heartbeat IPC: 0.836085 cumulative IPC: 0.990489 (Simulation time: 0 hr 17 min 6 sec) 
Heartbeat CPU 0 instructions: 240000000 cycles: 248023982 heartbeat IPC: 1.18532 cumulative IPC: 0.991197 (Simulation time: 0 hr 17 min 10 sec) 
Heartbeat CPU 0 instructions: 241000000 cycles: 248850156 heartbeat IPC: 1.2104 cumulative IPC: 0.991975 (Simulation time: 0 hr 17 min 14 sec) 
Heartbeat CPU 0 instructions: 242000000 cycles: 250065044 heartbeat IPC: 0.823121 cumulative IPC: 0.991099 (Simulation time: 0 hr 17 min 19 sec) 
Heartbeat CPU 0 instructions: 243000003 cycles: 251312122 heartbeat IPC: 0.801877 cumulative IPC: 0.990096 (Simulation time: 0 hr 17 min 23 sec) 
Heartbeat CPU 0 instructions: 244000003 cycles: 252645505 heartbeat IPC: 0.749972 cumulative IPC: 0.988743 (Simulation time: 0 hr 17 min 28 sec) 
Heartbeat CPU 0 instructions: 245000002 cycles: 253472820 heartbeat IPC: 1.20873 cumulative IPC: 0.989509 (Simulation time: 0 hr 17 min 32 sec) 
Heartbeat CPU 0 instructions: 246000002 cycles: 254295568 heartbeat IPC: 1.21544 cumulative IPC: 0.990289 (Simulation time: 0 hr 17 min 36 sec) 
Heartbeat CPU 0 instructions: 247000003 cycles: 255393790 heartbeat IPC: 0.910564 cumulative IPC: 0.989924 (Simulation time: 0 hr 17 min 41 sec) 
Heartbeat CPU 0 instructions: 248000003 cycles: 256673326 heartbeat IPC: 0.781533 cumulative IPC: 0.988816 (Simulation time: 0 hr 17 min 45 sec) 
Heartbeat CPU 0 instructions: 249000001 cycles: 257984512 heartbeat IPC: 0.762667 cumulative IPC: 0.987591 (Simulation time: 0 hr 17 min 50 sec) 
Heartbeat CPU 0 instructions: 250000000 cycles: 258760684 heartbeat IPC: 1.28837 cumulative IPC: 0.988552 (Simulation time: 0 hr 17 min 53 sec) 
Heartbeat CPU 0 instructions: 251000000 cycles: 259500289 heartbeat IPC: 1.35207 cumulative IPC: 0.989656 (Simulation time: 0 hr 17 min 56 sec) 
Heartbeat CPU 0 instructions: 252000000 cycles: 260318606 heartbeat IPC: 1.22202 cumulative IPC: 0.990434 (Simulation time: 0 hr 18 min 1 sec) 
Heartbeat CPU 0 instructions: 253000000 cycles: 261237126 heartbeat IPC: 1.08871 cumulative IPC: 0.990803 (Simulation time: 0 hr 18 min 5 sec) 
Heartbeat CPU 0 instructions: 254000001 cycles: 262615114 heartbeat IPC: 0.725696 cumulative IPC: 0.989321 (Simulation time: 0 hr 18 min 10 sec) 
Heartbeat CPU 0 instructions: 255000003 cycles: 263917288 heartbeat IPC: 0.767948 cumulative IPC: 0.988159 (Simulation time: 0 hr 18 min 14 sec) 
Heartbeat CPU 0 instructions: 256000001 cycles: 264917899 heartbeat IPC: 0.999387 cumulative IPC: 0.988204 (Simulation time: 0 hr 18 min 18 sec) 
Heartbeat CPU 0 instructions: 257000003 cycles: 265727327 heartbeat IPC: 1.23544 cumulative IPC: 0.989005 (Simulation time: 0 hr 18 min 23 sec) 
Heartbeat CPU 0 instructions: 258000001 cycles: 266738168 heartbeat IPC: 0.989273 cumulative IPC: 0.989006 (Simulation time: 0 hr 18 min 27 sec) 
Heartbeat CPU 0 instructions: 259000001 cycles: 268077886 heartbeat IPC: 0.746426 cumulative IPC: 0.987717 (Simulation time: 0 hr 18 min 32 sec) 
Heartbeat CPU 0 instructions: 260000003 cycles: 269423387 heartbeat IPC: 0.743219 cumulative IPC: 0.986419 (Simulation time: 0 hr 18 min 36 sec) 
Heartbeat CPU 0 instructions: 261000003 cycles: 270255114 heartbeat IPC: 1.20232 cumulative IPC: 0.987125 (Simulation time: 0 hr 18 min 40 sec) 
Heartbeat CPU 0 instructions: 262000003 cycles: 271072694 heartbeat IPC: 1.22312 cumulative IPC: 0.987882 (Simulation time: 0 hr 18 min 44 sec) 
Heartbeat CPU 0 instructions: 263000001 cycles: 272205244 heartbeat IPC: 0.882961 cumulative IPC: 0.987418 (Simulation time: 0 hr 18 min 49 sec) 
Heartbeat CPU 0 instructions: 264000000 cycles: 273509509 heartbeat IPC: 0.766715 cumulative IPC: 0.9863 (Simulation time: 0 hr 18 min 54 sec) 
Heartbeat CPU 0 instructions: 265000000 cycles: 274809368 heartbeat IPC: 0.769314 cumulative IPC: 0.98521 (Simulation time: 0 hr 18 min 58 sec) 
Heartbeat CPU 0 instructions: 266000000 cycles: 275630082 heartbeat IPC: 1.21845 cumulative IPC: 0.985948 (Simulation time: 0 hr 19 min 2 sec) 
Heartbeat CPU 0 instructions: 267000002 cycles: 276452229 heartbeat IPC: 1.21633 cumulative IPC: 0.986675 (Simulation time: 0 hr 19 min 6 sec) 
Heartbeat CPU 0 instructions: 268000003 cycles: 277625203 heartbeat IPC: 0.852535 cumulative IPC: 0.986073 (Simulation time: 0 hr 19 min 11 sec) 
Heartbeat CPU 0 instructions: 269000002 cycles: 278970267 heartbeat IPC: 0.743458 cumulative IPC: 0.984833 (Simulation time: 0 hr 19 min 15 sec) 
Heartbeat CPU 0 instructions: 270000001 cycles: 280142330 heartbeat IPC: 0.853196 cumulative IPC: 0.984248 (Simulation time: 0 hr 19 min 20 sec) 
Heartbeat CPU 0 instructions: 271000002 cycles: 280974269 heartbeat IPC: 1.20201 cumulative IPC: 0.984932 (Simulation time: 0 hr 19 min 23 sec) 
Heartbeat CPU 0 instructions: 272000002 cycles: 281805109 heartbeat IPC: 1.2036 cumulative IPC: 0.985616 (Simulation time: 0 hr 19 min 28 sec) 
Heartbeat CPU 0 instructions: 273000003 cycles: 283076798 heartbeat IPC: 0.786357 cumulative IPC: 0.984667 (Simulation time: 0 hr 19 min 32 sec) 
Heartbeat CPU 0 instructions: 274000002 cycles: 284427499 heartbeat IPC: 0.740356 cumulative IPC: 0.983438 (Simulation time: 0 hr 19 min 37 sec) 
Heartbeat CPU 0 instructions: 275000000 cycles: 285505373 heartbeat IPC: 0.92775 cumulative IPC: 0.983215 (Simulation time: 0 hr 19 min 41 sec) 
Heartbeat CPU 0 instructions: 276000000 cycles: 286330292 heartbeat IPC: 1.21224 cumulative IPC: 0.983914 (Simulation time: 0 hr 19 min 45 sec) 
Heartbeat CPU 0 instructions: 277000001 cycles: 287250664 heartbeat IPC: 1.08652 cumulative IPC: 0.984262 (Simulation time: 0 hr 19 min 50 sec) 
Heartbeat CPU 0 instructions: 278000002 cycles: 288676754 heartbeat IPC: 0.701219 cumulative IPC: 0.982782 (Simulation time: 0 hr 19 min 54 sec) 
Heartbeat CPU 0 instructions: 279000000 cycles: 290028098 heartbeat IPC: 0.740003 cumulative IPC: 0.981584 (Simulation time: 0 hr 20 min 3 sec) 
Heartbeat CPU 0 instructions: 280000001 cycles: 291085612 heartbeat IPC: 0.945615 cumulative IPC: 0.981446 (Simulation time: 0 hr 20 min 11 sec) 
Heartbeat CPU 0 instructions: 281000003 cycles: 291904722 heartbeat IPC: 1.22084 cumulative IPC: 0.982157 (Simulation time: 0 hr 20 min 21 sec) 
Heartbeat CPU 0 instructions: 282000003 cycles: 292815216 heartbeat IPC: 1.0983 cumulative IPC: 0.982539 (Simulation time: 0 hr 20 min 31 sec) 
Heartbeat CPU 0 instructions: 283000000 cycles: 294163498 heartbeat IPC: 0.741682 cumulative IPC: 0.981372 (Simulation time: 0 hr 20 min 40 sec) 
Heartbeat CPU 0 instructions: 284000001 cycles: 295459229 heartbeat IPC: 0.771766 cumulative IPC: 0.9804 (Simulation time: 0 hr 20 min 49 sec) 
Heartbeat CPU 0 instructions: 285000001 cycles: 296570470 heartbeat IPC: 0.899895 cumulative IPC: 0.980081 (Simulation time: 0 hr 20 min 53 sec) 
Heartbeat CPU 0 instructions: 286000000 cycles: 297422931 heartbeat IPC: 1.17307 cumulative IPC: 0.980665 (Simulation time: 0 hr 21 min 2 sec) 
Heartbeat CPU 0 instructions: 287000003 cycles: 298262544 heartbeat IPC: 1.19103 cumulative IPC: 0.981291 (Simulation time: 0 hr 21 min 11 sec) 
Heartbeat CPU 0 instructions: 288000002 cycles: 299577069 heartbeat IPC: 0.76073 cumulative IPC: 0.980269 (Simulation time: 0 hr 21 min 20 sec) 
Heartbeat CPU 0 instructions: 289000003 cycles: 300880604 heartbeat IPC: 0.767146 cumulative IPC: 0.979294 (Simulation time: 0 hr 21 min 30 sec) 
Heartbeat CPU 0 instructions: 290000001 cycles: 302029665 heartbeat IPC: 0.870274 cumulative IPC: 0.978856 (Simulation time: 0 hr 21 min 36 sec) 
Heartbeat CPU 0 instructions: 291000002 cycles: 302866375 heartbeat IPC: 1.19516 cumulative IPC: 0.979487 (Simulation time: 0 hr 21 min 43 sec) 
Heartbeat CPU 0 instructions: 292000003 cycles: 303701718 heartbeat IPC: 1.19711 cumulative IPC: 0.980118 (Simulation time: 0 hr 21 min 53 sec) 
Heartbeat CPU 0 instructions: 293000001 cycles: 304998443 heartbeat IPC: 0.771172 cumulative IPC: 0.979181 (Simulation time: 0 hr 22 min 4 sec) 
Heartbeat CPU 0 instructions: 294000003 cycles: 306293402 heartbeat IPC: 0.772227 cumulative IPC: 0.978258 (Simulation time: 0 hr 22 min 13 sec) 
Heartbeat CPU 0 instructions: 295000003 cycles: 307456953 heartbeat IPC: 0.859438 cumulative IPC: 0.977784 (Simulation time: 0 hr 22 min 20 sec) 
Heartbeat CPU 0 instructions: 296000000 cycles: 308294581 heartbeat IPC: 1.19384 cumulative IPC: 0.978403 (Simulation time: 0 hr 22 min 28 sec) 
Heartbeat CPU 0 instructions: 297000000 cycles: 309129458 heartbeat IPC: 1.19778 cumulative IPC: 0.979027 (Simulation time: 0 hr 22 min 37 sec) 
Heartbeat CPU 0 instructions: 298000003 cycles: 310403946 heartbeat IPC: 0.784631 cumulative IPC: 0.978186 (Simulation time: 0 hr 22 min 47 sec) 
Heartbeat CPU 0 instructions: 299000003 cycles: 311704199 heartbeat IPC: 0.769081 cumulative IPC: 0.977267 (Simulation time: 0 hr 22 min 58 sec) 
Heartbeat CPU 0 instructions: 300000002 cycles: 312929578 heartbeat IPC: 0.816073 cumulative IPC: 0.976601 (Simulation time: 0 hr 23 min 5 sec) 
Heartbeat CPU 0 instructions: 301000003 cycles: 313775414 heartbeat IPC: 1.18226 cumulative IPC: 0.977185 (Simulation time: 0 hr 23 min 10 sec) 
Heartbeat CPU 0 instructions: 302000000 cycles: 314604961 heartbeat IPC: 1.20547 cumulative IPC: 0.97782 (Simulation time: 0 hr 23 min 16 sec) 
Heartbeat CPU 0 instructions: 303000000 cycles: 315848490 heartbeat IPC: 0.804163 cumulative IPC: 0.9771 (Simulation time: 0 hr 23 min 24 sec) 
Heartbeat CPU 0 instructions: 304000002 cycles: 317144468 heartbeat IPC: 0.77162 cumulative IPC: 0.976215 (Simulation time: 0 hr 23 min 32 sec) 
Heartbeat CPU 0 instructions: 305000001 cycles: 318366532 heartbeat IPC: 0.818287 cumulative IPC: 0.975577 (Simulation time: 0 hr 23 min 41 sec) 
Heartbeat CPU 0 instructions: 306000002 cycles: 319240801 heartbeat IPC: 1.14381 cumulative IPC: 0.976062 (Simulation time: 0 hr 23 min 49 sec) 
Heartbeat CPU 0 instructions: 307000003 cycles: 320069539 heartbeat IPC: 1.20666 cumulative IPC: 0.97669 (Simulation time: 0 hr 23 min 55 sec) 
Heartbeat CPU 0 instructions: 308000000 cycles: 321324390 heartbeat IPC: 0.796905 cumulative IPC: 0.975952 (Simulation time: 0 hr 24 min 2 sec) 
Heartbeat CPU 0 instructions: 309000003 cycles: 322620134 heartbeat IPC: 0.77176 cumulative IPC: 0.975089 (Simulation time: 0 hr 24 min 11 sec) 
Heartbeat CPU 0 instructions: 310000002 cycles: 324068264 heartbeat IPC: 0.690545 cumulative IPC: 0.973751 (Simulation time: 0 hr 24 min 19 sec) 
Heartbeat CPU 0 instructions: 311000002 cycles: 324690782 heartbeat IPC: 1.60638 cumulative IPC: 0.975027 (Simulation time: 0 hr 24 min 26 sec) 
Heartbeat CPU 0 instructions: 312000000 cycles: 325469004 heartbeat IPC: 1.28498 cumulative IPC: 0.975806 (Simulation time: 0 hr 24 min 33 sec) 
Heartbeat CPU 0 instructions: 313000001 cycles: 326297324 heartbeat IPC: 1.20726 cumulative IPC: 0.976424 (Simulation time: 0 hr 24 min 40 sec) 
Heartbeat CPU 0 instructions: 314000002 cycles: 327200276 heartbeat IPC: 1.10748 cumulative IPC: 0.976804 (Simulation time: 0 hr 24 min 51 sec) 
Heartbeat CPU 0 instructions: 315000000 cycles: 328558915 heartbeat IPC: 0.736029 cumulative IPC: 0.975758 (Simulation time: 0 hr 25 min 2 sec) 
Heartbeat CPU 0 instructions: 316000001 cycles: 329835077 heartbeat IPC: 0.7836 cumulative IPC: 0.974977 (Simulation time: 0 hr 25 min 11 sec) 
Heartbeat CPU 0 instructions: 317000000 cycles: 331107221 heartbeat IPC: 0.786074 cumulative IPC: 0.974214 (Simulation time: 0 hr 25 min 21 sec) 
Heartbeat CPU 0 instructions: 318000001 cycles: 332205348 heartbeat IPC: 0.910642 cumulative IPC: 0.973993 (Simulation time: 0 hr 25 min 28 sec) 
Heartbeat CPU 0 instructions: 319000000 cycles: 333024452 heartbeat IPC: 1.22084 cumulative IPC: 0.974631 (Simulation time: 0 hr 25 min 37 sec) 
Heartbeat CPU 0 instructions: 320000002 cycles: 333972814 heartbeat IPC: 1.05445 cumulative IPC: 0.974869 (Simulation time: 0 hr 25 min 47 sec) 
Heartbeat CPU 0 instructions: 321000000 cycles: 335271193 heartbeat IPC: 0.77019 cumulative IPC: 0.974037 (Simulation time: 0 hr 25 min 57 sec) 
Heartbeat CPU 0 instructions: 322000000 cycles: 336480839 heartbeat IPC: 0.826688 cumulative IPC: 0.973481 (Simulation time: 0 hr 26 min 6 sec) 
Heartbeat CPU 0 instructions: 323000000 cycles: 337704095 heartbeat IPC: 0.81749 cumulative IPC: 0.972888 (Simulation time: 0 hr 26 min 15 sec) 
Heartbeat CPU 0 instructions: 324000003 cycles: 338872000 heartbeat IPC: 0.856237 cumulative IPC: 0.972466 (Simulation time: 0 hr 26 min 23 sec) 
Heartbeat CPU 0 instructions: 325000002 cycles: 339682120 heartbeat IPC: 1.23438 cumulative IPC: 0.973121 (Simulation time: 0 hr 26 min 33 sec) 
Heartbeat CPU 0 instructions: 326000001 cycles: 340529907 heartbeat IPC: 1.17954 cumulative IPC: 0.97366 (Simulation time: 0 hr 26 min 41 sec) 
Heartbeat CPU 0 instructions: 327000003 cycles: 341832348 heartbeat IPC: 0.767791 cumulative IPC: 0.972837 (Simulation time: 0 hr 26 min 51 sec) 
Heartbeat CPU 0 instructions: 328000001 cycles: 343029626 heartbeat IPC: 0.835226 cumulative IPC: 0.972334 (Simulation time: 0 hr 27 min 0 sec) 
Heartbeat CPU 0 instructions: 329000003 cycles: 344249267 heartbeat IPC: 0.819915 cumulative IPC: 0.971767 (Simulation time: 0 hr 27 min 11 sec) 
Heartbeat CPU 0 instructions: 330000000 cycles: 345413470 heartbeat IPC: 0.858954 cumulative IPC: 0.971369 (Simulation time: 0 hr 27 min 20 sec) 
Heartbeat CPU 0 instructions: 331000000 cycles: 346276321 heartbeat IPC: 1.15895 cumulative IPC: 0.971859 (Simulation time: 0 hr 27 min 29 sec) 
Heartbeat CPU 0 instructions: 332000002 cycles: 347116055 heartbeat IPC: 1.19086 cumulative IPC: 0.972414 (Simulation time: 0 hr 27 min 34 sec) 
Heartbeat CPU 0 instructions: 333000000 cycles: 348382208 heartbeat IPC: 0.789792 cumulative IPC: 0.971718 (Simulation time: 0 hr 27 min 45 sec) 
Heartbeat CPU 0 instructions: 334000000 cycles: 349621040 heartbeat IPC: 0.807212 cumulative IPC: 0.971108 (Simulation time: 0 hr 27 min 55 sec) 
Heartbeat CPU 0 instructions: 335000002 cycles: 350858652 heartbeat IPC: 0.808009 cumulative IPC: 0.970505 (Simulation time: 0 hr 28 min 6 sec) 
Heartbeat CPU 0 instructions: 336000001 cycles: 352043732 heartbeat IPC: 0.843824 cumulative IPC: 0.970058 (Simulation time: 0 hr 28 min 15 sec) 
Heartbeat CPU 0 instructions: 337000001 cycles: 352900688 heartbeat IPC: 1.16692 cumulative IPC: 0.970559 (Simulation time: 0 hr 28 min 22 sec) 
Heartbeat CPU 0 instructions: 338000001 cycles: 353741176 heartbeat IPC: 1.18979 cumulative IPC: 0.971104 (Simulation time: 0 hr 28 min 28 sec) 
Heartbeat CPU 0 instructions: 339000002 cycles: 354995379 heartbeat IPC: 0.79732 cumulative IPC: 0.970461 (Simulation time: 0 hr 28 min 35 sec) 
Heartbeat CPU 0 instructions: 340000001 cycles: 356215427 heartbeat IPC: 0.819639 cumulative IPC: 0.969921 (Simulation time: 0 hr 28 min 46 sec) 
Heartbeat CPU 0 instructions: 341000000 cycles: 357440910 heartbeat IPC: 0.816004 cumulative IPC: 0.969368 (Simulation time: 0 hr 28 min 56 sec) 
Heartbeat CPU 0 instructions: 342000000 cycles: 358609940 heartbeat IPC: 0.85541 cumulative IPC: 0.968979 (Simulation time: 0 hr 29 min 5 sec) 
Heartbeat CPU 0 instructions: 343000001 cycles: 359461885 heartbeat IPC: 1.17379 cumulative IPC: 0.969487 (Simulation time: 0 hr 29 min 10 sec) 
Heartbeat CPU 0 instructions: 344000000 cycles: 360309208 heartbeat IPC: 1.18019 cumulative IPC: 0.970006 (Simulation time: 0 hr 29 min 17 sec) 
Heartbeat CPU 0 instructions: 345000002 cycles: 361577139 heartbeat IPC: 0.788688 cumulative IPC: 0.969341 (Simulation time: 0 hr 29 min 28 sec) 
Heartbeat CPU 0 instructions: 346000002 cycles: 362801947 heartbeat IPC: 0.816454 cumulative IPC: 0.968801 (Simulation time: 0 hr 29 min 38 sec) 
Heartbeat CPU 0 instructions: 347000000 cycles: 364041345 heartbeat IPC: 0.806842 cumulative IPC: 0.968224 (Simulation time: 0 hr 29 min 46 sec) 
Heartbeat CPU 0 instructions: 348000001 cycles: 365189540 heartbeat IPC: 0.870933 cumulative IPC: 0.967904 (Simulation time: 0 hr 29 min 53 sec) 
Heartbeat CPU 0 instructions: 349000002 cycles: 365996836 heartbeat IPC: 1.2387 cumulative IPC: 0.968529 (Simulation time: 0 hr 29 min 57 sec) 
Heartbeat CPU 0 instructions: 350000003 cycles: 366847387 heartbeat IPC: 1.17571 cumulative IPC: 0.969031 (Simulation time: 0 hr 30 min 5 sec) 
Heartbeat CPU 0 instructions: 351000002 cycles: 368173854 heartbeat IPC: 0.753882 cumulative IPC: 0.968221 (Simulation time: 0 hr 30 min 10 sec) 
Heartbeat CPU 0 instructions: 352000000 cycles: 369398127 heartbeat IPC: 0.81681 cumulative IPC: 0.967696 (Simulation time: 0 hr 30 min 17 sec) 
Heartbeat CPU 0 instructions: 353000000 cycles: 370693560 heartbeat IPC: 0.771943 cumulative IPC: 0.966981 (Simulation time: 0 hr 30 min 25 sec) 
Heartbeat CPU 0 instructions: 354000002 cycles: 371624401 heartbeat IPC: 1.0743 cumulative IPC: 0.967262 (Simulation time: 0 hr 30 min 35 sec) 
Heartbeat CPU 0 instructions: 355000003 cycles: 372437121 heartbeat IPC: 1.23044 cumulative IPC: 0.967862 (Simulation time: 0 hr 30 min 45 sec) 
Heartbeat CPU 0 instructions: 356000002 cycles: 373454889 heartbeat IPC: 0.982541 cumulative IPC: 0.967904 (Simulation time: 0 hr 30 min 55 sec) 
Heartbeat CPU 0 instructions: 357000000 cycles: 374755202 heartbeat IPC: 0.769044 cumulative IPC: 0.967183 (Simulation time: 0 hr 31 min 5 sec) 
Heartbeat CPU 0 instructions: 358000000 cycles: 376010875 heartbeat IPC: 0.796386 cumulative IPC: 0.966587 (Simulation time: 0 hr 31 min 10 sec) 
Heartbeat CPU 0 instructions: 359000000 cycles: 377126651 heartbeat IPC: 0.896237 cumulative IPC: 0.96637 (Simulation time: 0 hr 31 min 14 sec) 
Heartbeat CPU 0 instructions: 360000001 cycles: 377931156 heartbeat IPC: 1.243 cumulative IPC: 0.966985 (Simulation time: 0 hr 31 min 23 sec) 
Heartbeat CPU 0 instructions: 361000000 cycles: 378781998 heartbeat IPC: 1.17531 cumulative IPC: 0.967474 (Simulation time: 0 hr 31 min 34 sec) 
Heartbeat CPU 0 instructions: 362000003 cycles: 380100541 heartbeat IPC: 0.758415 cumulative IPC: 0.966717 (Simulation time: 0 hr 31 min 42 sec) 
Heartbeat CPU 0 instructions: 363000000 cycles: 381365700 heartbeat IPC: 0.790412 cumulative IPC: 0.966106 (Simulation time: 0 hr 31 min 50 sec) 
Heartbeat CPU 0 instructions: 364000003 cycles: 382467974 heartbeat IPC: 0.907218 cumulative IPC: 0.965929 (Simulation time: 0 hr 32 min 0 sec) 
Heartbeat CPU 0 instructions: 365000003 cycles: 383304787 heartbeat IPC: 1.19501 cumulative IPC: 0.966451 (Simulation time: 0 hr 32 min 9 sec) 
Heartbeat CPU 0 instructions: 366000001 cycles: 384144751 heartbeat IPC: 1.19052 cumulative IPC: 0.966962 (Simulation time: 0 hr 32 min 18 sec) 
Heartbeat CPU 0 instructions: 367000000 cycles: 385424415 heartbeat IPC: 0.781454 cumulative IPC: 0.96632 (Simulation time: 0 hr 32 min 30 sec) 
Heartbeat CPU 0 instructions: 368000003 cycles: 386683313 heartbeat IPC: 0.794348 cumulative IPC: 0.965735 (Simulation time: 0 hr 32 min 41 sec) 
Heartbeat CPU 0 instructions: 369000000 cycles: 387755795 heartbeat IPC: 0.932414 cumulative IPC: 0.965639 (Simulation time: 0 hr 32 min 48 sec) 
Heartbeat CPU 0 instructions: 370000001 cycles: 388558196 heartbeat IPC: 1.24626 cumulative IPC: 0.966244 (Simulation time: 0 hr 32 min 56 sec) 
Heartbeat CPU 0 instructions: 371000002 cycles: 389412698 heartbeat IPC: 1.17027 cumulative IPC: 0.966711 (Simulation time: 0 hr 33 min 5 sec) 
Heartbeat CPU 0 instructions: 372000000 cycles: 390748220 heartbeat IPC: 0.748769 cumulative IPC: 0.965934 (Simulation time: 0 hr 33 min 15 sec) 
Heartbeat CPU 0 instructions: 373000000 cycles: 392001351 heartbeat IPC: 0.798001 cumulative IPC: 0.965374 (Simulation time: 0 hr 33 min 24 sec) 
Heartbeat CPU 0 instructions: 374000000 cycles: 392950518 heartbeat IPC: 1.05356 cumulative IPC: 0.965596 (Simulation time: 0 hr 33 min 32 sec) 
Heartbeat CPU 0 instructions: 375000002 cycles: 393757939 heartbeat IPC: 1.23851 cumulative IPC: 0.96618 (Simulation time: 0 hr 33 min 40 sec) 
Heartbeat CPU 0 instructions: 376000001 cycles: 394729234 heartbeat IPC: 1.02955 cumulative IPC: 0.966342 (Simulation time: 0 hr 33 min 46 sec) 
Heartbeat CPU 0 instructions: 377000002 cycles: 396025028 heartbeat IPC: 0.771728 cumulative IPC: 0.965679 (Simulation time: 0 hr 33 min 53 sec) 
Heartbeat CPU 0 instructions: 378000002 cycles: 397233831 heartbeat IPC: 0.827265 cumulative IPC: 0.96524 (Simulation time: 0 hr 34 min 3 sec) 
Heartbeat CPU 0 instructions: 379000001 cycles: 398061465 heartbeat IPC: 1.20826 cumulative IPC: 0.965766 (Simulation time: 0 hr 34 min 10 sec) 
Heartbeat CPU 0 instructions: 380000000 cycles: 398875968 heartbeat IPC: 1.22774 cumulative IPC: 0.966323 (Simulation time: 0 hr 34 min 16 sec) 
Heartbeat CPU 0 instructions: 381000001 cycles: 400058641 heartbeat IPC: 0.845543 cumulative IPC: 0.965952 (Simulation time: 0 hr 34 min 26 sec) 
Heartbeat CPU 0 instructions: 382000001 cycles: 401324370 heartbeat IPC: 0.790059 cumulative IPC: 0.965374 (Simulation time: 0 hr 34 min 35 sec) 
Heartbeat CPU 0 instructions: 383000001 cycles: 402288824 heartbeat IPC: 1.03686 cumulative IPC: 0.965552 (Simulation time: 0 hr 34 min 41 sec) 
Heartbeat CPU 0 instructions: 384000003 cycles: 402960012 heartbeat IPC: 1.4899 cumulative IPC: 0.966462 (Simulation time: 0 hr 34 min 48 sec) 
Heartbeat CPU 0 instructions: 385000000 cycles: 403783349 heartbeat IPC: 1.21457 cumulative IPC: 0.966988 (Simulation time: 0 hr 34 min 57 sec) 
Heartbeat CPU 0 instructions: 386000000 cycles: 404609099 heartbeat IPC: 1.21102 cumulative IPC: 0.967507 (Simulation time: 0 hr 35 min 6 sec) 
Heartbeat CPU 0 instructions: 387000001 cycles: 405888166 heartbeat IPC: 0.781821 cumulative IPC: 0.966898 (Simulation time: 0 hr 35 min 14 sec) 
Heartbeat CPU 0 instructions: 388000001 cycles: 407192294 heartbeat IPC: 0.766796 cumulative IPC: 0.966231 (Simulation time: 0 hr 35 min 25 sec) 
Heartbeat CPU 0 instructions: 389000000 cycles: 408168591 heartbeat IPC: 1.02428 cumulative IPC: 0.966375 (Simulation time: 0 hr 35 min 34 sec) 
Heartbeat CPU 0 instructions: 390000002 cycles: 408988655 heartbeat IPC: 1.21942 cumulative IPC: 0.966903 (Simulation time: 0 hr 35 min 45 sec) 
Heartbeat CPU 0 instructions: 391000000 cycles: 409895983 heartbeat IPC: 1.10214 cumulative IPC: 0.967215 (Simulation time: 0 hr 35 min 55 sec) 
Heartbeat CPU 0 instructions: 392000000 cycles: 411260570 heartbeat IPC: 0.732822 cumulative IPC: 0.966406 (Simulation time: 0 hr 36 min 3 sec) 
Heartbeat CPU 0 instructions: 393000001 cycles: 412501130 heartbeat IPC: 0.806088 cumulative IPC: 0.965904 (Simulation time: 0 hr 36 min 13 sec) 
Heartbeat CPU 0 instructions: 394000001 cycles: 413320504 heartbeat IPC: 1.22044 cumulative IPC: 0.966429 (Simulation time: 0 hr 36 min 22 sec) 
Heartbeat CPU 0 instructions: 395000002 cycles: 414137498 heartbeat IPC: 1.224 cumulative IPC: 0.966957 (Simulation time: 0 hr 36 min 29 sec) 
Heartbeat CPU 0 instructions: 396000000 cycles: 415289707 heartbeat IPC: 0.867896 cumulative IPC: 0.966672 (Simulation time: 0 hr 36 min 39 sec) 
Heartbeat CPU 0 instructions: 397000001 cycles: 416585372 heartbeat IPC: 0.771805 cumulative IPC: 0.966041 (Simulation time: 0 hr 36 min 49 sec) 
Heartbeat CPU 0 instructions: 398000001 cycles: 417611547 heartbeat IPC: 0.974493 cumulative IPC: 0.966063 (Simulation time: 0 hr 36 min 55 sec) 
Heartbeat CPU 0 instructions: 399000001 cycles: 418422047 heartbeat IPC: 1.23381 cumulative IPC: 0.966602 (Simulation time: 0 hr 37 min 2 sec) 
Heartbeat CPU 0 instructions: 400000000 cycles: 419264533 heartbeat IPC: 1.18696 cumulative IPC: 0.967062 (Simulation time: 0 hr 37 min 9 sec) 
Heartbeat CPU 0 instructions: 401000000 cycles: 420659868 heartbeat IPC: 0.716674 cumulative IPC: 0.966199 (Simulation time: 0 hr 37 min 17 sec) 
Heartbeat CPU 0 instructions: 402000002 cycles: 421919516 heartbeat IPC: 0.793874 cumulative IPC: 0.965664 (Simulation time: 0 hr 37 min 24 sec) 
Heartbeat CPU 0 instructions: 403000001 cycles: 422743075 heartbeat IPC: 1.21424 cumulative IPC: 0.966168 (Simulation time: 0 hr 37 min 30 sec) 
Heartbeat CPU 0 instructions: 404000000 cycles: 423557198 heartbeat IPC: 1.22831 cumulative IPC: 0.966691 (Simulation time: 0 hr 37 min 39 sec) 
Heartbeat CPU 0 instructions: 405000003 cycles: 424768697 heartbeat IPC: 0.825426 cumulative IPC: 0.966273 (Simulation time: 0 hr 37 min 48 sec) 
Heartbeat CPU 0 instructions: 406000003 cycles: 426077950 heartbeat IPC: 0.763794 cumulative IPC: 0.965626 (Simulation time: 0 hr 37 min 59 sec) 
Heartbeat CPU 0 instructions: 407000000 cycles: 427052377 heartbeat IPC: 1.02624 cumulative IPC: 0.96577 (Simulation time: 0 hr 38 min 6 sec) 
Heartbeat CPU 0 instructions: 408000001 cycles: 427873392 heartbeat IPC: 1.21801 cumulative IPC: 0.966273 (Simulation time: 0 hr 38 min 16 sec) 
Heartbeat CPU 0 instructions: 409000002 cycles: 428812928 heartbeat IPC: 1.06436 cumulative IPC: 0.966496 (Simulation time: 0 hr 38 min 23 sec) 
Heartbeat CPU 0 instructions: 410000000 cycles: 430160258 heartbeat IPC: 0.742207 cumulative IPC: 0.965766 (Simulation time: 0 hr 38 min 32 sec) 
Heartbeat CPU 0 instructions: 411000002 cycles: 431363926 heartbeat IPC: 0.830796 cumulative IPC: 0.965375 (Simulation time: 0 hr 38 min 43 sec) 
Heartbeat CPU 0 instructions: 412000001 cycles: 432195382 heartbeat IPC: 1.20271 cumulative IPC: 0.965849 (Simulation time: 0 hr 38 min 51 sec) 
Heartbeat CPU 0 instructions: 413000001 cycles: 433016603 heartbeat IPC: 1.2177 cumulative IPC: 0.966345 (Simulation time: 0 hr 39 min 1 sec) 
Heartbeat CPU 0 instructions: 414000000 cycles: 434222845 heartbeat IPC: 0.82902 cumulative IPC: 0.965949 (Simulation time: 0 hr 39 min 10 sec) 
Heartbeat CPU 0 instructions: 415000001 cycles: 435523635 heartbeat IPC: 0.768764 cumulative IPC: 0.965338 (Simulation time: 0 hr 39 min 21 sec) 
Heartbeat CPU 0 instructions: 416000001 cycles: 436515562 heartbeat IPC: 1.00814 cumulative IPC: 0.965439 (Simulation time: 0 hr 39 min 30 sec) 
Heartbeat CPU 0 instructions: 417000002 cycles: 437335946 heartbeat IPC: 1.21894 cumulative IPC: 0.965932 (Simulation time: 0 hr 39 min 38 sec) 
Heartbeat CPU 0 instructions: 418000000 cycles: 438256409 heartbeat IPC: 1.08641 cumulative IPC: 0.966195 (Simulation time: 0 hr 39 min 47 sec) 
Heartbeat CPU 0 instructions: 419000000 cycles: 439605474 heartbeat IPC: 0.741254 cumulative IPC: 0.965479 (Simulation time: 0 hr 39 min 57 sec) 
Heartbeat CPU 0 instructions: 420000003 cycles: 440905072 heartbeat IPC: 0.769471 cumulative IPC: 0.964879 (Simulation time: 0 hr 40 min 6 sec) 
Heartbeat CPU 0 instructions: 421000000 cycles: 441727178 heartbeat IPC: 1.21638 cumulative IPC: 0.965365 (Simulation time: 0 hr 40 min 12 sec) 
Heartbeat CPU 0 instructions: 422000001 cycles: 442546198 heartbeat IPC: 1.22097 cumulative IPC: 0.965856 (Simulation time: 0 hr 40 min 19 sec) 
Heartbeat CPU 0 instructions: 423000000 cycles: 443668935 heartbeat IPC: 0.89068 cumulative IPC: 0.965658 (Simulation time: 0 hr 40 min 26 sec) 
Heartbeat CPU 0 instructions: 424000002 cycles: 444965416 heartbeat IPC: 0.77132 cumulative IPC: 0.965071 (Simulation time: 0 hr 40 min 35 sec) 
Heartbeat CPU 0 instructions: 425000000 cycles: 446166842 heartbeat IPC: 0.832343 cumulative IPC: 0.9647 (Simulation time: 0 hr 40 min 42 sec) 
Heartbeat CPU 0 instructions: 426000000 cycles: 447001031 heartbeat IPC: 1.19877 cumulative IPC: 0.965153 (Simulation time: 0 hr 40 min 46 sec) 
Heartbeat CPU 0 instructions: 427000002 cycles: 447823757 heartbeat IPC: 1.21547 cumulative IPC: 0.96563 (Simulation time: 0 hr 40 min 53 sec) 
Heartbeat CPU 0 instructions: 428000000 cycles: 449026986 heartbeat IPC: 0.831095 cumulative IPC: 0.965256 (Simulation time: 0 hr 41 min 2 sec) 
Heartbeat CPU 0 instructions: 429000000 cycles: 450288940 heartbeat IPC: 0.792422 cumulative IPC: 0.964754 (Simulation time: 0 hr 41 min 7 sec) 
Heartbeat CPU 0 instructions: 430000001 cycles: 451479506 heartbeat IPC: 0.839937 cumulative IPC: 0.964413 (Simulation time: 0 hr 41 min 15 sec) 
Heartbeat CPU 0 instructions: 431000000 cycles: 452312732 heartbeat IPC: 1.20015 cumulative IPC: 0.964863 (Simulation time: 0 hr 41 min 24 sec) 
Heartbeat CPU 0 instructions: 432000001 cycles: 453137972 heartbeat IPC: 1.21177 cumulative IPC: 0.965329 (Simulation time: 0 hr 41 min 35 sec) 
Heartbeat CPU 0 instructions: 433000000 cycles: 454349982 heartbeat IPC: 0.825075 cumulative IPC: 0.964941 (Simulation time: 0 hr 41 min 42 sec) 
Heartbeat CPU 0 instructions: 434000003 cycles: 455612256 heartbeat IPC: 0.792223 cumulative IPC: 0.964445 (Simulation time: 0 hr 41 min 49 sec) 
Heartbeat CPU 0 instructions: 435000003 cycles: 456815086 heartbeat IPC: 0.831373 cumulative IPC: 0.964082 (Simulation time: 0 hr 41 min 55 sec) 
Heartbeat CPU 0 instructions: 436000003 cycles: 457673003 heartbeat IPC: 1.16561 cumulative IPC: 0.964474 (Simulation time: 0 hr 42 min 5 sec) 
Heartbeat CPU 0 instructions: 437000002 cycles: 458496610 heartbeat IPC: 1.21417 cumulative IPC: 0.964939 (Simulation time: 0 hr 42 min 16 sec) 
Heartbeat CPU 0 instructions: 438000001 cycles: 459712933 heartbeat IPC: 0.822149 cumulative IPC: 0.964547 (Simulation time: 0 hr 42 min 25 sec) 
Heartbeat CPU 0 instructions: 439000003 cycles: 460969763 heartbeat IPC: 0.795654 cumulative IPC: 0.96407 (Simulation time: 0 hr 42 min 32 sec) 
Heartbeat CPU 0 instructions: 440000000 cycles: 462377153 heartbeat IPC: 0.710533 cumulative IPC: 0.963271 (Simulation time: 0 hr 42 min 37 sec) 
Heartbeat CPU 0 instructions: 441000001 cycles: 462996471 heartbeat IPC: 1.61468 cumulative IPC: 0.964173 (Simulation time: 0 hr 42 min 43 sec) 
Heartbeat CPU 0 instructions: 442000003 cycles: 463760683 heartbeat IPC: 1.30854 cumulative IPC: 0.964761 (Simulation time: 0 hr 42 min 49 sec) 
Heartbeat CPU 0 instructions: 443000000 cycles: 464589864 heartbeat IPC: 1.20601 cumulative IPC: 0.965207 (Simulation time: 0 hr 42 min 58 sec) 
Heartbeat CPU 0 instructions: 444000002 cycles: 465502307 heartbeat IPC: 1.09596 cumulative IPC: 0.965472 (Simulation time: 0 hr 43 min 9 sec) 
Heartbeat CPU 0 instructions: 445000003 cycles: 466845732 heartbeat IPC: 0.744367 cumulative IPC: 0.964813 (Simulation time: 0 hr 43 min 17 sec) 
Heartbeat CPU 0 instructions: 446000002 cycles: 468127669 heartbeat IPC: 0.780069 cumulative IPC: 0.96429 (Simulation time: 0 hr 43 min 27 sec) 
Heartbeat CPU 0 instructions: 447000002 cycles: 469403965 heartbeat IPC: 0.783517 cumulative IPC: 0.963781 (Simulation time: 0 hr 43 min 38 sec) 
Heartbeat CPU 0 instructions: 448000003 cycles: 470301644 heartbeat IPC: 1.11399 cumulative IPC: 0.964078 (Simulation time: 0 hr 43 min 44 sec) 
Heartbeat CPU 0 instructions: 449000000 cycles: 471123410 heartbeat IPC: 1.21689 cumulative IPC: 0.964534 (Simulation time: 0 hr 43 min 49 sec) 
Heartbeat CPU 0 instructions: 450000001 cycles: 472278100 heartbeat IPC: 0.866034 cumulative IPC: 0.964285 (Simulation time: 0 hr 43 min 54 sec) 
Heartbeat CPU 0 instructions: 451000000 cycles: 473549395 heartbeat IPC: 0.786599 cumulative IPC: 0.963791 (Simulation time: 0 hr 43 min 59 sec) 
Heartbeat CPU 0 instructions: 452000000 cycles: 474813186 heartbeat IPC: 0.79127 cumulative IPC: 0.963316 (Simulation time: 0 hr 44 min 11 sec) 
Heartbeat CPU 0 instructions: 453000000 cycles: 475898082 heartbeat IPC: 0.921747 cumulative IPC: 0.963218 (Simulation time: 0 hr 44 min 21 sec) 
Heartbeat CPU 0 instructions: 454000000 cycles: 476713892 heartbeat IPC: 1.22578 cumulative IPC: 0.963683 (Simulation time: 0 hr 44 min 31 sec) 
Heartbeat CPU 0 instructions: 455000001 cycles: 477592835 heartbeat IPC: 1.13773 cumulative IPC: 0.964014 (Simulation time: 0 hr 44 min 42 sec) 
Heartbeat CPU 0 instructions: 456000001 cycles: 478913818 heartbeat IPC: 0.757012 cumulative IPC: 0.963424 (Simulation time: 0 hr 44 min 49 sec) 
Heartbeat CPU 0 instructions: 457000003 cycles: 480175668 heartbeat IPC: 0.792489 cumulative IPC: 0.962959 (Simulation time: 0 hr 44 min 54 sec) 
Heartbeat CPU 0 instructions: 458000003 cycles: 481462016 heartbeat IPC: 0.777395 cumulative IPC: 0.962446 (Simulation time: 0 hr 45 min 3 sec) 
Heartbeat CPU 0 instructions: 459000003 cycles: 482314246 heartbeat IPC: 1.17339 cumulative IPC: 0.962832 (Simulation time: 0 hr 45 min 10 sec) 
Heartbeat CPU 0 instructions: 460000001 cycles: 483142034 heartbeat IPC: 1.20804 cumulative IPC: 0.963266 (Simulation time: 0 hr 45 min 20 sec) 
Heartbeat CPU 0 instructions: 461000002 cycles: 484318157 heartbeat IPC: 0.850252 cumulative IPC: 0.962982 (Simulation time: 0 hr 45 min 26 sec) 
Heartbeat CPU 0 instructions: 462000000 cycles: 485579496 heartbeat IPC: 0.792807 cumulative IPC: 0.962525 (Simulation time: 0 hr 45 min 33 sec) 
Heartbeat CPU 0 instructions: 463000002 cycles: 486831061 heartbeat IPC: 0.799001 cumulative IPC: 0.96209 (Simulation time: 0 hr 45 min 41 sec) 
Heartbeat CPU 0 instructions: 464000003 cycles: 487902832 heartbeat IPC: 0.933036 cumulative IPC: 0.962025 (Simulation time: 0 hr 45 min 46 sec) 
Heartbeat CPU 0 instructions: 465000002 cycles: 488718488 heartbeat IPC: 1.22601 cumulative IPC: 0.96248 (Simulation time: 0 hr 45 min 53 sec) 
Heartbeat CPU 0 instructions: 466000003 cycles: 489680573 heartbeat IPC: 1.03941 cumulative IPC: 0.962636 (Simulation time: 0 hr 46 min 1 sec) 
Heartbeat CPU 0 instructions: 467000003 cycles: 490996995 heartbeat IPC: 0.759635 cumulative IPC: 0.962074 (Simulation time: 0 hr 46 min 12 sec) 
Heartbeat CPU 0 instructions: 468000000 cycles: 492258138 heartbeat IPC: 0.792929 cumulative IPC: 0.961626 (Simulation time: 0 hr 46 min 21 sec) 
Heartbeat CPU 0 instructions: 469000000 cycles: 493411674 heartbeat IPC: 0.8669 cumulative IPC: 0.961397 (Simulation time: 0 hr 46 min 29 sec) 
Heartbeat CPU 0 instructions: 470000000 cycles: 494218753 heartbeat IPC: 1.23904 cumulative IPC: 0.961865 (Simulation time: 0 hr 46 min 37 sec) 
Heartbeat CPU 0 instructions: 471000002 cycles: 495066329 heartbeat IPC: 1.17984 cumulative IPC: 0.962251 (Simulation time: 0 hr 46 min 46 sec) 
Heartbeat CPU 0 instructions: 472000003 cycles: 496352440 heartbeat IPC: 0.777539 cumulative IPC: 0.961757 (Simulation time: 0 hr 46 min 54 sec) 
Heartbeat CPU 0 instructions: 473000000 cycles: 497601725 heartbeat IPC: 0.800455 cumulative IPC: 0.961338 (Simulation time: 0 hr 47 min 2 sec) 
Heartbeat CPU 0 instructions: 474000000 cycles: 498793189 heartbeat IPC: 0.839304 cumulative IPC: 0.961037 (Simulation time: 0 hr 47 min 10 sec) 
Heartbeat CPU 0 instructions: 475000000 cycles: 499629412 heartbeat IPC: 1.19585 cumulative IPC: 0.961443 (Simulation time: 0 hr 47 min 18 sec) 
Heartbeat CPU 0 instructions: 476000000 cycles: 500465083 heartbeat IPC: 1.19664 cumulative IPC: 0.961849 (Simulation time: 0 hr 47 min 30 sec) 
Heartbeat CPU 0 instructions: 477000002 cycles: 501690958 heartbeat IPC: 0.815745 cumulative IPC: 0.96148 (Simulation time: 0 hr 47 min 41 sec) 
Heartbeat CPU 0 instructions: 478000002 cycles: 502931385 heartbeat IPC: 0.806174 cumulative IPC: 0.961084 (Simulation time: 0 hr 47 min 52 sec) 
Heartbeat CPU 0 instructions: 479000001 cycles: 504171213 heartbeat IPC: 0.806563 cumulative IPC: 0.960692 (Simulation time: 0 hr 47 min 59 sec) 
Heartbeat CPU 0 instructions: 480000001 cycles: 505015663 heartbeat IPC: 1.1842 cumulative IPC: 0.961078 (Simulation time: 0 hr 48 min 7 sec) 
Heartbeat CPU 0 instructions: 481000001 cycles: 505839701 heartbeat IPC: 1.21354 cumulative IPC: 0.961502 (Simulation time: 0 hr 48 min 18 sec) 
Heartbeat CPU 0 instructions: 482000003 cycles: 506992092 heartbeat IPC: 0.867763 cumulative IPC: 0.961282 (Simulation time: 0 hr 48 min 24 sec) 
Heartbeat CPU 0 instructions: 483000001 cycles: 508264497 heartbeat IPC: 0.785912 cumulative IPC: 0.960829 (Simulation time: 0 hr 48 min 29 sec) 
Heartbeat CPU 0 instructions: 484000000 cycles: 509499092 heartbeat IPC: 0.809981 cumulative IPC: 0.960452 (Simulation time: 0 hr 48 min 35 sec) 
Heartbeat CPU 0 instructions: 485000002 cycles: 510333437 heartbeat IPC: 1.19855 cumulative IPC: 0.960854 (Simulation time: 0 hr 48 min 44 sec) 
Heartbeat CPU 0 instructions: 486000000 cycles: 511153753 heartbeat IPC: 1.21904 cumulative IPC: 0.961281 (Simulation time: 0 hr 48 min 55 sec) 
Heartbeat CPU 0 instructions: 487000000 cycles: 512309265 heartbeat IPC: 0.865417 cumulative IPC: 0.961058 (Simulation time: 0 hr 49 min 6 sec) 
Heartbeat CPU 0 instructions: 488000001 cycles: 513577068 heartbeat IPC: 0.788767 cumulative IPC: 0.960619 (Simulation time: 0 hr 49 min 14 sec) 
Heartbeat CPU 0 instructions: 489000001 cycles: 514824583 heartbeat IPC: 0.801594 cumulative IPC: 0.960222 (Simulation time: 0 hr 49 min 23 sec) 
Heartbeat CPU 0 instructions: 490000002 cycles: 515667858 heartbeat IPC: 1.18585 cumulative IPC: 0.960602 (Simulation time: 0 hr 49 min 28 sec) 
Heartbeat CPU 0 instructions: 491000001 cycles: 516485036 heartbeat IPC: 1.22372 cumulative IPC: 0.961032 (Simulation time: 0 hr 49 min 39 sec) 
Heartbeat CPU 0 instructions: 492000003 cycles: 517595850 heartbeat IPC: 0.900243 cumulative IPC: 0.960897 (Simulation time: 0 hr 49 min 46 sec) 
Heartbeat CPU 0 instructions: 493000000 cycles: 518862375 heartbeat IPC: 0.78956 cumulative IPC: 0.960466 (Simulation time: 0 hr 49 min 55 sec) 
Heartbeat CPU 0 instructions: 494000003 cycles: 520092426 heartbeat IPC: 0.812977 cumulative IPC: 0.960106 (Simulation time: 0 hr 50 min 3 sec) 
Heartbeat CPU 0 instructions: 495000000 cycles: 520909460 heartbeat IPC: 1.22394 cumulative IPC: 0.960533 (Simulation time: 0 hr 50 min 10 sec) 
Heartbeat CPU 0 instructions: 496000003 cycles: 521726269 heartbeat IPC: 1.22428 cumulative IPC: 0.960959 (Simulation time: 0 hr 50 min 19 sec) 
Heartbeat CPU 0 instructions: 497000000 cycles: 522864121 heartbeat IPC: 0.878846 cumulative IPC: 0.960774 (Simulation time: 0 hr 50 min 30 sec) 
Heartbeat CPU 0 instructions: 498000001 cycles: 524123266 heartbeat IPC: 0.794191 cumulative IPC: 0.960362 (Simulation time: 0 hr 50 min 39 sec) 
Heartbeat CPU 0 instructions: 499000000 cycles: 525266925 heartbeat IPC: 0.874386 cumulative IPC: 0.960169 (Simulation time: 0 hr 50 min 48 sec) 
Heartbeat CPU 0 instructions: 500000003 cycles: 526087138 heartbeat IPC: 1.2192 cumulative IPC: 0.960585 (Simulation time: 0 hr 50 min 56 sec) 
Heartbeat CPU 0 instructions: 501000002 cycles: 526909051 heartbeat IPC: 1.21667 cumulative IPC: 0.960997 (Simulation time: 0 hr 51 min 5 sec) 
Heartbeat CPU 0 instructions: 502000001 cycles: 528127683 heartbeat IPC: 0.820591 cumulative IPC: 0.960663 (Simulation time: 0 hr 51 min 15 sec) 
Heartbeat CPU 0 instructions: 503000003 cycles: 529400784 heartbeat IPC: 0.785485 cumulative IPC: 0.960229 (Simulation time: 0 hr 51 min 24 sec) 
Heartbeat CPU 0 instructions: 504000001 cycles: 530333401 heartbeat IPC: 1.07225 cumulative IPC: 0.960432 (Simulation time: 0 hr 51 min 31 sec) 
Heartbeat CPU 0 instructions: 505000000 cycles: 531147003 heartbeat IPC: 1.2291 cumulative IPC: 0.960856 (Simulation time: 0 hr 51 min 40 sec) 
Heartbeat CPU 0 instructions: 506000000 cycles: 532085794 heartbeat IPC: 1.0652 cumulative IPC: 0.961046 (Simulation time: 0 hr 51 min 49 sec) 
Heartbeat CPU 0 instructions: 507000002 cycles: 533417624 heartbeat IPC: 0.750848 cumulative IPC: 0.960505 (Simulation time: 0 hr 51 min 59 sec) 
Heartbeat CPU 0 instructions: 508000000 cycles: 534359763 heartbeat IPC: 1.06141 cumulative IPC: 0.960688 (Simulation time: 0 hr 52 min 4 sec) 
Heartbeat CPU 0 instructions: 509000002 cycles: 535025014 heartbeat IPC: 1.5032 cumulative IPC: 0.961384 (Simulation time: 0 hr 52 min 9 sec) 
Heartbeat CPU 0 instructions: 510000001 cycles: 535854051 heartbeat IPC: 1.20622 cumulative IPC: 0.961774 (Simulation time: 0 hr 52 min 19 sec) 
Finished CPU 0 instructions: 500000000 cycles: 519872661 cumulative IPC: 0.961774 (Simulation time: 0 hr 52 min 19 sec) 

ChampSim completed all CPUs

Region of Interest Statistics

CPU 0 cumulative IPC: 0.961774 instructions: 500000000 cycles: 519872661
L1D TOTAL     ACCESS:   79001915  HIT:   70262247  MISS:    8739668
L1D LOAD      ACCESS:   67421572  HIT:   59186627  MISS:    8234945
L1D RFO       ACCESS:   11580343  HIT:   11075620  MISS:     504723
L1D PREFETCH  ACCESS:          0  HIT:          0  MISS:          0
L1D WRITEBACK ACCESS:          0  HIT:          0  MISS:          0
L1D PREFETCH  REQUESTED:          0  ISSUED:          0  USEFUL:          0  USELESS:          0  UAC CORRECT:          0
L1D AVERAGE MISS LATENCY: 74.2106 cycles
L1I TOTAL     ACCESS:   85553228  HIT:   85551363  MISS:       1865
L1I LOAD      ACCESS:   85553228  HIT:   85551363  MISS:       1865
L1I RFO       ACCESS:          0  HIT:          0  MISS:          0
L1I PREFETCH  ACCESS:          0  HIT:          0  MISS:          0
L1I WRITEBACK ACCESS:          0  HIT:          0  MISS:          0
L1I PREFETCH  REQUESTED:          0  ISSUED:          0  USEFUL:          0  USELESS:          0  UAC CORRECT:          0
L1I AVERAGE MISS LATENCY: 228.537 cycles
L2C TOTAL     ACCESS:    9504123  HIT:    2429237  MISS:    7074886
L2C LOAD      ACCESS:    8236697  HIT:    1610080  MISS:    6626617
L2C RFO       ACCESS:     504676  HIT:      57642  MISS:     447034
L2C PREFETCH  ACCESS:          0  HIT:          0  MISS:          0
L2C WRITEBACK ACCESS:     762750  HIT:     761515  MISS:       1235
L2C PREFETCH  REQUESTED:          0  ISSUED:          0  USEFUL:          0  USELESS:          0  UAC CORRECT:          0
L2C AVERAGE MISS LATENCY: 73.0137 cycles
LLC TOTAL     ACCESS:   12475536  HIT:    5572864  MISS:    6902672
LLC LOAD      ACCESS:    6626615  HIT:    4411604  MISS:    2215011
LLC RFO       ACCESS:     447034  HIT:      63317  MISS:     383717
LLC PREFETCH  ACCESS:    4758564  HIT:     467786  MISS:    4290778
LLC WRITEBACK ACCESS:     643323  HIT:     630157  MISS:      13166
LLC PREFETCH  REQUESTED:    6624751  ISSUED:    6624643  USEFUL:    4110431  USELESS:     179459  UAC CORRECT:    4143045
LLC AVERAGE MISS LATENCY: 132.846 cycles
Major fault: 0 Minor fault: 4485
performance stats:
mapping cache size: 140221
divergence: 596325

DRAM Statistics
 CHANNEL 0
 RQ ROW_BUFFER_HIT:    3028407  ROW_BUFFER_MISS:     420904
 DBUS_CONGESTED:    1257528
 WQ ROW_BUFFER_HIT:     228411  ROW_BUFFER_MISS:      67210  FULL:          0

 CHANNEL 1
 RQ ROW_BUFFER_HIT:    3018877  ROW_BUFFER_MISS:     421210
 DBUS_CONGESTED:    1257528
 WQ ROW_BUFFER_HIT:     228780  ROW_BUFFER_MISS:      66596  FULL:          0

 AVG_CONGESTED_CYCLE: 17

CPU 0 Branch Prediction Accuracy: 98.2622% MPKI: 1.65636 Average ROB Occupancy at Mispredict: 121.998

Branch types
NOT_BRANCH: 452343287 90.4687%
BRANCH_DIRECT_JUMP: 606569 0.121314%
BRANCH_INDIRECT: 380 7.6e-05%
BRANCH_CONDITIONAL: 44907407 8.98148%
BRANCH_DIRECT_CALL: 1070523 0.214105%
BRANCH_INDIRECT_CALL: 647 0.0001294%
BRANCH_RETURN: 1071170 0.214234%
BRANCH_OTHER: 0 0%


gzip: stdout: Broken pipe
