
*** ChampSim Multicore Out-of-Order Simulator ***

Warmup Instructions: 1000000
Prefetch Warmup Instructions: 10000000
Simulation Instructions: 500000000
Stat Printing Period: 1000000
Number of CPUs: 1
LLC sets: 2048
LLC ways: 16
Off-chip DRAM Size: 32768 MB Channels: 2 Width: 64-bit Data Rate: 1024 MT/s

CPU 0 runs /scratch/cluster/cmolder/ML-DPC/ChampSimTraces/spec06/482.sphinx3-s1.trace.gz
Read seed: 1079
Heartbeat CPU 0 instructions: 1000001 cycles: 323136 heartbeat IPC: 3.09468 cumulative IPC: 3.09468 (Simulation time: 0 hr 0 min 9 sec) 

Warmup complete CPU 0 instructions: 1000001 cycles: 323136 (Simulation time: 0 hr 0 min 9 sec) 

Heartbeat CPU 0 instructions: 2000001 cycles: 2382716 heartbeat IPC: 0.485536 cumulative IPC: 0.485536 (Simulation time: 0 hr 0 min 22 sec) 
Heartbeat CPU 0 instructions: 3000003 cycles: 3702512 heartbeat IPC: 0.757694 cumulative IPC: 0.591826 (Simulation time: 0 hr 0 min 33 sec) 
Heartbeat CPU 0 instructions: 4000002 cycles: 5066647 heartbeat IPC: 0.733065 cumulative IPC: 0.632443 (Simulation time: 0 hr 0 min 46 sec) 
Heartbeat CPU 0 instructions: 5000003 cycles: 6888147 heartbeat IPC: 0.548999 cumulative IPC: 0.609291 (Simulation time: 0 hr 0 min 59 sec) 
Heartbeat CPU 0 instructions: 6000001 cycles: 8345214 heartbeat IPC: 0.686309 cumulative IPC: 0.62328 (Simulation time: 0 hr 1 min 10 sec) 
Heartbeat CPU 0 instructions: 7000001 cycles: 9697850 heartbeat IPC: 0.739297 cumulative IPC: 0.64002 (Simulation time: 0 hr 1 min 22 sec) 
Heartbeat CPU 0 instructions: 8000003 cycles: 11112235 heartbeat IPC: 0.707022 cumulative IPC: 0.648803 (Simulation time: 0 hr 1 min 35 sec) 
Heartbeat CPU 0 instructions: 9000001 cycles: 12485661 heartbeat IPC: 0.728105 cumulative IPC: 0.657758 (Simulation time: 0 hr 1 min 45 sec) 
Heartbeat CPU 0 instructions: 10000000 cycles: 13741818 heartbeat IPC: 0.796078 cumulative IPC: 0.670707 (Simulation time: 0 hr 1 min 57 sec) 

Warmup complete CPU 0 instructions: 10000004 cycles: 13741819 (Simulation time: 0 hr 1 min 57 sec) 

Heartbeat CPU 0 instructions: 11000000 cycles: 15040562 heartbeat IPC: 0.769975 cumulative IPC: 0.769972 (Simulation time: 0 hr 2 min 10 sec) 
Heartbeat CPU 0 instructions: 12000002 cycles: 16410193 heartbeat IPC: 0.730125 cumulative IPC: 0.749519 (Simulation time: 0 hr 2 min 21 sec) 
Heartbeat CPU 0 instructions: 13000002 cycles: 17634400 heartbeat IPC: 0.816855 cumulative IPC: 0.770696 (Simulation time: 0 hr 2 min 32 sec) 
Heartbeat CPU 0 instructions: 14000003 cycles: 18891839 heartbeat IPC: 0.795268 cumulative IPC: 0.776696 (Simulation time: 0 hr 2 min 45 sec) 
Heartbeat CPU 0 instructions: 15000000 cycles: 20270740 heartbeat IPC: 0.725213 cumulative IPC: 0.765823 (Simulation time: 0 hr 2 min 56 sec) 
Heartbeat CPU 0 instructions: 16000000 cycles: 21474870 heartbeat IPC: 0.830475 cumulative IPC: 0.77589 (Simulation time: 0 hr 3 min 8 sec) 
Heartbeat CPU 0 instructions: 17000001 cycles: 22704963 heartbeat IPC: 0.812947 cumulative IPC: 0.780976 (Simulation time: 0 hr 3 min 20 sec) 
Heartbeat CPU 0 instructions: 18000003 cycles: 24056806 heartbeat IPC: 0.739732 cumulative IPC: 0.77557 (Simulation time: 0 hr 3 min 31 sec) 
Heartbeat CPU 0 instructions: 19000001 cycles: 25241473 heartbeat IPC: 0.844117 cumulative IPC: 0.782632 (Simulation time: 0 hr 3 min 43 sec) 
Heartbeat CPU 0 instructions: 20000003 cycles: 26468163 heartbeat IPC: 0.815203 cumulative IPC: 0.785772 (Simulation time: 0 hr 3 min 55 sec) 
Heartbeat CPU 0 instructions: 21000002 cycles: 27414572 heartbeat IPC: 1.05662 cumulative IPC: 0.80452 (Simulation time: 0 hr 4 min 4 sec) 
Heartbeat CPU 0 instructions: 22000000 cycles: 28427054 heartbeat IPC: 0.98767 cumulative IPC: 0.817147 (Simulation time: 0 hr 4 min 14 sec) 
Heartbeat CPU 0 instructions: 23000002 cycles: 29554596 heartbeat IPC: 0.886887 cumulative IPC: 0.82212 (Simulation time: 0 hr 4 min 25 sec) 
Heartbeat CPU 0 instructions: 24000003 cycles: 30846529 heartbeat IPC: 0.774035 cumulative IPC: 0.818488 (Simulation time: 0 hr 4 min 38 sec) 
Heartbeat CPU 0 instructions: 25000000 cycles: 32154923 heartbeat IPC: 0.764293 cumulative IPC: 0.814637 (Simulation time: 0 hr 4 min 49 sec) 
Heartbeat CPU 0 instructions: 26000001 cycles: 33234536 heartbeat IPC: 0.926259 cumulative IPC: 0.820819 (Simulation time: 0 hr 5 min 0 sec) 
Heartbeat CPU 0 instructions: 27000001 cycles: 34435573 heartbeat IPC: 0.832614 cumulative IPC: 0.821504 (Simulation time: 0 hr 5 min 8 sec) 
Heartbeat CPU 0 instructions: 28000000 cycles: 35715242 heartbeat IPC: 0.781451 cumulative IPC: 0.819171 (Simulation time: 0 hr 5 min 20 sec) 
Heartbeat CPU 0 instructions: 29000003 cycles: 36822525 heartbeat IPC: 0.903114 cumulative IPC: 0.823198 (Simulation time: 0 hr 5 min 31 sec) 
Heartbeat CPU 0 instructions: 30000000 cycles: 38030266 heartbeat IPC: 0.82799 cumulative IPC: 0.823437 (Simulation time: 0 hr 5 min 43 sec) 
Heartbeat CPU 0 instructions: 31000000 cycles: 39255806 heartbeat IPC: 0.815967 cumulative IPC: 0.823078 (Simulation time: 0 hr 5 min 54 sec) 
Heartbeat CPU 0 instructions: 32000001 cycles: 40383022 heartbeat IPC: 0.887142 cumulative IPC: 0.825788 (Simulation time: 0 hr 6 min 6 sec) 
Heartbeat CPU 0 instructions: 33000000 cycles: 41571799 heartbeat IPC: 0.8412 cumulative IPC: 0.826447 (Simulation time: 0 hr 6 min 18 sec) 
Heartbeat CPU 0 instructions: 34000000 cycles: 42776979 heartbeat IPC: 0.829752 cumulative IPC: 0.826584 (Simulation time: 0 hr 6 min 29 sec) 
Heartbeat CPU 0 instructions: 35000003 cycles: 43931176 heartbeat IPC: 0.866406 cumulative IPC: 0.828106 (Simulation time: 0 hr 6 min 40 sec) 
Heartbeat CPU 0 instructions: 36000001 cycles: 45105478 heartbeat IPC: 0.851568 cumulative IPC: 0.828985 (Simulation time: 0 hr 6 min 52 sec) 
Heartbeat CPU 0 instructions: 37000001 cycles: 46310090 heartbeat IPC: 0.830143 cumulative IPC: 0.829028 (Simulation time: 0 hr 7 min 3 sec) 
Heartbeat CPU 0 instructions: 38000002 cycles: 47481037 heartbeat IPC: 0.85401 cumulative IPC: 0.829895 (Simulation time: 0 hr 7 min 15 sec) 
Heartbeat CPU 0 instructions: 39000000 cycles: 48707967 heartbeat IPC: 0.815041 cumulative IPC: 0.829373 (Simulation time: 0 hr 7 min 27 sec) 
Heartbeat CPU 0 instructions: 40000002 cycles: 49927303 heartbeat IPC: 0.82012 cumulative IPC: 0.829062 (Simulation time: 0 hr 7 min 37 sec) 
Heartbeat CPU 0 instructions: 41000002 cycles: 51119008 heartbeat IPC: 0.839134 cumulative IPC: 0.829383 (Simulation time: 0 hr 7 min 50 sec) 
Heartbeat CPU 0 instructions: 42000001 cycles: 52355587 heartbeat IPC: 0.808682 cumulative IPC: 0.82872 (Simulation time: 0 hr 8 min 1 sec) 
Heartbeat CPU 0 instructions: 43000002 cycles: 53546597 heartbeat IPC: 0.839624 cumulative IPC: 0.829046 (Simulation time: 0 hr 8 min 11 sec) 
Heartbeat CPU 0 instructions: 44000000 cycles: 54745015 heartbeat IPC: 0.834432 cumulative IPC: 0.829204 (Simulation time: 0 hr 8 min 23 sec) 
Heartbeat CPU 0 instructions: 45000000 cycles: 55956267 heartbeat IPC: 0.825592 cumulative IPC: 0.8291 (Simulation time: 0 hr 8 min 35 sec) 
Heartbeat CPU 0 instructions: 46000002 cycles: 57188434 heartbeat IPC: 0.81158 cumulative IPC: 0.828603 (Simulation time: 0 hr 8 min 46 sec) 
Heartbeat CPU 0 instructions: 47000001 cycles: 58378782 heartbeat IPC: 0.84009 cumulative IPC: 0.828909 (Simulation time: 0 hr 8 min 58 sec) 
Heartbeat CPU 0 instructions: 48000002 cycles: 59603386 heartbeat IPC: 0.816591 cumulative IPC: 0.82858 (Simulation time: 0 hr 9 min 10 sec) 
Heartbeat CPU 0 instructions: 49000001 cycles: 60805020 heartbeat IPC: 0.832199 cumulative IPC: 0.828673 (Simulation time: 0 hr 9 min 21 sec) 
Heartbeat CPU 0 instructions: 50000003 cycles: 61991030 heartbeat IPC: 0.843165 cumulative IPC: 0.829029 (Simulation time: 0 hr 9 min 32 sec) 
Heartbeat CPU 0 instructions: 51000001 cycles: 63202813 heartbeat IPC: 0.825229 cumulative IPC: 0.828936 (Simulation time: 0 hr 9 min 44 sec) 
Heartbeat CPU 0 instructions: 52000003 cycles: 64380823 heartbeat IPC: 0.848891 cumulative IPC: 0.8294 (Simulation time: 0 hr 9 min 55 sec) 
Heartbeat CPU 0 instructions: 53000002 cycles: 65564059 heartbeat IPC: 0.845139 cumulative IPC: 0.82976 (Simulation time: 0 hr 10 min 7 sec) 
Heartbeat CPU 0 instructions: 54000002 cycles: 66750096 heartbeat IPC: 0.843144 cumulative IPC: 0.830059 (Simulation time: 0 hr 10 min 19 sec) 
Heartbeat CPU 0 instructions: 55000000 cycles: 67835316 heartbeat IPC: 0.92147 cumulative IPC: 0.831893 (Simulation time: 0 hr 10 min 29 sec) 
Heartbeat CPU 0 instructions: 56000000 cycles: 68987445 heartbeat IPC: 0.867958 cumulative IPC: 0.832645 (Simulation time: 0 hr 10 min 41 sec) 
Heartbeat CPU 0 instructions: 57000000 cycles: 70080852 heartbeat IPC: 0.914573 cumulative IPC: 0.834235 (Simulation time: 0 hr 10 min 52 sec) 
Heartbeat CPU 0 instructions: 58000002 cycles: 70667351 heartbeat IPC: 1.70504 cumulative IPC: 0.843207 (Simulation time: 0 hr 11 min 0 sec) 
Heartbeat CPU 0 instructions: 59000002 cycles: 71759677 heartbeat IPC: 0.915478 cumulative IPC: 0.844568 (Simulation time: 0 hr 11 min 11 sec) 
Heartbeat CPU 0 instructions: 60000000 cycles: 72961210 heartbeat IPC: 0.832268 cumulative IPC: 0.844318 (Simulation time: 0 hr 11 min 23 sec) 
Heartbeat CPU 0 instructions: 61000002 cycles: 74158175 heartbeat IPC: 0.835448 cumulative IPC: 0.844142 (Simulation time: 0 hr 11 min 35 sec) 
Heartbeat CPU 0 instructions: 62000000 cycles: 75297390 heartbeat IPC: 0.877796 cumulative IPC: 0.844765 (Simulation time: 0 hr 11 min 45 sec) 
Heartbeat CPU 0 instructions: 63000002 cycles: 76435293 heartbeat IPC: 0.878811 cumulative IPC: 0.845383 (Simulation time: 0 hr 11 min 54 sec) 
Heartbeat CPU 0 instructions: 64000000 cycles: 77597356 heartbeat IPC: 0.860537 cumulative IPC: 0.845659 (Simulation time: 0 hr 12 min 6 sec) 
Heartbeat CPU 0 instructions: 65000003 cycles: 78702842 heartbeat IPC: 0.904582 cumulative IPC: 0.846662 (Simulation time: 0 hr 12 min 16 sec) 
Heartbeat CPU 0 instructions: 66000000 cycles: 79861809 heartbeat IPC: 0.862835 cumulative IPC: 0.846945 (Simulation time: 0 hr 12 min 28 sec) 
Heartbeat CPU 0 instructions: 67000001 cycles: 81067117 heartbeat IPC: 0.829664 cumulative IPC: 0.846636 (Simulation time: 0 hr 12 min 40 sec) 
Heartbeat CPU 0 instructions: 68000002 cycles: 82195833 heartbeat IPC: 0.885963 cumulative IPC: 0.847284 (Simulation time: 0 hr 12 min 51 sec) 
Heartbeat CPU 0 instructions: 69000003 cycles: 83378982 heartbeat IPC: 0.845203 cumulative IPC: 0.847249 (Simulation time: 0 hr 13 min 1 sec) 
Heartbeat CPU 0 instructions: 70000000 cycles: 84601577 heartbeat IPC: 0.81793 cumulative IPC: 0.846743 (Simulation time: 0 hr 13 min 13 sec) 
Heartbeat CPU 0 instructions: 71000002 cycles: 85731568 heartbeat IPC: 0.884965 cumulative IPC: 0.847343 (Simulation time: 0 hr 13 min 24 sec) 
Heartbeat CPU 0 instructions: 72000001 cycles: 86924876 heartbeat IPC: 0.838006 cumulative IPC: 0.847191 (Simulation time: 0 hr 13 min 36 sec) 
Heartbeat CPU 0 instructions: 73000000 cycles: 88152481 heartbeat IPC: 0.814593 cumulative IPC: 0.846653 (Simulation time: 0 hr 13 min 48 sec) 
Heartbeat CPU 0 instructions: 74000001 cycles: 89255200 heartbeat IPC: 0.90685 cumulative IPC: 0.847532 (Simulation time: 0 hr 13 min 58 sec) 
Heartbeat CPU 0 instructions: 75000003 cycles: 90444846 heartbeat IPC: 0.840588 cumulative IPC: 0.847424 (Simulation time: 0 hr 14 min 10 sec) 
Heartbeat CPU 0 instructions: 76000001 cycles: 91673968 heartbeat IPC: 0.813587 cumulative IPC: 0.846891 (Simulation time: 0 hr 14 min 22 sec) 
Heartbeat CPU 0 instructions: 77000000 cycles: 92780724 heartbeat IPC: 0.903541 cumulative IPC: 0.847684 (Simulation time: 0 hr 14 min 33 sec) 
Heartbeat CPU 0 instructions: 78000002 cycles: 93974551 heartbeat IPC: 0.837644 cumulative IPC: 0.847534 (Simulation time: 0 hr 14 min 45 sec) 
Heartbeat CPU 0 instructions: 79000003 cycles: 95204901 heartbeat IPC: 0.812778 cumulative IPC: 0.847009 (Simulation time: 0 hr 14 min 57 sec) 
Heartbeat CPU 0 instructions: 80000003 cycles: 96305630 heartbeat IPC: 0.908489 cumulative IPC: 0.847829 (Simulation time: 0 hr 15 min 7 sec) 
Heartbeat CPU 0 instructions: 81000001 cycles: 97487321 heartbeat IPC: 0.846243 cumulative IPC: 0.847807 (Simulation time: 0 hr 15 min 19 sec) 
Heartbeat CPU 0 instructions: 82000001 cycles: 98733435 heartbeat IPC: 0.802495 cumulative IPC: 0.847142 (Simulation time: 0 hr 15 min 31 sec) 
Heartbeat CPU 0 instructions: 83000003 cycles: 99824747 heartbeat IPC: 0.91633 cumulative IPC: 0.848019 (Simulation time: 0 hr 15 min 42 sec) 
Heartbeat CPU 0 instructions: 84000000 cycles: 101012145 heartbeat IPC: 0.842175 cumulative IPC: 0.84794 (Simulation time: 0 hr 15 min 54 sec) 
Heartbeat CPU 0 instructions: 85000002 cycles: 102251378 heartbeat IPC: 0.806952 cumulative IPC: 0.847366 (Simulation time: 0 hr 16 min 6 sec) 
Heartbeat CPU 0 instructions: 86000002 cycles: 103299894 heartbeat IPC: 0.953729 cumulative IPC: 0.848611 (Simulation time: 0 hr 16 min 16 sec) 
Heartbeat CPU 0 instructions: 87000001 cycles: 104470100 heartbeat IPC: 0.85455 cumulative IPC: 0.848688 (Simulation time: 0 hr 16 min 28 sec) 
Heartbeat CPU 0 instructions: 88000000 cycles: 105653172 heartbeat IPC: 0.845256 cumulative IPC: 0.848644 (Simulation time: 0 hr 16 min 40 sec) 
Heartbeat CPU 0 instructions: 89000000 cycles: 106741895 heartbeat IPC: 0.918507 cumulative IPC: 0.849462 (Simulation time: 0 hr 16 min 51 sec) 
Heartbeat CPU 0 instructions: 90000000 cycles: 107902481 heartbeat IPC: 0.861634 cumulative IPC: 0.849612 (Simulation time: 0 hr 17 min 2 sec) 
Heartbeat CPU 0 instructions: 91000002 cycles: 109042208 heartbeat IPC: 0.877405 cumulative IPC: 0.849944 (Simulation time: 0 hr 17 min 13 sec) 
Heartbeat CPU 0 instructions: 92000003 cycles: 110160323 heartbeat IPC: 0.894363 cumulative IPC: 0.850459 (Simulation time: 0 hr 17 min 24 sec) 
Heartbeat CPU 0 instructions: 93000002 cycles: 111282380 heartbeat IPC: 0.891219 cumulative IPC: 0.850928 (Simulation time: 0 hr 17 min 36 sec) 
Heartbeat CPU 0 instructions: 94000001 cycles: 112428882 heartbeat IPC: 0.872217 cumulative IPC: 0.851175 (Simulation time: 0 hr 17 min 47 sec) 
Heartbeat CPU 0 instructions: 95000003 cycles: 113568369 heartbeat IPC: 0.87759 cumulative IPC: 0.851477 (Simulation time: 0 hr 17 min 59 sec) 
Heartbeat CPU 0 instructions: 96000003 cycles: 114729394 heartbeat IPC: 0.861308 cumulative IPC: 0.85159 (Simulation time: 0 hr 18 min 11 sec) 
Heartbeat CPU 0 instructions: 97000003 cycles: 115551508 heartbeat IPC: 1.21638 cumulative IPC: 0.854536 (Simulation time: 0 hr 18 min 20 sec) 
Heartbeat CPU 0 instructions: 98000000 cycles: 116600743 heartbeat IPC: 0.953072 cumulative IPC: 0.855541 (Simulation time: 0 hr 18 min 30 sec) 
Heartbeat CPU 0 instructions: 99000000 cycles: 117769750 heartbeat IPC: 0.855427 cumulative IPC: 0.855539 (Simulation time: 0 hr 18 min 41 sec) 
Heartbeat CPU 0 instructions: 100000003 cycles: 119039502 heartbeat IPC: 0.787558 cumulative IPC: 0.85472 (Simulation time: 0 hr 18 min 53 sec) 
Heartbeat CPU 0 instructions: 101000003 cycles: 120920621 heartbeat IPC: 0.531599 cumulative IPC: 0.849048 (Simulation time: 0 hr 19 min 7 sec) 
Heartbeat CPU 0 instructions: 102000003 cycles: 122184817 heartbeat IPC: 0.791017 cumulative IPC: 0.848372 (Simulation time: 0 hr 19 min 18 sec) 
Heartbeat CPU 0 instructions: 103000000 cycles: 123536616 heartbeat IPC: 0.739753 cumulative IPC: 0.847035 (Simulation time: 0 hr 19 min 30 sec) 
Heartbeat CPU 0 instructions: 104000000 cycles: 125358246 heartbeat IPC: 0.548959 cumulative IPC: 0.84217 (Simulation time: 0 hr 19 min 44 sec) 
Heartbeat CPU 0 instructions: 105000002 cycles: 126680087 heartbeat IPC: 0.756522 cumulative IPC: 0.841167 (Simulation time: 0 hr 19 min 54 sec) 
Heartbeat CPU 0 instructions: 106000000 cycles: 128031034 heartbeat IPC: 0.74022 cumulative IPC: 0.839974 (Simulation time: 0 hr 20 min 7 sec) 
Heartbeat CPU 0 instructions: 107000002 cycles: 129710089 heartbeat IPC: 0.595574 cumulative IPC: 0.836436 (Simulation time: 0 hr 20 min 20 sec) 
Heartbeat CPU 0 instructions: 108000000 cycles: 131213574 heartbeat IPC: 0.66512 cumulative IPC: 0.834243 (Simulation time: 0 hr 20 min 32 sec) 
Heartbeat CPU 0 instructions: 109000000 cycles: 132529210 heartbeat IPC: 0.760089 cumulative IPC: 0.833422 (Simulation time: 0 hr 20 min 44 sec) 
Heartbeat CPU 0 instructions: 110000000 cycles: 133961796 heartbeat IPC: 0.698038 cumulative IPC: 0.831808 (Simulation time: 0 hr 20 min 56 sec) 
Heartbeat CPU 0 instructions: 111000001 cycles: 135829350 heartbeat IPC: 0.53546 cumulative IPC: 0.827275 (Simulation time: 0 hr 21 min 10 sec) 
Heartbeat CPU 0 instructions: 112000003 cycles: 137084957 heartbeat IPC: 0.796429 cumulative IPC: 0.826961 (Simulation time: 0 hr 21 min 21 sec) 
Heartbeat CPU 0 instructions: 113000002 cycles: 138439728 heartbeat IPC: 0.738131 cumulative IPC: 0.825996 (Simulation time: 0 hr 21 min 33 sec) 
Heartbeat CPU 0 instructions: 114000001 cycles: 140324176 heartbeat IPC: 0.530659 cumulative IPC: 0.821599 (Simulation time: 0 hr 21 min 47 sec) 
Heartbeat CPU 0 instructions: 115000000 cycles: 141638422 heartbeat IPC: 0.760892 cumulative IPC: 0.820976 (Simulation time: 0 hr 21 min 58 sec) 
Heartbeat CPU 0 instructions: 116000003 cycles: 142993627 heartbeat IPC: 0.737898 cumulative IPC: 0.820105 (Simulation time: 0 hr 22 min 9 sec) 
Heartbeat CPU 0 instructions: 117000002 cycles: 144708334 heartbeat IPC: 0.583189 cumulative IPC: 0.817003 (Simulation time: 0 hr 22 min 23 sec) 
Heartbeat CPU 0 instructions: 118000002 cycles: 146247116 heartbeat IPC: 0.649865 cumulative IPC: 0.815062 (Simulation time: 0 hr 22 min 34 sec) 
Heartbeat CPU 0 instructions: 119000000 cycles: 147563251 heartbeat IPC: 0.759799 cumulative IPC: 0.814518 (Simulation time: 0 hr 22 min 46 sec) 
Heartbeat CPU 0 instructions: 120000003 cycles: 148997918 heartbeat IPC: 0.697028 cumulative IPC: 0.813272 (Simulation time: 0 hr 22 min 58 sec) 
Heartbeat CPU 0 instructions: 121000000 cycles: 150887920 heartbeat IPC: 0.529098 cumulative IPC: 0.809356 (Simulation time: 0 hr 23 min 11 sec) 
Heartbeat CPU 0 instructions: 122000001 cycles: 152158301 heartbeat IPC: 0.787166 cumulative IPC: 0.809152 (Simulation time: 0 hr 23 min 22 sec) 
Heartbeat CPU 0 instructions: 123000001 cycles: 153512957 heartbeat IPC: 0.738195 cumulative IPC: 0.808464 (Simulation time: 0 hr 23 min 34 sec) 
Heartbeat CPU 0 instructions: 124000003 cycles: 155382493 heartbeat IPC: 0.534893 cumulative IPC: 0.804854 (Simulation time: 0 hr 23 min 48 sec) 
Heartbeat CPU 0 instructions: 125000002 cycles: 156758006 heartbeat IPC: 0.727001 cumulative IPC: 0.804105 (Simulation time: 0 hr 23 min 59 sec) 
Heartbeat CPU 0 instructions: 126000002 cycles: 158118523 heartbeat IPC: 0.735015 cumulative IPC: 0.803454 (Simulation time: 0 hr 24 min 11 sec) 
Heartbeat CPU 0 instructions: 127000001 cycles: 159799391 heartbeat IPC: 0.59493 cumulative IPC: 0.801054 (Simulation time: 0 hr 24 min 25 sec) 
Heartbeat CPU 0 instructions: 128000003 cycles: 161515861 heartbeat IPC: 0.582592 cumulative IPC: 0.798516 (Simulation time: 0 hr 24 min 37 sec) 
Heartbeat CPU 0 instructions: 129000001 cycles: 162760191 heartbeat IPC: 0.803644 cumulative IPC: 0.798559 (Simulation time: 0 hr 24 min 49 sec) 
Heartbeat CPU 0 instructions: 130000001 cycles: 164111066 heartbeat IPC: 0.740261 cumulative IPC: 0.798036 (Simulation time: 0 hr 25 min 1 sec) 
Heartbeat CPU 0 instructions: 131000002 cycles: 166099757 heartbeat IPC: 0.502844 cumulative IPC: 0.794182 (Simulation time: 0 hr 25 min 15 sec) 
Heartbeat CPU 0 instructions: 132000000 cycles: 167384793 heartbeat IPC: 0.778187 cumulative IPC: 0.794049 (Simulation time: 0 hr 25 min 26 sec) 
Heartbeat CPU 0 instructions: 133000001 cycles: 168744822 heartbeat IPC: 0.735279 cumulative IPC: 0.793533 (Simulation time: 0 hr 25 min 38 sec) 
Heartbeat CPU 0 instructions: 134000001 cycles: 170601851 heartbeat IPC: 0.538495 cumulative IPC: 0.790514 (Simulation time: 0 hr 25 min 52 sec) 
Heartbeat CPU 0 instructions: 135000000 cycles: 171997617 heartbeat IPC: 0.716452 cumulative IPC: 0.78986 (Simulation time: 0 hr 26 min 2 sec) 
Heartbeat CPU 0 instructions: 136000003 cycles: 173352550 heartbeat IPC: 0.738046 cumulative IPC: 0.789421 (Simulation time: 0 hr 26 min 15 sec) 
Heartbeat CPU 0 instructions: 137000003 cycles: 174899737 heartbeat IPC: 0.646334 cumulative IPC: 0.788047 (Simulation time: 0 hr 26 min 28 sec) 
Heartbeat CPU 0 instructions: 138000000 cycles: 176400832 heartbeat IPC: 0.666178 cumulative IPC: 0.786922 (Simulation time: 0 hr 26 min 39 sec) 
Heartbeat CPU 0 instructions: 139000001 cycles: 177128863 heartbeat IPC: 1.37357 cumulative IPC: 0.789536 (Simulation time: 0 hr 26 min 48 sec) 
Heartbeat CPU 0 instructions: 140000003 cycles: 178414445 heartbeat IPC: 0.777859 cumulative IPC: 0.789445 (Simulation time: 0 hr 26 min 59 sec) 
Heartbeat CPU 0 instructions: 141000000 cycles: 179785601 heartbeat IPC: 0.729309 cumulative IPC: 0.788949 (Simulation time: 0 hr 27 min 12 sec) 
Heartbeat CPU 0 instructions: 142000002 cycles: 181611108 heartbeat IPC: 0.547794 cumulative IPC: 0.786326 (Simulation time: 0 hr 27 min 25 sec) 
Heartbeat CPU 0 instructions: 143000000 cycles: 183062504 heartbeat IPC: 0.68899 cumulative IPC: 0.785492 (Simulation time: 0 hr 27 min 36 sec) 
Heartbeat CPU 0 instructions: 144000003 cycles: 184412977 heartbeat IPC: 0.740484 cumulative IPC: 0.785136 (Simulation time: 0 hr 27 min 49 sec) 
Heartbeat CPU 0 instructions: 145000002 cycles: 185896396 heartbeat IPC: 0.674118 cumulative IPC: 0.784179 (Simulation time: 0 hr 28 min 2 sec) 
Heartbeat CPU 0 instructions: 146000003 cycles: 187769848 heartbeat IPC: 0.533775 cumulative IPC: 0.781483 (Simulation time: 0 hr 28 min 15 sec) 
Heartbeat CPU 0 instructions: 147000000 cycles: 189021064 heartbeat IPC: 0.79922 cumulative IPC: 0.78161 (Simulation time: 0 hr 28 min 26 sec) 
Heartbeat CPU 0 instructions: 148000001 cycles: 190376467 heartbeat IPC: 0.737789 cumulative IPC: 0.781274 (Simulation time: 0 hr 28 min 39 sec) 
Heartbeat CPU 0 instructions: 149000000 cycles: 192319722 heartbeat IPC: 0.5146 cumulative IPC: 0.778372 (Simulation time: 0 hr 28 min 49 sec) 
Heartbeat CPU 0 instructions: 150000003 cycles: 193650011 heartbeat IPC: 0.751719 cumulative IPC: 0.778175 (Simulation time: 0 hr 29 min 1 sec) 
Heartbeat CPU 0 instructions: 151000000 cycles: 195010476 heartbeat IPC: 0.735041 cumulative IPC: 0.777851 (Simulation time: 0 hr 29 min 13 sec) 
Heartbeat CPU 0 instructions: 152000000 cycles: 196728329 heartbeat IPC: 0.582122 cumulative IPC: 0.776013 (Simulation time: 0 hr 29 min 27 sec) 
Heartbeat CPU 0 instructions: 153000000 cycles: 198468820 heartbeat IPC: 0.574551 cumulative IPC: 0.774115 (Simulation time: 0 hr 29 min 39 sec) 
Heartbeat CPU 0 instructions: 154000000 cycles: 199714247 heartbeat IPC: 0.802937 cumulative IPC: 0.774308 (Simulation time: 0 hr 29 min 51 sec) 
Heartbeat CPU 0 instructions: 155000003 cycles: 201068104 heartbeat IPC: 0.738633 cumulative IPC: 0.77405 (Simulation time: 0 hr 30 min 3 sec) 
Heartbeat CPU 0 instructions: 156000000 cycles: 203088230 heartbeat IPC: 0.495017 cumulative IPC: 0.771073 (Simulation time: 0 hr 30 min 17 sec) 
Heartbeat CPU 0 instructions: 157000003 cycles: 204368270 heartbeat IPC: 0.781228 cumulative IPC: 0.771142 (Simulation time: 0 hr 30 min 28 sec) 
Heartbeat CPU 0 instructions: 158000000 cycles: 205729068 heartbeat IPC: 0.734861 cumulative IPC: 0.770885 (Simulation time: 0 hr 30 min 40 sec) 
Heartbeat CPU 0 instructions: 159000000 cycles: 207640504 heartbeat IPC: 0.523167 cumulative IPC: 0.768443 (Simulation time: 0 hr 30 min 54 sec) 
Heartbeat CPU 0 instructions: 160000002 cycles: 209071045 heartbeat IPC: 0.699038 cumulative IPC: 0.767934 (Simulation time: 0 hr 31 min 5 sec) 
Heartbeat CPU 0 instructions: 161000001 cycles: 210428698 heartbeat IPC: 0.736565 cumulative IPC: 0.767718 (Simulation time: 0 hr 31 min 18 sec) 
Heartbeat CPU 0 instructions: 162000001 cycles: 211967041 heartbeat IPC: 0.65005 cumulative IPC: 0.766805 (Simulation time: 0 hr 31 min 31 sec) 
Heartbeat CPU 0 instructions: 163000000 cycles: 213840242 heartbeat IPC: 0.533845 cumulative IPC: 0.764624 (Simulation time: 0 hr 31 min 44 sec) 
Heartbeat CPU 0 instructions: 164000003 cycles: 215088789 heartbeat IPC: 0.800933 cumulative IPC: 0.764849 (Simulation time: 0 hr 31 min 55 sec) 
Heartbeat CPU 0 instructions: 165000000 cycles: 216445703 heartbeat IPC: 0.736964 cumulative IPC: 0.764662 (Simulation time: 0 hr 32 min 6 sec) 
Heartbeat CPU 0 instructions: 166000001 cycles: 218491798 heartbeat IPC: 0.488736 cumulative IPC: 0.761905 (Simulation time: 0 hr 32 min 20 sec) 
Heartbeat CPU 0 instructions: 167000000 cycles: 219877136 heartbeat IPC: 0.721845 cumulative IPC: 0.761636 (Simulation time: 0 hr 32 min 31 sec) 
Heartbeat CPU 0 instructions: 168000002 cycles: 221242015 heartbeat IPC: 0.732667 cumulative IPC: 0.761445 (Simulation time: 0 hr 32 min 42 sec) 
Heartbeat CPU 0 instructions: 169000000 cycles: 222933419 heartbeat IPC: 0.591224 cumulative IPC: 0.760069 (Simulation time: 0 hr 32 min 56 sec) 
Heartbeat CPU 0 instructions: 170000001 cycles: 224815593 heartbeat IPC: 0.531301 cumulative IPC: 0.758029 (Simulation time: 0 hr 33 min 9 sec) 
Heartbeat CPU 0 instructions: 171000002 cycles: 226037330 heartbeat IPC: 0.818508 cumulative IPC: 0.758377 (Simulation time: 0 hr 33 min 20 sec) 
Heartbeat CPU 0 instructions: 172000002 cycles: 227391394 heartbeat IPC: 0.738518 cumulative IPC: 0.758251 (Simulation time: 0 hr 33 min 32 sec) 
Heartbeat CPU 0 instructions: 173000000 cycles: 229550904 heartbeat IPC: 0.463067 cumulative IPC: 0.755297 (Simulation time: 0 hr 33 min 46 sec) 
Heartbeat CPU 0 instructions: 174000001 cycles: 230931976 heartbeat IPC: 0.724076 cumulative IPC: 0.755099 (Simulation time: 0 hr 33 min 57 sec) 
Heartbeat CPU 0 instructions: 175000003 cycles: 232300727 heartbeat IPC: 0.730595 cumulative IPC: 0.754945 (Simulation time: 0 hr 34 min 10 sec) 
Heartbeat CPU 0 instructions: 176000000 cycles: 234051162 heartbeat IPC: 0.571285 cumulative IPC: 0.753486 (Simulation time: 0 hr 34 min 23 sec) 
Heartbeat CPU 0 instructions: 177000002 cycles: 236113243 heartbeat IPC: 0.484948 cumulative IPC: 0.750996 (Simulation time: 0 hr 34 min 36 sec) 
Heartbeat CPU 0 instructions: 178000002 cycles: 237424743 heartbeat IPC: 0.762486 cumulative IPC: 0.751063 (Simulation time: 0 hr 34 min 47 sec) 
Heartbeat CPU 0 instructions: 179000001 cycles: 238797260 heartbeat IPC: 0.728588 cumulative IPC: 0.750926 (Simulation time: 0 hr 35 min 0 sec) 
Heartbeat CPU 0 instructions: 180000001 cycles: 240859192 heartbeat IPC: 0.484982 cumulative IPC: 0.748512 (Simulation time: 0 hr 35 min 14 sec) 
Heartbeat CPU 0 instructions: 181000000 cycles: 242771155 heartbeat IPC: 0.523022 cumulative IPC: 0.746629 (Simulation time: 0 hr 35 min 27 sec) 
Heartbeat CPU 0 instructions: 182000000 cycles: 244005337 heartbeat IPC: 0.810253 cumulative IPC: 0.74697 (Simulation time: 0 hr 35 min 38 sec) 
Heartbeat CPU 0 instructions: 183000003 cycles: 245366921 heartbeat IPC: 0.734441 cumulative IPC: 0.746897 (Simulation time: 0 hr 35 min 50 sec) 
Heartbeat CPU 0 instructions: 184000000 cycles: 247514295 heartbeat IPC: 0.465684 cumulative IPC: 0.744313 (Simulation time: 0 hr 36 min 4 sec) 
Heartbeat CPU 0 instructions: 185000003 cycles: 248386879 heartbeat IPC: 1.14602 cumulative IPC: 0.745807 (Simulation time: 0 hr 36 min 13 sec) 
Heartbeat CPU 0 instructions: 186000003 cycles: 249508093 heartbeat IPC: 0.89189 cumulative IPC: 0.746502 (Simulation time: 0 hr 36 min 23 sec) 
Heartbeat CPU 0 instructions: 187000000 cycles: 250832899 heartbeat IPC: 0.754825 cumulative IPC: 0.746549 (Simulation time: 0 hr 36 min 35 sec) 
Heartbeat CPU 0 instructions: 188000000 cycles: 252302070 heartbeat IPC: 0.680656 cumulative IPC: 0.746143 (Simulation time: 0 hr 36 min 47 sec) 
Heartbeat CPU 0 instructions: 189000000 cycles: 254430171 heartbeat IPC: 0.469903 cumulative IPC: 0.7437 (Simulation time: 0 hr 37 min 1 sec) 
Heartbeat CPU 0 instructions: 190000003 cycles: 255741147 heartbeat IPC: 0.762793 cumulative IPC: 0.743804 (Simulation time: 0 hr 37 min 12 sec) 
Heartbeat CPU 0 instructions: 191000002 cycles: 257112478 heartbeat IPC: 0.729218 cumulative IPC: 0.743722 (Simulation time: 0 hr 37 min 25 sec) 
Heartbeat CPU 0 instructions: 192000001 cycles: 258974454 heartbeat IPC: 0.537063 cumulative IPC: 0.742152 (Simulation time: 0 hr 37 min 39 sec) 
Heartbeat CPU 0 instructions: 193000002 cycles: 260672558 heartbeat IPC: 0.588893 cumulative IPC: 0.741098 (Simulation time: 0 hr 37 min 51 sec) 
Heartbeat CPU 0 instructions: 194000003 cycles: 261954023 heartbeat IPC: 0.780358 cumulative IPC: 0.741301 (Simulation time: 0 hr 38 min 2 sec) 
Heartbeat CPU 0 instructions: 195000000 cycles: 263322663 heartbeat IPC: 0.73065 cumulative IPC: 0.741243 (Simulation time: 0 hr 38 min 15 sec) 
Heartbeat CPU 0 instructions: 196000001 cycles: 265324610 heartbeat IPC: 0.499514 cumulative IPC: 0.739319 (Simulation time: 0 hr 38 min 29 sec) 
Heartbeat CPU 0 instructions: 197000003 cycles: 266606471 heartbeat IPC: 0.780117 cumulative IPC: 0.739526 (Simulation time: 0 hr 38 min 40 sec) 
Heartbeat CPU 0 instructions: 198000000 cycles: 267967277 heartbeat IPC: 0.734856 cumulative IPC: 0.739501 (Simulation time: 0 hr 38 min 52 sec) 
Heartbeat CPU 0 instructions: 199000002 cycles: 269828750 heartbeat IPC: 0.53721 cumulative IPC: 0.738031 (Simulation time: 0 hr 39 min 5 sec) 
Heartbeat CPU 0 instructions: 200000003 cycles: 271234182 heartbeat IPC: 0.711526 cumulative IPC: 0.737886 (Simulation time: 0 hr 39 min 16 sec) 
Heartbeat CPU 0 instructions: 201000001 cycles: 272583773 heartbeat IPC: 0.740964 cumulative IPC: 0.737902 (Simulation time: 0 hr 39 min 28 sec) 
Heartbeat CPU 0 instructions: 202000001 cycles: 274209656 heartbeat IPC: 0.61505 cumulative IPC: 0.737135 (Simulation time: 0 hr 39 min 41 sec) 
Heartbeat CPU 0 instructions: 203000003 cycles: 275981061 heartbeat IPC: 0.564525 cumulative IPC: 0.735969 (Simulation time: 0 hr 39 min 54 sec) 
Heartbeat CPU 0 instructions: 204000000 cycles: 277212443 heartbeat IPC: 0.812093 cumulative IPC: 0.736325 (Simulation time: 0 hr 40 min 5 sec) 
Heartbeat CPU 0 instructions: 205000000 cycles: 278561835 heartbeat IPC: 0.741075 cumulative IPC: 0.736349 (Simulation time: 0 hr 40 min 17 sec) 
Heartbeat CPU 0 instructions: 206000003 cycles: 280522241 heartbeat IPC: 0.5101 cumulative IPC: 0.734687 (Simulation time: 0 hr 40 min 29 sec) 
Heartbeat CPU 0 instructions: 207000000 cycles: 281803688 heartbeat IPC: 0.780365 cumulative IPC: 0.734905 (Simulation time: 0 hr 40 min 39 sec) 
Heartbeat CPU 0 instructions: 208000000 cycles: 283159649 heartbeat IPC: 0.737484 cumulative IPC: 0.734918 (Simulation time: 0 hr 40 min 52 sec) 
Heartbeat CPU 0 instructions: 209000000 cycles: 284974968 heartbeat IPC: 0.550867 cumulative IPC: 0.733686 (Simulation time: 0 hr 41 min 5 sec) 
Heartbeat CPU 0 instructions: 210000000 cycles: 286382317 heartbeat IPC: 0.710556 cumulative IPC: 0.733567 (Simulation time: 0 hr 41 min 16 sec) 
Heartbeat CPU 0 instructions: 211000000 cycles: 287732481 heartbeat IPC: 0.740651 cumulative IPC: 0.733602 (Simulation time: 0 hr 41 min 29 sec) 
Heartbeat CPU 0 instructions: 212000002 cycles: 289383580 heartbeat IPC: 0.605658 cumulative IPC: 0.732835 (Simulation time: 0 hr 41 min 42 sec) 
Heartbeat CPU 0 instructions: 213000002 cycles: 290990754 heartbeat IPC: 0.62221 cumulative IPC: 0.732194 (Simulation time: 0 hr 41 min 54 sec) 
Heartbeat CPU 0 instructions: 214000003 cycles: 292265918 heartbeat IPC: 0.784214 cumulative IPC: 0.732432 (Simulation time: 0 hr 42 min 6 sec) 
Heartbeat CPU 0 instructions: 215000000 cycles: 293642648 heartbeat IPC: 0.726357 cumulative IPC: 0.732402 (Simulation time: 0 hr 42 min 18 sec) 
Heartbeat CPU 0 instructions: 216000002 cycles: 295513732 heartbeat IPC: 0.534451 cumulative IPC: 0.731088 (Simulation time: 0 hr 42 min 31 sec) 
Heartbeat CPU 0 instructions: 217000003 cycles: 296759099 heartbeat IPC: 0.802977 cumulative IPC: 0.731404 (Simulation time: 0 hr 42 min 42 sec) 
Heartbeat CPU 0 instructions: 218000000 cycles: 298110680 heartbeat IPC: 0.739872 cumulative IPC: 0.731444 (Simulation time: 0 hr 42 min 55 sec) 
Heartbeat CPU 0 instructions: 219000000 cycles: 299943836 heartbeat IPC: 0.545507 cumulative IPC: 0.730253 (Simulation time: 0 hr 43 min 8 sec) 
Heartbeat CPU 0 instructions: 220000000 cycles: 301233329 heartbeat IPC: 0.775499 cumulative IPC: 0.730456 (Simulation time: 0 hr 43 min 19 sec) 
Heartbeat CPU 0 instructions: 221000001 cycles: 302584751 heartbeat IPC: 0.739962 cumulative IPC: 0.730501 (Simulation time: 0 hr 43 min 32 sec) 
Heartbeat CPU 0 instructions: 222000001 cycles: 304356620 heartbeat IPC: 0.564376 cumulative IPC: 0.729488 (Simulation time: 0 hr 43 min 44 sec) 
Heartbeat CPU 0 instructions: 223000003 cycles: 305693658 heartbeat IPC: 0.747923 cumulative IPC: 0.729572 (Simulation time: 0 hr 43 min 55 sec) 
Heartbeat CPU 0 instructions: 224000001 cycles: 307033941 heartbeat IPC: 0.74611 cumulative IPC: 0.729648 (Simulation time: 0 hr 44 min 8 sec) 
Heartbeat CPU 0 instructions: 225000003 cycles: 308595924 heartbeat IPC: 0.640213 cumulative IPC: 0.729174 (Simulation time: 0 hr 44 min 21 sec) 
Heartbeat CPU 0 instructions: 226000001 cycles: 309982365 heartbeat IPC: 0.72127 cumulative IPC: 0.729137 (Simulation time: 0 hr 44 min 32 sec) 
Heartbeat CPU 0 instructions: 227000000 cycles: 311245331 heartbeat IPC: 0.791786 cumulative IPC: 0.729403 (Simulation time: 0 hr 44 min 43 sec) 
Heartbeat CPU 0 instructions: 228000002 cycles: 312615584 heartbeat IPC: 0.729794 cumulative IPC: 0.729405 (Simulation time: 0 hr 44 min 56 sec) 
Heartbeat CPU 0 instructions: 229000000 cycles: 314353780 heartbeat IPC: 0.575308 cumulative IPC: 0.728514 (Simulation time: 0 hr 45 min 9 sec) 
Heartbeat CPU 0 instructions: 230000000 cycles: 315707365 heartbeat IPC: 0.738779 cumulative IPC: 0.72856 (Simulation time: 0 hr 45 min 20 sec) 
Heartbeat CPU 0 instructions: 231000000 cycles: 317052278 heartbeat IPC: 0.743542 cumulative IPC: 0.728626 (Simulation time: 0 hr 45 min 33 sec) 
Heartbeat CPU 0 instructions: 232000000 cycles: 318691987 heartbeat IPC: 0.609864 cumulative IPC: 0.727988 (Simulation time: 0 hr 45 min 43 sec) 
Heartbeat CPU 0 instructions: 233000001 cycles: 320164799 heartbeat IPC: 0.678974 cumulative IPC: 0.727752 (Simulation time: 0 hr 45 min 55 sec) 
Heartbeat CPU 0 instructions: 234000000 cycles: 321482854 heartbeat IPC: 0.758693 cumulative IPC: 0.727885 (Simulation time: 0 hr 46 min 6 sec) 
Heartbeat CPU 0 instructions: 235000000 cycles: 322937780 heartbeat IPC: 0.68732 cumulative IPC: 0.727694 (Simulation time: 0 hr 46 min 19 sec) 
Heartbeat CPU 0 instructions: 236000001 cycles: 324708214 heartbeat IPC: 0.564834 cumulative IPC: 0.726767 (Simulation time: 0 hr 46 min 32 sec) 
Heartbeat CPU 0 instructions: 237000003 cycles: 325932850 heartbeat IPC: 0.816571 cumulative IPC: 0.727119 (Simulation time: 0 hr 46 min 43 sec) 
Heartbeat CPU 0 instructions: 238000000 cycles: 327275985 heartbeat IPC: 0.744525 cumulative IPC: 0.727193 (Simulation time: 0 hr 46 min 55 sec) 
Heartbeat CPU 0 instructions: 239000002 cycles: 329113820 heartbeat IPC: 0.54412 cumulative IPC: 0.726127 (Simulation time: 0 hr 47 min 8 sec) 
Heartbeat CPU 0 instructions: 240000001 cycles: 330375793 heartbeat IPC: 0.792409 cumulative IPC: 0.726391 (Simulation time: 0 hr 47 min 19 sec) 
Heartbeat CPU 0 instructions: 241000001 cycles: 331723833 heartbeat IPC: 0.741818 cumulative IPC: 0.726456 (Simulation time: 0 hr 47 min 31 sec) 
Heartbeat CPU 0 instructions: 242000000 cycles: 333490777 heartbeat IPC: 0.565948 cumulative IPC: 0.725569 (Simulation time: 0 hr 47 min 45 sec) 
Heartbeat CPU 0 instructions: 243000003 cycles: 334810039 heartbeat IPC: 0.758002 cumulative IPC: 0.725702 (Simulation time: 0 hr 47 min 56 sec) 
Heartbeat CPU 0 instructions: 244000001 cycles: 336156761 heartbeat IPC: 0.742542 cumulative IPC: 0.725773 (Simulation time: 0 hr 48 min 8 sec) 
Heartbeat CPU 0 instructions: 245000000 cycles: 337838469 heartbeat IPC: 0.594633 cumulative IPC: 0.725092 (Simulation time: 0 hr 48 min 22 sec) 
Heartbeat CPU 0 instructions: 246000000 cycles: 339046402 heartbeat IPC: 0.82786 cumulative IPC: 0.725474 (Simulation time: 0 hr 48 min 33 sec) 
Heartbeat CPU 0 instructions: 247000000 cycles: 340155296 heartbeat IPC: 0.901799 cumulative IPC: 0.726073 (Simulation time: 0 hr 48 min 44 sec) 
Heartbeat CPU 0 instructions: 248000002 cycles: 341403219 heartbeat IPC: 0.801333 cumulative IPC: 0.72636 (Simulation time: 0 hr 48 min 54 sec) 
Heartbeat CPU 0 instructions: 249000000 cycles: 342833667 heartbeat IPC: 0.69908 cumulative IPC: 0.726241 (Simulation time: 0 hr 49 min 7 sec) 
Heartbeat CPU 0 instructions: 250000003 cycles: 344686971 heartbeat IPC: 0.539578 cumulative IPC: 0.725196 (Simulation time: 0 hr 49 min 20 sec) 
Heartbeat CPU 0 instructions: 251000001 cycles: 345926555 heartbeat IPC: 0.806721 cumulative IPC: 0.7255 (Simulation time: 0 hr 49 min 31 sec) 
Heartbeat CPU 0 instructions: 252000003 cycles: 347271305 heartbeat IPC: 0.743634 cumulative IPC: 0.725573 (Simulation time: 0 hr 49 min 44 sec) 
Heartbeat CPU 0 instructions: 253000000 cycles: 349047810 heartbeat IPC: 0.562901 cumulative IPC: 0.724711 (Simulation time: 0 hr 49 min 57 sec) 
Heartbeat CPU 0 instructions: 254000003 cycles: 350329430 heartbeat IPC: 0.780265 cumulative IPC: 0.724923 (Simulation time: 0 hr 50 min 8 sec) 
Heartbeat CPU 0 instructions: 255000000 cycles: 351674410 heartbeat IPC: 0.743503 cumulative IPC: 0.724997 (Simulation time: 0 hr 50 min 21 sec) 
Heartbeat CPU 0 instructions: 256000001 cycles: 353374473 heartbeat IPC: 0.588214 cumulative IPC: 0.724312 (Simulation time: 0 hr 50 min 34 sec) 
Heartbeat CPU 0 instructions: 257000001 cycles: 354767224 heartbeat IPC: 0.718003 cumulative IPC: 0.724286 (Simulation time: 0 hr 50 min 45 sec) 
Heartbeat CPU 0 instructions: 258000000 cycles: 356104170 heartbeat IPC: 0.747973 cumulative IPC: 0.724379 (Simulation time: 0 hr 50 min 58 sec) 
Heartbeat CPU 0 instructions: 259000000 cycles: 357640590 heartbeat IPC: 0.650864 cumulative IPC: 0.72405 (Simulation time: 0 hr 51 min 11 sec) 
Heartbeat CPU 0 instructions: 260000000 cycles: 359543561 heartbeat IPC: 0.525494 cumulative IPC: 0.722958 (Simulation time: 0 hr 51 min 24 sec) 
Heartbeat CPU 0 instructions: 261000003 cycles: 360803686 heartbeat IPC: 0.793574 cumulative IPC: 0.723214 (Simulation time: 0 hr 51 min 35 sec) 
Heartbeat CPU 0 instructions: 262000003 cycles: 362160847 heartbeat IPC: 0.736832 cumulative IPC: 0.723267 (Simulation time: 0 hr 51 min 48 sec) 
Heartbeat CPU 0 instructions: 263000003 cycles: 364071874 heartbeat IPC: 0.523279 cumulative IPC: 0.722176 (Simulation time: 0 hr 52 min 1 sec) 
Heartbeat CPU 0 instructions: 264000000 cycles: 365366428 heartbeat IPC: 0.772465 cumulative IPC: 0.722361 (Simulation time: 0 hr 52 min 13 sec) 
Heartbeat CPU 0 instructions: 265000001 cycles: 366722107 heartbeat IPC: 0.737638 cumulative IPC: 0.72242 (Simulation time: 0 hr 52 min 24 sec) 
Heartbeat CPU 0 instructions: 266000000 cycles: 368478469 heartbeat IPC: 0.569358 cumulative IPC: 0.721662 (Simulation time: 0 hr 52 min 37 sec) 
Heartbeat CPU 0 instructions: 267000000 cycles: 369889706 heartbeat IPC: 0.708598 cumulative IPC: 0.72161 (Simulation time: 0 hr 52 min 49 sec) 
Heartbeat CPU 0 instructions: 268000002 cycles: 371235018 heartbeat IPC: 0.743324 cumulative IPC: 0.721692 (Simulation time: 0 hr 53 min 1 sec) 
Heartbeat CPU 0 instructions: 269000001 cycles: 372743937 heartbeat IPC: 0.662725 cumulative IPC: 0.721444 (Simulation time: 0 hr 53 min 14 sec) 
Heartbeat CPU 0 instructions: 270000002 cycles: 374499087 heartbeat IPC: 0.569752 cumulative IPC: 0.720706 (Simulation time: 0 hr 53 min 27 sec) 
Heartbeat CPU 0 instructions: 271000000 cycles: 375702538 heartbeat IPC: 0.830942 cumulative IPC: 0.721073 (Simulation time: 0 hr 53 min 38 sec) 
Heartbeat CPU 0 instructions: 272000001 cycles: 377049002 heartbeat IPC: 0.742687 cumulative IPC: 0.721153 (Simulation time: 0 hr 53 min 51 sec) 
Heartbeat CPU 0 instructions: 273000001 cycles: 378901712 heartbeat IPC: 0.53975 cumulative IPC: 0.720232 (Simulation time: 0 hr 54 min 4 sec) 
Heartbeat CPU 0 instructions: 274000002 cycles: 380162076 heartbeat IPC: 0.793422 cumulative IPC: 0.720484 (Simulation time: 0 hr 54 min 15 sec) 
Heartbeat CPU 0 instructions: 275000000 cycles: 381509920 heartbeat IPC: 0.741924 cumulative IPC: 0.720563 (Simulation time: 0 hr 54 min 28 sec) 
Heartbeat CPU 0 instructions: 276000003 cycles: 383322704 heartbeat IPC: 0.551639 cumulative IPC: 0.719734 (Simulation time: 0 hr 54 min 41 sec) 
Heartbeat CPU 0 instructions: 277000001 cycles: 384630976 heartbeat IPC: 0.764365 cumulative IPC: 0.719892 (Simulation time: 0 hr 54 min 52 sec) 
Heartbeat CPU 0 instructions: 278000002 cycles: 385982642 heartbeat IPC: 0.739828 cumulative IPC: 0.719964 (Simulation time: 0 hr 55 min 5 sec) 
Heartbeat CPU 0 instructions: 279000000 cycles: 387705006 heartbeat IPC: 0.580596 cumulative IPC: 0.719322 (Simulation time: 0 hr 55 min 17 sec) 
Heartbeat CPU 0 instructions: 280000000 cycles: 388601457 heartbeat IPC: 1.11551 cumulative IPC: 0.72027 (Simulation time: 0 hr 55 min 27 sec) 
Heartbeat CPU 0 instructions: 281000001 cycles: 389677019 heartbeat IPC: 0.929747 cumulative IPC: 0.720869 (Simulation time: 0 hr 55 min 37 sec) 
Heartbeat CPU 0 instructions: 282000003 cycles: 390892655 heartbeat IPC: 0.822616 cumulative IPC: 0.721197 (Simulation time: 0 hr 55 min 43 sec) 
Heartbeat CPU 0 instructions: 283000000 cycles: 392269501 heartbeat IPC: 0.726295 cumulative IPC: 0.721215 (Simulation time: 0 hr 55 min 56 sec) 
Heartbeat CPU 0 instructions: 284000000 cycles: 394173043 heartbeat IPC: 0.525336 cumulative IPC: 0.720235 (Simulation time: 0 hr 56 min 10 sec) 
Heartbeat CPU 0 instructions: 285000001 cycles: 395458638 heartbeat IPC: 0.777851 cumulative IPC: 0.720429 (Simulation time: 0 hr 56 min 21 sec) 
Heartbeat CPU 0 instructions: 286000000 cycles: 396817320 heartbeat IPC: 0.736007 cumulative IPC: 0.720485 (Simulation time: 0 hr 56 min 33 sec) 
Heartbeat CPU 0 instructions: 287000000 cycles: 398581154 heartbeat IPC: 0.566947 cumulative IPC: 0.719781 (Simulation time: 0 hr 56 min 47 sec) 
Heartbeat CPU 0 instructions: 288000002 cycles: 399992884 heartbeat IPC: 0.708352 cumulative IPC: 0.719739 (Simulation time: 0 hr 56 min 58 sec) 
Heartbeat CPU 0 instructions: 289000000 cycles: 401341282 heartbeat IPC: 0.741619 cumulative IPC: 0.719815 (Simulation time: 0 hr 57 min 10 sec) 
Heartbeat CPU 0 instructions: 290000001 cycles: 403021204 heartbeat IPC: 0.595266 cumulative IPC: 0.719278 (Simulation time: 0 hr 57 min 24 sec) 
Heartbeat CPU 0 instructions: 291000001 cycles: 404671054 heartbeat IPC: 0.606116 cumulative IPC: 0.7188 (Simulation time: 0 hr 57 min 36 sec) 
Heartbeat CPU 0 instructions: 292000003 cycles: 405948933 heartbeat IPC: 0.782548 cumulative IPC: 0.719008 (Simulation time: 0 hr 57 min 48 sec) 
Heartbeat CPU 0 instructions: 293000002 cycles: 407325661 heartbeat IPC: 0.726359 cumulative IPC: 0.719034 (Simulation time: 0 hr 58 min 0 sec) 
Heartbeat CPU 0 instructions: 294000003 cycles: 409302891 heartbeat IPC: 0.505759 cumulative IPC: 0.717968 (Simulation time: 0 hr 58 min 12 sec) 
Heartbeat CPU 0 instructions: 295000003 cycles: 410588396 heartbeat IPC: 0.777904 cumulative IPC: 0.718162 (Simulation time: 0 hr 58 min 23 sec) 
Heartbeat CPU 0 instructions: 296000003 cycles: 411948635 heartbeat IPC: 0.735165 cumulative IPC: 0.71822 (Simulation time: 0 hr 58 min 35 sec) 
Heartbeat CPU 0 instructions: 297000000 cycles: 413823406 heartbeat IPC: 0.533397 cumulative IPC: 0.717354 (Simulation time: 0 hr 58 min 49 sec) 
Heartbeat CPU 0 instructions: 298000000 cycles: 415231700 heartbeat IPC: 0.710079 cumulative IPC: 0.717328 (Simulation time: 0 hr 59 min 0 sec) 
Heartbeat CPU 0 instructions: 299000002 cycles: 416587240 heartbeat IPC: 0.737715 cumulative IPC: 0.717397 (Simulation time: 0 hr 59 min 13 sec) 
Heartbeat CPU 0 instructions: 300000000 cycles: 418239814 heartbeat IPC: 0.605115 cumulative IPC: 0.716938 (Simulation time: 0 hr 59 min 26 sec) 
Heartbeat CPU 0 instructions: 301000002 cycles: 419887040 heartbeat IPC: 0.607082 cumulative IPC: 0.716492 (Simulation time: 0 hr 59 min 38 sec) 
Heartbeat CPU 0 instructions: 302000001 cycles: 421159211 heartbeat IPC: 0.786057 cumulative IPC: 0.71671 (Simulation time: 0 hr 59 min 50 sec) 
Heartbeat CPU 0 instructions: 303000001 cycles: 422526116 heartbeat IPC: 0.73158 cumulative IPC: 0.716759 (Simulation time: 1 hr 0 min 2 sec) 
Heartbeat CPU 0 instructions: 304000000 cycles: 424466250 heartbeat IPC: 0.515428 cumulative IPC: 0.715808 (Simulation time: 1 hr 0 min 16 sec) 
Heartbeat CPU 0 instructions: 305000002 cycles: 425727564 heartbeat IPC: 0.792826 cumulative IPC: 0.716044 (Simulation time: 1 hr 0 min 27 sec) 
Heartbeat CPU 0 instructions: 306000000 cycles: 427079677 heartbeat IPC: 0.739582 cumulative IPC: 0.716121 (Simulation time: 1 hr 0 min 39 sec) 
Heartbeat CPU 0 instructions: 307000002 cycles: 428977535 heartbeat IPC: 0.526911 cumulative IPC: 0.715256 (Simulation time: 1 hr 0 min 53 sec) 
Heartbeat CPU 0 instructions: 308000000 cycles: 430305785 heartbeat IPC: 0.752869 cumulative IPC: 0.715376 (Simulation time: 1 hr 1 min 4 sec) 
Heartbeat CPU 0 instructions: 309000003 cycles: 431664935 heartbeat IPC: 0.735756 cumulative IPC: 0.715443 (Simulation time: 1 hr 1 min 16 sec) 
Heartbeat CPU 0 instructions: 310000001 cycles: 433375994 heartbeat IPC: 0.584432 cumulative IPC: 0.714908 (Simulation time: 1 hr 1 min 29 sec) 
Heartbeat CPU 0 instructions: 311000000 cycles: 434879243 heartbeat IPC: 0.665225 cumulative IPC: 0.714731 (Simulation time: 1 hr 1 min 41 sec) 
Heartbeat CPU 0 instructions: 312000001 cycles: 436208314 heartbeat IPC: 0.752406 cumulative IPC: 0.71485 (Simulation time: 1 hr 1 min 53 sec) 
Heartbeat CPU 0 instructions: 313000001 cycles: 437674545 heartbeat IPC: 0.682021 cumulative IPC: 0.714736 (Simulation time: 1 hr 2 min 6 sec) 
Heartbeat CPU 0 instructions: 314000002 cycles: 439496532 heartbeat IPC: 0.548852 cumulative IPC: 0.714026 (Simulation time: 1 hr 2 min 19 sec) 
Heartbeat CPU 0 instructions: 315000000 cycles: 440732522 heartbeat IPC: 0.809066 cumulative IPC: 0.714301 (Simulation time: 1 hr 2 min 30 sec) 
Heartbeat CPU 0 instructions: 316000001 cycles: 442085262 heartbeat IPC: 0.739241 cumulative IPC: 0.71438 (Simulation time: 1 hr 2 min 43 sec) 
Heartbeat CPU 0 instructions: 317000000 cycles: 443972853 heartbeat IPC: 0.529775 cumulative IPC: 0.71357 (Simulation time: 1 hr 2 min 56 sec) 
Heartbeat CPU 0 instructions: 318000003 cycles: 445255197 heartbeat IPC: 0.779824 cumulative IPC: 0.713767 (Simulation time: 1 hr 3 min 7 sec) 
Heartbeat CPU 0 instructions: 319000000 cycles: 446606715 heartbeat IPC: 0.739907 cumulative IPC: 0.713849 (Simulation time: 1 hr 3 min 20 sec) 
Heartbeat CPU 0 instructions: 320000001 cycles: 448372015 heartbeat IPC: 0.566477 cumulative IPC: 0.71325 (Simulation time: 1 hr 3 min 33 sec) 
Heartbeat CPU 0 instructions: 321000001 cycles: 449787809 heartbeat IPC: 0.706317 cumulative IPC: 0.713228 (Simulation time: 1 hr 3 min 45 sec) 
Heartbeat CPU 0 instructions: 322000003 cycles: 451135865 heartbeat IPC: 0.74181 cumulative IPC: 0.713316 (Simulation time: 1 hr 3 min 57 sec) 
Heartbeat CPU 0 instructions: 323000002 cycles: 452773162 heartbeat IPC: 0.610762 cumulative IPC: 0.712933 (Simulation time: 1 hr 4 min 8 sec) 
Heartbeat CPU 0 instructions: 324000000 cycles: 453990697 heartbeat IPC: 0.82133 cumulative IPC: 0.713233 (Simulation time: 1 hr 4 min 19 sec) 
Heartbeat CPU 0 instructions: 325000002 cycles: 454977574 heartbeat IPC: 1.0133 cumulative IPC: 0.713904 (Simulation time: 1 hr 4 min 29 sec) 
Heartbeat CPU 0 instructions: 326000001 cycles: 456218829 heartbeat IPC: 0.805635 cumulative IPC: 0.714161 (Simulation time: 1 hr 4 min 40 sec) 
Heartbeat CPU 0 instructions: 327000000 cycles: 457597440 heartbeat IPC: 0.725367 cumulative IPC: 0.714196 (Simulation time: 1 hr 4 min 53 sec) 
Heartbeat CPU 0 instructions: 328000001 cycles: 459548281 heartbeat IPC: 0.5126 cumulative IPC: 0.713314 (Simulation time: 1 hr 5 min 6 sec) 
Heartbeat CPU 0 instructions: 329000000 cycles: 460864474 heartbeat IPC: 0.759766 cumulative IPC: 0.713451 (Simulation time: 1 hr 5 min 18 sec) 
Heartbeat CPU 0 instructions: 330000000 cycles: 462227564 heartbeat IPC: 0.733627 cumulative IPC: 0.713512 (Simulation time: 1 hr 5 min 30 sec) 
Heartbeat CPU 0 instructions: 331000001 cycles: 464011268 heartbeat IPC: 0.560632 cumulative IPC: 0.712906 (Simulation time: 1 hr 5 min 44 sec) 
Heartbeat CPU 0 instructions: 332000003 cycles: 465508116 heartbeat IPC: 0.668072 cumulative IPC: 0.712758 (Simulation time: 1 hr 5 min 53 sec) 
Heartbeat CPU 0 instructions: 333000001 cycles: 466859587 heartbeat IPC: 0.739933 cumulative IPC: 0.712839 (Simulation time: 1 hr 6 min 6 sec) 
Heartbeat CPU 0 instructions: 334000003 cycles: 468354660 heartbeat IPC: 0.668865 cumulative IPC: 0.712694 (Simulation time: 1 hr 6 min 19 sec) 
Heartbeat CPU 0 instructions: 335000000 cycles: 470256269 heartbeat IPC: 0.525869 cumulative IPC: 0.711916 (Simulation time: 1 hr 6 min 32 sec) 
Heartbeat CPU 0 instructions: 336000001 cycles: 471518208 heartbeat IPC: 0.792432 cumulative IPC: 0.712138 (Simulation time: 1 hr 6 min 43 sec) 
Heartbeat CPU 0 instructions: 337000000 cycles: 472879244 heartbeat IPC: 0.734734 cumulative IPC: 0.712205 (Simulation time: 1 hr 6 min 56 sec) 
Heartbeat CPU 0 instructions: 338000003 cycles: 474749372 heartbeat IPC: 0.534724 cumulative IPC: 0.711485 (Simulation time: 1 hr 7 min 9 sec) 
Heartbeat CPU 0 instructions: 339000001 cycles: 476032762 heartbeat IPC: 0.779185 cumulative IPC: 0.711673 (Simulation time: 1 hr 7 min 20 sec) 
Heartbeat CPU 0 instructions: 340000001 cycles: 477385269 heartbeat IPC: 0.739368 cumulative IPC: 0.711754 (Simulation time: 1 hr 7 min 32 sec) 
Heartbeat CPU 0 instructions: 341000000 cycles: 479145418 heartbeat IPC: 0.568133 cumulative IPC: 0.711211 (Simulation time: 1 hr 7 min 43 sec) 
Heartbeat CPU 0 instructions: 342000001 cycles: 480510818 heartbeat IPC: 0.732387 cumulative IPC: 0.711273 (Simulation time: 1 hr 7 min 54 sec) 
Heartbeat CPU 0 instructions: 343000003 cycles: 481851159 heartbeat IPC: 0.74608 cumulative IPC: 0.711372 (Simulation time: 1 hr 8 min 6 sec) 
Heartbeat CPU 0 instructions: 344000000 cycles: 483431356 heartbeat IPC: 0.632831 cumulative IPC: 0.711108 (Simulation time: 1 hr 8 min 20 sec) 
Heartbeat CPU 0 instructions: 345000000 cycles: 485072079 heartbeat IPC: 0.609487 cumulative IPC: 0.710754 (Simulation time: 1 hr 8 min 32 sec) 
Heartbeat CPU 0 instructions: 346000001 cycles: 486326831 heartbeat IPC: 0.796971 cumulative IPC: 0.710983 (Simulation time: 1 hr 8 min 44 sec) 
Heartbeat CPU 0 instructions: 347000000 cycles: 487674611 heartbeat IPC: 0.74196 cumulative IPC: 0.711071 (Simulation time: 1 hr 8 min 56 sec) 
Heartbeat CPU 0 instructions: 348000003 cycles: 489539295 heartbeat IPC: 0.536286 cumulative IPC: 0.710386 (Simulation time: 1 hr 9 min 10 sec) 
Heartbeat CPU 0 instructions: 349000002 cycles: 490791330 heartbeat IPC: 0.798699 cumulative IPC: 0.710618 (Simulation time: 1 hr 9 min 20 sec) 
Heartbeat CPU 0 instructions: 350000002 cycles: 492139558 heartbeat IPC: 0.741714 cumulative IPC: 0.710706 (Simulation time: 1 hr 9 min 32 sec) 
Heartbeat CPU 0 instructions: 351000000 cycles: 493967970 heartbeat IPC: 0.546922 cumulative IPC: 0.710082 (Simulation time: 1 hr 9 min 46 sec) 
Heartbeat CPU 0 instructions: 352000000 cycles: 495260096 heartbeat IPC: 0.773918 cumulative IPC: 0.710253 (Simulation time: 1 hr 9 min 57 sec) 
Heartbeat CPU 0 instructions: 353000000 cycles: 496614899 heartbeat IPC: 0.738115 cumulative IPC: 0.710332 (Simulation time: 1 hr 10 min 8 sec) 
Heartbeat CPU 0 instructions: 354000000 cycles: 498362646 heartbeat IPC: 0.572165 cumulative IPC: 0.709833 (Simulation time: 1 hr 10 min 22 sec) 
Heartbeat CPU 0 instructions: 355000000 cycles: 499736982 heartbeat IPC: 0.727624 cumulative IPC: 0.709884 (Simulation time: 1 hr 10 min 33 sec) 
Heartbeat CPU 0 instructions: 356000002 cycles: 501078553 heartbeat IPC: 0.745396 cumulative IPC: 0.709981 (Simulation time: 1 hr 10 min 46 sec) 
Heartbeat CPU 0 instructions: 357000003 cycles: 502665584 heartbeat IPC: 0.630108 cumulative IPC: 0.709722 (Simulation time: 1 hr 10 min 59 sec) 
Heartbeat CPU 0 instructions: 358000000 cycles: 504278828 heartbeat IPC: 0.619867 cumulative IPC: 0.709427 (Simulation time: 1 hr 11 min 11 sec) 
Heartbeat CPU 0 instructions: 359000000 cycles: 505539121 heartbeat IPC: 0.793466 cumulative IPC: 0.709642 (Simulation time: 1 hr 11 min 23 sec) 
Heartbeat CPU 0 instructions: 360000001 cycles: 506893380 heartbeat IPC: 0.738412 cumulative IPC: 0.709721 (Simulation time: 1 hr 11 min 35 sec) 
Heartbeat CPU 0 instructions: 361000000 cycles: 508748753 heartbeat IPC: 0.538975 cumulative IPC: 0.709081 (Simulation time: 1 hr 11 min 49 sec) 
Heartbeat CPU 0 instructions: 362000001 cycles: 510005159 heartbeat IPC: 0.795922 cumulative IPC: 0.709301 (Simulation time: 1 hr 12 min 0 sec) 
Heartbeat CPU 0 instructions: 363000000 cycles: 511351303 heartbeat IPC: 0.742862 cumulative IPC: 0.709392 (Simulation time: 1 hr 12 min 12 sec) 
Heartbeat CPU 0 instructions: 364000002 cycles: 513134983 heartbeat IPC: 0.56064 cumulative IPC: 0.70886 (Simulation time: 1 hr 12 min 26 sec) 
Heartbeat CPU 0 instructions: 365000003 cycles: 513723960 heartbeat IPC: 1.69786 cumulative IPC: 0.710025 (Simulation time: 1 hr 12 min 34 sec) 
Heartbeat CPU 0 instructions: 366000001 cycles: 514889283 heartbeat IPC: 0.858129 cumulative IPC: 0.71037 (Simulation time: 1 hr 12 min 44 sec) 
Heartbeat CPU 0 instructions: 367000001 cycles: 516242767 heartbeat IPC: 0.738834 cumulative IPC: 0.710446 (Simulation time: 1 hr 12 min 57 sec) 
Heartbeat CPU 0 instructions: 368000000 cycles: 517823030 heartbeat IPC: 0.632805 cumulative IPC: 0.710203 (Simulation time: 1 hr 13 min 7 sec) 
Heartbeat CPU 0 instructions: 369000003 cycles: 519487149 heartbeat IPC: 0.60092 cumulative IPC: 0.709843 (Simulation time: 1 hr 13 min 20 sec) 
Heartbeat CPU 0 instructions: 370000003 cycles: 520729354 heartbeat IPC: 0.80502 cumulative IPC: 0.710077 (Simulation time: 1 hr 13 min 31 sec) 
Heartbeat CPU 0 instructions: 371000001 cycles: 522077436 heartbeat IPC: 0.741793 cumulative IPC: 0.710161 (Simulation time: 1 hr 13 min 44 sec) 
Heartbeat CPU 0 instructions: 372000003 cycles: 524016084 heartbeat IPC: 0.515824 cumulative IPC: 0.709422 (Simulation time: 1 hr 13 min 58 sec) 
Heartbeat CPU 0 instructions: 373000001 cycles: 525285315 heartbeat IPC: 0.787877 cumulative IPC: 0.709617 (Simulation time: 1 hr 14 min 9 sec) 
Heartbeat CPU 0 instructions: 374000000 cycles: 526637380 heartbeat IPC: 0.739609 cumulative IPC: 0.709696 (Simulation time: 1 hr 14 min 21 sec) 
Heartbeat CPU 0 instructions: 375000003 cycles: 528538073 heartbeat IPC: 0.526125 cumulative IPC: 0.709018 (Simulation time: 1 hr 14 min 34 sec) 
Heartbeat CPU 0 instructions: 376000003 cycles: 529868230 heartbeat IPC: 0.751791 cumulative IPC: 0.709129 (Simulation time: 1 hr 14 min 45 sec) 
Heartbeat CPU 0 instructions: 377000001 cycles: 531227106 heartbeat IPC: 0.735901 cumulative IPC: 0.709199 (Simulation time: 1 hr 14 min 58 sec) 
Heartbeat CPU 0 instructions: 378000001 cycles: 532981940 heartbeat IPC: 0.569854 cumulative IPC: 0.708728 (Simulation time: 1 hr 15 min 11 sec) 
Heartbeat CPU 0 instructions: 379000000 cycles: 534843805 heartbeat IPC: 0.537095 cumulative IPC: 0.708115 (Simulation time: 1 hr 15 min 25 sec) 
Heartbeat CPU 0 instructions: 380000003 cycles: 536073802 heartbeat IPC: 0.813013 cumulative IPC: 0.708362 (Simulation time: 1 hr 15 min 36 sec) 
Heartbeat CPU 0 instructions: 381000000 cycles: 537432911 heartbeat IPC: 0.735774 cumulative IPC: 0.708433 (Simulation time: 1 hr 15 min 48 sec) 
Heartbeat CPU 0 instructions: 382000003 cycles: 539577422 heartbeat IPC: 0.466308 cumulative IPC: 0.707445 (Simulation time: 1 hr 16 min 0 sec) 
Heartbeat CPU 0 instructions: 383000000 cycles: 541046061 heartbeat IPC: 0.6809 cumulative IPC: 0.707372 (Simulation time: 1 hr 16 min 11 sec) 
Heartbeat CPU 0 instructions: 384000000 cycles: 542412310 heartbeat IPC: 0.731931 cumulative IPC: 0.707435 (Simulation time: 1 hr 16 min 23 sec) 
Heartbeat CPU 0 instructions: 385000000 cycles: 544133363 heartbeat IPC: 0.58104 cumulative IPC: 0.707025 (Simulation time: 1 hr 16 min 37 sec) 
Heartbeat CPU 0 instructions: 386000002 cycles: 546085857 heartbeat IPC: 0.512167 cumulative IPC: 0.70631 (Simulation time: 1 hr 16 min 50 sec) 
Heartbeat CPU 0 instructions: 387000001 cycles: 547338708 heartbeat IPC: 0.798179 cumulative IPC: 0.706526 (Simulation time: 1 hr 17 min 1 sec) 
Heartbeat CPU 0 instructions: 388000001 cycles: 548699492 heartbeat IPC: 0.73487 cumulative IPC: 0.706598 (Simulation time: 1 hr 17 min 14 sec) 
Heartbeat CPU 0 instructions: 389000001 cycles: 550797096 heartbeat IPC: 0.476734 cumulative IPC: 0.7057 (Simulation time: 1 hr 17 min 28 sec) 
Heartbeat CPU 0 instructions: 390000002 cycles: 552246272 heartbeat IPC: 0.690048 cumulative IPC: 0.705658 (Simulation time: 1 hr 17 min 39 sec) 
Heartbeat CPU 0 instructions: 391000003 cycles: 553609517 heartbeat IPC: 0.733545 cumulative IPC: 0.705728 (Simulation time: 1 hr 17 min 51 sec) 
Heartbeat CPU 0 instructions: 392000003 cycles: 555261006 heartbeat IPC: 0.605514 cumulative IPC: 0.705423 (Simulation time: 1 hr 18 min 5 sec) 
Heartbeat CPU 0 instructions: 393000000 cycles: 557194459 heartbeat IPC: 0.517208 cumulative IPC: 0.704753 (Simulation time: 1 hr 18 min 18 sec) 
Heartbeat CPU 0 instructions: 394000003 cycles: 558448771 heartbeat IPC: 0.797252 cumulative IPC: 0.704966 (Simulation time: 1 hr 18 min 29 sec) 
Heartbeat CPU 0 instructions: 395000001 cycles: 559810537 heartbeat IPC: 0.734339 cumulative IPC: 0.705039 (Simulation time: 1 hr 18 min 42 sec) 
Heartbeat CPU 0 instructions: 396000000 cycles: 561563112 heartbeat IPC: 0.570588 cumulative IPC: 0.704609 (Simulation time: 1 hr 18 min 55 sec) 
Heartbeat CPU 0 instructions: 397000002 cycles: 562818917 heartbeat IPC: 0.796304 cumulative IPC: 0.704819 (Simulation time: 1 hr 19 min 5 sec) 
Heartbeat CPU 0 instructions: 398000001 cycles: 564152503 heartbeat IPC: 0.749857 cumulative IPC: 0.704928 (Simulation time: 1 hr 19 min 18 sec) 
Heartbeat CPU 0 instructions: 399000002 cycles: 565666948 heartbeat IPC: 0.660309 cumulative IPC: 0.704806 (Simulation time: 1 hr 19 min 30 sec) 
Heartbeat CPU 0 instructions: 400000001 cycles: 566892408 heartbeat IPC: 0.816019 cumulative IPC: 0.705052 (Simulation time: 1 hr 19 min 41 sec) 
Heartbeat CPU 0 instructions: 401000003 cycles: 568183592 heartbeat IPC: 0.774485 cumulative IPC: 0.705214 (Simulation time: 1 hr 19 min 53 sec) 
Heartbeat CPU 0 instructions: 402000001 cycles: 569660790 heartbeat IPC: 0.676956 cumulative IPC: 0.705139 (Simulation time: 1 hr 20 min 6 sec) 
Heartbeat CPU 0 instructions: 403000001 cycles: 570876641 heartbeat IPC: 0.822469 cumulative IPC: 0.705395 (Simulation time: 1 hr 20 min 17 sec) 
Heartbeat CPU 0 instructions: 404000002 cycles: 572158527 heartbeat IPC: 0.780101 cumulative IPC: 0.705566 (Simulation time: 1 hr 20 min 29 sec) 
Heartbeat CPU 0 instructions: 405000003 cycles: 573615717 heartbeat IPC: 0.686253 cumulative IPC: 0.705516 (Simulation time: 1 hr 20 min 42 sec) 
Heartbeat CPU 0 instructions: 406000003 cycles: 574851239 heartbeat IPC: 0.809375 cumulative IPC: 0.705745 (Simulation time: 1 hr 20 min 52 sec) 
Heartbeat CPU 0 instructions: 407000000 cycles: 576144706 heartbeat IPC: 0.773114 cumulative IPC: 0.7059 (Simulation time: 1 hr 21 min 5 sec) 
Heartbeat CPU 0 instructions: 408000003 cycles: 577555095 heartbeat IPC: 0.709026 cumulative IPC: 0.705907 (Simulation time: 1 hr 21 min 17 sec) 
Heartbeat CPU 0 instructions: 409000000 cycles: 578229620 heartbeat IPC: 1.48252 cumulative IPC: 0.706835 (Simulation time: 1 hr 21 min 26 sec) 
Heartbeat CPU 0 instructions: 410000003 cycles: 579359271 heartbeat IPC: 0.885232 cumulative IPC: 0.707192 (Simulation time: 1 hr 21 min 36 sec) 
Heartbeat CPU 0 instructions: 411000003 cycles: 580659012 heartbeat IPC: 0.769384 cumulative IPC: 0.707334 (Simulation time: 1 hr 21 min 48 sec) 
Heartbeat CPU 0 instructions: 412000003 cycles: 582031130 heartbeat IPC: 0.7288 cumulative IPC: 0.707386 (Simulation time: 1 hr 22 min 1 sec) 
Heartbeat CPU 0 instructions: 413000002 cycles: 583327299 heartbeat IPC: 0.771504 cumulative IPC: 0.707532 (Simulation time: 1 hr 22 min 12 sec) 
Heartbeat CPU 0 instructions: 414000000 cycles: 584578765 heartbeat IPC: 0.799061 cumulative IPC: 0.707733 (Simulation time: 1 hr 22 min 24 sec) 
Heartbeat CPU 0 instructions: 415000001 cycles: 585853817 heartbeat IPC: 0.784283 cumulative IPC: 0.707903 (Simulation time: 1 hr 22 min 37 sec) 
Heartbeat CPU 0 instructions: 416000002 cycles: 587011506 heartbeat IPC: 0.863791 cumulative IPC: 0.708218 (Simulation time: 1 hr 22 min 47 sec) 
Heartbeat CPU 0 instructions: 417000000 cycles: 588182374 heartbeat IPC: 0.854066 cumulative IPC: 0.708515 (Simulation time: 1 hr 22 min 59 sec) 
Heartbeat CPU 0 instructions: 418000000 cycles: 589344813 heartbeat IPC: 0.86026 cumulative IPC: 0.708822 (Simulation time: 1 hr 23 min 11 sec) 
Heartbeat CPU 0 instructions: 419000000 cycles: 590509246 heartbeat IPC: 0.858787 cumulative IPC: 0.709125 (Simulation time: 1 hr 23 min 22 sec) 
Heartbeat CPU 0 instructions: 420000003 cycles: 591657046 heartbeat IPC: 0.871235 cumulative IPC: 0.709447 (Simulation time: 1 hr 23 min 33 sec) 
Heartbeat CPU 0 instructions: 421000002 cycles: 592815698 heartbeat IPC: 0.863071 cumulative IPC: 0.709754 (Simulation time: 1 hr 23 min 45 sec) 
Heartbeat CPU 0 instructions: 422000000 cycles: 594042635 heartbeat IPC: 0.815036 cumulative IPC: 0.709977 (Simulation time: 1 hr 23 min 56 sec) 
Heartbeat CPU 0 instructions: 423000002 cycles: 595227653 heartbeat IPC: 0.843871 cumulative IPC: 0.710249 (Simulation time: 1 hr 24 min 8 sec) 
Heartbeat CPU 0 instructions: 424000000 cycles: 596776250 heartbeat IPC: 0.645745 cumulative IPC: 0.710078 (Simulation time: 1 hr 24 min 21 sec) 
Heartbeat CPU 0 instructions: 425000000 cycles: 598356196 heartbeat IPC: 0.632933 cumulative IPC: 0.70987 (Simulation time: 1 hr 24 min 33 sec) 
Heartbeat CPU 0 instructions: 426000002 cycles: 599639057 heartbeat IPC: 0.779509 cumulative IPC: 0.710022 (Simulation time: 1 hr 24 min 45 sec) 
Heartbeat CPU 0 instructions: 427000002 cycles: 601028418 heartbeat IPC: 0.719755 cumulative IPC: 0.710045 (Simulation time: 1 hr 24 min 56 sec) 
Heartbeat CPU 0 instructions: 428000000 cycles: 602873920 heartbeat IPC: 0.541857 cumulative IPC: 0.709518 (Simulation time: 1 hr 25 min 9 sec) 
Heartbeat CPU 0 instructions: 429000000 cycles: 604120032 heartbeat IPC: 0.802496 cumulative IPC: 0.709715 (Simulation time: 1 hr 25 min 20 sec) 
Heartbeat CPU 0 instructions: 430000001 cycles: 605459980 heartbeat IPC: 0.746298 cumulative IPC: 0.709797 (Simulation time: 1 hr 25 min 33 sec) 
Heartbeat CPU 0 instructions: 431000000 cycles: 607312805 heartbeat IPC: 0.539716 cumulative IPC: 0.709266 (Simulation time: 1 hr 25 min 46 sec) 
Heartbeat CPU 0 instructions: 432000000 cycles: 608618051 heartbeat IPC: 0.766139 cumulative IPC: 0.709391 (Simulation time: 1 hr 25 min 57 sec) 
Heartbeat CPU 0 instructions: 433000003 cycles: 609973822 heartbeat IPC: 0.73759 cumulative IPC: 0.709455 (Simulation time: 1 hr 26 min 10 sec) 
Heartbeat CPU 0 instructions: 434000003 cycles: 611735338 heartbeat IPC: 0.567693 cumulative IPC: 0.709038 (Simulation time: 1 hr 26 min 23 sec) 
Heartbeat CPU 0 instructions: 435000003 cycles: 613133797 heartbeat IPC: 0.715073 cumulative IPC: 0.709052 (Simulation time: 1 hr 26 min 34 sec) 
Heartbeat CPU 0 instructions: 436000001 cycles: 614478972 heartbeat IPC: 0.743396 cumulative IPC: 0.709129 (Simulation time: 1 hr 26 min 47 sec) 
Heartbeat CPU 0 instructions: 437000003 cycles: 615996147 heartbeat IPC: 0.659121 cumulative IPC: 0.709003 (Simulation time: 1 hr 27 min 0 sec) 
Heartbeat CPU 0 instructions: 438000003 cycles: 617736262 heartbeat IPC: 0.574675 cumulative IPC: 0.708616 (Simulation time: 1 hr 27 min 13 sec) 
Heartbeat CPU 0 instructions: 439000002 cycles: 618938672 heartbeat IPC: 0.831662 cumulative IPC: 0.70886 (Simulation time: 1 hr 27 min 24 sec) 
Heartbeat CPU 0 instructions: 440000000 cycles: 620285403 heartbeat IPC: 0.742537 cumulative IPC: 0.708935 (Simulation time: 1 hr 27 min 36 sec) 
Heartbeat CPU 0 instructions: 441000000 cycles: 622112080 heartbeat IPC: 0.547442 cumulative IPC: 0.70845 (Simulation time: 1 hr 27 min 50 sec) 
Heartbeat CPU 0 instructions: 442000003 cycles: 623363683 heartbeat IPC: 0.798978 cumulative IPC: 0.708636 (Simulation time: 1 hr 28 min 1 sec) 
Heartbeat CPU 0 instructions: 443000000 cycles: 624711924 heartbeat IPC: 0.741705 cumulative IPC: 0.708709 (Simulation time: 1 hr 28 min 11 sec) 
Heartbeat CPU 0 instructions: 444000002 cycles: 626493454 heartbeat IPC: 0.561316 cumulative IPC: 0.70828 (Simulation time: 1 hr 28 min 24 sec) 
Heartbeat CPU 0 instructions: 445000001 cycles: 627792771 heartbeat IPC: 0.769634 cumulative IPC: 0.70841 (Simulation time: 1 hr 28 min 36 sec) 
Heartbeat CPU 0 instructions: 446000000 cycles: 629139907 heartbeat IPC: 0.742315 cumulative IPC: 0.708484 (Simulation time: 1 hr 28 min 48 sec) 
Heartbeat CPU 0 instructions: 447000000 cycles: 630859785 heartbeat IPC: 0.581437 cumulative IPC: 0.70813 (Simulation time: 1 hr 29 min 2 sec) 
Heartbeat CPU 0 instructions: 448000001 cycles: 631738495 heartbeat IPC: 1.13803 cumulative IPC: 0.708742 (Simulation time: 1 hr 29 min 11 sec) 
Heartbeat CPU 0 instructions: 449000003 cycles: 632793537 heartbeat IPC: 0.947831 cumulative IPC: 0.709149 (Simulation time: 1 hr 29 min 21 sec) 
Heartbeat CPU 0 instructions: 450000002 cycles: 633999655 heartbeat IPC: 0.829105 cumulative IPC: 0.709382 (Simulation time: 1 hr 29 min 32 sec) 
Heartbeat CPU 0 instructions: 451000000 cycles: 635365866 heartbeat IPC: 0.73195 cumulative IPC: 0.709432 (Simulation time: 1 hr 29 min 45 sec) 
Heartbeat CPU 0 instructions: 452000001 cycles: 637202939 heartbeat IPC: 0.544345 cumulative IPC: 0.708946 (Simulation time: 1 hr 29 min 58 sec) 
Heartbeat CPU 0 instructions: 453000003 cycles: 638473394 heartbeat IPC: 0.787121 cumulative IPC: 0.709105 (Simulation time: 1 hr 30 min 9 sec) 
Heartbeat CPU 0 instructions: 454000002 cycles: 639815519 heartbeat IPC: 0.745086 cumulative IPC: 0.709182 (Simulation time: 1 hr 30 min 22 sec) 
Heartbeat CPU 0 instructions: 455000001 cycles: 641557922 heartbeat IPC: 0.573919 cumulative IPC: 0.708806 (Simulation time: 1 hr 30 min 35 sec) 
Heartbeat CPU 0 instructions: 456000003 cycles: 642938894 heartbeat IPC: 0.724129 cumulative IPC: 0.70884 (Simulation time: 1 hr 30 min 46 sec) 
Heartbeat CPU 0 instructions: 457000001 cycles: 644285935 heartbeat IPC: 0.742366 cumulative IPC: 0.708912 (Simulation time: 1 hr 30 min 56 sec) 
Heartbeat CPU 0 instructions: 458000003 cycles: 645943361 heartbeat IPC: 0.603346 cumulative IPC: 0.708635 (Simulation time: 1 hr 31 min 10 sec) 
Heartbeat CPU 0 instructions: 459000003 cycles: 647442591 heartbeat IPC: 0.667009 cumulative IPC: 0.708536 (Simulation time: 1 hr 31 min 21 sec) 
Heartbeat CPU 0 instructions: 460000001 cycles: 648751730 heartbeat IPC: 0.763859 cumulative IPC: 0.70865 (Simulation time: 1 hr 31 min 33 sec) 
Heartbeat CPU 0 instructions: 461000002 cycles: 650198576 heartbeat IPC: 0.691159 cumulative IPC: 0.708611 (Simulation time: 1 hr 31 min 46 sec) 
Heartbeat CPU 0 instructions: 462000000 cycles: 652014966 heartbeat IPC: 0.550541 cumulative IPC: 0.708161 (Simulation time: 1 hr 31 min 59 sec) 
Heartbeat CPU 0 instructions: 463000001 cycles: 653249103 heartbeat IPC: 0.810284 cumulative IPC: 0.708358 (Simulation time: 1 hr 32 min 10 sec) 
Heartbeat CPU 0 instructions: 464000002 cycles: 654593355 heartbeat IPC: 0.743909 cumulative IPC: 0.708432 (Simulation time: 1 hr 32 min 22 sec) 
Heartbeat CPU 0 instructions: 465000003 cycles: 656526977 heartbeat IPC: 0.517165 cumulative IPC: 0.707857 (Simulation time: 1 hr 32 min 35 sec) 
Heartbeat CPU 0 instructions: 466000000 cycles: 657851526 heartbeat IPC: 0.754972 cumulative IPC: 0.707954 (Simulation time: 1 hr 32 min 47 sec) 
Heartbeat CPU 0 instructions: 467000003 cycles: 659215343 heartbeat IPC: 0.733238 cumulative IPC: 0.708007 (Simulation time: 1 hr 32 min 58 sec) 
Heartbeat CPU 0 instructions: 468000002 cycles: 661026085 heartbeat IPC: 0.552259 cumulative IPC: 0.707572 (Simulation time: 1 hr 33 min 12 sec) 
Heartbeat CPU 0 instructions: 469000000 cycles: 662620066 heartbeat IPC: 0.627359 cumulative IPC: 0.707375 (Simulation time: 1 hr 33 min 24 sec) 
Heartbeat CPU 0 instructions: 470000003 cycles: 663931234 heartbeat IPC: 0.762681 cumulative IPC: 0.707486 (Simulation time: 1 hr 33 min 36 sec) 
Heartbeat CPU 0 instructions: 471000000 cycles: 665373477 heartbeat IPC: 0.693362 cumulative IPC: 0.707455 (Simulation time: 1 hr 33 min 48 sec) 
Heartbeat CPU 0 instructions: 472000002 cycles: 667306695 heartbeat IPC: 0.517273 cumulative IPC: 0.706892 (Simulation time: 1 hr 34 min 1 sec) 
Heartbeat CPU 0 instructions: 473000000 cycles: 668572384 heartbeat IPC: 0.790082 cumulative IPC: 0.707053 (Simulation time: 1 hr 34 min 12 sec) 
Heartbeat CPU 0 instructions: 474000003 cycles: 669927358 heartbeat IPC: 0.738024 cumulative IPC: 0.707117 (Simulation time: 1 hr 34 min 24 sec) 
Heartbeat CPU 0 instructions: 475000000 cycles: 671875717 heartbeat IPC: 0.513251 cumulative IPC: 0.706543 (Simulation time: 1 hr 34 min 38 sec) 
Heartbeat CPU 0 instructions: 476000003 cycles: 673213319 heartbeat IPC: 0.747609 cumulative IPC: 0.706626 (Simulation time: 1 hr 34 min 49 sec) 
Heartbeat CPU 0 instructions: 477000002 cycles: 674571642 heartbeat IPC: 0.736201 cumulative IPC: 0.706687 (Simulation time: 1 hr 35 min 1 sec) 
Heartbeat CPU 0 instructions: 478000002 cycles: 676306136 heartbeat IPC: 0.576537 cumulative IPC: 0.706347 (Simulation time: 1 hr 35 min 15 sec) 
Heartbeat CPU 0 instructions: 479000000 cycles: 678052858 heartbeat IPC: 0.5725 cumulative IPC: 0.705995 (Simulation time: 1 hr 35 min 27 sec) 
Heartbeat CPU 0 instructions: 480000000 cycles: 679319106 heartbeat IPC: 0.789735 cumulative IPC: 0.706154 (Simulation time: 1 hr 35 min 39 sec) 
Heartbeat CPU 0 instructions: 481000003 cycles: 680677676 heartbeat IPC: 0.73607 cumulative IPC: 0.706215 (Simulation time: 1 hr 35 min 51 sec) 
Heartbeat CPU 0 instructions: 482000000 cycles: 682911671 heartbeat IPC: 0.447627 cumulative IPC: 0.705352 (Simulation time: 1 hr 36 min 6 sec) 
Heartbeat CPU 0 instructions: 483000003 cycles: 684240282 heartbeat IPC: 0.752668 cumulative IPC: 0.705445 (Simulation time: 1 hr 36 min 17 sec) 
Heartbeat CPU 0 instructions: 484000000 cycles: 685608873 heartbeat IPC: 0.730676 cumulative IPC: 0.705497 (Simulation time: 1 hr 36 min 29 sec) 
Heartbeat CPU 0 instructions: 485000003 cycles: 687444476 heartbeat IPC: 0.544782 cumulative IPC: 0.705059 (Simulation time: 1 hr 36 min 43 sec) 
Heartbeat CPU 0 instructions: 486000003 cycles: 689368591 heartbeat IPC: 0.519719 cumulative IPC: 0.704531 (Simulation time: 1 hr 36 min 53 sec) 
Heartbeat CPU 0 instructions: 487000003 cycles: 690625895 heartbeat IPC: 0.795353 cumulative IPC: 0.7047 (Simulation time: 1 hr 37 min 4 sec) 
Heartbeat CPU 0 instructions: 488000001 cycles: 691982362 heartbeat IPC: 0.737208 cumulative IPC: 0.704765 (Simulation time: 1 hr 37 min 16 sec) 
Heartbeat CPU 0 instructions: 489000000 cycles: 694096223 heartbeat IPC: 0.473068 cumulative IPC: 0.704045 (Simulation time: 1 hr 37 min 30 sec) 
Heartbeat CPU 0 instructions: 490000001 cycles: 695593347 heartbeat IPC: 0.667948 cumulative IPC: 0.703966 (Simulation time: 1 hr 37 min 42 sec) 
Heartbeat CPU 0 instructions: 491000000 cycles: 696957844 heartbeat IPC: 0.73287 cumulative IPC: 0.704023 (Simulation time: 1 hr 37 min 54 sec) 
Heartbeat CPU 0 instructions: 492000001 cycles: 698608957 heartbeat IPC: 0.605653 cumulative IPC: 0.703786 (Simulation time: 1 hr 38 min 8 sec) 
Heartbeat CPU 0 instructions: 493000000 cycles: 700365379 heartbeat IPC: 0.569339 cumulative IPC: 0.703442 (Simulation time: 1 hr 38 min 20 sec) 
Heartbeat CPU 0 instructions: 494000003 cycles: 701501920 heartbeat IPC: 0.879865 cumulative IPC: 0.703734 (Simulation time: 1 hr 38 min 30 sec) 
Heartbeat CPU 0 instructions: 495000000 cycles: 702861458 heartbeat IPC: 0.735542 cumulative IPC: 0.703797 (Simulation time: 1 hr 38 min 42 sec) 
Heartbeat CPU 0 instructions: 496000001 cycles: 704373360 heartbeat IPC: 0.661419 cumulative IPC: 0.703704 (Simulation time: 1 hr 38 min 55 sec) 
Heartbeat CPU 0 instructions: 497000002 cycles: 706507354 heartbeat IPC: 0.468605 cumulative IPC: 0.70298 (Simulation time: 1 hr 39 min 9 sec) 
Heartbeat CPU 0 instructions: 498000002 cycles: 707802471 heartbeat IPC: 0.772131 cumulative IPC: 0.703109 (Simulation time: 1 hr 39 min 20 sec) 
Heartbeat CPU 0 instructions: 499000001 cycles: 709169612 heartbeat IPC: 0.731453 cumulative IPC: 0.703164 (Simulation time: 1 hr 39 min 33 sec) 
Heartbeat CPU 0 instructions: 500000003 cycles: 711119577 heartbeat IPC: 0.512831 cumulative IPC: 0.702632 (Simulation time: 1 hr 39 min 45 sec) 
Heartbeat CPU 0 instructions: 501000001 cycles: 712835866 heartbeat IPC: 0.582651 cumulative IPC: 0.702338 (Simulation time: 1 hr 39 min 57 sec) 
Heartbeat CPU 0 instructions: 502000003 cycles: 714138303 heartbeat IPC: 0.767793 cumulative IPC: 0.702459 (Simulation time: 1 hr 40 min 9 sec) 
Heartbeat CPU 0 instructions: 503000003 cycles: 715518147 heartbeat IPC: 0.72472 cumulative IPC: 0.702503 (Simulation time: 1 hr 40 min 22 sec) 
Heartbeat CPU 0 instructions: 504000002 cycles: 717793081 heartbeat IPC: 0.439573 cumulative IPC: 0.701653 (Simulation time: 1 hr 40 min 36 sec) 
Heartbeat CPU 0 instructions: 505000003 cycles: 719280050 heartbeat IPC: 0.67251 cumulative IPC: 0.701592 (Simulation time: 1 hr 40 min 47 sec) 
Heartbeat CPU 0 instructions: 506000000 cycles: 720651976 heartbeat IPC: 0.7289 cumulative IPC: 0.701645 (Simulation time: 1 hr 41 min 0 sec) 
Heartbeat CPU 0 instructions: 507000002 cycles: 722333148 heartbeat IPC: 0.594824 cumulative IPC: 0.701392 (Simulation time: 1 hr 41 min 13 sec) 
Heartbeat CPU 0 instructions: 508000000 cycles: 724398576 heartbeat IPC: 0.48416 cumulative IPC: 0.70076 (Simulation time: 1 hr 41 min 27 sec) 
Heartbeat CPU 0 instructions: 509000003 cycles: 725684773 heartbeat IPC: 0.777488 cumulative IPC: 0.700899 (Simulation time: 1 hr 41 min 38 sec) 
Heartbeat CPU 0 instructions: 510000002 cycles: 727047694 heartbeat IPC: 0.733718 cumulative IPC: 0.700962 (Simulation time: 1 hr 41 min 50 sec) 
Finished CPU 0 instructions: 500000002 cycles: 713305876 cumulative IPC: 0.700962 (Simulation time: 1 hr 41 min 50 sec) 

ChampSim completed all CPUs

Region of Interest Statistics

CPU 0 cumulative IPC: 0.700962 instructions: 500000002 cycles: 713305876
L1D TOTAL     ACCESS:   74146970  HIT:   66679380  MISS:    7467590
L1D LOAD      ACCESS:   66285768  HIT:   59440401  MISS:    6845367
L1D RFO       ACCESS:    7861202  HIT:    7238979  MISS:     622223
L1D PREFETCH  ACCESS:          0  HIT:          0  MISS:          0
L1D WRITEBACK ACCESS:          0  HIT:          0  MISS:          0
L1D PREFETCH  REQUESTED:          0  ISSUED:          0  USEFUL:          0  USELESS:          0  UAC CORRECT:          0
L1D AVERAGE MISS LATENCY: 145.961 cycles
L1I TOTAL     ACCESS:   85127941  HIT:   85125466  MISS:       2475
L1I LOAD      ACCESS:   85127941  HIT:   85125466  MISS:       2475
L1I RFO       ACCESS:          0  HIT:          0  MISS:          0
L1I PREFETCH  ACCESS:          0  HIT:          0  MISS:          0
L1I WRITEBACK ACCESS:          0  HIT:          0  MISS:          0
L1I PREFETCH  REQUESTED:          0  ISSUED:          0  USEFUL:          0  USELESS:          0  UAC CORRECT:          0
L1I AVERAGE MISS LATENCY: 201.313 cycles
L2C TOTAL     ACCESS:    8189336  HIT:    1721667  MISS:    6467669
L2C LOAD      ACCESS:    6847812  HIT:     971013  MISS:    5876799
L2C RFO       ACCESS:     622212  HIT:      32914  MISS:     589298
L2C PREFETCH  ACCESS:          0  HIT:          0  MISS:          0
L2C WRITEBACK ACCESS:     719312  HIT:     717740  MISS:       1572
L2C PREFETCH  REQUESTED:          0  ISSUED:          0  USEFUL:          0  USELESS:          0  UAC CORRECT:          0
L2C AVERAGE MISS LATENCY: 151.494 cycles
LLC TOTAL     ACCESS:    7126558  HIT:    1302346  MISS:    5824212
LLC LOAD      ACCESS:    5876799  HIT:     490228  MISS:    5386571
LLC RFO       ACCESS:     589298  HIT:     152465  MISS:     436833
LLC PREFETCH  ACCESS:          0  HIT:          0  MISS:          0
LLC WRITEBACK ACCESS:     660461  HIT:     659653  MISS:        808
LLC PREFETCH  REQUESTED:          0  ISSUED:          0  USEFUL:          0  USELESS:          0  UAC CORRECT:          0
LLC AVERAGE MISS LATENCY: 133.045 cycles
Major fault: 0 Minor fault: 3757

DRAM Statistics
 CHANNEL 0
 RQ ROW_BUFFER_HIT:    2680345  ROW_BUFFER_MISS:     234026
 DBUS_CONGESTED:     827249
 WQ ROW_BUFFER_HIT:     162425  ROW_BUFFER_MISS:      92812  FULL:          0

 CHANNEL 1
 RQ ROW_BUFFER_HIT:    2675366  ROW_BUFFER_MISS:     232522
 DBUS_CONGESTED:     827249
 WQ ROW_BUFFER_HIT:     162548  ROW_BUFFER_MISS:      90727  FULL:          0

 AVG_CONGESTED_CYCLE: 17

CPU 0 Branch Prediction Accuracy: 99.2527% MPKI: 0.667582 Average ROB Occupancy at Mispredict: 154.409

Branch types
NOT_BRANCH: 455335028 91.067%
BRANCH_DIRECT_JUMP: 365968 0.0731936%
BRANCH_INDIRECT: 468 9.36e-05%
BRANCH_CONDITIONAL: 43118275 8.62365%
BRANCH_DIRECT_CALL: 589283 0.117857%
BRANCH_INDIRECT_CALL: 815 0.000163%
BRANCH_RETURN: 590098 0.11802%
BRANCH_OTHER: 0 0%


gzip: stdout: Broken pipe
