
*** ChampSim Multicore Out-of-Order Simulator ***

Warmup Instructions: 1000000
Prefetch Warmup Instructions: 10000000
Simulation Instructions: 500000000
Stat Printing Period: 1000000
Number of CPUs: 1
LLC sets: 2048
LLC ways: 16
Off-chip DRAM Size: 32768 MB Channels: 2 Width: 64-bit Data Rate: 1024 MT/s

CPU 0 runs /scratch/cluster/cmolder/ML-DPC/ChampSimTraces/spec17/602.gcc-s2.trace.xz
Read seed: 275
Heartbeat CPU 0 instructions: 1000000 cycles: 552882 heartbeat IPC: 1.8087 cumulative IPC: 1.8087 (Simulation time: 0 hr 0 min 3 sec) 

Warmup complete CPU 0 instructions: 1000001 cycles: 552884 (Simulation time: 0 hr 0 min 3 sec) 

Heartbeat CPU 0 instructions: 2000003 cycles: 1830406 heartbeat IPC: 0.782767 cumulative IPC: 0.782767 (Simulation time: 0 hr 0 min 6 sec) 
Heartbeat CPU 0 instructions: 3000000 cycles: 3620517 heartbeat IPC: 0.558623 cumulative IPC: 0.651968 (Simulation time: 0 hr 0 min 9 sec) 
Heartbeat CPU 0 instructions: 4000000 cycles: 5179864 heartbeat IPC: 0.641294 cumulative IPC: 0.648371 (Simulation time: 0 hr 0 min 12 sec) 
Heartbeat CPU 0 instructions: 5000000 cycles: 7196344 heartbeat IPC: 0.495914 cumulative IPC: 0.602096 (Simulation time: 0 hr 0 min 15 sec) 
Heartbeat CPU 0 instructions: 6000003 cycles: 8534422 heartbeat IPC: 0.747343 cumulative IPC: 0.626446 (Simulation time: 0 hr 0 min 18 sec) 
Heartbeat CPU 0 instructions: 7000002 cycles: 9819146 heartbeat IPC: 0.778377 cumulative IPC: 0.64751 (Simulation time: 0 hr 0 min 21 sec) 
Heartbeat CPU 0 instructions: 8000001 cycles: 11340771 heartbeat IPC: 0.657192 cumulative IPC: 0.648876 (Simulation time: 0 hr 0 min 24 sec) 
Heartbeat CPU 0 instructions: 9000000 cycles: 12791185 heartbeat IPC: 0.689458 cumulative IPC: 0.653685 (Simulation time: 0 hr 0 min 28 sec) 
Heartbeat CPU 0 instructions: 10000000 cycles: 14392417 heartbeat IPC: 0.624519 cumulative IPC: 0.650311 (Simulation time: 0 hr 0 min 30 sec) 

Warmup complete CPU 0 instructions: 10000003 cycles: 14392418 (Simulation time: 0 hr 0 min 30 sec) 

Heartbeat CPU 0 instructions: 11000000 cycles: 15900576 heartbeat IPC: 0.66306 cumulative IPC: 0.663059 (Simulation time: 0 hr 0 min 33 sec) 
Heartbeat CPU 0 instructions: 12000001 cycles: 17061201 heartbeat IPC: 0.861606 cumulative IPC: 0.749404 (Simulation time: 0 hr 0 min 36 sec) 
Heartbeat CPU 0 instructions: 13000001 cycles: 18510983 heartbeat IPC: 0.689759 cumulative IPC: 0.728409 (Simulation time: 0 hr 0 min 39 sec) 
Heartbeat CPU 0 instructions: 14000001 cycles: 19470252 heartbeat IPC: 1.04246 cumulative IPC: 0.787737 (Simulation time: 0 hr 0 min 42 sec) 
Heartbeat CPU 0 instructions: 15000003 cycles: 20621825 heartbeat IPC: 0.868379 cumulative IPC: 0.802645 (Simulation time: 0 hr 0 min 45 sec) 
Heartbeat CPU 0 instructions: 16000000 cycles: 22330302 heartbeat IPC: 0.585315 cumulative IPC: 0.755869 (Simulation time: 0 hr 0 min 48 sec) 
Heartbeat CPU 0 instructions: 17000000 cycles: 23677725 heartbeat IPC: 0.742157 cumulative IPC: 0.753879 (Simulation time: 0 hr 0 min 51 sec) 
Heartbeat CPU 0 instructions: 18000000 cycles: 25039887 heartbeat IPC: 0.734127 cumulative IPC: 0.751352 (Simulation time: 0 hr 0 min 54 sec) 
Heartbeat CPU 0 instructions: 19000000 cycles: 26251041 heartbeat IPC: 0.825659 cumulative IPC: 0.758941 (Simulation time: 0 hr 0 min 57 sec) 
Heartbeat CPU 0 instructions: 20000000 cycles: 27446940 heartbeat IPC: 0.836191 cumulative IPC: 0.766018 (Simulation time: 0 hr 1 min 0 sec) 
Heartbeat CPU 0 instructions: 21000001 cycles: 28661992 heartbeat IPC: 0.823011 cumulative IPC: 0.770871 (Simulation time: 0 hr 1 min 3 sec) 
Heartbeat CPU 0 instructions: 22000000 cycles: 29800649 heartbeat IPC: 0.878227 cumulative IPC: 0.778804 (Simulation time: 0 hr 1 min 6 sec) 
Heartbeat CPU 0 instructions: 23000002 cycles: 30953436 heartbeat IPC: 0.867465 cumulative IPC: 0.784976 (Simulation time: 0 hr 1 min 10 sec) 
Heartbeat CPU 0 instructions: 24000001 cycles: 32108485 heartbeat IPC: 0.865763 cumulative IPC: 0.790243 (Simulation time: 0 hr 1 min 13 sec) 
Heartbeat CPU 0 instructions: 25000001 cycles: 33202435 heartbeat IPC: 0.914119 cumulative IPC: 0.797447 (Simulation time: 0 hr 1 min 16 sec) 
Heartbeat CPU 0 instructions: 26000002 cycles: 34365769 heartbeat IPC: 0.859599 cumulative IPC: 0.801067 (Simulation time: 0 hr 1 min 19 sec) 
Heartbeat CPU 0 instructions: 27000000 cycles: 35467404 heartbeat IPC: 0.90774 cumulative IPC: 0.806643 (Simulation time: 0 hr 1 min 22 sec) 
Heartbeat CPU 0 instructions: 28000002 cycles: 36652432 heartbeat IPC: 0.843864 cumulative IPC: 0.808625 (Simulation time: 0 hr 1 min 26 sec) 
Heartbeat CPU 0 instructions: 29000003 cycles: 37976133 heartbeat IPC: 0.755458 cumulative IPC: 0.805641 (Simulation time: 0 hr 1 min 28 sec) 
Heartbeat CPU 0 instructions: 30000000 cycles: 39465776 heartbeat IPC: 0.6713 cumulative IPC: 0.797659 (Simulation time: 0 hr 1 min 31 sec) 
Heartbeat CPU 0 instructions: 31000003 cycles: 40692123 heartbeat IPC: 0.815432 cumulative IPC: 0.798488 (Simulation time: 0 hr 1 min 34 sec) 
Heartbeat CPU 0 instructions: 32000001 cycles: 41761733 heartbeat IPC: 0.934918 cumulative IPC: 0.80382 (Simulation time: 0 hr 1 min 37 sec) 
Heartbeat CPU 0 instructions: 33000000 cycles: 43046028 heartbeat IPC: 0.778637 cumulative IPC: 0.802691 (Simulation time: 0 hr 1 min 39 sec) 
Heartbeat CPU 0 instructions: 34000000 cycles: 44107899 heartbeat IPC: 0.941734 cumulative IPC: 0.80766 (Simulation time: 0 hr 1 min 41 sec) 
Heartbeat CPU 0 instructions: 35000000 cycles: 45340569 heartbeat IPC: 0.811247 cumulative IPC: 0.807803 (Simulation time: 0 hr 1 min 44 sec) 
Heartbeat CPU 0 instructions: 36000000 cycles: 46599407 heartbeat IPC: 0.794383 cumulative IPC: 0.807278 (Simulation time: 0 hr 1 min 47 sec) 
Heartbeat CPU 0 instructions: 37000002 cycles: 47843637 heartbeat IPC: 0.803712 cumulative IPC: 0.807145 (Simulation time: 0 hr 1 min 49 sec) 
Heartbeat CPU 0 instructions: 38000000 cycles: 48976926 heartbeat IPC: 0.882386 cumulative IPC: 0.809611 (Simulation time: 0 hr 1 min 51 sec) 
Heartbeat CPU 0 instructions: 39000000 cycles: 50570896 heartbeat IPC: 0.627364 cumulative IPC: 0.801581 (Simulation time: 0 hr 1 min 54 sec) 
Heartbeat CPU 0 instructions: 40000001 cycles: 51694851 heartbeat IPC: 0.889716 cumulative IPC: 0.804237 (Simulation time: 0 hr 1 min 57 sec) 
Heartbeat CPU 0 instructions: 41000000 cycles: 52832882 heartbeat IPC: 0.87871 cumulative IPC: 0.806442 (Simulation time: 0 hr 2 min 0 sec) 
Heartbeat CPU 0 instructions: 42000000 cycles: 54241644 heartbeat IPC: 0.709843 cumulative IPC: 0.803027 (Simulation time: 0 hr 2 min 3 sec) 
Heartbeat CPU 0 instructions: 43000003 cycles: 55111155 heartbeat IPC: 1.15008 cumulative IPC: 0.810438 (Simulation time: 0 hr 2 min 5 sec) 
Heartbeat CPU 0 instructions: 44000000 cycles: 55699223 heartbeat IPC: 1.70048 cumulative IPC: 0.823109 (Simulation time: 0 hr 2 min 8 sec) 
Heartbeat CPU 0 instructions: 45000000 cycles: 56622428 heartbeat IPC: 1.08318 cumulative IPC: 0.828794 (Simulation time: 0 hr 2 min 11 sec) 
Heartbeat CPU 0 instructions: 46000000 cycles: 57819527 heartbeat IPC: 0.835353 cumulative IPC: 0.828975 (Simulation time: 0 hr 2 min 14 sec) 
Heartbeat CPU 0 instructions: 47000001 cycles: 58410914 heartbeat IPC: 1.69094 cumulative IPC: 0.840556 (Simulation time: 0 hr 2 min 17 sec) 
Heartbeat CPU 0 instructions: 48000002 cycles: 58985487 heartbeat IPC: 1.74042 cumulative IPC: 0.85215 (Simulation time: 0 hr 2 min 20 sec) 
Heartbeat CPU 0 instructions: 49000001 cycles: 60068122 heartbeat IPC: 0.923671 cumulative IPC: 0.853846 (Simulation time: 0 hr 2 min 24 sec) 
Heartbeat CPU 0 instructions: 50000000 cycles: 61247896 heartbeat IPC: 0.847619 cumulative IPC: 0.853689 (Simulation time: 0 hr 2 min 27 sec) 
Heartbeat CPU 0 instructions: 51000000 cycles: 62171563 heartbeat IPC: 1.08264 cumulative IPC: 0.858115 (Simulation time: 0 hr 2 min 29 sec) 
Heartbeat CPU 0 instructions: 52000000 cycles: 63279214 heartbeat IPC: 0.902811 cumulative IPC: 0.859128 (Simulation time: 0 hr 2 min 32 sec) 
Heartbeat CPU 0 instructions: 53000001 cycles: 64357980 heartbeat IPC: 0.926986 cumulative IPC: 0.860593 (Simulation time: 0 hr 2 min 35 sec) 
Heartbeat CPU 0 instructions: 54000002 cycles: 65107173 heartbeat IPC: 1.33477 cumulative IPC: 0.867598 (Simulation time: 0 hr 2 min 36 sec) 
Heartbeat CPU 0 instructions: 55000000 cycles: 66044657 heartbeat IPC: 1.06668 cumulative IPC: 0.871211 (Simulation time: 0 hr 2 min 38 sec) 
Heartbeat CPU 0 instructions: 56000003 cycles: 67025871 heartbeat IPC: 1.01915 cumulative IPC: 0.873969 (Simulation time: 0 hr 2 min 41 sec) 
Heartbeat CPU 0 instructions: 57000001 cycles: 67869106 heartbeat IPC: 1.18591 cumulative IPC: 0.878888 (Simulation time: 0 hr 2 min 43 sec) 
Heartbeat CPU 0 instructions: 58000000 cycles: 68749259 heartbeat IPC: 1.13616 cumulative IPC: 0.883053 (Simulation time: 0 hr 2 min 45 sec) 
Heartbeat CPU 0 instructions: 59000001 cycles: 69608858 heartbeat IPC: 1.16333 cumulative IPC: 0.887417 (Simulation time: 0 hr 2 min 48 sec) 
Heartbeat CPU 0 instructions: 60000000 cycles: 70589451 heartbeat IPC: 1.01979 cumulative IPC: 0.889727 (Simulation time: 0 hr 2 min 50 sec) 
Heartbeat CPU 0 instructions: 61000002 cycles: 72047541 heartbeat IPC: 0.68583 cumulative IPC: 0.88457 (Simulation time: 0 hr 2 min 53 sec) 
Heartbeat CPU 0 instructions: 62000002 cycles: 73519830 heartbeat IPC: 0.679214 cumulative IPC: 0.879457 (Simulation time: 0 hr 2 min 56 sec) 
Heartbeat CPU 0 instructions: 63000002 cycles: 74992549 heartbeat IPC: 0.679016 cumulative IPC: 0.874586 (Simulation time: 0 hr 2 min 59 sec) 
Heartbeat CPU 0 instructions: 64000000 cycles: 76531677 heartbeat IPC: 0.649717 cumulative IPC: 0.869016 (Simulation time: 0 hr 3 min 2 sec) 
Heartbeat CPU 0 instructions: 65000002 cycles: 77802968 heartbeat IPC: 0.786604 cumulative IPC: 0.867364 (Simulation time: 0 hr 3 min 5 sec) 
Heartbeat CPU 0 instructions: 66000000 cycles: 79479320 heartbeat IPC: 0.596532 cumulative IPC: 0.860388 (Simulation time: 0 hr 3 min 8 sec) 
Heartbeat CPU 0 instructions: 67000000 cycles: 80759500 heartbeat IPC: 0.78114 cumulative IPC: 0.858859 (Simulation time: 0 hr 3 min 10 sec) 
Heartbeat CPU 0 instructions: 68000001 cycles: 81893085 heartbeat IPC: 0.882158 cumulative IPC: 0.859251 (Simulation time: 0 hr 3 min 12 sec) 
Heartbeat CPU 0 instructions: 69000000 cycles: 83226460 heartbeat IPC: 0.749976 cumulative IPC: 0.857134 (Simulation time: 0 hr 3 min 15 sec) 
Heartbeat CPU 0 instructions: 70000003 cycles: 84319735 heartbeat IPC: 0.914686 cumulative IPC: 0.858034 (Simulation time: 0 hr 3 min 17 sec) 
Heartbeat CPU 0 instructions: 71000001 cycles: 85874153 heartbeat IPC: 0.643326 cumulative IPC: 0.853365 (Simulation time: 0 hr 3 min 20 sec) 
Heartbeat CPU 0 instructions: 72000000 cycles: 86745216 heartbeat IPC: 1.14802 cumulative IPC: 0.856912 (Simulation time: 0 hr 3 min 22 sec) 
Heartbeat CPU 0 instructions: 73000000 cycles: 87531890 heartbeat IPC: 1.27117 cumulative IPC: 0.861368 (Simulation time: 0 hr 3 min 25 sec) 
Heartbeat CPU 0 instructions: 74000001 cycles: 88300546 heartbeat IPC: 1.30097 cumulative IPC: 0.86594 (Simulation time: 0 hr 3 min 28 sec) 
Heartbeat CPU 0 instructions: 75000000 cycles: 89112844 heartbeat IPC: 1.23107 cumulative IPC: 0.869909 (Simulation time: 0 hr 3 min 29 sec) 
Heartbeat CPU 0 instructions: 76000001 cycles: 89860152 heartbeat IPC: 1.33814 cumulative IPC: 0.874546 (Simulation time: 0 hr 3 min 31 sec) 
Heartbeat CPU 0 instructions: 77000000 cycles: 90772050 heartbeat IPC: 1.09661 cumulative IPC: 0.877197 (Simulation time: 0 hr 3 min 32 sec) 
Heartbeat CPU 0 instructions: 78000001 cycles: 91693342 heartbeat IPC: 1.08543 cumulative IPC: 0.879679 (Simulation time: 0 hr 3 min 35 sec) 
Heartbeat CPU 0 instructions: 79000000 cycles: 92452159 heartbeat IPC: 1.31784 cumulative IPC: 0.883938 (Simulation time: 0 hr 3 min 38 sec) 
Heartbeat CPU 0 instructions: 80000000 cycles: 93190865 heartbeat IPC: 1.35372 cumulative IPC: 0.888342 (Simulation time: 0 hr 3 min 40 sec) 
Heartbeat CPU 0 instructions: 81000002 cycles: 93935883 heartbeat IPC: 1.34225 cumulative IPC: 0.892594 (Simulation time: 0 hr 3 min 42 sec) 
Heartbeat CPU 0 instructions: 82000000 cycles: 94668354 heartbeat IPC: 1.36524 cumulative IPC: 0.896906 (Simulation time: 0 hr 3 min 44 sec) 
Heartbeat CPU 0 instructions: 83000003 cycles: 95387233 heartbeat IPC: 1.39106 cumulative IPC: 0.901292 (Simulation time: 0 hr 3 min 46 sec) 
Heartbeat CPU 0 instructions: 84000000 cycles: 96205934 heartbeat IPC: 1.22144 cumulative IPC: 0.904496 (Simulation time: 0 hr 3 min 48 sec) 
Heartbeat CPU 0 instructions: 85000000 cycles: 96965293 heartbeat IPC: 1.3169 cumulative IPC: 0.908289 (Simulation time: 0 hr 3 min 51 sec) 
Heartbeat CPU 0 instructions: 86000003 cycles: 97701628 heartbeat IPC: 1.35808 cumulative IPC: 0.912264 (Simulation time: 0 hr 3 min 53 sec) 
Heartbeat CPU 0 instructions: 87000003 cycles: 98423341 heartbeat IPC: 1.38559 cumulative IPC: 0.916329 (Simulation time: 0 hr 3 min 56 sec) 
Heartbeat CPU 0 instructions: 88000000 cycles: 99136427 heartbeat IPC: 1.40235 cumulative IPC: 0.920419 (Simulation time: 0 hr 3 min 58 sec) 
Heartbeat CPU 0 instructions: 89000000 cycles: 99846943 heartbeat IPC: 1.40743 cumulative IPC: 0.924468 (Simulation time: 0 hr 3 min 59 sec) 
Heartbeat CPU 0 instructions: 90000000 cycles: 100810600 heartbeat IPC: 1.03771 cumulative IPC: 0.925731 (Simulation time: 0 hr 4 min 1 sec) 
Heartbeat CPU 0 instructions: 91000000 cycles: 101763023 heartbeat IPC: 1.04995 cumulative IPC: 0.927085 (Simulation time: 0 hr 4 min 3 sec) 
Heartbeat CPU 0 instructions: 92000002 cycles: 102640587 heartbeat IPC: 1.13952 cumulative IPC: 0.929198 (Simulation time: 0 hr 4 min 5 sec) 
Heartbeat CPU 0 instructions: 93000002 cycles: 103506782 heartbeat IPC: 1.15447 cumulative IPC: 0.931387 (Simulation time: 0 hr 4 min 8 sec) 
Heartbeat CPU 0 instructions: 94000000 cycles: 104346503 heartbeat IPC: 1.19087 cumulative IPC: 0.93381 (Simulation time: 0 hr 4 min 10 sec) 
Heartbeat CPU 0 instructions: 95000001 cycles: 105673768 heartbeat IPC: 0.75343 cumulative IPC: 0.931187 (Simulation time: 0 hr 4 min 13 sec) 
Heartbeat CPU 0 instructions: 96000003 cycles: 107165818 heartbeat IPC: 0.67022 cumulative IPC: 0.92699 (Simulation time: 0 hr 4 min 16 sec) 
Heartbeat CPU 0 instructions: 97000001 cycles: 108589543 heartbeat IPC: 0.702381 cumulative IPC: 0.923595 (Simulation time: 0 hr 4 min 20 sec) 
Heartbeat CPU 0 instructions: 98000001 cycles: 109831686 heartbeat IPC: 0.80506 cumulative IPC: 0.922052 (Simulation time: 0 hr 4 min 23 sec) 
Heartbeat CPU 0 instructions: 99000000 cycles: 111036854 heartbeat IPC: 0.829759 cumulative IPC: 0.920901 (Simulation time: 0 hr 4 min 26 sec) 
Heartbeat CPU 0 instructions: 100000000 cycles: 112761799 heartbeat IPC: 0.579729 cumulative IPC: 0.914919 (Simulation time: 0 hr 4 min 30 sec) 
Heartbeat CPU 0 instructions: 101000002 cycles: 114167302 heartbeat IPC: 0.71149 cumulative IPC: 0.912053 (Simulation time: 0 hr 4 min 32 sec) 
Heartbeat CPU 0 instructions: 102000000 cycles: 115271237 heartbeat IPC: 0.905849 cumulative IPC: 0.911985 (Simulation time: 0 hr 4 min 35 sec) 
Heartbeat CPU 0 instructions: 103000003 cycles: 116337616 heartbeat IPC: 0.937756 cumulative IPC: 0.912255 (Simulation time: 0 hr 4 min 38 sec) 
Heartbeat CPU 0 instructions: 104000003 cycles: 117420716 heartbeat IPC: 0.923276 cumulative IPC: 0.912371 (Simulation time: 0 hr 4 min 41 sec) 
Heartbeat CPU 0 instructions: 105000000 cycles: 118527997 heartbeat IPC: 0.90311 cumulative IPC: 0.912272 (Simulation time: 0 hr 4 min 44 sec) 
Heartbeat CPU 0 instructions: 106000002 cycles: 119701572 heartbeat IPC: 0.852099 cumulative IPC: 0.911602 (Simulation time: 0 hr 4 min 47 sec) 
Heartbeat CPU 0 instructions: 107000002 cycles: 120715060 heartbeat IPC: 0.986692 cumulative IPC: 0.912317 (Simulation time: 0 hr 4 min 50 sec) 
Heartbeat CPU 0 instructions: 108000001 cycles: 121712012 heartbeat IPC: 1.00306 cumulative IPC: 0.91316 (Simulation time: 0 hr 4 min 53 sec) 
Heartbeat CPU 0 instructions: 109000000 cycles: 122763720 heartbeat IPC: 0.950833 cumulative IPC: 0.913526 (Simulation time: 0 hr 4 min 56 sec) 
Heartbeat CPU 0 instructions: 110000000 cycles: 123844345 heartbeat IPC: 0.92539 cumulative IPC: 0.913643 (Simulation time: 0 hr 4 min 59 sec) 
Heartbeat CPU 0 instructions: 111000002 cycles: 125018495 heartbeat IPC: 0.851682 cumulative IPC: 0.912985 (Simulation time: 0 hr 5 min 2 sec) 
Heartbeat CPU 0 instructions: 112000000 cycles: 126346607 heartbeat IPC: 0.752947 cumulative IPC: 0.911087 (Simulation time: 0 hr 5 min 5 sec) 
Heartbeat CPU 0 instructions: 113000001 cycles: 127750512 heartbeat IPC: 0.7123 cumulative IPC: 0.908625 (Simulation time: 0 hr 5 min 8 sec) 
Heartbeat CPU 0 instructions: 114000002 cycles: 128920883 heartbeat IPC: 0.854431 cumulative IPC: 0.908071 (Simulation time: 0 hr 5 min 11 sec) 
Heartbeat CPU 0 instructions: 115000001 cycles: 130054091 heartbeat IPC: 0.88245 cumulative IPC: 0.90782 (Simulation time: 0 hr 5 min 14 sec) 
Heartbeat CPU 0 instructions: 116000001 cycles: 131656521 heartbeat IPC: 0.624052 cumulative IPC: 0.903942 (Simulation time: 0 hr 5 min 18 sec) 
Heartbeat CPU 0 instructions: 117000003 cycles: 133109603 heartbeat IPC: 0.688194 cumulative IPC: 0.901302 (Simulation time: 0 hr 5 min 21 sec) 
Heartbeat CPU 0 instructions: 118000000 cycles: 134439519 heartbeat IPC: 0.751925 cumulative IPC: 0.899647 (Simulation time: 0 hr 5 min 24 sec) 
Heartbeat CPU 0 instructions: 119000000 cycles: 135735972 heartbeat IPC: 0.771335 cumulative IPC: 0.898276 (Simulation time: 0 hr 5 min 27 sec) 
Heartbeat CPU 0 instructions: 120000001 cycles: 137395626 heartbeat IPC: 0.602536 cumulative IPC: 0.894286 (Simulation time: 0 hr 5 min 30 sec) 
Heartbeat CPU 0 instructions: 121000000 cycles: 138968336 heartbeat IPC: 0.635844 cumulative IPC: 0.891023 (Simulation time: 0 hr 5 min 33 sec) 
Heartbeat CPU 0 instructions: 122000001 cycles: 140259703 heartbeat IPC: 0.774374 cumulative IPC: 0.889826 (Simulation time: 0 hr 5 min 36 sec) 
Heartbeat CPU 0 instructions: 123000000 cycles: 141741417 heartbeat IPC: 0.674893 cumulative IPC: 0.887325 (Simulation time: 0 hr 5 min 39 sec) 
Heartbeat CPU 0 instructions: 124000000 cycles: 143100794 heartbeat IPC: 0.735631 cumulative IPC: 0.885723 (Simulation time: 0 hr 5 min 42 sec) 
Heartbeat CPU 0 instructions: 125000003 cycles: 144393093 heartbeat IPC: 0.773817 cumulative IPC: 0.884611 (Simulation time: 0 hr 5 min 45 sec) 
Heartbeat CPU 0 instructions: 126000000 cycles: 145901411 heartbeat IPC: 0.662988 cumulative IPC: 0.882069 (Simulation time: 0 hr 5 min 48 sec) 
Heartbeat CPU 0 instructions: 127000000 cycles: 147060783 heartbeat IPC: 0.862536 cumulative IPC: 0.881898 (Simulation time: 0 hr 5 min 51 sec) 
Heartbeat CPU 0 instructions: 128000002 cycles: 147866329 heartbeat IPC: 1.2414 cumulative IPC: 0.884068 (Simulation time: 0 hr 5 min 54 sec) 
Heartbeat CPU 0 instructions: 129000001 cycles: 148679886 heartbeat IPC: 1.22917 cumulative IPC: 0.886159 (Simulation time: 0 hr 5 min 57 sec) 
Heartbeat CPU 0 instructions: 130000001 cycles: 149930728 heartbeat IPC: 0.799461 cumulative IPC: 0.885359 (Simulation time: 0 hr 6 min 0 sec) 
Heartbeat CPU 0 instructions: 131000002 cycles: 151502446 heartbeat IPC: 0.636247 cumulative IPC: 0.882503 (Simulation time: 0 hr 6 min 3 sec) 
Heartbeat CPU 0 instructions: 132000000 cycles: 152623532 heartbeat IPC: 0.89199 cumulative IPC: 0.88258 (Simulation time: 0 hr 6 min 7 sec) 
Heartbeat CPU 0 instructions: 133000001 cycles: 153942753 heartbeat IPC: 0.758024 cumulative IPC: 0.881402 (Simulation time: 0 hr 6 min 10 sec) 
Heartbeat CPU 0 instructions: 134000000 cycles: 155136508 heartbeat IPC: 0.837692 cumulative IPC: 0.881032 (Simulation time: 0 hr 6 min 13 sec) 
Heartbeat CPU 0 instructions: 135000001 cycles: 156633763 heartbeat IPC: 0.66789 cumulative IPC: 0.878788 (Simulation time: 0 hr 6 min 16 sec) 
Heartbeat CPU 0 instructions: 136000001 cycles: 158146045 heartbeat IPC: 0.661252 cumulative IPC: 0.8765 (Simulation time: 0 hr 6 min 19 sec) 
Heartbeat CPU 0 instructions: 137000000 cycles: 159940771 heartbeat IPC: 0.557188 cumulative IPC: 0.872562 (Simulation time: 0 hr 6 min 22 sec) 
Heartbeat CPU 0 instructions: 138000000 cycles: 161080064 heartbeat IPC: 0.877737 cumulative IPC: 0.872602 (Simulation time: 0 hr 6 min 25 sec) 
Heartbeat CPU 0 instructions: 139000001 cycles: 162182427 heartbeat IPC: 0.907143 cumulative IPC: 0.87286 (Simulation time: 0 hr 6 min 28 sec) 
Heartbeat CPU 0 instructions: 140000000 cycles: 163295847 heartbeat IPC: 0.898133 cumulative IPC: 0.873049 (Simulation time: 0 hr 6 min 31 sec) 
Heartbeat CPU 0 instructions: 141000000 cycles: 164441924 heartbeat IPC: 0.872542 cumulative IPC: 0.873045 (Simulation time: 0 hr 6 min 34 sec) 
Heartbeat CPU 0 instructions: 142000000 cycles: 165487458 heartbeat IPC: 0.956449 cumulative IPC: 0.873622 (Simulation time: 0 hr 6 min 37 sec) 
Heartbeat CPU 0 instructions: 143000000 cycles: 166586323 heartbeat IPC: 0.91003 cumulative IPC: 0.873885 (Simulation time: 0 hr 6 min 40 sec) 
Heartbeat CPU 0 instructions: 144000001 cycles: 167642096 heartbeat IPC: 0.947174 cumulative IPC: 0.87439 (Simulation time: 0 hr 6 min 43 sec) 
Heartbeat CPU 0 instructions: 145000000 cycles: 168735380 heartbeat IPC: 0.914675 cumulative IPC: 0.874675 (Simulation time: 0 hr 6 min 47 sec) 
Heartbeat CPU 0 instructions: 146000000 cycles: 169858966 heartbeat IPC: 0.890008 cumulative IPC: 0.874786 (Simulation time: 0 hr 6 min 50 sec) 
Heartbeat CPU 0 instructions: 147000002 cycles: 170894967 heartbeat IPC: 0.965252 cumulative IPC: 0.875385 (Simulation time: 0 hr 6 min 53 sec) 
Heartbeat CPU 0 instructions: 148000003 cycles: 172062920 heartbeat IPC: 0.8562 cumulative IPC: 0.875243 (Simulation time: 0 hr 6 min 56 sec) 
Heartbeat CPU 0 instructions: 149000000 cycles: 173032511 heartbeat IPC: 1.03136 cumulative IPC: 0.876197 (Simulation time: 0 hr 6 min 59 sec) 
Heartbeat CPU 0 instructions: 150000002 cycles: 174150095 heartbeat IPC: 0.894789 cumulative IPC: 0.876327 (Simulation time: 0 hr 7 min 3 sec) 
Heartbeat CPU 0 instructions: 151000000 cycles: 175139510 heartbeat IPC: 1.0107 cumulative IPC: 0.877154 (Simulation time: 0 hr 7 min 6 sec) 
Heartbeat CPU 0 instructions: 152000003 cycles: 176534180 heartbeat IPC: 0.717018 cumulative IPC: 0.875777 (Simulation time: 0 hr 7 min 9 sec) 
Heartbeat CPU 0 instructions: 153000002 cycles: 177677430 heartbeat IPC: 0.874698 cumulative IPC: 0.875769 (Simulation time: 0 hr 7 min 12 sec) 
Heartbeat CPU 0 instructions: 154000000 cycles: 178519870 heartbeat IPC: 1.18703 cumulative IPC: 0.877367 (Simulation time: 0 hr 7 min 15 sec) 
Heartbeat CPU 0 instructions: 155000001 cycles: 179373599 heartbeat IPC: 1.17133 cumulative IPC: 0.878888 (Simulation time: 0 hr 7 min 18 sec) 
Heartbeat CPU 0 instructions: 156000001 cycles: 180162146 heartbeat IPC: 1.26816 cumulative IPC: 0.88074 (Simulation time: 0 hr 7 min 21 sec) 
Heartbeat CPU 0 instructions: 157000002 cycles: 181207446 heartbeat IPC: 0.956664 cumulative IPC: 0.881216 (Simulation time: 0 hr 7 min 24 sec) 
Heartbeat CPU 0 instructions: 158000003 cycles: 182095120 heartbeat IPC: 1.12654 cumulative IPC: 0.882514 (Simulation time: 0 hr 7 min 27 sec) 
Heartbeat CPU 0 instructions: 159000002 cycles: 182929845 heartbeat IPC: 1.198 cumulative IPC: 0.884077 (Simulation time: 0 hr 7 min 30 sec) 
Heartbeat CPU 0 instructions: 160000001 cycles: 185210508 heartbeat IPC: 0.438469 cumulative IPC: 0.878127 (Simulation time: 0 hr 7 min 34 sec) 
Heartbeat CPU 0 instructions: 161000000 cycles: 186787537 heartbeat IPC: 0.634103 cumulative IPC: 0.875895 (Simulation time: 0 hr 7 min 36 sec) 
Heartbeat CPU 0 instructions: 162000000 cycles: 188214537 heartbeat IPC: 0.700771 cumulative IPC: 0.874457 (Simulation time: 0 hr 7 min 39 sec) 
Heartbeat CPU 0 instructions: 163000001 cycles: 189566703 heartbeat IPC: 0.739555 cumulative IPC: 0.873416 (Simulation time: 0 hr 7 min 42 sec) 
Heartbeat CPU 0 instructions: 164000002 cycles: 190799904 heartbeat IPC: 0.810899 cumulative IPC: 0.872979 (Simulation time: 0 hr 7 min 44 sec) 
Heartbeat CPU 0 instructions: 165000000 cycles: 192320750 heartbeat IPC: 0.657527 cumulative IPC: 0.871137 (Simulation time: 0 hr 7 min 47 sec) 
Heartbeat CPU 0 instructions: 166000003 cycles: 193810184 heartbeat IPC: 0.671398 cumulative IPC: 0.869479 (Simulation time: 0 hr 7 min 50 sec) 
Heartbeat CPU 0 instructions: 167000001 cycles: 195117532 heartbeat IPC: 0.764906 cumulative IPC: 0.868723 (Simulation time: 0 hr 7 min 52 sec) 
Heartbeat CPU 0 instructions: 168000000 cycles: 196366610 heartbeat IPC: 0.80059 cumulative IPC: 0.868255 (Simulation time: 0 hr 7 min 55 sec) 
Heartbeat CPU 0 instructions: 169000001 cycles: 197647655 heartbeat IPC: 0.780613 cumulative IPC: 0.867642 (Simulation time: 0 hr 7 min 58 sec) 
Heartbeat CPU 0 instructions: 170000000 cycles: 198802323 heartbeat IPC: 0.866049 cumulative IPC: 0.867632 (Simulation time: 0 hr 8 min 0 sec) 
Heartbeat CPU 0 instructions: 171000001 cycles: 199838818 heartbeat IPC: 0.964791 cumulative IPC: 0.868175 (Simulation time: 0 hr 8 min 3 sec) 
Heartbeat CPU 0 instructions: 172000000 cycles: 200819617 heartbeat IPC: 1.01958 cumulative IPC: 0.868972 (Simulation time: 0 hr 8 min 5 sec) 
Heartbeat CPU 0 instructions: 173000001 cycles: 201730198 heartbeat IPC: 1.0982 cumulative IPC: 0.870086 (Simulation time: 0 hr 8 min 8 sec) 
Heartbeat CPU 0 instructions: 174000001 cycles: 202576655 heartbeat IPC: 1.18139 cumulative IPC: 0.871486 (Simulation time: 0 hr 8 min 10 sec) 
Heartbeat CPU 0 instructions: 175000003 cycles: 203411912 heartbeat IPC: 1.19724 cumulative IPC: 0.872926 (Simulation time: 0 hr 8 min 12 sec) 
Heartbeat CPU 0 instructions: 176000000 cycles: 204522638 heartbeat IPC: 0.900309 cumulative IPC: 0.873086 (Simulation time: 0 hr 8 min 15 sec) 
Heartbeat CPU 0 instructions: 177000003 cycles: 205429209 heartbeat IPC: 1.10306 cumulative IPC: 0.874177 (Simulation time: 0 hr 8 min 17 sec) 
Heartbeat CPU 0 instructions: 178000002 cycles: 206655177 heartbeat IPC: 0.815681 cumulative IPC: 0.873804 (Simulation time: 0 hr 8 min 20 sec) 
Heartbeat CPU 0 instructions: 179000001 cycles: 208004826 heartbeat IPC: 0.740933 cumulative IPC: 0.872878 (Simulation time: 0 hr 8 min 23 sec) 
Heartbeat CPU 0 instructions: 180000000 cycles: 209295861 heartbeat IPC: 0.774572 cumulative IPC: 0.872227 (Simulation time: 0 hr 8 min 25 sec) 
Heartbeat CPU 0 instructions: 181000003 cycles: 210495714 heartbeat IPC: 0.833438 cumulative IPC: 0.871989 (Simulation time: 0 hr 8 min 28 sec) 
Heartbeat CPU 0 instructions: 182000001 cycles: 211868700 heartbeat IPC: 0.728338 cumulative IPC: 0.870991 (Simulation time: 0 hr 8 min 31 sec) 
Heartbeat CPU 0 instructions: 183000002 cycles: 213011679 heartbeat IPC: 0.874908 cumulative IPC: 0.871013 (Simulation time: 0 hr 8 min 33 sec) 
Heartbeat CPU 0 instructions: 184000002 cycles: 214262737 heartbeat IPC: 0.799323 cumulative IPC: 0.870564 (Simulation time: 0 hr 8 min 36 sec) 
Heartbeat CPU 0 instructions: 185000001 cycles: 216218833 heartbeat IPC: 0.511222 cumulative IPC: 0.867082 (Simulation time: 0 hr 8 min 39 sec) 
Heartbeat CPU 0 instructions: 186000001 cycles: 217762882 heartbeat IPC: 0.647648 cumulative IPC: 0.865416 (Simulation time: 0 hr 8 min 42 sec) 
Heartbeat CPU 0 instructions: 187000000 cycles: 219026024 heartbeat IPC: 0.791676 cumulative IPC: 0.864961 (Simulation time: 0 hr 8 min 45 sec) 
Heartbeat CPU 0 instructions: 188000000 cycles: 220479408 heartbeat IPC: 0.688049 cumulative IPC: 0.863713 (Simulation time: 0 hr 8 min 47 sec) 
Heartbeat CPU 0 instructions: 189000000 cycles: 221714634 heartbeat IPC: 0.809568 cumulative IPC: 0.86339 (Simulation time: 0 hr 8 min 50 sec) 
Heartbeat CPU 0 instructions: 190000002 cycles: 223038961 heartbeat IPC: 0.755102 cumulative IPC: 0.862703 (Simulation time: 0 hr 8 min 53 sec) 
Heartbeat CPU 0 instructions: 191000000 cycles: 224316761 heartbeat IPC: 0.782594 cumulative IPC: 0.862215 (Simulation time: 0 hr 8 min 56 sec) 
Heartbeat CPU 0 instructions: 192000000 cycles: 225610748 heartbeat IPC: 0.772805 cumulative IPC: 0.861668 (Simulation time: 0 hr 8 min 58 sec) 
Heartbeat CPU 0 instructions: 193000000 cycles: 226810956 heartbeat IPC: 0.833189 cumulative IPC: 0.861507 (Simulation time: 0 hr 9 min 1 sec) 
Heartbeat CPU 0 instructions: 194000003 cycles: 228000185 heartbeat IPC: 0.840883 cumulative IPC: 0.861392 (Simulation time: 0 hr 9 min 4 sec) 
Heartbeat CPU 0 instructions: 195000001 cycles: 229208284 heartbeat IPC: 0.827745 cumulative IPC: 0.861203 (Simulation time: 0 hr 9 min 7 sec) 
Heartbeat CPU 0 instructions: 196000003 cycles: 230339340 heartbeat IPC: 0.884131 cumulative IPC: 0.861323 (Simulation time: 0 hr 9 min 9 sec) 
Heartbeat CPU 0 instructions: 197000000 cycles: 231570098 heartbeat IPC: 0.812505 cumulative IPC: 0.861046 (Simulation time: 0 hr 9 min 12 sec) 
Heartbeat CPU 0 instructions: 198000000 cycles: 232786223 heartbeat IPC: 0.822284 cumulative IPC: 0.86083 (Simulation time: 0 hr 9 min 15 sec) 
Heartbeat CPU 0 instructions: 199000002 cycles: 234023543 heartbeat IPC: 0.8082 cumulative IPC: 0.860534 (Simulation time: 0 hr 9 min 18 sec) 
Heartbeat CPU 0 instructions: 200000000 cycles: 235216118 heartbeat IPC: 0.83852 cumulative IPC: 0.860415 (Simulation time: 0 hr 9 min 21 sec) 
Heartbeat CPU 0 instructions: 201000000 cycles: 236671995 heartbeat IPC: 0.686871 cumulative IPC: 0.859278 (Simulation time: 0 hr 9 min 23 sec) 
Heartbeat CPU 0 instructions: 202000000 cycles: 238015439 heartbeat IPC: 0.744356 cumulative IPC: 0.858588 (Simulation time: 0 hr 9 min 26 sec) 
Heartbeat CPU 0 instructions: 203000000 cycles: 239249395 heartbeat IPC: 0.810402 cumulative IPC: 0.858323 (Simulation time: 0 hr 9 min 29 sec) 
Heartbeat CPU 0 instructions: 204000000 cycles: 240468882 heartbeat IPC: 0.820017 cumulative IPC: 0.858117 (Simulation time: 0 hr 9 min 31 sec) 
Heartbeat CPU 0 instructions: 205000003 cycles: 241683183 heartbeat IPC: 0.823521 cumulative IPC: 0.857932 (Simulation time: 0 hr 9 min 34 sec) 
Heartbeat CPU 0 instructions: 206000000 cycles: 242561329 heartbeat IPC: 1.13876 cumulative IPC: 0.859013 (Simulation time: 0 hr 9 min 37 sec) 
Heartbeat CPU 0 instructions: 207000000 cycles: 243732271 heartbeat IPC: 0.854013 cumulative IPC: 0.858987 (Simulation time: 0 hr 9 min 39 sec) 
Heartbeat CPU 0 instructions: 208000000 cycles: 244914861 heartbeat IPC: 0.845602 cumulative IPC: 0.858919 (Simulation time: 0 hr 9 min 42 sec) 
Heartbeat CPU 0 instructions: 209000000 cycles: 246192980 heartbeat IPC: 0.7824 cumulative IPC: 0.858497 (Simulation time: 0 hr 9 min 45 sec) 
Heartbeat CPU 0 instructions: 210000001 cycles: 247459124 heartbeat IPC: 0.7898 cumulative IPC: 0.858123 (Simulation time: 0 hr 9 min 47 sec) 
Heartbeat CPU 0 instructions: 211000003 cycles: 248474194 heartbeat IPC: 0.985156 cumulative IPC: 0.858674 (Simulation time: 0 hr 9 min 49 sec) 
Heartbeat CPU 0 instructions: 212000000 cycles: 249666232 heartbeat IPC: 0.838897 cumulative IPC: 0.858574 (Simulation time: 0 hr 9 min 52 sec) 
Heartbeat CPU 0 instructions: 213000000 cycles: 250922971 heartbeat IPC: 0.79571 cumulative IPC: 0.85824 (Simulation time: 0 hr 9 min 55 sec) 
Heartbeat CPU 0 instructions: 214000003 cycles: 251985552 heartbeat IPC: 0.941108 cumulative IPC: 0.858611 (Simulation time: 0 hr 9 min 58 sec) 
Heartbeat CPU 0 instructions: 215000000 cycles: 253206572 heartbeat IPC: 0.818985 cumulative IPC: 0.858408 (Simulation time: 0 hr 10 min 0 sec) 
Heartbeat CPU 0 instructions: 216000000 cycles: 254427609 heartbeat IPC: 0.818976 cumulative IPC: 0.858207 (Simulation time: 0 hr 10 min 3 sec) 
Heartbeat CPU 0 instructions: 217000000 cycles: 255773627 heartbeat IPC: 0.742932 cumulative IPC: 0.857565 (Simulation time: 0 hr 10 min 6 sec) 
Heartbeat CPU 0 instructions: 218000000 cycles: 256964536 heartbeat IPC: 0.839695 cumulative IPC: 0.857477 (Simulation time: 0 hr 10 min 9 sec) 
Heartbeat CPU 0 instructions: 219000001 cycles: 258064782 heartbeat IPC: 0.908889 cumulative IPC: 0.857709 (Simulation time: 0 hr 10 min 12 sec) 
Heartbeat CPU 0 instructions: 220000000 cycles: 259392900 heartbeat IPC: 0.752944 cumulative IPC: 0.857141 (Simulation time: 0 hr 10 min 15 sec) 
Heartbeat CPU 0 instructions: 221000000 cycles: 260763338 heartbeat IPC: 0.729694 cumulative IPC: 0.856432 (Simulation time: 0 hr 10 min 17 sec) 
Heartbeat CPU 0 instructions: 222000003 cycles: 261949432 heartbeat IPC: 0.843106 cumulative IPC: 0.856368 (Simulation time: 0 hr 10 min 20 sec) 
Heartbeat CPU 0 instructions: 223000000 cycles: 263080580 heartbeat IPC: 0.884055 cumulative IPC: 0.856494 (Simulation time: 0 hr 10 min 23 sec) 
Heartbeat CPU 0 instructions: 224000002 cycles: 264271036 heartbeat IPC: 0.840016 cumulative IPC: 0.856416 (Simulation time: 0 hr 10 min 26 sec) 
Heartbeat CPU 0 instructions: 225000000 cycles: 265273052 heartbeat IPC: 0.997986 cumulative IPC: 0.856981 (Simulation time: 0 hr 10 min 29 sec) 
Heartbeat CPU 0 instructions: 226000003 cycles: 267076683 heartbeat IPC: 0.554439 cumulative IPC: 0.854822 (Simulation time: 0 hr 10 min 32 sec) 
Heartbeat CPU 0 instructions: 227000002 cycles: 268594702 heartbeat IPC: 0.658753 cumulative IPC: 0.853651 (Simulation time: 0 hr 10 min 35 sec) 
Heartbeat CPU 0 instructions: 228000002 cycles: 270057416 heartbeat IPC: 0.683661 cumulative IPC: 0.852678 (Simulation time: 0 hr 10 min 37 sec) 
Heartbeat CPU 0 instructions: 229000002 cycles: 271503125 heartbeat IPC: 0.691702 cumulative IPC: 0.851773 (Simulation time: 0 hr 10 min 40 sec) 
Heartbeat CPU 0 instructions: 230000000 cycles: 272998261 heartbeat IPC: 0.668834 cumulative IPC: 0.850716 (Simulation time: 0 hr 10 min 42 sec) 
Heartbeat CPU 0 instructions: 231000000 cycles: 274334420 heartbeat IPC: 0.748414 cumulative IPC: 0.85019 (Simulation time: 0 hr 10 min 45 sec) 
Heartbeat CPU 0 instructions: 232000001 cycles: 275530101 heartbeat IPC: 0.836344 cumulative IPC: 0.850126 (Simulation time: 0 hr 10 min 47 sec) 
Heartbeat CPU 0 instructions: 233000001 cycles: 276563305 heartbeat IPC: 0.967863 cumulative IPC: 0.85059 (Simulation time: 0 hr 10 min 50 sec) 
Heartbeat CPU 0 instructions: 234000000 cycles: 277907236 heartbeat IPC: 0.744085 cumulative IPC: 0.850047 (Simulation time: 0 hr 10 min 52 sec) 
Heartbeat CPU 0 instructions: 235000003 cycles: 279154914 heartbeat IPC: 0.801491 cumulative IPC: 0.849818 (Simulation time: 0 hr 10 min 55 sec) 
Heartbeat CPU 0 instructions: 236000001 cycles: 281182673 heartbeat IPC: 0.493154 cumulative IPC: 0.847107 (Simulation time: 0 hr 10 min 58 sec) 
Heartbeat CPU 0 instructions: 237000003 cycles: 282645546 heartbeat IPC: 0.683588 cumulative IPC: 0.846216 (Simulation time: 0 hr 11 min 0 sec) 
Heartbeat CPU 0 instructions: 238000000 cycles: 283748347 heartbeat IPC: 0.906779 cumulative IPC: 0.846464 (Simulation time: 0 hr 11 min 3 sec) 
Heartbeat CPU 0 instructions: 239000001 cycles: 285248173 heartbeat IPC: 0.666745 cumulative IPC: 0.845468 (Simulation time: 0 hr 11 min 6 sec) 
Heartbeat CPU 0 instructions: 240000002 cycles: 286584283 heartbeat IPC: 0.748442 cumulative IPC: 0.844992 (Simulation time: 0 hr 11 min 9 sec) 
Heartbeat CPU 0 instructions: 241000002 cycles: 287952879 heartbeat IPC: 0.730676 cumulative IPC: 0.84442 (Simulation time: 0 hr 11 min 11 sec) 
Heartbeat CPU 0 instructions: 242000000 cycles: 289075347 heartbeat IPC: 0.890892 cumulative IPC: 0.84461 (Simulation time: 0 hr 11 min 14 sec) 
Heartbeat CPU 0 instructions: 243000002 cycles: 290310585 heartbeat IPC: 0.809562 cumulative IPC: 0.844453 (Simulation time: 0 hr 11 min 17 sec) 
Heartbeat CPU 0 instructions: 244000001 cycles: 291578346 heartbeat IPC: 0.788791 cumulative IPC: 0.844199 (Simulation time: 0 hr 11 min 20 sec) 
Heartbeat CPU 0 instructions: 245000003 cycles: 292820229 heartbeat IPC: 0.80523 cumulative IPC: 0.844025 (Simulation time: 0 hr 11 min 23 sec) 
Heartbeat CPU 0 instructions: 246000000 cycles: 294278018 heartbeat IPC: 0.685968 cumulative IPC: 0.843202 (Simulation time: 0 hr 11 min 25 sec) 
Heartbeat CPU 0 instructions: 247000003 cycles: 295528654 heartbeat IPC: 0.799596 cumulative IPC: 0.843008 (Simulation time: 0 hr 11 min 28 sec) 
Heartbeat CPU 0 instructions: 248000002 cycles: 296726343 heartbeat IPC: 0.83494 cumulative IPC: 0.842973 (Simulation time: 0 hr 11 min 31 sec) 
Heartbeat CPU 0 instructions: 249000000 cycles: 297785817 heartbeat IPC: 0.943863 cumulative IPC: 0.843351 (Simulation time: 0 hr 11 min 33 sec) 
Heartbeat CPU 0 instructions: 250000002 cycles: 298658716 heartbeat IPC: 1.14561 cumulative IPC: 0.844279 (Simulation time: 0 hr 11 min 36 sec) 
Heartbeat CPU 0 instructions: 251000000 cycles: 300000867 heartbeat IPC: 0.745071 cumulative IPC: 0.843813 (Simulation time: 0 hr 11 min 38 sec) 
Heartbeat CPU 0 instructions: 252000002 cycles: 300926661 heartbeat IPC: 1.08016 cumulative IPC: 0.844576 (Simulation time: 0 hr 11 min 40 sec) 
Heartbeat CPU 0 instructions: 253000000 cycles: 301988585 heartbeat IPC: 0.941685 cumulative IPC: 0.844935 (Simulation time: 0 hr 11 min 43 sec) 
Heartbeat CPU 0 instructions: 254000002 cycles: 303157817 heartbeat IPC: 0.855264 cumulative IPC: 0.844977 (Simulation time: 0 hr 11 min 46 sec) 
Heartbeat CPU 0 instructions: 255000001 cycles: 304214500 heartbeat IPC: 0.946357 cumulative IPC: 0.845346 (Simulation time: 0 hr 11 min 48 sec) 
Heartbeat CPU 0 instructions: 256000000 cycles: 305453237 heartbeat IPC: 0.807273 cumulative IPC: 0.845184 (Simulation time: 0 hr 11 min 51 sec) 
Heartbeat CPU 0 instructions: 257000000 cycles: 306772804 heartbeat IPC: 0.757824 cumulative IPC: 0.84479 (Simulation time: 0 hr 11 min 54 sec) 
Heartbeat CPU 0 instructions: 258000001 cycles: 307810479 heartbeat IPC: 0.963694 cumulative IPC: 0.84521 (Simulation time: 0 hr 11 min 57 sec) 
Heartbeat CPU 0 instructions: 259000000 cycles: 309121316 heartbeat IPC: 0.762871 cumulative IPC: 0.844844 (Simulation time: 0 hr 11 min 59 sec) 
Heartbeat CPU 0 instructions: 260000000 cycles: 310458514 heartbeat IPC: 0.747832 cumulative IPC: 0.844406 (Simulation time: 0 hr 12 min 2 sec) 
Heartbeat CPU 0 instructions: 261000003 cycles: 311611464 heartbeat IPC: 0.867343 cumulative IPC: 0.844495 (Simulation time: 0 hr 12 min 5 sec) 
Heartbeat CPU 0 instructions: 262000000 cycles: 312589187 heartbeat IPC: 1.02278 cumulative IPC: 0.84508 (Simulation time: 0 hr 12 min 8 sec) 
Heartbeat CPU 0 instructions: 263000000 cycles: 313673582 heartbeat IPC: 0.922173 cumulative IPC: 0.845359 (Simulation time: 0 hr 12 min 11 sec) 
Heartbeat CPU 0 instructions: 264000000 cycles: 315444938 heartbeat IPC: 0.564539 cumulative IPC: 0.843707 (Simulation time: 0 hr 12 min 13 sec) 
Heartbeat CPU 0 instructions: 265000001 cycles: 317207523 heartbeat IPC: 0.567349 cumulative IPC: 0.842098 (Simulation time: 0 hr 12 min 16 sec) 
Heartbeat CPU 0 instructions: 266000001 cycles: 318573636 heartbeat IPC: 0.732004 cumulative IPC: 0.841604 (Simulation time: 0 hr 12 min 18 sec) 
Heartbeat CPU 0 instructions: 267000000 cycles: 319816667 heartbeat IPC: 0.804484 cumulative IPC: 0.841452 (Simulation time: 0 hr 12 min 21 sec) 
Heartbeat CPU 0 instructions: 268000000 cycles: 321303332 heartbeat IPC: 0.672647 cumulative IPC: 0.840635 (Simulation time: 0 hr 12 min 23 sec) 
Heartbeat CPU 0 instructions: 269000001 cycles: 323264270 heartbeat IPC: 0.509961 cumulative IPC: 0.838535 (Simulation time: 0 hr 12 min 26 sec) 
Heartbeat CPU 0 instructions: 270000001 cycles: 324913406 heartbeat IPC: 0.606378 cumulative IPC: 0.837303 (Simulation time: 0 hr 12 min 28 sec) 
Heartbeat CPU 0 instructions: 271000000 cycles: 326312535 heartbeat IPC: 0.71473 cumulative IPC: 0.836753 (Simulation time: 0 hr 12 min 31 sec) 
Heartbeat CPU 0 instructions: 272000000 cycles: 327760339 heartbeat IPC: 0.690701 cumulative IPC: 0.836078 (Simulation time: 0 hr 12 min 33 sec) 
Heartbeat CPU 0 instructions: 273000002 cycles: 329098647 heartbeat IPC: 0.747214 cumulative IPC: 0.8357 (Simulation time: 0 hr 12 min 36 sec) 
Heartbeat CPU 0 instructions: 274000003 cycles: 330335979 heartbeat IPC: 0.808191 cumulative IPC: 0.835592 (Simulation time: 0 hr 12 min 38 sec) 
Heartbeat CPU 0 instructions: 275000000 cycles: 331819421 heartbeat IPC: 0.674106 cumulative IPC: 0.834838 (Simulation time: 0 hr 12 min 41 sec) 
Heartbeat CPU 0 instructions: 276000000 cycles: 333094673 heartbeat IPC: 0.784159 cumulative IPC: 0.834635 (Simulation time: 0 hr 12 min 43 sec) 
Heartbeat CPU 0 instructions: 277000000 cycles: 334450343 heartbeat IPC: 0.737643 cumulative IPC: 0.834224 (Simulation time: 0 hr 12 min 45 sec) 
Heartbeat CPU 0 instructions: 278000000 cycles: 335784193 heartbeat IPC: 0.749709 cumulative IPC: 0.833873 (Simulation time: 0 hr 12 min 48 sec) 
Heartbeat CPU 0 instructions: 279000000 cycles: 336980411 heartbeat IPC: 0.835968 cumulative IPC: 0.833881 (Simulation time: 0 hr 12 min 51 sec) 
Heartbeat CPU 0 instructions: 280000002 cycles: 338395067 heartbeat IPC: 0.706887 cumulative IPC: 0.833327 (Simulation time: 0 hr 12 min 54 sec) 
Heartbeat CPU 0 instructions: 281000003 cycles: 339994085 heartbeat IPC: 0.625384 cumulative IPC: 0.832305 (Simulation time: 0 hr 12 min 57 sec) 
Heartbeat CPU 0 instructions: 282000002 cycles: 341570697 heartbeat IPC: 0.634271 cumulative IPC: 0.831351 (Simulation time: 0 hr 12 min 59 sec) 
Heartbeat CPU 0 instructions: 283000003 cycles: 342710541 heartbeat IPC: 0.877314 cumulative IPC: 0.831511 (Simulation time: 0 hr 13 min 2 sec) 
Heartbeat CPU 0 instructions: 284000000 cycles: 344160023 heartbeat IPC: 0.6899 cumulative IPC: 0.830888 (Simulation time: 0 hr 13 min 4 sec) 
Heartbeat CPU 0 instructions: 285000002 cycles: 345495169 heartbeat IPC: 0.748983 cumulative IPC: 0.830558 (Simulation time: 0 hr 13 min 7 sec) 
Heartbeat CPU 0 instructions: 286000000 cycles: 346605033 heartbeat IPC: 0.90101 cumulative IPC: 0.830793 (Simulation time: 0 hr 13 min 9 sec) 
Heartbeat CPU 0 instructions: 287000000 cycles: 347809419 heartbeat IPC: 0.830299 cumulative IPC: 0.830791 (Simulation time: 0 hr 13 min 12 sec) 
Heartbeat CPU 0 instructions: 288000001 cycles: 349105903 heartbeat IPC: 0.771318 cumulative IPC: 0.830561 (Simulation time: 0 hr 13 min 15 sec) 
Heartbeat CPU 0 instructions: 289000002 cycles: 350478287 heartbeat IPC: 0.72866 cumulative IPC: 0.830145 (Simulation time: 0 hr 13 min 17 sec) 
Heartbeat CPU 0 instructions: 290000002 cycles: 352053748 heartbeat IPC: 0.634735 cumulative IPC: 0.829233 (Simulation time: 0 hr 13 min 20 sec) 
Heartbeat CPU 0 instructions: 291000000 cycles: 353470256 heartbeat IPC: 0.70596 cumulative IPC: 0.828718 (Simulation time: 0 hr 13 min 22 sec) 
Heartbeat CPU 0 instructions: 292000002 cycles: 354683366 heartbeat IPC: 0.824329 cumulative IPC: 0.828703 (Simulation time: 0 hr 13 min 25 sec) 
Heartbeat CPU 0 instructions: 293000000 cycles: 355831314 heartbeat IPC: 0.871118 cumulative IPC: 0.828845 (Simulation time: 0 hr 13 min 28 sec) 
Heartbeat CPU 0 instructions: 294000002 cycles: 356952458 heartbeat IPC: 0.891948 cumulative IPC: 0.829052 (Simulation time: 0 hr 13 min 30 sec) 
Heartbeat CPU 0 instructions: 295000001 cycles: 358244155 heartbeat IPC: 0.774175 cumulative IPC: 0.828846 (Simulation time: 0 hr 13 min 33 sec) 
Heartbeat CPU 0 instructions: 296000001 cycles: 359645910 heartbeat IPC: 0.713391 cumulative IPC: 0.828377 (Simulation time: 0 hr 13 min 36 sec) 
Heartbeat CPU 0 instructions: 297000000 cycles: 360788973 heartbeat IPC: 0.874842 cumulative IPC: 0.82853 (Simulation time: 0 hr 13 min 38 sec) 
Heartbeat CPU 0 instructions: 298000000 cycles: 361840090 heartbeat IPC: 0.951369 cumulative IPC: 0.828902 (Simulation time: 0 hr 13 min 41 sec) 
Heartbeat CPU 0 instructions: 299000003 cycles: 362949456 heartbeat IPC: 0.901418 cumulative IPC: 0.829133 (Simulation time: 0 hr 13 min 43 sec) 
Heartbeat CPU 0 instructions: 300000000 cycles: 364120948 heartbeat IPC: 0.85361 cumulative IPC: 0.829215 (Simulation time: 0 hr 13 min 45 sec) 
Heartbeat CPU 0 instructions: 301000003 cycles: 365133681 heartbeat IPC: 0.98743 cumulative IPC: 0.829671 (Simulation time: 0 hr 13 min 48 sec) 
Heartbeat CPU 0 instructions: 302000000 cycles: 366062901 heartbeat IPC: 1.07617 cumulative IPC: 0.830323 (Simulation time: 0 hr 13 min 50 sec) 
Heartbeat CPU 0 instructions: 303000003 cycles: 367038084 heartbeat IPC: 1.02545 cumulative IPC: 0.830862 (Simulation time: 0 hr 13 min 52 sec) 
Heartbeat CPU 0 instructions: 304000000 cycles: 368017881 heartbeat IPC: 1.02062 cumulative IPC: 0.831388 (Simulation time: 0 hr 13 min 54 sec) 
Heartbeat CPU 0 instructions: 305000000 cycles: 368911524 heartbeat IPC: 1.11902 cumulative IPC: 0.832113 (Simulation time: 0 hr 13 min 56 sec) 
Heartbeat CPU 0 instructions: 306000000 cycles: 370027068 heartbeat IPC: 0.896424 cumulative IPC: 0.832315 (Simulation time: 0 hr 13 min 58 sec) 
Heartbeat CPU 0 instructions: 307000003 cycles: 371099288 heartbeat IPC: 0.932647 cumulative IPC: 0.832616 (Simulation time: 0 hr 14 min 1 sec) 
Heartbeat CPU 0 instructions: 308000000 cycles: 372283581 heartbeat IPC: 0.844383 cumulative IPC: 0.832655 (Simulation time: 0 hr 14 min 3 sec) 
Heartbeat CPU 0 instructions: 309000000 cycles: 373593750 heartbeat IPC: 0.76326 cumulative IPC: 0.832402 (Simulation time: 0 hr 14 min 6 sec) 
Heartbeat CPU 0 instructions: 310000000 cycles: 375018474 heartbeat IPC: 0.70189 cumulative IPC: 0.831887 (Simulation time: 0 hr 14 min 8 sec) 
Heartbeat CPU 0 instructions: 311000000 cycles: 376298016 heartbeat IPC: 0.78153 cumulative IPC: 0.831709 (Simulation time: 0 hr 14 min 11 sec) 
Heartbeat CPU 0 instructions: 312000001 cycles: 377522277 heartbeat IPC: 0.81682 cumulative IPC: 0.831658 (Simulation time: 0 hr 14 min 14 sec) 
Heartbeat CPU 0 instructions: 313000000 cycles: 378773010 heartbeat IPC: 0.79953 cumulative IPC: 0.831548 (Simulation time: 0 hr 14 min 16 sec) 
Heartbeat CPU 0 instructions: 314000001 cycles: 380185545 heartbeat IPC: 0.707948 cumulative IPC: 0.831071 (Simulation time: 0 hr 14 min 19 sec) 
Heartbeat CPU 0 instructions: 315000003 cycles: 381467911 heartbeat IPC: 0.77981 cumulative IPC: 0.830892 (Simulation time: 0 hr 14 min 21 sec) 
Heartbeat CPU 0 instructions: 316000000 cycles: 382902752 heartbeat IPC: 0.696939 cumulative IPC: 0.83037 (Simulation time: 0 hr 14 min 24 sec) 
Heartbeat CPU 0 instructions: 317000001 cycles: 384048963 heartbeat IPC: 0.872441 cumulative IPC: 0.830501 (Simulation time: 0 hr 14 min 27 sec) 
Heartbeat CPU 0 instructions: 318000000 cycles: 385181335 heartbeat IPC: 0.883101 cumulative IPC: 0.830661 (Simulation time: 0 hr 14 min 29 sec) 
Heartbeat CPU 0 instructions: 319000000 cycles: 386391460 heartbeat IPC: 0.826361 cumulative IPC: 0.830647 (Simulation time: 0 hr 14 min 32 sec) 
Heartbeat CPU 0 instructions: 320000001 cycles: 387703784 heartbeat IPC: 0.762008 cumulative IPC: 0.830406 (Simulation time: 0 hr 14 min 35 sec) 
Heartbeat CPU 0 instructions: 321000002 cycles: 389060258 heartbeat IPC: 0.737206 cumulative IPC: 0.830069 (Simulation time: 0 hr 14 min 37 sec) 
Heartbeat CPU 0 instructions: 322000000 cycles: 391005722 heartbeat IPC: 0.514015 cumulative IPC: 0.828436 (Simulation time: 0 hr 14 min 40 sec) 
Heartbeat CPU 0 instructions: 323000001 cycles: 392424245 heartbeat IPC: 0.704959 cumulative IPC: 0.827973 (Simulation time: 0 hr 14 min 43 sec) 
Heartbeat CPU 0 instructions: 324000000 cycles: 393831238 heartbeat IPC: 0.710735 cumulative IPC: 0.827538 (Simulation time: 0 hr 14 min 46 sec) 
Heartbeat CPU 0 instructions: 325000001 cycles: 395163675 heartbeat IPC: 0.750505 cumulative IPC: 0.827268 (Simulation time: 0 hr 14 min 48 sec) 
Heartbeat CPU 0 instructions: 326000000 cycles: 396302524 heartbeat IPC: 0.878079 cumulative IPC: 0.82742 (Simulation time: 0 hr 14 min 52 sec) 
Heartbeat CPU 0 instructions: 327000002 cycles: 397597205 heartbeat IPC: 0.772393 cumulative IPC: 0.827234 (Simulation time: 0 hr 14 min 54 sec) 
Heartbeat CPU 0 instructions: 328000000 cycles: 399143414 heartbeat IPC: 0.646742 cumulative IPC: 0.826509 (Simulation time: 0 hr 14 min 57 sec) 
Heartbeat CPU 0 instructions: 329000003 cycles: 400366543 heartbeat IPC: 0.817578 cumulative IPC: 0.82648 (Simulation time: 0 hr 15 min 0 sec) 
Heartbeat CPU 0 instructions: 330000000 cycles: 401560425 heartbeat IPC: 0.837601 cumulative IPC: 0.826515 (Simulation time: 0 hr 15 min 3 sec) 
Heartbeat CPU 0 instructions: 331000000 cycles: 402784000 heartbeat IPC: 0.817277 cumulative IPC: 0.826485 (Simulation time: 0 hr 15 min 6 sec) 
Heartbeat CPU 0 instructions: 332000003 cycles: 404006896 heartbeat IPC: 0.817733 cumulative IPC: 0.826458 (Simulation time: 0 hr 15 min 9 sec) 
Heartbeat CPU 0 instructions: 333000000 cycles: 405508970 heartbeat IPC: 0.665744 cumulative IPC: 0.825841 (Simulation time: 0 hr 15 min 11 sec) 
Heartbeat CPU 0 instructions: 334000000 cycles: 406741882 heartbeat IPC: 0.811088 cumulative IPC: 0.825794 (Simulation time: 0 hr 15 min 14 sec) 
Heartbeat CPU 0 instructions: 335000000 cycles: 407947472 heartbeat IPC: 0.829469 cumulative IPC: 0.825806 (Simulation time: 0 hr 15 min 17 sec) 
Heartbeat CPU 0 instructions: 336000001 cycles: 409220474 heartbeat IPC: 0.785546 cumulative IPC: 0.825676 (Simulation time: 0 hr 15 min 20 sec) 
Heartbeat CPU 0 instructions: 337000002 cycles: 410433101 heartbeat IPC: 0.824657 cumulative IPC: 0.825673 (Simulation time: 0 hr 15 min 22 sec) 
Heartbeat CPU 0 instructions: 338000003 cycles: 411822313 heartbeat IPC: 0.719833 cumulative IPC: 0.825303 (Simulation time: 0 hr 15 min 25 sec) 
Heartbeat CPU 0 instructions: 339000000 cycles: 413118283 heartbeat IPC: 0.771621 cumulative IPC: 0.825128 (Simulation time: 0 hr 15 min 29 sec) 
Heartbeat CPU 0 instructions: 340000000 cycles: 414383336 heartbeat IPC: 0.790481 cumulative IPC: 0.825019 (Simulation time: 0 hr 15 min 32 sec) 
Heartbeat CPU 0 instructions: 341000000 cycles: 415546438 heartbeat IPC: 0.85977 cumulative IPC: 0.825119 (Simulation time: 0 hr 15 min 35 sec) 
Heartbeat CPU 0 instructions: 342000001 cycles: 416716087 heartbeat IPC: 0.854958 cumulative IPC: 0.825206 (Simulation time: 0 hr 15 min 38 sec) 
Heartbeat CPU 0 instructions: 343000002 cycles: 417928312 heartbeat IPC: 0.82493 cumulative IPC: 0.825205 (Simulation time: 0 hr 15 min 41 sec) 
Heartbeat CPU 0 instructions: 344000000 cycles: 419079883 heartbeat IPC: 0.868377 cumulative IPC: 0.825328 (Simulation time: 0 hr 15 min 43 sec) 
Heartbeat CPU 0 instructions: 345000000 cycles: 420374494 heartbeat IPC: 0.772433 cumulative IPC: 0.82516 (Simulation time: 0 hr 15 min 46 sec) 
Heartbeat CPU 0 instructions: 346000001 cycles: 421538742 heartbeat IPC: 0.858924 cumulative IPC: 0.825256 (Simulation time: 0 hr 15 min 49 sec) 
Heartbeat CPU 0 instructions: 347000000 cycles: 422792626 heartbeat IPC: 0.797521 cumulative IPC: 0.825171 (Simulation time: 0 hr 15 min 52 sec) 
Heartbeat CPU 0 instructions: 348000002 cycles: 423892366 heartbeat IPC: 0.909308 cumulative IPC: 0.825397 (Simulation time: 0 hr 15 min 55 sec) 
Heartbeat CPU 0 instructions: 349000002 cycles: 425133223 heartbeat IPC: 0.805895 cumulative IPC: 0.825338 (Simulation time: 0 hr 15 min 58 sec) 
Heartbeat CPU 0 instructions: 350000001 cycles: 426254833 heartbeat IPC: 0.891575 cumulative IPC: 0.825518 (Simulation time: 0 hr 16 min 0 sec) 
Heartbeat CPU 0 instructions: 351000003 cycles: 427403128 heartbeat IPC: 0.870858 cumulative IPC: 0.825644 (Simulation time: 0 hr 16 min 4 sec) 
Heartbeat CPU 0 instructions: 352000000 cycles: 428633691 heartbeat IPC: 0.812634 cumulative IPC: 0.825606 (Simulation time: 0 hr 16 min 7 sec) 
Heartbeat CPU 0 instructions: 353000001 cycles: 429975046 heartbeat IPC: 0.745516 cumulative IPC: 0.825347 (Simulation time: 0 hr 16 min 10 sec) 
Heartbeat CPU 0 instructions: 354000002 cycles: 431144511 heartbeat IPC: 0.855093 cumulative IPC: 0.825431 (Simulation time: 0 hr 16 min 13 sec) 
Heartbeat CPU 0 instructions: 355000002 cycles: 432302898 heartbeat IPC: 0.863269 cumulative IPC: 0.825536 (Simulation time: 0 hr 16 min 16 sec) 
Heartbeat CPU 0 instructions: 356000001 cycles: 433473129 heartbeat IPC: 0.854531 cumulative IPC: 0.825617 (Simulation time: 0 hr 16 min 19 sec) 
Heartbeat CPU 0 instructions: 357000000 cycles: 434855037 heartbeat IPC: 0.723636 cumulative IPC: 0.825281 (Simulation time: 0 hr 16 min 22 sec) 
Heartbeat CPU 0 instructions: 358000000 cycles: 436123388 heartbeat IPC: 0.788425 cumulative IPC: 0.825171 (Simulation time: 0 hr 16 min 25 sec) 
Heartbeat CPU 0 instructions: 359000000 cycles: 437439479 heartbeat IPC: 0.759826 cumulative IPC: 0.824967 (Simulation time: 0 hr 16 min 28 sec) 
Heartbeat CPU 0 instructions: 360000000 cycles: 438753595 heartbeat IPC: 0.760968 cumulative IPC: 0.824769 (Simulation time: 0 hr 16 min 31 sec) 
Heartbeat CPU 0 instructions: 361000000 cycles: 439838034 heartbeat IPC: 0.922136 cumulative IPC: 0.825017 (Simulation time: 0 hr 16 min 34 sec) 
Heartbeat CPU 0 instructions: 362000000 cycles: 441160652 heartbeat IPC: 0.756076 cumulative IPC: 0.824804 (Simulation time: 0 hr 16 min 36 sec) 
Heartbeat CPU 0 instructions: 363000000 cycles: 442658617 heartbeat IPC: 0.667572 cumulative IPC: 0.824254 (Simulation time: 0 hr 16 min 39 sec) 
Heartbeat CPU 0 instructions: 364000003 cycles: 443871502 heartbeat IPC: 0.824483 cumulative IPC: 0.824254 (Simulation time: 0 hr 16 min 42 sec) 
Heartbeat CPU 0 instructions: 365000000 cycles: 445053197 heartbeat IPC: 0.84624 cumulative IPC: 0.824315 (Simulation time: 0 hr 16 min 45 sec) 
Heartbeat CPU 0 instructions: 366000001 cycles: 446228556 heartbeat IPC: 0.850805 cumulative IPC: 0.824387 (Simulation time: 0 hr 16 min 48 sec) 
Heartbeat CPU 0 instructions: 367000000 cycles: 447419451 heartbeat IPC: 0.839704 cumulative IPC: 0.824429 (Simulation time: 0 hr 16 min 50 sec) 
Heartbeat CPU 0 instructions: 368000000 cycles: 448619671 heartbeat IPC: 0.833181 cumulative IPC: 0.824453 (Simulation time: 0 hr 16 min 53 sec) 
Heartbeat CPU 0 instructions: 369000002 cycles: 449921842 heartbeat IPC: 0.76795 cumulative IPC: 0.824284 (Simulation time: 0 hr 16 min 56 sec) 
Heartbeat CPU 0 instructions: 370000001 cycles: 451057033 heartbeat IPC: 0.880908 cumulative IPC: 0.824431 (Simulation time: 0 hr 16 min 58 sec) 
Heartbeat CPU 0 instructions: 371000000 cycles: 452274589 heartbeat IPC: 0.821317 cumulative IPC: 0.824423 (Simulation time: 0 hr 17 min 1 sec) 
Heartbeat CPU 0 instructions: 372000003 cycles: 453534514 heartbeat IPC: 0.7937 cumulative IPC: 0.824335 (Simulation time: 0 hr 17 min 3 sec) 
Heartbeat CPU 0 instructions: 373000002 cycles: 454703670 heartbeat IPC: 0.855317 cumulative IPC: 0.824417 (Simulation time: 0 hr 17 min 6 sec) 
Heartbeat CPU 0 instructions: 374000000 cycles: 455361237 heartbeat IPC: 1.52075 cumulative IPC: 0.825455 (Simulation time: 0 hr 17 min 8 sec) 
Heartbeat CPU 0 instructions: 375000000 cycles: 456256124 heartbeat IPC: 1.11746 cumulative IPC: 0.826047 (Simulation time: 0 hr 17 min 11 sec) 
Heartbeat CPU 0 instructions: 376000002 cycles: 456972254 heartbeat IPC: 1.3964 cumulative IPC: 0.826969 (Simulation time: 0 hr 17 min 13 sec) 
Heartbeat CPU 0 instructions: 377000000 cycles: 458094098 heartbeat IPC: 0.891388 cumulative IPC: 0.827132 (Simulation time: 0 hr 17 min 16 sec) 
Heartbeat CPU 0 instructions: 378000002 cycles: 459242165 heartbeat IPC: 0.871031 cumulative IPC: 0.827246 (Simulation time: 0 hr 17 min 18 sec) 
Heartbeat CPU 0 instructions: 379000000 cycles: 460290738 heartbeat IPC: 0.953675 cumulative IPC: 0.827543 (Simulation time: 0 hr 17 min 20 sec) 
Heartbeat CPU 0 instructions: 380000000 cycles: 461794405 heartbeat IPC: 0.665041 cumulative IPC: 0.826997 (Simulation time: 0 hr 17 min 23 sec) 
Heartbeat CPU 0 instructions: 381000001 cycles: 463087548 heartbeat IPC: 0.77331 cumulative IPC: 0.826842 (Simulation time: 0 hr 17 min 26 sec) 
Heartbeat CPU 0 instructions: 382000001 cycles: 464279899 heartbeat IPC: 0.838679 cumulative IPC: 0.826873 (Simulation time: 0 hr 17 min 28 sec) 
Heartbeat CPU 0 instructions: 383000001 cycles: 465545186 heartbeat IPC: 0.790335 cumulative IPC: 0.826771 (Simulation time: 0 hr 17 min 31 sec) 
Heartbeat CPU 0 instructions: 384000000 cycles: 466417088 heartbeat IPC: 1.14692 cumulative IPC: 0.827388 (Simulation time: 0 hr 17 min 33 sec) 
Heartbeat CPU 0 instructions: 385000000 cycles: 467284596 heartbeat IPC: 1.15273 cumulative IPC: 0.828012 (Simulation time: 0 hr 17 min 35 sec) 
Heartbeat CPU 0 instructions: 386000003 cycles: 468059708 heartbeat IPC: 1.29014 cumulative IPC: 0.828801 (Simulation time: 0 hr 17 min 38 sec) 
Heartbeat CPU 0 instructions: 387000002 cycles: 468971913 heartbeat IPC: 1.09624 cumulative IPC: 0.829338 (Simulation time: 0 hr 17 min 40 sec) 
Heartbeat CPU 0 instructions: 388000001 cycles: 469903331 heartbeat IPC: 1.07363 cumulative IPC: 0.829837 (Simulation time: 0 hr 17 min 42 sec) 
Heartbeat CPU 0 instructions: 389000000 cycles: 471052540 heartbeat IPC: 0.870163 cumulative IPC: 0.829939 (Simulation time: 0 hr 17 min 45 sec) 
Heartbeat CPU 0 instructions: 390000001 cycles: 472337169 heartbeat IPC: 0.778436 cumulative IPC: 0.829794 (Simulation time: 0 hr 17 min 48 sec) 
Heartbeat CPU 0 instructions: 391000000 cycles: 473652510 heartbeat IPC: 0.760258 cumulative IPC: 0.829595 (Simulation time: 0 hr 17 min 51 sec) 
Heartbeat CPU 0 instructions: 392000003 cycles: 474922226 heartbeat IPC: 0.78758 cumulative IPC: 0.829479 (Simulation time: 0 hr 17 min 54 sec) 
Heartbeat CPU 0 instructions: 393000002 cycles: 475981445 heartbeat IPC: 0.944091 cumulative IPC: 0.829742 (Simulation time: 0 hr 17 min 57 sec) 
Heartbeat CPU 0 instructions: 394000000 cycles: 477075416 heartbeat IPC: 0.914099 cumulative IPC: 0.829942 (Simulation time: 0 hr 17 min 59 sec) 
Heartbeat CPU 0 instructions: 395000001 cycles: 478077353 heartbeat IPC: 0.998068 cumulative IPC: 0.830305 (Simulation time: 0 hr 18 min 2 sec) 
Heartbeat CPU 0 instructions: 396000000 cycles: 479246994 heartbeat IPC: 0.854962 cumulative IPC: 0.830367 (Simulation time: 0 hr 18 min 5 sec) 
Heartbeat CPU 0 instructions: 397000000 cycles: 480529418 heartbeat IPC: 0.779773 cumulative IPC: 0.830228 (Simulation time: 0 hr 18 min 8 sec) 
Heartbeat CPU 0 instructions: 398000002 cycles: 481881298 heartbeat IPC: 0.739712 cumulative IPC: 0.829966 (Simulation time: 0 hr 18 min 10 sec) 
Heartbeat CPU 0 instructions: 399000000 cycles: 483181245 heartbeat IPC: 0.769261 cumulative IPC: 0.829798 (Simulation time: 0 hr 18 min 14 sec) 
Heartbeat CPU 0 instructions: 400000000 cycles: 484690690 heartbeat IPC: 0.662495 cumulative IPC: 0.829261 (Simulation time: 0 hr 18 min 16 sec) 
Heartbeat CPU 0 instructions: 401000002 cycles: 486032563 heartbeat IPC: 0.745228 cumulative IPC: 0.829022 (Simulation time: 0 hr 18 min 19 sec) 
Heartbeat CPU 0 instructions: 402000000 cycles: 487270228 heartbeat IPC: 0.807971 cumulative IPC: 0.828967 (Simulation time: 0 hr 18 min 22 sec) 
Heartbeat CPU 0 instructions: 403000000 cycles: 488526212 heartbeat IPC: 0.796188 cumulative IPC: 0.82888 (Simulation time: 0 hr 18 min 25 sec) 
Heartbeat CPU 0 instructions: 404000002 cycles: 489467525 heartbeat IPC: 1.06235 cumulative IPC: 0.829343 (Simulation time: 0 hr 18 min 27 sec) 
Heartbeat CPU 0 instructions: 405000000 cycles: 490683545 heartbeat IPC: 0.822353 cumulative IPC: 0.829325 (Simulation time: 0 hr 18 min 30 sec) 
Heartbeat CPU 0 instructions: 406000003 cycles: 491920533 heartbeat IPC: 0.808418 cumulative IPC: 0.829271 (Simulation time: 0 hr 18 min 33 sec) 
Heartbeat CPU 0 instructions: 407000000 cycles: 493225050 heartbeat IPC: 0.766565 cumulative IPC: 0.8291 (Simulation time: 0 hr 18 min 36 sec) 
Heartbeat CPU 0 instructions: 408000000 cycles: 494599829 heartbeat IPC: 0.72739 cumulative IPC: 0.828809 (Simulation time: 0 hr 18 min 39 sec) 
Heartbeat CPU 0 instructions: 409000000 cycles: 495924539 heartbeat IPC: 0.754882 cumulative IPC: 0.828605 (Simulation time: 0 hr 18 min 41 sec) 
Heartbeat CPU 0 instructions: 410000002 cycles: 497022688 heartbeat IPC: 0.910625 cumulative IPC: 0.828792 (Simulation time: 0 hr 18 min 44 sec) 
Heartbeat CPU 0 instructions: 411000002 cycles: 498111783 heartbeat IPC: 0.918194 cumulative IPC: 0.828993 (Simulation time: 0 hr 18 min 47 sec) 
Heartbeat CPU 0 instructions: 412000000 cycles: 499192862 heartbeat IPC: 0.925 cumulative IPC: 0.829207 (Simulation time: 0 hr 18 min 50 sec) 
Heartbeat CPU 0 instructions: 413000001 cycles: 500277526 heartbeat IPC: 0.921945 cumulative IPC: 0.829414 (Simulation time: 0 hr 18 min 53 sec) 
Heartbeat CPU 0 instructions: 414000001 cycles: 501389688 heartbeat IPC: 0.89915 cumulative IPC: 0.829573 (Simulation time: 0 hr 18 min 56 sec) 
Heartbeat CPU 0 instructions: 415000003 cycles: 502649116 heartbeat IPC: 0.794013 cumulative IPC: 0.829482 (Simulation time: 0 hr 18 min 59 sec) 
Heartbeat CPU 0 instructions: 416000003 cycles: 503534593 heartbeat IPC: 1.12933 cumulative IPC: 0.830025 (Simulation time: 0 hr 19 min 2 sec) 
Heartbeat CPU 0 instructions: 417000001 cycles: 504537025 heartbeat IPC: 0.997572 cumulative IPC: 0.830367 (Simulation time: 0 hr 19 min 5 sec) 
Heartbeat CPU 0 instructions: 418000000 cycles: 505431879 heartbeat IPC: 1.1175 cumulative IPC: 0.83089 (Simulation time: 0 hr 19 min 7 sec) 
Heartbeat CPU 0 instructions: 419000000 cycles: 507556411 heartbeat IPC: 0.470692 cumulative IPC: 0.829339 (Simulation time: 0 hr 19 min 10 sec) 
Heartbeat CPU 0 instructions: 420000002 cycles: 509289327 heartbeat IPC: 0.577063 cumulative IPC: 0.828455 (Simulation time: 0 hr 19 min 12 sec) 
Heartbeat CPU 0 instructions: 421000000 cycles: 510958267 heartbeat IPC: 0.599182 cumulative IPC: 0.827685 (Simulation time: 0 hr 19 min 15 sec) 
Heartbeat CPU 0 instructions: 422000000 cycles: 512162206 heartbeat IPC: 0.830607 cumulative IPC: 0.827692 (Simulation time: 0 hr 19 min 17 sec) 
Heartbeat CPU 0 instructions: 423000000 cycles: 513565337 heartbeat IPC: 0.712692 cumulative IPC: 0.827369 (Simulation time: 0 hr 19 min 20 sec) 
Heartbeat CPU 0 instructions: 424000001 cycles: 515463660 heartbeat IPC: 0.526781 cumulative IPC: 0.82623 (Simulation time: 0 hr 19 min 22 sec) 
Heartbeat CPU 0 instructions: 425000000 cycles: 516594172 heartbeat IPC: 0.884554 cumulative IPC: 0.826361 (Simulation time: 0 hr 19 min 25 sec) 
Heartbeat CPU 0 instructions: 426000000 cycles: 517989351 heartbeat IPC: 0.716754 cumulative IPC: 0.826057 (Simulation time: 0 hr 19 min 28 sec) 
Heartbeat CPU 0 instructions: 427000000 cycles: 519257089 heartbeat IPC: 0.788806 cumulative IPC: 0.825964 (Simulation time: 0 hr 19 min 30 sec) 
Heartbeat CPU 0 instructions: 428000002 cycles: 520506052 heartbeat IPC: 0.800666 cumulative IPC: 0.825902 (Simulation time: 0 hr 19 min 33 sec) 
Heartbeat CPU 0 instructions: 429000000 cycles: 521669813 heartbeat IPC: 0.859281 cumulative IPC: 0.825978 (Simulation time: 0 hr 19 min 36 sec) 
Heartbeat CPU 0 instructions: 430000001 cycles: 522938352 heartbeat IPC: 0.788309 cumulative IPC: 0.825884 (Simulation time: 0 hr 19 min 39 sec) 
Heartbeat CPU 0 instructions: 431000000 cycles: 524249148 heartbeat IPC: 0.762894 cumulative IPC: 0.825722 (Simulation time: 0 hr 19 min 41 sec) 
Heartbeat CPU 0 instructions: 432000001 cycles: 525382705 heartbeat IPC: 0.88218 cumulative IPC: 0.825847 (Simulation time: 0 hr 19 min 44 sec) 
Heartbeat CPU 0 instructions: 433000001 cycles: 526569746 heartbeat IPC: 0.842431 cumulative IPC: 0.825886 (Simulation time: 0 hr 19 min 46 sec) 
Heartbeat CPU 0 instructions: 434000000 cycles: 527536740 heartbeat IPC: 1.03413 cumulative IPC: 0.826278 (Simulation time: 0 hr 19 min 49 sec) 
Heartbeat CPU 0 instructions: 435000001 cycles: 528648560 heartbeat IPC: 0.899427 cumulative IPC: 0.826436 (Simulation time: 0 hr 19 min 52 sec) 
Heartbeat CPU 0 instructions: 436000001 cycles: 529736741 heartbeat IPC: 0.918965 cumulative IPC: 0.826632 (Simulation time: 0 hr 19 min 54 sec) 
Heartbeat CPU 0 instructions: 437000003 cycles: 531011252 heartbeat IPC: 0.784616 cumulative IPC: 0.826528 (Simulation time: 0 hr 19 min 57 sec) 
Heartbeat CPU 0 instructions: 438000000 cycles: 532231264 heartbeat IPC: 0.819662 cumulative IPC: 0.826512 (Simulation time: 0 hr 20 min 0 sec) 
Heartbeat CPU 0 instructions: 439000001 cycles: 533528495 heartbeat IPC: 0.770873 cumulative IPC: 0.826373 (Simulation time: 0 hr 20 min 3 sec) 
Heartbeat CPU 0 instructions: 440000000 cycles: 534690540 heartbeat IPC: 0.860551 cumulative IPC: 0.826449 (Simulation time: 0 hr 20 min 6 sec) 
Heartbeat CPU 0 instructions: 441000003 cycles: 536113861 heartbeat IPC: 0.702584 cumulative IPC: 0.826111 (Simulation time: 0 hr 20 min 8 sec) 
Heartbeat CPU 0 instructions: 442000000 cycles: 537475874 heartbeat IPC: 0.734205 cumulative IPC: 0.825872 (Simulation time: 0 hr 20 min 12 sec) 
Heartbeat CPU 0 instructions: 443000003 cycles: 539035009 heartbeat IPC: 0.641383 cumulative IPC: 0.825324 (Simulation time: 0 hr 20 min 14 sec) 
Heartbeat CPU 0 instructions: 444000000 cycles: 540148200 heartbeat IPC: 0.898316 cumulative IPC: 0.825478 (Simulation time: 0 hr 20 min 17 sec) 
Heartbeat CPU 0 instructions: 445000001 cycles: 541581420 heartbeat IPC: 0.69773 cumulative IPC: 0.825131 (Simulation time: 0 hr 20 min 19 sec) 
Heartbeat CPU 0 instructions: 446000000 cycles: 542813799 heartbeat IPC: 0.811438 cumulative IPC: 0.825099 (Simulation time: 0 hr 20 min 22 sec) 
Heartbeat CPU 0 instructions: 447000000 cycles: 543864169 heartbeat IPC: 0.952045 cumulative IPC: 0.825351 (Simulation time: 0 hr 20 min 25 sec) 
Heartbeat CPU 0 instructions: 448000000 cycles: 545053417 heartbeat IPC: 0.840868 cumulative IPC: 0.825386 (Simulation time: 0 hr 20 min 28 sec) 
Heartbeat CPU 0 instructions: 449000000 cycles: 546438248 heartbeat IPC: 0.72211 cumulative IPC: 0.825117 (Simulation time: 0 hr 20 min 30 sec) 
Heartbeat CPU 0 instructions: 450000000 cycles: 547951056 heartbeat IPC: 0.661022 cumulative IPC: 0.824652 (Simulation time: 0 hr 20 min 33 sec) 
Heartbeat CPU 0 instructions: 451000000 cycles: 549162344 heartbeat IPC: 0.825567 cumulative IPC: 0.824654 (Simulation time: 0 hr 20 min 36 sec) 
Heartbeat CPU 0 instructions: 452000002 cycles: 550364684 heartbeat IPC: 0.831713 cumulative IPC: 0.82467 (Simulation time: 0 hr 20 min 39 sec) 
Heartbeat CPU 0 instructions: 453000002 cycles: 551694278 heartbeat IPC: 0.752109 cumulative IPC: 0.82449 (Simulation time: 0 hr 20 min 41 sec) 
Heartbeat CPU 0 instructions: 454000001 cycles: 552810625 heartbeat IPC: 0.895778 cumulative IPC: 0.824638 (Simulation time: 0 hr 20 min 44 sec) 
Heartbeat CPU 0 instructions: 455000001 cycles: 553824456 heartbeat IPC: 0.986358 cumulative IPC: 0.824942 (Simulation time: 0 hr 20 min 47 sec) 
Heartbeat CPU 0 instructions: 456000000 cycles: 554846617 heartbeat IPC: 0.978319 cumulative IPC: 0.825232 (Simulation time: 0 hr 20 min 49 sec) 
Heartbeat CPU 0 instructions: 457000002 cycles: 555957778 heartbeat IPC: 0.899961 cumulative IPC: 0.825385 (Simulation time: 0 hr 20 min 52 sec) 
Heartbeat CPU 0 instructions: 458000000 cycles: 556903396 heartbeat IPC: 1.05751 cumulative IPC: 0.82579 (Simulation time: 0 hr 20 min 55 sec) 
Heartbeat CPU 0 instructions: 459000001 cycles: 557782734 heartbeat IPC: 1.13722 cumulative IPC: 0.826294 (Simulation time: 0 hr 20 min 57 sec) 
Heartbeat CPU 0 instructions: 460000000 cycles: 558761531 heartbeat IPC: 1.02166 cumulative IPC: 0.826645 (Simulation time: 0 hr 20 min 59 sec) 
Heartbeat CPU 0 instructions: 461000000 cycles: 559777194 heartbeat IPC: 0.984579 cumulative IPC: 0.826939 (Simulation time: 0 hr 21 min 1 sec) 
Heartbeat CPU 0 instructions: 462000000 cycles: 560961783 heartbeat IPC: 0.844175 cumulative IPC: 0.826976 (Simulation time: 0 hr 21 min 4 sec) 
Heartbeat CPU 0 instructions: 463000002 cycles: 562244377 heartbeat IPC: 0.779671 cumulative IPC: 0.826866 (Simulation time: 0 hr 21 min 6 sec) 
Heartbeat CPU 0 instructions: 464000000 cycles: 563543845 heartbeat IPC: 0.769544 cumulative IPC: 0.82673 (Simulation time: 0 hr 21 min 9 sec) 
Heartbeat CPU 0 instructions: 465000000 cycles: 564700907 heartbeat IPC: 0.864258 cumulative IPC: 0.826809 (Simulation time: 0 hr 21 min 12 sec) 
Heartbeat CPU 0 instructions: 466000003 cycles: 565871184 heartbeat IPC: 0.854501 cumulative IPC: 0.826868 (Simulation time: 0 hr 21 min 15 sec) 
Heartbeat CPU 0 instructions: 467000002 cycles: 567199506 heartbeat IPC: 0.752829 cumulative IPC: 0.82669 (Simulation time: 0 hr 21 min 17 sec) 
Heartbeat CPU 0 instructions: 468000000 cycles: 568319426 heartbeat IPC: 0.892919 cumulative IPC: 0.826824 (Simulation time: 0 hr 21 min 20 sec) 
Heartbeat CPU 0 instructions: 469000000 cycles: 569495233 heartbeat IPC: 0.85048 cumulative IPC: 0.826874 (Simulation time: 0 hr 21 min 23 sec) 
Heartbeat CPU 0 instructions: 470000002 cycles: 570843255 heartbeat IPC: 0.741829 cumulative IPC: 0.826668 (Simulation time: 0 hr 21 min 26 sec) 
Heartbeat CPU 0 instructions: 471000000 cycles: 572692271 heartbeat IPC: 0.540827 cumulative IPC: 0.825721 (Simulation time: 0 hr 21 min 28 sec) 
Heartbeat CPU 0 instructions: 472000001 cycles: 574191527 heartbeat IPC: 0.666998 cumulative IPC: 0.825296 (Simulation time: 0 hr 21 min 31 sec) 
Heartbeat CPU 0 instructions: 473000000 cycles: 575568132 heartbeat IPC: 0.726424 cumulative IPC: 0.825054 (Simulation time: 0 hr 21 min 34 sec) 
Heartbeat CPU 0 instructions: 474000000 cycles: 576754316 heartbeat IPC: 0.84304 cumulative IPC: 0.825091 (Simulation time: 0 hr 21 min 37 sec) 
Heartbeat CPU 0 instructions: 475000003 cycles: 578274184 heartbeat IPC: 0.657954 cumulative IPC: 0.824641 (Simulation time: 0 hr 21 min 40 sec) 
Heartbeat CPU 0 instructions: 476000000 cycles: 579523039 heartbeat IPC: 0.800731 cumulative IPC: 0.824588 (Simulation time: 0 hr 21 min 43 sec) 
Heartbeat CPU 0 instructions: 477000001 cycles: 580701144 heartbeat IPC: 0.848822 cumulative IPC: 0.824639 (Simulation time: 0 hr 21 min 46 sec) 
Heartbeat CPU 0 instructions: 478000000 cycles: 582048102 heartbeat IPC: 0.742413 cumulative IPC: 0.824443 (Simulation time: 0 hr 21 min 48 sec) 
Heartbeat CPU 0 instructions: 479000000 cycles: 583202615 heartbeat IPC: 0.866166 cumulative IPC: 0.824528 (Simulation time: 0 hr 21 min 51 sec) 
Heartbeat CPU 0 instructions: 480000001 cycles: 584503639 heartbeat IPC: 0.768626 cumulative IPC: 0.824401 (Simulation time: 0 hr 21 min 54 sec) 
Heartbeat CPU 0 instructions: 481000002 cycles: 585786078 heartbeat IPC: 0.779765 cumulative IPC: 0.8243 (Simulation time: 0 hr 21 min 57 sec) 
Heartbeat CPU 0 instructions: 482000000 cycles: 587053659 heartbeat IPC: 0.788903 cumulative IPC: 0.824222 (Simulation time: 0 hr 22 min 0 sec) 
Heartbeat CPU 0 instructions: 483000001 cycles: 588302085 heartbeat IPC: 0.801009 cumulative IPC: 0.824171 (Simulation time: 0 hr 22 min 3 sec) 
Heartbeat CPU 0 instructions: 484000000 cycles: 589505002 heartbeat IPC: 0.831312 cumulative IPC: 0.824186 (Simulation time: 0 hr 22 min 6 sec) 
Heartbeat CPU 0 instructions: 485000000 cycles: 590623487 heartbeat IPC: 0.894067 cumulative IPC: 0.824322 (Simulation time: 0 hr 22 min 9 sec) 
Heartbeat CPU 0 instructions: 486000001 cycles: 591904344 heartbeat IPC: 0.780728 cumulative IPC: 0.824225 (Simulation time: 0 hr 22 min 11 sec) 
Heartbeat CPU 0 instructions: 487000002 cycles: 593063246 heartbeat IPC: 0.862887 cumulative IPC: 0.824303 (Simulation time: 0 hr 22 min 14 sec) 
Heartbeat CPU 0 instructions: 488000001 cycles: 594247345 heartbeat IPC: 0.844523 cumulative IPC: 0.824344 (Simulation time: 0 hr 22 min 17 sec) 
Heartbeat CPU 0 instructions: 489000003 cycles: 595461642 heartbeat IPC: 0.823523 cumulative IPC: 0.824342 (Simulation time: 0 hr 22 min 19 sec) 
Heartbeat CPU 0 instructions: 490000002 cycles: 596503488 heartbeat IPC: 0.959834 cumulative IPC: 0.824585 (Simulation time: 0 hr 22 min 22 sec) 
Heartbeat CPU 0 instructions: 491000001 cycles: 597528992 heartbeat IPC: 0.975129 cumulative IPC: 0.82485 (Simulation time: 0 hr 22 min 25 sec) 
Heartbeat CPU 0 instructions: 492000003 cycles: 598695351 heartbeat IPC: 0.857371 cumulative IPC: 0.824915 (Simulation time: 0 hr 22 min 27 sec) 
Heartbeat CPU 0 instructions: 493000002 cycles: 599815603 heartbeat IPC: 0.892655 cumulative IPC: 0.825044 (Simulation time: 0 hr 22 min 30 sec) 
Heartbeat CPU 0 instructions: 494000000 cycles: 601089161 heartbeat IPC: 0.7852 cumulative IPC: 0.824958 (Simulation time: 0 hr 22 min 33 sec) 
Heartbeat CPU 0 instructions: 495000000 cycles: 602276155 heartbeat IPC: 0.842464 cumulative IPC: 0.824993 (Simulation time: 0 hr 22 min 36 sec) 
Heartbeat CPU 0 instructions: 496000003 cycles: 603470089 heartbeat IPC: 0.83757 cumulative IPC: 0.825019 (Simulation time: 0 hr 22 min 38 sec) 
Heartbeat CPU 0 instructions: 497000000 cycles: 604780417 heartbeat IPC: 0.763165 cumulative IPC: 0.824881 (Simulation time: 0 hr 22 min 41 sec) 
Heartbeat CPU 0 instructions: 498000000 cycles: 605982693 heartbeat IPC: 0.831756 cumulative IPC: 0.824895 (Simulation time: 0 hr 22 min 44 sec) 
Heartbeat CPU 0 instructions: 499000000 cycles: 607066539 heartbeat IPC: 0.92264 cumulative IPC: 0.825074 (Simulation time: 0 hr 22 min 46 sec) 
Heartbeat CPU 0 instructions: 500000000 cycles: 608492453 heartbeat IPC: 0.701305 cumulative IPC: 0.824777 (Simulation time: 0 hr 22 min 49 sec) 
Heartbeat CPU 0 instructions: 501000000 cycles: 609745789 heartbeat IPC: 0.797871 cumulative IPC: 0.82472 (Simulation time: 0 hr 22 min 52 sec) 
Heartbeat CPU 0 instructions: 502000001 cycles: 611032675 heartbeat IPC: 0.77707 cumulative IPC: 0.824618 (Simulation time: 0 hr 22 min 54 sec) 
Heartbeat CPU 0 instructions: 503000000 cycles: 612245705 heartbeat IPC: 0.824381 cumulative IPC: 0.824617 (Simulation time: 0 hr 22 min 57 sec) 
Heartbeat CPU 0 instructions: 504000000 cycles: 613404344 heartbeat IPC: 0.863082 cumulative IPC: 0.824691 (Simulation time: 0 hr 22 min 59 sec) 
Heartbeat CPU 0 instructions: 505000003 cycles: 614642509 heartbeat IPC: 0.807649 cumulative IPC: 0.824656 (Simulation time: 0 hr 23 min 2 sec) 
Heartbeat CPU 0 instructions: 506000000 cycles: 615580086 heartbeat IPC: 1.06658 cumulative IPC: 0.825034 (Simulation time: 0 hr 23 min 4 sec) 
Heartbeat CPU 0 instructions: 507000000 cycles: 616445567 heartbeat IPC: 1.15543 cumulative IPC: 0.825509 (Simulation time: 0 hr 23 min 7 sec) 
Heartbeat CPU 0 instructions: 508000001 cycles: 617558658 heartbeat IPC: 0.8984 cumulative IPC: 0.825643 (Simulation time: 0 hr 23 min 9 sec) 
Heartbeat CPU 0 instructions: 509000002 cycles: 618506765 heartbeat IPC: 1.05473 cumulative IPC: 0.826003 (Simulation time: 0 hr 23 min 11 sec) 
Heartbeat CPU 0 instructions: 510000000 cycles: 619543317 heartbeat IPC: 0.964735 cumulative IPC: 0.82624 (Simulation time: 0 hr 23 min 14 sec) 
Finished CPU 0 instructions: 500000000 cycles: 605150900 cumulative IPC: 0.82624 (Simulation time: 0 hr 23 min 14 sec) 

ChampSim completed all CPUs

Region of Interest Statistics

CPU 0 cumulative IPC: 0.82624 instructions: 500000000 cycles: 605150900
L1D TOTAL     ACCESS:  165313519  HIT:  161042486  MISS:    4271033
L1D LOAD      ACCESS:   99911283  HIT:   96123251  MISS:    3788032
L1D RFO       ACCESS:   65402236  HIT:   64919235  MISS:     483001
L1D PREFETCH  ACCESS:          0  HIT:          0  MISS:          0
L1D WRITEBACK ACCESS:          0  HIT:          0  MISS:          0
L1D PREFETCH  REQUESTED:          0  ISSUED:          0  USEFUL:          0  USELESS:          0
L1D AVERAGE MISS LATENCY: 30.585 cycles
L1I TOTAL     ACCESS:   99136413  HIT:   98066703  MISS:    1069710
L1I LOAD      ACCESS:   99136413  HIT:   98066703  MISS:    1069710
L1I RFO       ACCESS:          0  HIT:          0  MISS:          0
L1I PREFETCH  ACCESS:          0  HIT:          0  MISS:          0
L1I WRITEBACK ACCESS:          0  HIT:          0  MISS:          0
L1I PREFETCH  REQUESTED:          0  ISSUED:          0  USEFUL:          0  USELESS:          0
L1I AVERAGE MISS LATENCY: 43.2229 cycles
L2C TOTAL     ACCESS:    6445345  HIT:    5184703  MISS:    1260642
L2C LOAD      ACCESS:    4857505  HIT:    3851854  MISS:    1005651
L2C RFO       ACCESS:     482955  HIT:     230541  MISS:     252414
L2C PREFETCH  ACCESS:          0  HIT:          0  MISS:          0
L2C WRITEBACK ACCESS:    1104885  HIT:    1102308  MISS:       2577
L2C PREFETCH  REQUESTED:          0  ISSUED:          0  USEFUL:          0  USELESS:          0
L2C AVERAGE MISS LATENCY: 79.9907 cycles
LLC TOTAL     ACCESS:    2158828  HIT:    1748574  MISS:     410254
LLC LOAD      ACCESS:    1005643  HIT:     797905  MISS:     207738
LLC RFO       ACCESS:     252414  HIT:     134572  MISS:     117842
LLC PREFETCH  ACCESS:     473561  HIT:     391286  MISS:      82275
LLC WRITEBACK ACCESS:     427210  HIT:     424811  MISS:       2399
LLC PREFETCH  REQUESTED:     513441  ISSUED:     477469  USEFUL:      19538  USELESS:      61454
LLC AVERAGE MISS LATENCY: 192.469 cycles
Major fault: 0 Minor fault: 16159

DRAM Statistics
 CHANNEL 0
 RQ ROW_BUFFER_HIT:      96449  ROW_BUFFER_MISS:     107922
 DBUS_CONGESTED:     108138
 WQ ROW_BUFFER_HIT:      25749  ROW_BUFFER_MISS:      57437  FULL:          0

 CHANNEL 1
 RQ ROW_BUFFER_HIT:      95864  ROW_BUFFER_MISS:     107586
 DBUS_CONGESTED:     108138
 WQ ROW_BUFFER_HIT:      25775  ROW_BUFFER_MISS:      57044  FULL:          0

 AVG_CONGESTED_CYCLE: 17

CPU 0 Branch Prediction Accuracy: 96.2131% MPKI: 8.12666 Average ROB Occupancy at Mispredict: 47.3089

Branch types
NOT_BRANCH: 392699187 78.5398%
BRANCH_DIRECT_JUMP: 8925862 1.78517%
BRANCH_INDIRECT: 1965003 0.393001%
BRANCH_CONDITIONAL: 78846310 15.7693%
BRANCH_DIRECT_CALL: 8310522 1.6621%
BRANCH_INDIRECT_CALL: 471286 0.0942572%
BRANCH_RETURN: 8781796 1.75636%
BRANCH_OTHER: 0 0%

