
*** ChampSim Multicore Out-of-Order Simulator ***

Warmup Instructions: 1000000
Prefetch Warmup Instructions: 10000000
Simulation Instructions: 500000000
Stat Printing Period: 1000000
Number of CPUs: 1
LLC sets: 2048
LLC ways: 16
Off-chip DRAM Size: 32768 MB Channels: 2 Width: 64-bit Data Rate: 1024 MT/s

CPU 0 runs /scratch/cluster/cmolder/ML-DPC/ChampSimTraces/spec17/602.gcc-s3.trace.xz
Read seed: 224
Heartbeat CPU 0 instructions: 1000000 cycles: 501312 heartbeat IPC: 1.99477 cumulative IPC: 1.99477 (Simulation time: 0 hr 0 min 5 sec) 

Warmup complete CPU 0 instructions: 1000004 cycles: 501313 (Simulation time: 0 hr 0 min 5 sec) 

Heartbeat CPU 0 instructions: 2000003 cycles: 2333438 heartbeat IPC: 0.545816 cumulative IPC: 0.545814 (Simulation time: 0 hr 0 min 12 sec) 
Heartbeat CPU 0 instructions: 3000000 cycles: 4149825 heartbeat IPC: 0.550542 cumulative IPC: 0.548168 (Simulation time: 0 hr 0 min 19 sec) 
Heartbeat CPU 0 instructions: 4000002 cycles: 5957452 heartbeat IPC: 0.553213 cumulative IPC: 0.549839 (Simulation time: 0 hr 0 min 26 sec) 
Heartbeat CPU 0 instructions: 5000003 cycles: 7789888 heartbeat IPC: 0.545722 cumulative IPC: 0.548804 (Simulation time: 0 hr 0 min 34 sec) 
Heartbeat CPU 0 instructions: 6000003 cycles: 9609416 heartbeat IPC: 0.549593 cumulative IPC: 0.548962 (Simulation time: 0 hr 0 min 41 sec) 
Heartbeat CPU 0 instructions: 7000000 cycles: 11423458 heartbeat IPC: 0.551253 cumulative IPC: 0.549342 (Simulation time: 0 hr 0 min 48 sec) 
Heartbeat CPU 0 instructions: 8000003 cycles: 13274765 heartbeat IPC: 0.540161 cumulative IPC: 0.548012 (Simulation time: 0 hr 0 min 55 sec) 
Heartbeat CPU 0 instructions: 9000000 cycles: 15122032 heartbeat IPC: 0.541339 cumulative IPC: 0.547168 (Simulation time: 0 hr 1 min 2 sec) 
Heartbeat CPU 0 instructions: 10000000 cycles: 16953846 heartbeat IPC: 0.545907 cumulative IPC: 0.547028 (Simulation time: 0 hr 1 min 9 sec) 

Warmup complete CPU 0 instructions: 10000001 cycles: 16953847 (Simulation time: 0 hr 1 min 9 sec) 

Heartbeat CPU 0 instructions: 11000000 cycles: 18759461 heartbeat IPC: 0.553828 cumulative IPC: 0.553828 (Simulation time: 0 hr 1 min 16 sec) 
Heartbeat CPU 0 instructions: 12000000 cycles: 20578298 heartbeat IPC: 0.549802 cumulative IPC: 0.551807 (Simulation time: 0 hr 1 min 23 sec) 
Heartbeat CPU 0 instructions: 13000003 cycles: 22446401 heartbeat IPC: 0.535304 cumulative IPC: 0.546194 (Simulation time: 0 hr 1 min 30 sec) 
Heartbeat CPU 0 instructions: 14000003 cycles: 24366393 heartbeat IPC: 0.520836 cumulative IPC: 0.539626 (Simulation time: 0 hr 1 min 38 sec) 
Heartbeat CPU 0 instructions: 15000002 cycles: 26358385 heartbeat IPC: 0.50201 cumulative IPC: 0.531658 (Simulation time: 0 hr 1 min 44 sec) 
Heartbeat CPU 0 instructions: 16000003 cycles: 28178795 heartbeat IPC: 0.549327 cumulative IPC: 0.534524 (Simulation time: 0 hr 1 min 52 sec) 
Heartbeat CPU 0 instructions: 17000001 cycles: 29992574 heartbeat IPC: 0.551334 cumulative IPC: 0.536862 (Simulation time: 0 hr 1 min 59 sec) 
Heartbeat CPU 0 instructions: 18000002 cycles: 31827587 heartbeat IPC: 0.544956 cumulative IPC: 0.537861 (Simulation time: 0 hr 2 min 6 sec) 
Heartbeat CPU 0 instructions: 19000001 cycles: 33662865 heartbeat IPC: 0.544876 cumulative IPC: 0.538631 (Simulation time: 0 hr 2 min 14 sec) 
Heartbeat CPU 0 instructions: 20000000 cycles: 35502899 heartbeat IPC: 0.543468 cumulative IPC: 0.539111 (Simulation time: 0 hr 2 min 21 sec) 
Heartbeat CPU 0 instructions: 21000000 cycles: 37326819 heartbeat IPC: 0.54827 cumulative IPC: 0.539931 (Simulation time: 0 hr 2 min 28 sec) 
Heartbeat CPU 0 instructions: 22000000 cycles: 39135216 heartbeat IPC: 0.552976 cumulative IPC: 0.540995 (Simulation time: 0 hr 2 min 35 sec) 
Heartbeat CPU 0 instructions: 23000001 cycles: 40957169 heartbeat IPC: 0.548862 cumulative IPC: 0.541592 (Simulation time: 0 hr 2 min 42 sec) 
Heartbeat CPU 0 instructions: 24000001 cycles: 42784667 heartbeat IPC: 0.547196 cumulative IPC: 0.541988 (Simulation time: 0 hr 2 min 50 sec) 
Heartbeat CPU 0 instructions: 25000001 cycles: 44611160 heartbeat IPC: 0.547497 cumulative IPC: 0.542352 (Simulation time: 0 hr 2 min 57 sec) 
Heartbeat CPU 0 instructions: 26000000 cycles: 46413644 heartbeat IPC: 0.554789 cumulative IPC: 0.543113 (Simulation time: 0 hr 3 min 4 sec) 
Heartbeat CPU 0 instructions: 27000003 cycles: 48217713 heartbeat IPC: 0.554304 cumulative IPC: 0.543759 (Simulation time: 0 hr 3 min 11 sec) 
Heartbeat CPU 0 instructions: 28000001 cycles: 50019396 heartbeat IPC: 0.555035 cumulative IPC: 0.544373 (Simulation time: 0 hr 3 min 19 sec) 
Heartbeat CPU 0 instructions: 29000001 cycles: 51839348 heartbeat IPC: 0.549465 cumulative IPC: 0.544639 (Simulation time: 0 hr 3 min 26 sec) 
Heartbeat CPU 0 instructions: 30000000 cycles: 53352593 heartbeat IPC: 0.660831 cumulative IPC: 0.549469 (Simulation time: 0 hr 3 min 33 sec) 
Heartbeat CPU 0 instructions: 31000000 cycles: 54457893 heartbeat IPC: 0.904732 cumulative IPC: 0.55994 (Simulation time: 0 hr 3 min 39 sec) 
Heartbeat CPU 0 instructions: 32000002 cycles: 55557996 heartbeat IPC: 0.909008 cumulative IPC: 0.569887 (Simulation time: 0 hr 3 min 46 sec) 
Heartbeat CPU 0 instructions: 33000000 cycles: 56649832 heartbeat IPC: 0.915887 cumulative IPC: 0.579404 (Simulation time: 0 hr 3 min 52 sec) 
Heartbeat CPU 0 instructions: 34000000 cycles: 57753395 heartbeat IPC: 0.906156 cumulative IPC: 0.588242 (Simulation time: 0 hr 3 min 58 sec) 
Heartbeat CPU 0 instructions: 35000002 cycles: 58851464 heartbeat IPC: 0.910691 cumulative IPC: 0.596693 (Simulation time: 0 hr 4 min 5 sec) 
Heartbeat CPU 0 instructions: 36000003 cycles: 59943028 heartbeat IPC: 0.916118 cumulative IPC: 0.604803 (Simulation time: 0 hr 4 min 12 sec) 
Heartbeat CPU 0 instructions: 37000001 cycles: 61129109 heartbeat IPC: 0.843111 cumulative IPC: 0.611202 (Simulation time: 0 hr 4 min 18 sec) 
Heartbeat CPU 0 instructions: 38000003 cycles: 62331969 heartbeat IPC: 0.831354 cumulative IPC: 0.617037 (Simulation time: 0 hr 4 min 25 sec) 
Heartbeat CPU 0 instructions: 39000000 cycles: 63563849 heartbeat IPC: 0.811765 cumulative IPC: 0.622184 (Simulation time: 0 hr 4 min 31 sec) 
Heartbeat CPU 0 instructions: 40000002 cycles: 64653196 heartbeat IPC: 0.917983 cumulative IPC: 0.628939 (Simulation time: 0 hr 4 min 38 sec) 
Heartbeat CPU 0 instructions: 41000001 cycles: 65743793 heartbeat IPC: 0.916928 cumulative IPC: 0.635377 (Simulation time: 0 hr 4 min 44 sec) 
Heartbeat CPU 0 instructions: 42000001 cycles: 66838848 heartbeat IPC: 0.913196 cumulative IPC: 0.641475 (Simulation time: 0 hr 4 min 50 sec) 
Heartbeat CPU 0 instructions: 43000001 cycles: 67930488 heartbeat IPC: 0.916053 cumulative IPC: 0.647355 (Simulation time: 0 hr 4 min 56 sec) 
Heartbeat CPU 0 instructions: 44000000 cycles: 69020828 heartbeat IPC: 0.917144 cumulative IPC: 0.653005 (Simulation time: 0 hr 5 min 3 sec) 
Heartbeat CPU 0 instructions: 45000003 cycles: 70113001 heartbeat IPC: 0.915609 cumulative IPC: 0.6584 (Simulation time: 0 hr 5 min 9 sec) 
Heartbeat CPU 0 instructions: 46000000 cycles: 71197450 heartbeat IPC: 0.922125 cumulative IPC: 0.663673 (Simulation time: 0 hr 5 min 16 sec) 
Heartbeat CPU 0 instructions: 47000000 cycles: 72288289 heartbeat IPC: 0.916726 cumulative IPC: 0.668661 (Simulation time: 0 hr 5 min 22 sec) 
Heartbeat CPU 0 instructions: 48000000 cycles: 73382691 heartbeat IPC: 0.913741 cumulative IPC: 0.673414 (Simulation time: 0 hr 5 min 28 sec) 
Heartbeat CPU 0 instructions: 49000003 cycles: 74474378 heartbeat IPC: 0.916016 cumulative IPC: 0.678019 (Simulation time: 0 hr 5 min 34 sec) 
Heartbeat CPU 0 instructions: 50000000 cycles: 75557435 heartbeat IPC: 0.92331 cumulative IPC: 0.682552 (Simulation time: 0 hr 5 min 41 sec) 
Heartbeat CPU 0 instructions: 51000002 cycles: 76642464 heartbeat IPC: 0.921636 cumulative IPC: 0.686898 (Simulation time: 0 hr 5 min 47 sec) 
Heartbeat CPU 0 instructions: 52000003 cycles: 77727974 heartbeat IPC: 0.921227 cumulative IPC: 0.691084 (Simulation time: 0 hr 5 min 53 sec) 
Heartbeat CPU 0 instructions: 53000000 cycles: 78818820 heartbeat IPC: 0.916717 cumulative IPC: 0.695062 (Simulation time: 0 hr 5 min 59 sec) 
Heartbeat CPU 0 instructions: 54000000 cycles: 79913303 heartbeat IPC: 0.913673 cumulative IPC: 0.698862 (Simulation time: 0 hr 6 min 6 sec) 
Heartbeat CPU 0 instructions: 55000000 cycles: 81009933 heartbeat IPC: 0.911885 cumulative IPC: 0.702509 (Simulation time: 0 hr 6 min 12 sec) 
Heartbeat CPU 0 instructions: 56000000 cycles: 82106247 heartbeat IPC: 0.912147 cumulative IPC: 0.706037 (Simulation time: 0 hr 6 min 18 sec) 
Heartbeat CPU 0 instructions: 57000003 cycles: 83194319 heartbeat IPC: 0.91906 cumulative IPC: 0.709536 (Simulation time: 0 hr 6 min 24 sec) 
Heartbeat CPU 0 instructions: 58000001 cycles: 84295050 heartbeat IPC: 0.908485 cumulative IPC: 0.712788 (Simulation time: 0 hr 6 min 31 sec) 
Heartbeat CPU 0 instructions: 59000003 cycles: 85389501 heartbeat IPC: 0.913702 cumulative IPC: 0.716001 (Simulation time: 0 hr 6 min 37 sec) 
Heartbeat CPU 0 instructions: 60000000 cycles: 86476505 heartbeat IPC: 0.919957 cumulative IPC: 0.71919 (Simulation time: 0 hr 6 min 43 sec) 
Heartbeat CPU 0 instructions: 61000001 cycles: 87650675 heartbeat IPC: 0.851666 cumulative IPC: 0.72139 (Simulation time: 0 hr 6 min 49 sec) 
Heartbeat CPU 0 instructions: 62000000 cycles: 88821315 heartbeat IPC: 0.854233 cumulative IPC: 0.723554 (Simulation time: 0 hr 6 min 55 sec) 
Heartbeat CPU 0 instructions: 63000001 cycles: 90370544 heartbeat IPC: 0.645483 cumulative IPC: 0.721907 (Simulation time: 0 hr 7 min 1 sec) 
Heartbeat CPU 0 instructions: 64000003 cycles: 91472413 heartbeat IPC: 0.907551 cumulative IPC: 0.724652 (Simulation time: 0 hr 7 min 7 sec) 
Heartbeat CPU 0 instructions: 65000001 cycles: 92561984 heartbeat IPC: 0.917791 cumulative IPC: 0.727435 (Simulation time: 0 hr 7 min 13 sec) 
Heartbeat CPU 0 instructions: 66000000 cycles: 93646294 heartbeat IPC: 0.922245 cumulative IPC: 0.730189 (Simulation time: 0 hr 7 min 20 sec) 
Heartbeat CPU 0 instructions: 67000000 cycles: 94740896 heartbeat IPC: 0.913574 cumulative IPC: 0.73277 (Simulation time: 0 hr 7 min 26 sec) 
Heartbeat CPU 0 instructions: 68000003 cycles: 95834093 heartbeat IPC: 0.914751 cumulative IPC: 0.735292 (Simulation time: 0 hr 7 min 32 sec) 
Heartbeat CPU 0 instructions: 69000000 cycles: 96926102 heartbeat IPC: 0.915741 cumulative IPC: 0.737756 (Simulation time: 0 hr 7 min 39 sec) 
Heartbeat CPU 0 instructions: 70000002 cycles: 98016201 heartbeat IPC: 0.91735 cumulative IPC: 0.740171 (Simulation time: 0 hr 7 min 45 sec) 
Heartbeat CPU 0 instructions: 71000002 cycles: 99104152 heartbeat IPC: 0.919159 cumulative IPC: 0.742541 (Simulation time: 0 hr 7 min 51 sec) 
Heartbeat CPU 0 instructions: 72000003 cycles: 100193373 heartbeat IPC: 0.918088 cumulative IPC: 0.744838 (Simulation time: 0 hr 7 min 58 sec) 
Heartbeat CPU 0 instructions: 73000000 cycles: 101287753 heartbeat IPC: 0.913757 cumulative IPC: 0.74703 (Simulation time: 0 hr 8 min 4 sec) 
Heartbeat CPU 0 instructions: 74000000 cycles: 102368767 heartbeat IPC: 0.925057 cumulative IPC: 0.749284 (Simulation time: 0 hr 8 min 10 sec) 
Heartbeat CPU 0 instructions: 75000002 cycles: 103447972 heartbeat IPC: 0.92661 cumulative IPC: 0.751496 (Simulation time: 0 hr 8 min 16 sec) 
Heartbeat CPU 0 instructions: 76000003 cycles: 104536773 heartbeat IPC: 0.918442 cumulative IPC: 0.753572 (Simulation time: 0 hr 8 min 22 sec) 
Heartbeat CPU 0 instructions: 77000000 cycles: 105616405 heartbeat IPC: 0.926239 cumulative IPC: 0.755674 (Simulation time: 0 hr 8 min 28 sec) 
Heartbeat CPU 0 instructions: 78000001 cycles: 106711445 heartbeat IPC: 0.91321 cumulative IPC: 0.757596 (Simulation time: 0 hr 8 min 35 sec) 
Heartbeat CPU 0 instructions: 79000000 cycles: 107804568 heartbeat IPC: 0.914809 cumulative IPC: 0.759488 (Simulation time: 0 hr 8 min 41 sec) 
Heartbeat CPU 0 instructions: 80000000 cycles: 108904223 heartbeat IPC: 0.909376 cumulative IPC: 0.76128 (Simulation time: 0 hr 8 min 47 sec) 
Heartbeat CPU 0 instructions: 81000000 cycles: 109994576 heartbeat IPC: 0.917134 cumulative IPC: 0.763107 (Simulation time: 0 hr 8 min 54 sec) 
Heartbeat CPU 0 instructions: 82000003 cycles: 111083561 heartbeat IPC: 0.918289 cumulative IPC: 0.764902 (Simulation time: 0 hr 9 min 0 sec) 
Heartbeat CPU 0 instructions: 83000001 cycles: 112180369 heartbeat IPC: 0.911735 cumulative IPC: 0.766593 (Simulation time: 0 hr 9 min 6 sec) 
Heartbeat CPU 0 instructions: 84000002 cycles: 113272666 heartbeat IPC: 0.915503 cumulative IPC: 0.768282 (Simulation time: 0 hr 9 min 12 sec) 
Heartbeat CPU 0 instructions: 85000001 cycles: 114370171 heartbeat IPC: 0.911157 cumulative IPC: 0.769892 (Simulation time: 0 hr 9 min 18 sec) 
Heartbeat CPU 0 instructions: 86000001 cycles: 115480441 heartbeat IPC: 0.900682 cumulative IPC: 0.771365 (Simulation time: 0 hr 9 min 25 sec) 
Heartbeat CPU 0 instructions: 87000000 cycles: 116598468 heartbeat IPC: 0.894432 cumulative IPC: 0.772746 (Simulation time: 0 hr 9 min 31 sec) 
Heartbeat CPU 0 instructions: 88000000 cycles: 117706636 heartbeat IPC: 0.90239 cumulative IPC: 0.774172 (Simulation time: 0 hr 9 min 37 sec) 
Heartbeat CPU 0 instructions: 89000000 cycles: 118791713 heartbeat IPC: 0.921594 cumulative IPC: 0.775743 (Simulation time: 0 hr 9 min 43 sec) 
Heartbeat CPU 0 instructions: 90000000 cycles: 119892306 heartbeat IPC: 0.908601 cumulative IPC: 0.777163 (Simulation time: 0 hr 9 min 50 sec) 
Heartbeat CPU 0 instructions: 91000000 cycles: 121005851 heartbeat IPC: 0.898033 cumulative IPC: 0.778457 (Simulation time: 0 hr 9 min 56 sec) 
Heartbeat CPU 0 instructions: 92000002 cycles: 122159090 heartbeat IPC: 0.867125 cumulative IPC: 0.779429 (Simulation time: 0 hr 10 min 2 sec) 
Heartbeat CPU 0 instructions: 93000003 cycles: 126026378 heartbeat IPC: 0.258579 cumulative IPC: 0.760962 (Simulation time: 0 hr 10 min 11 sec) 
Heartbeat CPU 0 instructions: 94000000 cycles: 131089376 heartbeat IPC: 0.197511 cumulative IPC: 0.735967 (Simulation time: 0 hr 10 min 22 sec) 
Heartbeat CPU 0 instructions: 95000001 cycles: 135304604 heartbeat IPC: 0.237235 cumulative IPC: 0.718204 (Simulation time: 0 hr 10 min 32 sec) 
Heartbeat CPU 0 instructions: 96000000 cycles: 138547787 heartbeat IPC: 0.308339 cumulative IPC: 0.707272 (Simulation time: 0 hr 10 min 38 sec) 
Heartbeat CPU 0 instructions: 97000002 cycles: 139713689 heartbeat IPC: 0.857707 cumulative IPC: 0.708701 (Simulation time: 0 hr 10 min 44 sec) 
Heartbeat CPU 0 instructions: 98000001 cycles: 140819687 heartbeat IPC: 0.90416 cumulative IPC: 0.710446 (Simulation time: 0 hr 10 min 50 sec) 
Heartbeat CPU 0 instructions: 99000000 cycles: 141935391 heartbeat IPC: 0.896294 cumulative IPC: 0.712105 (Simulation time: 0 hr 10 min 57 sec) 
Heartbeat CPU 0 instructions: 100000000 cycles: 143052127 heartbeat IPC: 0.895467 cumulative IPC: 0.713729 (Simulation time: 0 hr 11 min 3 sec) 
Heartbeat CPU 0 instructions: 101000000 cycles: 144170295 heartbeat IPC: 0.89432 cumulative IPC: 0.715316 (Simulation time: 0 hr 11 min 9 sec) 
Heartbeat CPU 0 instructions: 102000000 cycles: 145280837 heartbeat IPC: 0.900461 cumulative IPC: 0.716919 (Simulation time: 0 hr 11 min 16 sec) 
Heartbeat CPU 0 instructions: 103000002 cycles: 146394963 heartbeat IPC: 0.897566 cumulative IPC: 0.718473 (Simulation time: 0 hr 11 min 22 sec) 
Heartbeat CPU 0 instructions: 104000002 cycles: 147490491 heartbeat IPC: 0.912802 cumulative IPC: 0.720104 (Simulation time: 0 hr 11 min 28 sec) 
Heartbeat CPU 0 instructions: 105000002 cycles: 148598021 heartbeat IPC: 0.90291 cumulative IPC: 0.721642 (Simulation time: 0 hr 11 min 34 sec) 
Heartbeat CPU 0 instructions: 106000000 cycles: 149716767 heartbeat IPC: 0.893856 cumulative IPC: 0.723093 (Simulation time: 0 hr 11 min 41 sec) 
Heartbeat CPU 0 instructions: 107000003 cycles: 150818693 heartbeat IPC: 0.907505 cumulative IPC: 0.724611 (Simulation time: 0 hr 11 min 47 sec) 
Heartbeat CPU 0 instructions: 108000000 cycles: 151912843 heartbeat IPC: 0.913949 cumulative IPC: 0.726146 (Simulation time: 0 hr 11 min 53 sec) 
Heartbeat CPU 0 instructions: 109000000 cycles: 153016822 heartbeat IPC: 0.905814 cumulative IPC: 0.727604 (Simulation time: 0 hr 11 min 59 sec) 
Heartbeat CPU 0 instructions: 110000000 cycles: 154114465 heartbeat IPC: 0.911043 cumulative IPC: 0.729072 (Simulation time: 0 hr 12 min 5 sec) 
Heartbeat CPU 0 instructions: 111000002 cycles: 155222897 heartbeat IPC: 0.902177 cumulative IPC: 0.73046 (Simulation time: 0 hr 12 min 12 sec) 
Heartbeat CPU 0 instructions: 112000000 cycles: 156339201 heartbeat IPC: 0.895812 cumulative IPC: 0.731784 (Simulation time: 0 hr 12 min 18 sec) 
Heartbeat CPU 0 instructions: 113000000 cycles: 157453260 heartbeat IPC: 0.897619 cumulative IPC: 0.733099 (Simulation time: 0 hr 12 min 24 sec) 
Heartbeat CPU 0 instructions: 114000000 cycles: 158565520 heartbeat IPC: 0.89907 cumulative IPC: 0.734403 (Simulation time: 0 hr 12 min 30 sec) 
Heartbeat CPU 0 instructions: 115000001 cycles: 159673182 heartbeat IPC: 0.902803 cumulative IPC: 0.73571 (Simulation time: 0 hr 12 min 36 sec) 
Heartbeat CPU 0 instructions: 116000002 cycles: 160789026 heartbeat IPC: 0.896183 cumulative IPC: 0.736955 (Simulation time: 0 hr 12 min 43 sec) 
Heartbeat CPU 0 instructions: 117000002 cycles: 161895965 heartbeat IPC: 0.903392 cumulative IPC: 0.738226 (Simulation time: 0 hr 12 min 49 sec) 
Heartbeat CPU 0 instructions: 118000001 cycles: 163000742 heartbeat IPC: 0.905159 cumulative IPC: 0.739488 (Simulation time: 0 hr 12 min 55 sec) 
Heartbeat CPU 0 instructions: 119000001 cycles: 164134007 heartbeat IPC: 0.882406 cumulative IPC: 0.740589 (Simulation time: 0 hr 13 min 1 sec) 
Heartbeat CPU 0 instructions: 120000000 cycles: 165295522 heartbeat IPC: 0.860944 cumulative IPC: 0.741531 (Simulation time: 0 hr 13 min 7 sec) 
Heartbeat CPU 0 instructions: 121000000 cycles: 166423597 heartbeat IPC: 0.886466 cumulative IPC: 0.742625 (Simulation time: 0 hr 13 min 14 sec) 
Heartbeat CPU 0 instructions: 122000000 cycles: 167529182 heartbeat IPC: 0.904499 cumulative IPC: 0.743814 (Simulation time: 0 hr 13 min 20 sec) 
Heartbeat CPU 0 instructions: 123000000 cycles: 168637905 heartbeat IPC: 0.901939 cumulative IPC: 0.744969 (Simulation time: 0 hr 13 min 26 sec) 
Heartbeat CPU 0 instructions: 124000002 cycles: 169785887 heartbeat IPC: 0.871096 cumulative IPC: 0.745917 (Simulation time: 0 hr 13 min 33 sec) 
Heartbeat CPU 0 instructions: 125000000 cycles: 170934934 heartbeat IPC: 0.870285 cumulative IPC: 0.746845 (Simulation time: 0 hr 13 min 39 sec) 
Heartbeat CPU 0 instructions: 126000001 cycles: 172811113 heartbeat IPC: 0.532999 cumulative IPC: 0.744271 (Simulation time: 0 hr 13 min 46 sec) 
Heartbeat CPU 0 instructions: 127000003 cycles: 174950725 heartbeat IPC: 0.467375 cumulative IPC: 0.740521 (Simulation time: 0 hr 13 min 52 sec) 
Heartbeat CPU 0 instructions: 128000000 cycles: 176101101 heartbeat IPC: 0.869278 cumulative IPC: 0.741452 (Simulation time: 0 hr 13 min 59 sec) 
Heartbeat CPU 0 instructions: 129000000 cycles: 177218426 heartbeat IPC: 0.894995 cumulative IPC: 0.742522 (Simulation time: 0 hr 14 min 6 sec) 
Heartbeat CPU 0 instructions: 130000003 cycles: 178335819 heartbeat IPC: 0.894943 cumulative IPC: 0.743577 (Simulation time: 0 hr 14 min 12 sec) 
Heartbeat CPU 0 instructions: 131000000 cycles: 179461881 heartbeat IPC: 0.888048 cumulative IPC: 0.744579 (Simulation time: 0 hr 14 min 19 sec) 
Heartbeat CPU 0 instructions: 132000000 cycles: 180586913 heartbeat IPC: 0.888864 cumulative IPC: 0.745571 (Simulation time: 0 hr 14 min 25 sec) 
Heartbeat CPU 0 instructions: 133000003 cycles: 181709751 heartbeat IPC: 0.890603 cumulative IPC: 0.746559 (Simulation time: 0 hr 14 min 32 sec) 
Heartbeat CPU 0 instructions: 134000000 cycles: 182829050 heartbeat IPC: 0.893414 cumulative IPC: 0.74755 (Simulation time: 0 hr 14 min 38 sec) 
Heartbeat CPU 0 instructions: 135000003 cycles: 183946393 heartbeat IPC: 0.894983 cumulative IPC: 0.748536 (Simulation time: 0 hr 14 min 44 sec) 
Heartbeat CPU 0 instructions: 136000000 cycles: 185065016 heartbeat IPC: 0.893954 cumulative IPC: 0.749504 (Simulation time: 0 hr 14 min 51 sec) 
Heartbeat CPU 0 instructions: 137000002 cycles: 186196263 heartbeat IPC: 0.883982 cumulative IPC: 0.750403 (Simulation time: 0 hr 14 min 57 sec) 
Heartbeat CPU 0 instructions: 138000000 cycles: 187310531 heartbeat IPC: 0.897448 cumulative IPC: 0.751365 (Simulation time: 0 hr 15 min 4 sec) 
Heartbeat CPU 0 instructions: 139000001 cycles: 188423254 heartbeat IPC: 0.898697 cumulative IPC: 0.752321 (Simulation time: 0 hr 15 min 10 sec) 
Heartbeat CPU 0 instructions: 140000001 cycles: 189545492 heartbeat IPC: 0.891077 cumulative IPC: 0.753223 (Simulation time: 0 hr 15 min 17 sec) 
Heartbeat CPU 0 instructions: 141000003 cycles: 190660346 heartbeat IPC: 0.89698 cumulative IPC: 0.754146 (Simulation time: 0 hr 15 min 23 sec) 
Heartbeat CPU 0 instructions: 142000003 cycles: 191788206 heartbeat IPC: 0.886635 cumulative IPC: 0.755 (Simulation time: 0 hr 15 min 29 sec) 
Heartbeat CPU 0 instructions: 143000000 cycles: 192917354 heartbeat IPC: 0.885621 cumulative IPC: 0.755839 (Simulation time: 0 hr 15 min 35 sec) 
Heartbeat CPU 0 instructions: 144000000 cycles: 194049803 heartbeat IPC: 0.883042 cumulative IPC: 0.756652 (Simulation time: 0 hr 15 min 41 sec) 
Heartbeat CPU 0 instructions: 145000001 cycles: 195175086 heartbeat IPC: 0.888666 cumulative IPC: 0.757485 (Simulation time: 0 hr 15 min 48 sec) 
Heartbeat CPU 0 instructions: 146000002 cycles: 196300017 heartbeat IPC: 0.888944 cumulative IPC: 0.75831 (Simulation time: 0 hr 15 min 54 sec) 
Heartbeat CPU 0 instructions: 147000002 cycles: 197434099 heartbeat IPC: 0.88177 cumulative IPC: 0.759086 (Simulation time: 0 hr 16 min 0 sec) 
Heartbeat CPU 0 instructions: 148000000 cycles: 198559641 heartbeat IPC: 0.888459 cumulative IPC: 0.759888 (Simulation time: 0 hr 16 min 7 sec) 
Heartbeat CPU 0 instructions: 149000003 cycles: 199693570 heartbeat IPC: 0.881892 cumulative IPC: 0.760645 (Simulation time: 0 hr 16 min 13 sec) 
Heartbeat CPU 0 instructions: 150000000 cycles: 200832465 heartbeat IPC: 0.878041 cumulative IPC: 0.761372 (Simulation time: 0 hr 16 min 19 sec) 
Heartbeat CPU 0 instructions: 151000000 cycles: 201992599 heartbeat IPC: 0.861969 cumulative IPC: 0.762003 (Simulation time: 0 hr 16 min 26 sec) 
Heartbeat CPU 0 instructions: 152000003 cycles: 203136193 heartbeat IPC: 0.874439 cumulative IPC: 0.762693 (Simulation time: 0 hr 16 min 32 sec) 
Heartbeat CPU 0 instructions: 153000000 cycles: 204257586 heartbeat IPC: 0.891745 cumulative IPC: 0.763466 (Simulation time: 0 hr 16 min 38 sec) 
Heartbeat CPU 0 instructions: 154000000 cycles: 205380253 heartbeat IPC: 0.890736 cumulative IPC: 0.764224 (Simulation time: 0 hr 16 min 45 sec) 
Heartbeat CPU 0 instructions: 155000002 cycles: 206537748 heartbeat IPC: 0.863936 cumulative IPC: 0.764833 (Simulation time: 0 hr 16 min 51 sec) 
Heartbeat CPU 0 instructions: 156000000 cycles: 207698535 heartbeat IPC: 0.861483 cumulative IPC: 0.765421 (Simulation time: 0 hr 16 min 57 sec) 
Heartbeat CPU 0 instructions: 157000000 cycles: 209016723 heartbeat IPC: 0.758617 cumulative IPC: 0.765374 (Simulation time: 0 hr 17 min 4 sec) 
Heartbeat CPU 0 instructions: 158000001 cycles: 210110533 heartbeat IPC: 0.914236 cumulative IPC: 0.766217 (Simulation time: 0 hr 17 min 10 sec) 
Heartbeat CPU 0 instructions: 159000001 cycles: 211201627 heartbeat IPC: 0.916511 cumulative IPC: 0.767062 (Simulation time: 0 hr 17 min 16 sec) 
Heartbeat CPU 0 instructions: 160000003 cycles: 212295825 heartbeat IPC: 0.913913 cumulative IPC: 0.767884 (Simulation time: 0 hr 17 min 22 sec) 
Heartbeat CPU 0 instructions: 161000002 cycles: 213391265 heartbeat IPC: 0.912874 cumulative IPC: 0.768693 (Simulation time: 0 hr 17 min 29 sec) 
Heartbeat CPU 0 instructions: 162000001 cycles: 214481659 heartbeat IPC: 0.917099 cumulative IPC: 0.769512 (Simulation time: 0 hr 17 min 35 sec) 
Heartbeat CPU 0 instructions: 163000000 cycles: 215574542 heartbeat IPC: 0.91501 cumulative IPC: 0.770312 (Simulation time: 0 hr 17 min 42 sec) 
Heartbeat CPU 0 instructions: 164000003 cycles: 216660944 heartbeat IPC: 0.920472 cumulative IPC: 0.771129 (Simulation time: 0 hr 17 min 49 sec) 
Heartbeat CPU 0 instructions: 165000000 cycles: 217751758 heartbeat IPC: 0.916744 cumulative IPC: 0.77192 (Simulation time: 0 hr 17 min 55 sec) 
Heartbeat CPU 0 instructions: 166000003 cycles: 218849862 heartbeat IPC: 0.910663 cumulative IPC: 0.772675 (Simulation time: 0 hr 18 min 1 sec) 
Heartbeat CPU 0 instructions: 167000001 cycles: 219943341 heartbeat IPC: 0.91451 cumulative IPC: 0.773439 (Simulation time: 0 hr 18 min 7 sec) 
Heartbeat CPU 0 instructions: 168000000 cycles: 221025579 heartbeat IPC: 0.92401 cumulative IPC: 0.774238 (Simulation time: 0 hr 18 min 13 sec) 
Heartbeat CPU 0 instructions: 169000002 cycles: 222114325 heartbeat IPC: 0.91849 cumulative IPC: 0.775003 (Simulation time: 0 hr 18 min 19 sec) 
Heartbeat CPU 0 instructions: 170000000 cycles: 223200135 heartbeat IPC: 0.92097 cumulative IPC: 0.775772 (Simulation time: 0 hr 18 min 26 sec) 
Heartbeat CPU 0 instructions: 171000002 cycles: 224288164 heartbeat IPC: 0.919095 cumulative IPC: 0.776524 (Simulation time: 0 hr 18 min 32 sec) 
Heartbeat CPU 0 instructions: 172000001 cycles: 225377240 heartbeat IPC: 0.918209 cumulative IPC: 0.777264 (Simulation time: 0 hr 18 min 38 sec) 
Heartbeat CPU 0 instructions: 173000003 cycles: 226484335 heartbeat IPC: 0.903267 cumulative IPC: 0.77793 (Simulation time: 0 hr 18 min 44 sec) 
Heartbeat CPU 0 instructions: 174000000 cycles: 227580902 heartbeat IPC: 0.911934 cumulative IPC: 0.778627 (Simulation time: 0 hr 18 min 51 sec) 
Heartbeat CPU 0 instructions: 175000001 cycles: 228669507 heartbeat IPC: 0.918608 cumulative IPC: 0.779347 (Simulation time: 0 hr 18 min 58 sec) 
Heartbeat CPU 0 instructions: 176000000 cycles: 229768591 heartbeat IPC: 0.909848 cumulative IPC: 0.780021 (Simulation time: 0 hr 19 min 4 sec) 
Heartbeat CPU 0 instructions: 177000003 cycles: 230862864 heartbeat IPC: 0.913851 cumulative IPC: 0.780706 (Simulation time: 0 hr 19 min 11 sec) 
Heartbeat CPU 0 instructions: 178000000 cycles: 231948081 heartbeat IPC: 0.921472 cumulative IPC: 0.781416 (Simulation time: 0 hr 19 min 18 sec) 
Heartbeat CPU 0 instructions: 179000000 cycles: 233117444 heartbeat IPC: 0.855166 cumulative IPC: 0.781815 (Simulation time: 0 hr 19 min 24 sec) 
Heartbeat CPU 0 instructions: 180000000 cycles: 234319832 heartbeat IPC: 0.831678 cumulative IPC: 0.782091 (Simulation time: 0 hr 19 min 31 sec) 
Heartbeat CPU 0 instructions: 181000000 cycles: 235794970 heartbeat IPC: 0.677903 cumulative IPC: 0.781389 (Simulation time: 0 hr 19 min 37 sec) 
Heartbeat CPU 0 instructions: 182000002 cycles: 237492502 heartbeat IPC: 0.589092 cumulative IPC: 0.779909 (Simulation time: 0 hr 19 min 44 sec) 
Heartbeat CPU 0 instructions: 183000001 cycles: 239194327 heartbeat IPC: 0.587604 cumulative IPC: 0.778436 (Simulation time: 0 hr 19 min 51 sec) 
Heartbeat CPU 0 instructions: 184000000 cycles: 240890915 heartbeat IPC: 0.589418 cumulative IPC: 0.777004 (Simulation time: 0 hr 19 min 58 sec) 
Heartbeat CPU 0 instructions: 185000000 cycles: 242617347 heartbeat IPC: 0.579229 cumulative IPC: 0.775491 (Simulation time: 0 hr 20 min 6 sec) 
Heartbeat CPU 0 instructions: 186000000 cycles: 244319564 heartbeat IPC: 0.587469 cumulative IPC: 0.774083 (Simulation time: 0 hr 20 min 13 sec) 
Heartbeat CPU 0 instructions: 187000000 cycles: 246000793 heartbeat IPC: 0.594803 cumulative IPC: 0.772767 (Simulation time: 0 hr 20 min 20 sec) 
Heartbeat CPU 0 instructions: 188000000 cycles: 247700350 heartbeat IPC: 0.588389 cumulative IPC: 0.771409 (Simulation time: 0 hr 20 min 27 sec) 
Heartbeat CPU 0 instructions: 189000003 cycles: 249401050 heartbeat IPC: 0.587995 cumulative IPC: 0.770067 (Simulation time: 0 hr 20 min 35 sec) 
Heartbeat CPU 0 instructions: 190000002 cycles: 251114883 heartbeat IPC: 0.583487 cumulative IPC: 0.768702 (Simulation time: 0 hr 20 min 42 sec) 
Heartbeat CPU 0 instructions: 191000003 cycles: 252810173 heartbeat IPC: 0.58987 cumulative IPC: 0.767416 (Simulation time: 0 hr 20 min 49 sec) 
Heartbeat CPU 0 instructions: 192000002 cycles: 254521142 heartbeat IPC: 0.584464 cumulative IPC: 0.766099 (Simulation time: 0 hr 20 min 56 sec) 
Heartbeat CPU 0 instructions: 193000001 cycles: 256234165 heartbeat IPC: 0.583763 cumulative IPC: 0.764793 (Simulation time: 0 hr 21 min 4 sec) 
Heartbeat CPU 0 instructions: 194000000 cycles: 257873954 heartbeat IPC: 0.609834 cumulative IPC: 0.763739 (Simulation time: 0 hr 21 min 11 sec) 
Heartbeat CPU 0 instructions: 195000001 cycles: 258983083 heartbeat IPC: 0.901609 cumulative IPC: 0.76437 (Simulation time: 0 hr 21 min 17 sec) 
Heartbeat CPU 0 instructions: 196000001 cycles: 260091385 heartbeat IPC: 0.902281 cumulative IPC: 0.764999 (Simulation time: 0 hr 21 min 23 sec) 
Heartbeat CPU 0 instructions: 197000003 cycles: 261198455 heartbeat IPC: 0.903287 cumulative IPC: 0.765626 (Simulation time: 0 hr 21 min 30 sec) 
Heartbeat CPU 0 instructions: 198000000 cycles: 262320197 heartbeat IPC: 0.891468 cumulative IPC: 0.766201 (Simulation time: 0 hr 21 min 36 sec) 
Heartbeat CPU 0 instructions: 199000001 cycles: 263433975 heartbeat IPC: 0.897846 cumulative IPC: 0.766796 (Simulation time: 0 hr 21 min 42 sec) 
Heartbeat CPU 0 instructions: 200000000 cycles: 264539159 heartbeat IPC: 0.904826 cumulative IPC: 0.767412 (Simulation time: 0 hr 21 min 48 sec) 
Heartbeat CPU 0 instructions: 201000000 cycles: 265639401 heartbeat IPC: 0.908891 cumulative IPC: 0.768038 (Simulation time: 0 hr 21 min 55 sec) 
Heartbeat CPU 0 instructions: 202000001 cycles: 266748211 heartbeat IPC: 0.901869 cumulative IPC: 0.768632 (Simulation time: 0 hr 22 min 1 sec) 
Heartbeat CPU 0 instructions: 203000000 cycles: 267858670 heartbeat IPC: 0.900528 cumulative IPC: 0.769216 (Simulation time: 0 hr 22 min 8 sec) 
Heartbeat CPU 0 instructions: 204000000 cycles: 268971716 heartbeat IPC: 0.898435 cumulative IPC: 0.769787 (Simulation time: 0 hr 22 min 14 sec) 
Heartbeat CPU 0 instructions: 205000000 cycles: 270070497 heartbeat IPC: 0.910099 cumulative IPC: 0.770396 (Simulation time: 0 hr 22 min 20 sec) 
Heartbeat CPU 0 instructions: 206000003 cycles: 271168734 heartbeat IPC: 0.910553 cumulative IPC: 0.771001 (Simulation time: 0 hr 22 min 26 sec) 
Heartbeat CPU 0 instructions: 207000002 cycles: 272271443 heartbeat IPC: 0.906857 cumulative IPC: 0.771588 (Simulation time: 0 hr 22 min 33 sec) 
Heartbeat CPU 0 instructions: 208000000 cycles: 273370946 heartbeat IPC: 0.9095 cumulative IPC: 0.772179 (Simulation time: 0 hr 22 min 39 sec) 
Heartbeat CPU 0 instructions: 209000000 cycles: 274476467 heartbeat IPC: 0.904551 cumulative IPC: 0.772748 (Simulation time: 0 hr 22 min 46 sec) 
Heartbeat CPU 0 instructions: 210000000 cycles: 275594644 heartbeat IPC: 0.894313 cumulative IPC: 0.773273 (Simulation time: 0 hr 22 min 52 sec) 
Heartbeat CPU 0 instructions: 211000003 cycles: 276709670 heartbeat IPC: 0.896843 cumulative IPC: 0.773804 (Simulation time: 0 hr 22 min 59 sec) 
Heartbeat CPU 0 instructions: 212000000 cycles: 277812929 heartbeat IPC: 0.906403 cumulative IPC: 0.774364 (Simulation time: 0 hr 23 min 5 sec) 
Heartbeat CPU 0 instructions: 213000000 cycles: 278920059 heartbeat IPC: 0.903236 cumulative IPC: 0.774909 (Simulation time: 0 hr 23 min 11 sec) 
Heartbeat CPU 0 instructions: 214000003 cycles: 280028874 heartbeat IPC: 0.901866 cumulative IPC: 0.775444 (Simulation time: 0 hr 23 min 18 sec) 
Heartbeat CPU 0 instructions: 215000000 cycles: 281131881 heartbeat IPC: 0.90661 cumulative IPC: 0.775992 (Simulation time: 0 hr 23 min 24 sec) 
Heartbeat CPU 0 instructions: 216000001 cycles: 282272221 heartbeat IPC: 0.876932 cumulative IPC: 0.776426 (Simulation time: 0 hr 23 min 30 sec) 
Heartbeat CPU 0 instructions: 217000000 cycles: 283503945 heartbeat IPC: 0.811869 cumulative IPC: 0.776589 (Simulation time: 0 hr 23 min 36 sec) 
Heartbeat CPU 0 instructions: 218000003 cycles: 284790020 heartbeat IPC: 0.777562 cumulative IPC: 0.776594 (Simulation time: 0 hr 23 min 43 sec) 
Heartbeat CPU 0 instructions: 219000000 cycles: 285884278 heartbeat IPC: 0.913859 cumulative IPC: 0.777153 (Simulation time: 0 hr 23 min 49 sec) 
Heartbeat CPU 0 instructions: 220000000 cycles: 286976477 heartbeat IPC: 0.915584 cumulative IPC: 0.777713 (Simulation time: 0 hr 23 min 55 sec) 
Heartbeat CPU 0 instructions: 221000000 cycles: 288074746 heartbeat IPC: 0.910524 cumulative IPC: 0.778251 (Simulation time: 0 hr 24 min 1 sec) 
Heartbeat CPU 0 instructions: 222000000 cycles: 289176036 heartbeat IPC: 0.908026 cumulative IPC: 0.778776 (Simulation time: 0 hr 24 min 7 sec) 
Heartbeat CPU 0 instructions: 223000000 cycles: 290274228 heartbeat IPC: 0.910588 cumulative IPC: 0.779305 (Simulation time: 0 hr 24 min 13 sec) 
Heartbeat CPU 0 instructions: 224000000 cycles: 291366351 heartbeat IPC: 0.915648 cumulative IPC: 0.779848 (Simulation time: 0 hr 24 min 20 sec) 
Heartbeat CPU 0 instructions: 225000000 cycles: 292457377 heartbeat IPC: 0.916568 cumulative IPC: 0.780389 (Simulation time: 0 hr 24 min 26 sec) 
Heartbeat CPU 0 instructions: 226000001 cycles: 293553014 heartbeat IPC: 0.912712 cumulative IPC: 0.780913 (Simulation time: 0 hr 24 min 32 sec) 
Heartbeat CPU 0 instructions: 227000003 cycles: 294648323 heartbeat IPC: 0.912986 cumulative IPC: 0.781434 (Simulation time: 0 hr 24 min 38 sec) 
Heartbeat CPU 0 instructions: 228000001 cycles: 295750037 heartbeat IPC: 0.907675 cumulative IPC: 0.781933 (Simulation time: 0 hr 24 min 44 sec) 
Heartbeat CPU 0 instructions: 229000000 cycles: 296833853 heartbeat IPC: 0.922665 cumulative IPC: 0.782478 (Simulation time: 0 hr 24 min 50 sec) 
Heartbeat CPU 0 instructions: 230000002 cycles: 297921225 heartbeat IPC: 0.91965 cumulative IPC: 0.783009 (Simulation time: 0 hr 24 min 57 sec) 
Heartbeat CPU 0 instructions: 231000000 cycles: 299009426 heartbeat IPC: 0.918946 cumulative IPC: 0.783534 (Simulation time: 0 hr 25 min 3 sec) 
Heartbeat CPU 0 instructions: 232000002 cycles: 300097230 heartbeat IPC: 0.919285 cumulative IPC: 0.784055 (Simulation time: 0 hr 25 min 9 sec) 
Heartbeat CPU 0 instructions: 233000000 cycles: 301194564 heartbeat IPC: 0.911298 cumulative IPC: 0.784546 (Simulation time: 0 hr 25 min 15 sec) 
Heartbeat CPU 0 instructions: 234000003 cycles: 302300075 heartbeat IPC: 0.904562 cumulative IPC: 0.785011 (Simulation time: 0 hr 25 min 21 sec) 
Heartbeat CPU 0 instructions: 235000002 cycles: 303402768 heartbeat IPC: 0.90687 cumulative IPC: 0.78548 (Simulation time: 0 hr 25 min 28 sec) 
Heartbeat CPU 0 instructions: 236000003 cycles: 304496584 heartbeat IPC: 0.914231 cumulative IPC: 0.78597 (Simulation time: 0 hr 25 min 34 sec) 
Heartbeat CPU 0 instructions: 237000001 cycles: 305591942 heartbeat IPC: 0.912942 cumulative IPC: 0.786452 (Simulation time: 0 hr 25 min 40 sec) 
Heartbeat CPU 0 instructions: 238000002 cycles: 306688660 heartbeat IPC: 0.911812 cumulative IPC: 0.786927 (Simulation time: 0 hr 25 min 46 sec) 
Heartbeat CPU 0 instructions: 239000003 cycles: 307782783 heartbeat IPC: 0.913975 cumulative IPC: 0.787404 (Simulation time: 0 hr 25 min 52 sec) 
Heartbeat CPU 0 instructions: 240000001 cycles: 308906827 heartbeat IPC: 0.889643 cumulative IPC: 0.787798 (Simulation time: 0 hr 25 min 59 sec) 
Heartbeat CPU 0 instructions: 241000000 cycles: 310107013 heartbeat IPC: 0.833203 cumulative IPC: 0.787984 (Simulation time: 0 hr 26 min 6 sec) 
Heartbeat CPU 0 instructions: 242000000 cycles: 311483768 heartbeat IPC: 0.726346 cumulative IPC: 0.787696 (Simulation time: 0 hr 26 min 12 sec) 
Heartbeat CPU 0 instructions: 243000000 cycles: 312841858 heartbeat IPC: 0.736328 cumulative IPC: 0.78746 (Simulation time: 0 hr 26 min 19 sec) 
Heartbeat CPU 0 instructions: 244000000 cycles: 313934964 heartbeat IPC: 0.914824 cumulative IPC: 0.787929 (Simulation time: 0 hr 26 min 25 sec) 
Heartbeat CPU 0 instructions: 245000001 cycles: 315028584 heartbeat IPC: 0.914395 cumulative IPC: 0.788393 (Simulation time: 0 hr 26 min 32 sec) 
Heartbeat CPU 0 instructions: 246000000 cycles: 316127337 heartbeat IPC: 0.910122 cumulative IPC: 0.78884 (Simulation time: 0 hr 26 min 38 sec) 
Heartbeat CPU 0 instructions: 247000003 cycles: 317226600 heartbeat IPC: 0.909703 cumulative IPC: 0.789282 (Simulation time: 0 hr 26 min 45 sec) 
Heartbeat CPU 0 instructions: 248000002 cycles: 318318763 heartbeat IPC: 0.915613 cumulative IPC: 0.78974 (Simulation time: 0 hr 26 min 51 sec) 
Heartbeat CPU 0 instructions: 249000001 cycles: 319418340 heartbeat IPC: 0.90944 cumulative IPC: 0.790175 (Simulation time: 0 hr 26 min 58 sec) 
Heartbeat CPU 0 instructions: 250000003 cycles: 320510803 heartbeat IPC: 0.915365 cumulative IPC: 0.790626 (Simulation time: 0 hr 27 min 4 sec) 
Heartbeat CPU 0 instructions: 251000000 cycles: 321603503 heartbeat IPC: 0.915162 cumulative IPC: 0.791073 (Simulation time: 0 hr 27 min 11 sec) 
Heartbeat CPU 0 instructions: 252000001 cycles: 322702069 heartbeat IPC: 0.910278 cumulative IPC: 0.791501 (Simulation time: 0 hr 27 min 18 sec) 
Heartbeat CPU 0 instructions: 253000000 cycles: 323795374 heartbeat IPC: 0.914657 cumulative IPC: 0.79194 (Simulation time: 0 hr 27 min 25 sec) 
Heartbeat CPU 0 instructions: 254000000 cycles: 324879115 heartbeat IPC: 0.92273 cumulative IPC: 0.7924 (Simulation time: 0 hr 27 min 31 sec) 
Heartbeat CPU 0 instructions: 255000000 cycles: 325966534 heartbeat IPC: 0.919609 cumulative IPC: 0.792848 (Simulation time: 0 hr 27 min 38 sec) 
Heartbeat CPU 0 instructions: 256000000 cycles: 327055534 heartbeat IPC: 0.918274 cumulative IPC: 0.793288 (Simulation time: 0 hr 27 min 44 sec) 
Heartbeat CPU 0 instructions: 257000002 cycles: 328151017 heartbeat IPC: 0.912841 cumulative IPC: 0.793709 (Simulation time: 0 hr 27 min 50 sec) 
Heartbeat CPU 0 instructions: 258000000 cycles: 329249014 heartbeat IPC: 0.910747 cumulative IPC: 0.79412 (Simulation time: 0 hr 27 min 57 sec) 
Heartbeat CPU 0 instructions: 259000001 cycles: 330350537 heartbeat IPC: 0.907835 cumulative IPC: 0.79452 (Simulation time: 0 hr 28 min 4 sec) 
Heartbeat CPU 0 instructions: 260000000 cycles: 331447371 heartbeat IPC: 0.911714 cumulative IPC: 0.794929 (Simulation time: 0 hr 28 min 11 sec) 
Heartbeat CPU 0 instructions: 261000002 cycles: 332545243 heartbeat IPC: 0.910855 cumulative IPC: 0.795332 (Simulation time: 0 hr 28 min 18 sec) 
Heartbeat CPU 0 instructions: 262000001 cycles: 333643854 heartbeat IPC: 0.910239 cumulative IPC: 0.795731 (Simulation time: 0 hr 28 min 24 sec) 
Heartbeat CPU 0 instructions: 263000000 cycles: 334739713 heartbeat IPC: 0.912525 cumulative IPC: 0.796134 (Simulation time: 0 hr 28 min 31 sec) 
Heartbeat CPU 0 instructions: 264000000 cycles: 335830468 heartbeat IPC: 0.916796 cumulative IPC: 0.796546 (Simulation time: 0 hr 28 min 37 sec) 
Heartbeat CPU 0 instructions: 265000001 cycles: 337011957 heartbeat IPC: 0.84639 cumulative IPC: 0.79673 (Simulation time: 0 hr 28 min 44 sec) 
Heartbeat CPU 0 instructions: 266000000 cycles: 338186855 heartbeat IPC: 0.851137 cumulative IPC: 0.796929 (Simulation time: 0 hr 28 min 50 sec) 
Heartbeat CPU 0 instructions: 267000001 cycles: 339840375 heartbeat IPC: 0.604771 cumulative IPC: 0.795945 (Simulation time: 0 hr 28 min 57 sec) 
Heartbeat CPU 0 instructions: 268000001 cycles: 341143436 heartbeat IPC: 0.767424 cumulative IPC: 0.795831 (Simulation time: 0 hr 29 min 4 sec) 
Heartbeat CPU 0 instructions: 269000003 cycles: 342234293 heartbeat IPC: 0.916712 cumulative IPC: 0.796236 (Simulation time: 0 hr 29 min 10 sec) 
Heartbeat CPU 0 instructions: 270000000 cycles: 343324218 heartbeat IPC: 0.917492 cumulative IPC: 0.796641 (Simulation time: 0 hr 29 min 17 sec) 
Heartbeat CPU 0 instructions: 271000000 cycles: 344425035 heartbeat IPC: 0.908416 cumulative IPC: 0.797017 (Simulation time: 0 hr 29 min 24 sec) 
Heartbeat CPU 0 instructions: 272000000 cycles: 345525686 heartbeat IPC: 0.908553 cumulative IPC: 0.79739 (Simulation time: 0 hr 29 min 31 sec) 
Heartbeat CPU 0 instructions: 273000003 cycles: 346614669 heartbeat IPC: 0.918291 cumulative IPC: 0.79779 (Simulation time: 0 hr 29 min 37 sec) 
Heartbeat CPU 0 instructions: 274000000 cycles: 347705776 heartbeat IPC: 0.916498 cumulative IPC: 0.798181 (Simulation time: 0 hr 29 min 44 sec) 
Heartbeat CPU 0 instructions: 275000000 cycles: 348788294 heartbeat IPC: 0.923772 cumulative IPC: 0.798591 (Simulation time: 0 hr 29 min 50 sec) 
Heartbeat CPU 0 instructions: 276000001 cycles: 349877560 heartbeat IPC: 0.91805 cumulative IPC: 0.798982 (Simulation time: 0 hr 29 min 57 sec) 
Heartbeat CPU 0 instructions: 277000003 cycles: 350970240 heartbeat IPC: 0.915183 cumulative IPC: 0.799362 (Simulation time: 0 hr 30 min 3 sec) 
Heartbeat CPU 0 instructions: 278000000 cycles: 352056441 heartbeat IPC: 0.920637 cumulative IPC: 0.799755 (Simulation time: 0 hr 30 min 10 sec) 
Heartbeat CPU 0 instructions: 279000000 cycles: 353135469 heartbeat IPC: 0.92676 cumulative IPC: 0.800163 (Simulation time: 0 hr 30 min 16 sec) 
Heartbeat CPU 0 instructions: 280000001 cycles: 354219896 heartbeat IPC: 0.922147 cumulative IPC: 0.800555 (Simulation time: 0 hr 30 min 23 sec) 
Heartbeat CPU 0 instructions: 281000001 cycles: 355300163 heartbeat IPC: 0.925697 cumulative IPC: 0.800954 (Simulation time: 0 hr 30 min 30 sec) 
Heartbeat CPU 0 instructions: 282000001 cycles: 356389853 heartbeat IPC: 0.917692 cumulative IPC: 0.801329 (Simulation time: 0 hr 30 min 36 sec) 
Heartbeat CPU 0 instructions: 283000000 cycles: 357484394 heartbeat IPC: 0.913624 cumulative IPC: 0.80169 (Simulation time: 0 hr 30 min 42 sec) 
Heartbeat CPU 0 instructions: 284000003 cycles: 358578414 heartbeat IPC: 0.914063 cumulative IPC: 0.80205 (Simulation time: 0 hr 30 min 49 sec) 
Heartbeat CPU 0 instructions: 285000001 cycles: 359672712 heartbeat IPC: 0.913826 cumulative IPC: 0.802407 (Simulation time: 0 hr 30 min 55 sec) 
Heartbeat CPU 0 instructions: 286000000 cycles: 360760685 heartbeat IPC: 0.91914 cumulative IPC: 0.802776 (Simulation time: 0 hr 31 min 1 sec) 
Heartbeat CPU 0 instructions: 287000000 cycles: 361855075 heartbeat IPC: 0.913751 cumulative IPC: 0.803128 (Simulation time: 0 hr 31 min 8 sec) 
Heartbeat CPU 0 instructions: 288000001 cycles: 362945623 heartbeat IPC: 0.916971 cumulative IPC: 0.803487 (Simulation time: 0 hr 31 min 14 sec) 
Heartbeat CPU 0 instructions: 289000003 cycles: 364032055 heartbeat IPC: 0.920446 cumulative IPC: 0.803853 (Simulation time: 0 hr 31 min 21 sec) 
Heartbeat CPU 0 instructions: 290000002 cycles: 365149481 heartbeat IPC: 0.894913 cumulative IPC: 0.804146 (Simulation time: 0 hr 31 min 27 sec) 
Heartbeat CPU 0 instructions: 291000003 cycles: 366280358 heartbeat IPC: 0.88427 cumulative IPC: 0.804405 (Simulation time: 0 hr 31 min 34 sec) 
Heartbeat CPU 0 instructions: 292000000 cycles: 367393871 heartbeat IPC: 0.898056 cumulative IPC: 0.804703 (Simulation time: 0 hr 31 min 40 sec) 
Heartbeat CPU 0 instructions: 293000002 cycles: 368510070 heartbeat IPC: 0.895899 cumulative IPC: 0.804992 (Simulation time: 0 hr 31 min 46 sec) 
Heartbeat CPU 0 instructions: 294000000 cycles: 369612803 heartbeat IPC: 0.906836 cumulative IPC: 0.805311 (Simulation time: 0 hr 31 min 53 sec) 
Heartbeat CPU 0 instructions: 295000001 cycles: 370746164 heartbeat IPC: 0.882332 cumulative IPC: 0.805557 (Simulation time: 0 hr 31 min 59 sec) 
Heartbeat CPU 0 instructions: 296000000 cycles: 371881268 heartbeat IPC: 0.880976 cumulative IPC: 0.805799 (Simulation time: 0 hr 32 min 6 sec) 
Heartbeat CPU 0 instructions: 297000000 cycles: 373049729 heartbeat IPC: 0.855827 cumulative IPC: 0.805963 (Simulation time: 0 hr 32 min 12 sec) 
Heartbeat CPU 0 instructions: 298000000 cycles: 374147582 heartbeat IPC: 0.910869 cumulative IPC: 0.806285 (Simulation time: 0 hr 32 min 19 sec) 
Heartbeat CPU 0 instructions: 299000001 cycles: 375244519 heartbeat IPC: 0.91163 cumulative IPC: 0.806608 (Simulation time: 0 hr 32 min 25 sec) 
Heartbeat CPU 0 instructions: 300000001 cycles: 376342989 heartbeat IPC: 0.910357 cumulative IPC: 0.806925 (Simulation time: 0 hr 32 min 31 sec) 
Heartbeat CPU 0 instructions: 301000003 cycles: 377442934 heartbeat IPC: 0.909138 cumulative IPC: 0.807237 (Simulation time: 0 hr 32 min 38 sec) 
Heartbeat CPU 0 instructions: 302000000 cycles: 378535778 heartbeat IPC: 0.915041 cumulative IPC: 0.807562 (Simulation time: 0 hr 32 min 44 sec) 
Heartbeat CPU 0 instructions: 303000002 cycles: 379634858 heartbeat IPC: 0.909854 cumulative IPC: 0.807872 (Simulation time: 0 hr 32 min 51 sec) 
Heartbeat CPU 0 instructions: 304000003 cycles: 380726944 heartbeat IPC: 0.91568 cumulative IPC: 0.808196 (Simulation time: 0 hr 32 min 57 sec) 
Heartbeat CPU 0 instructions: 305000000 cycles: 381821851 heartbeat IPC: 0.913317 cumulative IPC: 0.808512 (Simulation time: 0 hr 33 min 3 sec) 
Heartbeat CPU 0 instructions: 306000000 cycles: 382921131 heartbeat IPC: 0.909686 cumulative IPC: 0.808815 (Simulation time: 0 hr 33 min 9 sec) 
Heartbeat CPU 0 instructions: 307000002 cycles: 384017929 heartbeat IPC: 0.911747 cumulative IPC: 0.809123 (Simulation time: 0 hr 33 min 16 sec) 
Heartbeat CPU 0 instructions: 308000000 cycles: 385102286 heartbeat IPC: 0.922204 cumulative IPC: 0.809456 (Simulation time: 0 hr 33 min 22 sec) 
Heartbeat CPU 0 instructions: 309000001 cycles: 386193566 heartbeat IPC: 0.916356 cumulative IPC: 0.809772 (Simulation time: 0 hr 33 min 28 sec) 
Heartbeat CPU 0 instructions: 310000000 cycles: 387284578 heartbeat IPC: 0.916579 cumulative IPC: 0.810087 (Simulation time: 0 hr 33 min 34 sec) 
Heartbeat CPU 0 instructions: 311000001 cycles: 388377123 heartbeat IPC: 0.915295 cumulative IPC: 0.810396 (Simulation time: 0 hr 33 min 40 sec) 
Heartbeat CPU 0 instructions: 312000000 cycles: 389473408 heartbeat IPC: 0.912171 cumulative IPC: 0.810696 (Simulation time: 0 hr 33 min 47 sec) 
Heartbeat CPU 0 instructions: 313000000 cycles: 390582981 heartbeat IPC: 0.901248 cumulative IPC: 0.810965 (Simulation time: 0 hr 33 min 53 sec) 
Heartbeat CPU 0 instructions: 314000003 cycles: 391682713 heartbeat IPC: 0.909315 cumulative IPC: 0.811253 (Simulation time: 0 hr 33 min 59 sec) 
Heartbeat CPU 0 instructions: 315000001 cycles: 392777434 heartbeat IPC: 0.913473 cumulative IPC: 0.811551 (Simulation time: 0 hr 34 min 5 sec) 
Heartbeat CPU 0 instructions: 316000001 cycles: 393878547 heartbeat IPC: 0.908172 cumulative IPC: 0.811833 (Simulation time: 0 hr 34 min 12 sec) 
Heartbeat CPU 0 instructions: 317000000 cycles: 394979303 heartbeat IPC: 0.908466 cumulative IPC: 0.812115 (Simulation time: 0 hr 34 min 18 sec) 
Heartbeat CPU 0 instructions: 318000000 cycles: 396069825 heartbeat IPC: 0.916992 cumulative IPC: 0.812416 (Simulation time: 0 hr 34 min 24 sec) 
Heartbeat CPU 0 instructions: 319000000 cycles: 397192561 heartbeat IPC: 0.890681 cumulative IPC: 0.812647 (Simulation time: 0 hr 34 min 30 sec) 
Heartbeat CPU 0 instructions: 320000001 cycles: 398391746 heartbeat IPC: 0.833901 cumulative IPC: 0.812714 (Simulation time: 0 hr 34 min 36 sec) 
Heartbeat CPU 0 instructions: 321000000 cycles: 399576672 heartbeat IPC: 0.843934 cumulative IPC: 0.812811 (Simulation time: 0 hr 34 min 42 sec) 
Heartbeat CPU 0 instructions: 322000002 cycles: 400754006 heartbeat IPC: 0.849378 cumulative IPC: 0.812923 (Simulation time: 0 hr 34 min 49 sec) 
Heartbeat CPU 0 instructions: 323000000 cycles: 402043312 heartbeat IPC: 0.775609 cumulative IPC: 0.812798 (Simulation time: 0 hr 34 min 55 sec) 
Heartbeat CPU 0 instructions: 324000001 cycles: 403857017 heartbeat IPC: 0.551358 cumulative IPC: 0.811573 (Simulation time: 0 hr 35 min 2 sec) 
Heartbeat CPU 0 instructions: 325000001 cycles: 405661966 heartbeat IPC: 0.554032 cumulative IPC: 0.810377 (Simulation time: 0 hr 35 min 9 sec) 
Heartbeat CPU 0 instructions: 326000000 cycles: 407276738 heartbeat IPC: 0.619282 cumulative IPC: 0.809586 (Simulation time: 0 hr 35 min 16 sec) 
Heartbeat CPU 0 instructions: 327000000 cycles: 408454406 heartbeat IPC: 0.849136 cumulative IPC: 0.809705 (Simulation time: 0 hr 35 min 22 sec) 
Heartbeat CPU 0 instructions: 328000003 cycles: 409552333 heartbeat IPC: 0.91081 cumulative IPC: 0.809988 (Simulation time: 0 hr 35 min 28 sec) 
Heartbeat CPU 0 instructions: 329000003 cycles: 410646223 heartbeat IPC: 0.914169 cumulative IPC: 0.810277 (Simulation time: 0 hr 35 min 35 sec) 
Heartbeat CPU 0 instructions: 330000000 cycles: 411748227 heartbeat IPC: 0.907435 cumulative IPC: 0.810549 (Simulation time: 0 hr 35 min 41 sec) 
Heartbeat CPU 0 instructions: 331000000 cycles: 412850738 heartbeat IPC: 0.90702 cumulative IPC: 0.810817 (Simulation time: 0 hr 35 min 48 sec) 
Heartbeat CPU 0 instructions: 332000000 cycles: 413946165 heartbeat IPC: 0.912886 cumulative IPC: 0.811099 (Simulation time: 0 hr 35 min 54 sec) 
Heartbeat CPU 0 instructions: 333000000 cycles: 415042576 heartbeat IPC: 0.912067 cumulative IPC: 0.811377 (Simulation time: 0 hr 36 min 0 sec) 
Heartbeat CPU 0 instructions: 334000001 cycles: 416133599 heartbeat IPC: 0.916572 cumulative IPC: 0.811664 (Simulation time: 0 hr 36 min 7 sec) 
Heartbeat CPU 0 instructions: 335000002 cycles: 417229777 heartbeat IPC: 0.912261 cumulative IPC: 0.81194 (Simulation time: 0 hr 36 min 14 sec) 
Heartbeat CPU 0 instructions: 336000001 cycles: 418332861 heartbeat IPC: 0.906548 cumulative IPC: 0.8122 (Simulation time: 0 hr 36 min 20 sec) 
Heartbeat CPU 0 instructions: 337000000 cycles: 419430209 heartbeat IPC: 0.911287 cumulative IPC: 0.81247 (Simulation time: 0 hr 36 min 26 sec) 
Heartbeat CPU 0 instructions: 338000001 cycles: 420517069 heartbeat IPC: 0.920083 cumulative IPC: 0.81276 (Simulation time: 0 hr 36 min 32 sec) 
Heartbeat CPU 0 instructions: 339000002 cycles: 421608473 heartbeat IPC: 0.916252 cumulative IPC: 0.813039 (Simulation time: 0 hr 36 min 38 sec) 
Heartbeat CPU 0 instructions: 340000002 cycles: 422699289 heartbeat IPC: 0.916745 cumulative IPC: 0.813318 (Simulation time: 0 hr 36 min 45 sec) 
Heartbeat CPU 0 instructions: 341000000 cycles: 423798961 heartbeat IPC: 0.90936 cumulative IPC: 0.813577 (Simulation time: 0 hr 36 min 51 sec) 
Heartbeat CPU 0 instructions: 342000002 cycles: 424900436 heartbeat IPC: 0.907875 cumulative IPC: 0.813832 (Simulation time: 0 hr 36 min 57 sec) 
Heartbeat CPU 0 instructions: 343000000 cycles: 426001135 heartbeat IPC: 0.908512 cumulative IPC: 0.814087 (Simulation time: 0 hr 37 min 4 sec) 
Heartbeat CPU 0 instructions: 344000003 cycles: 427103374 heartbeat IPC: 0.907247 cumulative IPC: 0.814337 (Simulation time: 0 hr 37 min 10 sec) 
Heartbeat CPU 0 instructions: 345000003 cycles: 428200160 heartbeat IPC: 0.911755 cumulative IPC: 0.814597 (Simulation time: 0 hr 37 min 16 sec) 
Heartbeat CPU 0 instructions: 346000000 cycles: 429304968 heartbeat IPC: 0.905132 cumulative IPC: 0.81484 (Simulation time: 0 hr 37 min 22 sec) 
Heartbeat CPU 0 instructions: 347000000 cycles: 430402245 heartbeat IPC: 0.911347 cumulative IPC: 0.815096 (Simulation time: 0 hr 37 min 29 sec) 
Heartbeat CPU 0 instructions: 348000001 cycles: 431497868 heartbeat IPC: 0.912724 cumulative IPC: 0.815354 (Simulation time: 0 hr 37 min 35 sec) 
Heartbeat CPU 0 instructions: 349000000 cycles: 432626617 heartbeat IPC: 0.885936 cumulative IPC: 0.815545 (Simulation time: 0 hr 37 min 41 sec) 
Heartbeat CPU 0 instructions: 350000000 cycles: 433765939 heartbeat IPC: 0.877715 cumulative IPC: 0.815715 (Simulation time: 0 hr 37 min 48 sec) 
Heartbeat CPU 0 instructions: 351000000 cycles: 434882793 heartbeat IPC: 0.895372 cumulative IPC: 0.815928 (Simulation time: 0 hr 37 min 54 sec) 
Heartbeat CPU 0 instructions: 352000000 cycles: 436009120 heartbeat IPC: 0.887842 cumulative IPC: 0.816121 (Simulation time: 0 hr 38 min 1 sec) 
Heartbeat CPU 0 instructions: 353000001 cycles: 437134346 heartbeat IPC: 0.888711 cumulative IPC: 0.816316 (Simulation time: 0 hr 38 min 7 sec) 
Heartbeat CPU 0 instructions: 354000000 cycles: 438227089 heartbeat IPC: 0.915127 cumulative IPC: 0.816572 (Simulation time: 0 hr 38 min 13 sec) 
Heartbeat CPU 0 instructions: 355000001 cycles: 439320222 heartbeat IPC: 0.914803 cumulative IPC: 0.816826 (Simulation time: 0 hr 38 min 20 sec) 
Heartbeat CPU 0 instructions: 356000003 cycles: 440443852 heartbeat IPC: 0.889974 cumulative IPC: 0.81702 (Simulation time: 0 hr 38 min 26 sec) 
Heartbeat CPU 0 instructions: 357000002 cycles: 441805441 heartbeat IPC: 0.734435 cumulative IPC: 0.816756 (Simulation time: 0 hr 38 min 33 sec) 
Heartbeat CPU 0 instructions: 358000000 cycles: 442902910 heartbeat IPC: 0.911186 cumulative IPC: 0.816999 (Simulation time: 0 hr 38 min 39 sec) 
Heartbeat CPU 0 instructions: 359000002 cycles: 443994494 heartbeat IPC: 0.916102 cumulative IPC: 0.817252 (Simulation time: 0 hr 38 min 46 sec) 
Heartbeat CPU 0 instructions: 360000000 cycles: 445096502 heartbeat IPC: 0.907433 cumulative IPC: 0.817485 (Simulation time: 0 hr 38 min 52 sec) 
Heartbeat CPU 0 instructions: 361000001 cycles: 446194529 heartbeat IPC: 0.910725 cumulative IPC: 0.817723 (Simulation time: 0 hr 38 min 58 sec) 
Heartbeat CPU 0 instructions: 362000001 cycles: 447292608 heartbeat IPC: 0.910681 cumulative IPC: 0.81796 (Simulation time: 0 hr 39 min 5 sec) 
Heartbeat CPU 0 instructions: 363000000 cycles: 448389918 heartbeat IPC: 0.911319 cumulative IPC: 0.818198 (Simulation time: 0 hr 39 min 11 sec) 
Heartbeat CPU 0 instructions: 364000000 cycles: 449480998 heartbeat IPC: 0.916523 cumulative IPC: 0.818446 (Simulation time: 0 hr 39 min 17 sec) 
Heartbeat CPU 0 instructions: 365000003 cycles: 450574222 heartbeat IPC: 0.914728 cumulative IPC: 0.818688 (Simulation time: 0 hr 39 min 23 sec) 
Heartbeat CPU 0 instructions: 366000000 cycles: 451675999 heartbeat IPC: 0.907622 cumulative IPC: 0.818914 (Simulation time: 0 hr 39 min 30 sec) 
Heartbeat CPU 0 instructions: 367000003 cycles: 452771281 heartbeat IPC: 0.91301 cumulative IPC: 0.81915 (Simulation time: 0 hr 39 min 36 sec) 
Heartbeat CPU 0 instructions: 368000002 cycles: 453856066 heartbeat IPC: 0.921841 cumulative IPC: 0.819405 (Simulation time: 0 hr 39 min 42 sec) 
Heartbeat CPU 0 instructions: 369000002 cycles: 454946467 heartbeat IPC: 0.917094 cumulative IPC: 0.819649 (Simulation time: 0 hr 39 min 48 sec) 
Heartbeat CPU 0 instructions: 370000000 cycles: 456035886 heartbeat IPC: 0.917919 cumulative IPC: 0.819892 (Simulation time: 0 hr 39 min 54 sec) 
Heartbeat CPU 0 instructions: 371000000 cycles: 457132463 heartbeat IPC: 0.911929 cumulative IPC: 0.820122 (Simulation time: 0 hr 40 min 1 sec) 
Heartbeat CPU 0 instructions: 372000001 cycles: 458230189 heartbeat IPC: 0.910975 cumulative IPC: 0.820348 (Simulation time: 0 hr 40 min 7 sec) 
Heartbeat CPU 0 instructions: 373000000 cycles: 459332618 heartbeat IPC: 0.907087 cumulative IPC: 0.820564 (Simulation time: 0 hr 40 min 13 sec) 
Heartbeat CPU 0 instructions: 374000000 cycles: 460431922 heartbeat IPC: 0.909666 cumulative IPC: 0.820785 (Simulation time: 0 hr 40 min 19 sec) 
Heartbeat CPU 0 instructions: 375000000 cycles: 461526736 heartbeat IPC: 0.913397 cumulative IPC: 0.821013 (Simulation time: 0 hr 40 min 25 sec) 
Heartbeat CPU 0 instructions: 376000002 cycles: 462626376 heartbeat IPC: 0.90939 cumulative IPC: 0.821231 (Simulation time: 0 hr 40 min 32 sec) 
Heartbeat CPU 0 instructions: 377000002 cycles: 463723613 heartbeat IPC: 0.91138 cumulative IPC: 0.821452 (Simulation time: 0 hr 40 min 38 sec) 
Heartbeat CPU 0 instructions: 378000002 cycles: 464816050 heartbeat IPC: 0.915385 cumulative IPC: 0.821681 (Simulation time: 0 hr 40 min 44 sec) 
Heartbeat CPU 0 instructions: 379000000 cycles: 466001576 heartbeat IPC: 0.843506 cumulative IPC: 0.821739 (Simulation time: 0 hr 40 min 50 sec) 
Heartbeat CPU 0 instructions: 380000003 cycles: 467163390 heartbeat IPC: 0.860726 cumulative IPC: 0.82184 (Simulation time: 0 hr 40 min 56 sec) 
Heartbeat CPU 0 instructions: 381000001 cycles: 468300820 heartbeat IPC: 0.879173 cumulative IPC: 0.821984 (Simulation time: 0 hr 41 min 2 sec) 
Heartbeat CPU 0 instructions: 382000001 cycles: 469894547 heartbeat IPC: 0.62746 cumulative IPC: 0.8213 (Simulation time: 0 hr 41 min 9 sec) 
Heartbeat CPU 0 instructions: 383000000 cycles: 471720523 heartbeat IPC: 0.547652 cumulative IPC: 0.820201 (Simulation time: 0 hr 41 min 16 sec) 
Heartbeat CPU 0 instructions: 384000001 cycles: 473589393 heartbeat IPC: 0.535083 cumulative IPC: 0.819034 (Simulation time: 0 hr 41 min 23 sec) 
Heartbeat CPU 0 instructions: 385000000 cycles: 475077617 heartbeat IPC: 0.671941 cumulative IPC: 0.818556 (Simulation time: 0 hr 41 min 30 sec) 
Heartbeat CPU 0 instructions: 386000000 cycles: 476872475 heartbeat IPC: 0.557147 cumulative IPC: 0.817536 (Simulation time: 0 hr 41 min 37 sec) 
Heartbeat CPU 0 instructions: 387000000 cycles: 477988677 heartbeat IPC: 0.895895 cumulative IPC: 0.817726 (Simulation time: 0 hr 41 min 43 sec) 
Heartbeat CPU 0 instructions: 388000002 cycles: 479082632 heartbeat IPC: 0.914116 cumulative IPC: 0.817954 (Simulation time: 0 hr 41 min 49 sec) 
Heartbeat CPU 0 instructions: 389000002 cycles: 480178430 heartbeat IPC: 0.912577 cumulative IPC: 0.818178 (Simulation time: 0 hr 41 min 56 sec) 
Heartbeat CPU 0 instructions: 390000000 cycles: 481283437 heartbeat IPC: 0.90497 cumulative IPC: 0.818384 (Simulation time: 0 hr 42 min 2 sec) 
Heartbeat CPU 0 instructions: 391000001 cycles: 482383382 heartbeat IPC: 0.909137 cumulative IPC: 0.818599 (Simulation time: 0 hr 42 min 8 sec) 
Heartbeat CPU 0 instructions: 392000000 cycles: 483471194 heartbeat IPC: 0.919276 cumulative IPC: 0.818833 (Simulation time: 0 hr 42 min 15 sec) 
Heartbeat CPU 0 instructions: 393000001 cycles: 484563185 heartbeat IPC: 0.915759 cumulative IPC: 0.81906 (Simulation time: 0 hr 42 min 22 sec) 
Heartbeat CPU 0 instructions: 394000002 cycles: 485647314 heartbeat IPC: 0.9224 cumulative IPC: 0.819299 (Simulation time: 0 hr 42 min 28 sec) 
Heartbeat CPU 0 instructions: 395000002 cycles: 486741361 heartbeat IPC: 0.914038 cumulative IPC: 0.819519 (Simulation time: 0 hr 42 min 35 sec) 
Heartbeat CPU 0 instructions: 396000000 cycles: 487841282 heartbeat IPC: 0.909154 cumulative IPC: 0.819729 (Simulation time: 0 hr 42 min 41 sec) 
Heartbeat CPU 0 instructions: 397000000 cycles: 488926565 heartbeat IPC: 0.921419 cumulative IPC: 0.819963 (Simulation time: 0 hr 42 min 48 sec) 
Heartbeat CPU 0 instructions: 398000003 cycles: 490009027 heartbeat IPC: 0.923823 cumulative IPC: 0.8202 (Simulation time: 0 hr 42 min 54 sec) 
Heartbeat CPU 0 instructions: 399000002 cycles: 491095545 heartbeat IPC: 0.92037 cumulative IPC: 0.82043 (Simulation time: 0 hr 43 min 1 sec) 
Heartbeat CPU 0 instructions: 400000002 cycles: 492181242 heartbeat IPC: 0.921067 cumulative IPC: 0.82066 (Simulation time: 0 hr 43 min 7 sec) 
Heartbeat CPU 0 instructions: 401000001 cycles: 493271964 heartbeat IPC: 0.916823 cumulative IPC: 0.82088 (Simulation time: 0 hr 43 min 13 sec) 
Heartbeat CPU 0 instructions: 402000002 cycles: 494368930 heartbeat IPC: 0.911606 cumulative IPC: 0.821088 (Simulation time: 0 hr 43 min 20 sec) 
Heartbeat CPU 0 instructions: 403000001 cycles: 495465659 heartbeat IPC: 0.911801 cumulative IPC: 0.821296 (Simulation time: 0 hr 43 min 27 sec) 
Heartbeat CPU 0 instructions: 404000000 cycles: 496560346 heartbeat IPC: 0.913502 cumulative IPC: 0.821507 (Simulation time: 0 hr 43 min 33 sec) 
Heartbeat CPU 0 instructions: 405000000 cycles: 497650743 heartbeat IPC: 0.917097 cumulative IPC: 0.821724 (Simulation time: 0 hr 43 min 39 sec) 
Heartbeat CPU 0 instructions: 406000001 cycles: 498747209 heartbeat IPC: 0.912022 cumulative IPC: 0.821929 (Simulation time: 0 hr 43 min 45 sec) 
Heartbeat CPU 0 instructions: 407000000 cycles: 499838968 heartbeat IPC: 0.915952 cumulative IPC: 0.822142 (Simulation time: 0 hr 43 min 51 sec) 
Heartbeat CPU 0 instructions: 408000000 cycles: 500929236 heartbeat IPC: 0.917206 cumulative IPC: 0.822356 (Simulation time: 0 hr 43 min 58 sec) 
Heartbeat CPU 0 instructions: 409000001 cycles: 502039145 heartbeat IPC: 0.900976 cumulative IPC: 0.822536 (Simulation time: 0 hr 44 min 4 sec) 
Heartbeat CPU 0 instructions: 410000002 cycles: 503167289 heartbeat IPC: 0.886413 cumulative IPC: 0.822684 (Simulation time: 0 hr 44 min 10 sec) 
Heartbeat CPU 0 instructions: 411000000 cycles: 504276901 heartbeat IPC: 0.901214 cumulative IPC: 0.822863 (Simulation time: 0 hr 44 min 16 sec) 
Heartbeat CPU 0 instructions: 412000000 cycles: 505372263 heartbeat IPC: 0.91294 cumulative IPC: 0.823065 (Simulation time: 0 hr 44 min 23 sec) 
Heartbeat CPU 0 instructions: 413000000 cycles: 506467352 heartbeat IPC: 0.913168 cumulative IPC: 0.823266 (Simulation time: 0 hr 44 min 30 sec) 
Heartbeat CPU 0 instructions: 414000000 cycles: 507592650 heartbeat IPC: 0.888654 cumulative IPC: 0.823416 (Simulation time: 0 hr 44 min 36 sec) 
Heartbeat CPU 0 instructions: 415000000 cycles: 508719982 heartbeat IPC: 0.88705 cumulative IPC: 0.823562 (Simulation time: 0 hr 44 min 43 sec) 
Heartbeat CPU 0 instructions: 416000002 cycles: 511013046 heartbeat IPC: 0.436099 cumulative IPC: 0.821764 (Simulation time: 0 hr 44 min 48 sec) 
Heartbeat CPU 0 instructions: 417000002 cycles: 512409541 heartbeat IPC: 0.716078 cumulative IPC: 0.821466 (Simulation time: 0 hr 44 min 55 sec) 
Heartbeat CPU 0 instructions: 418000000 cycles: 513504678 heartbeat IPC: 0.913126 cumulative IPC: 0.821668 (Simulation time: 0 hr 45 min 1 sec) 
Heartbeat CPU 0 instructions: 419000000 cycles: 514601274 heartbeat IPC: 0.911913 cumulative IPC: 0.821867 (Simulation time: 0 hr 45 min 8 sec) 
Heartbeat CPU 0 instructions: 420000000 cycles: 515708514 heartbeat IPC: 0.903147 cumulative IPC: 0.822047 (Simulation time: 0 hr 45 min 14 sec) 
Heartbeat CPU 0 instructions: 421000000 cycles: 516815583 heartbeat IPC: 0.903286 cumulative IPC: 0.822227 (Simulation time: 0 hr 45 min 21 sec) 
Heartbeat CPU 0 instructions: 422000003 cycles: 517913411 heartbeat IPC: 0.910892 cumulative IPC: 0.822422 (Simulation time: 0 hr 45 min 27 sec) 
Heartbeat CPU 0 instructions: 423000002 cycles: 519012218 heartbeat IPC: 0.910077 cumulative IPC: 0.822614 (Simulation time: 0 hr 45 min 34 sec) 
Heartbeat CPU 0 instructions: 424000001 cycles: 520102856 heartbeat IPC: 0.916894 cumulative IPC: 0.822818 (Simulation time: 0 hr 45 min 41 sec) 
Heartbeat CPU 0 instructions: 425000002 cycles: 521203979 heartbeat IPC: 0.908165 cumulative IPC: 0.823004 (Simulation time: 0 hr 45 min 47 sec) 
Heartbeat CPU 0 instructions: 426000003 cycles: 522306147 heartbeat IPC: 0.907304 cumulative IPC: 0.823188 (Simulation time: 0 hr 45 min 54 sec) 
Heartbeat CPU 0 instructions: 427000002 cycles: 523405174 heartbeat IPC: 0.909895 cumulative IPC: 0.823376 (Simulation time: 0 hr 46 min 0 sec) 
Heartbeat CPU 0 instructions: 428000000 cycles: 524492754 heartbeat IPC: 0.919471 cumulative IPC: 0.823582 (Simulation time: 0 hr 46 min 6 sec) 
Heartbeat CPU 0 instructions: 429000000 cycles: 525588004 heartbeat IPC: 0.913034 cumulative IPC: 0.823775 (Simulation time: 0 hr 46 min 13 sec) 
Heartbeat CPU 0 instructions: 430000001 cycles: 526681268 heartbeat IPC: 0.914693 cumulative IPC: 0.82397 (Simulation time: 0 hr 46 min 19 sec) 
Heartbeat CPU 0 instructions: 431000003 cycles: 527779906 heartbeat IPC: 0.91022 cumulative IPC: 0.824155 (Simulation time: 0 hr 46 min 25 sec) 
Heartbeat CPU 0 instructions: 432000001 cycles: 528883868 heartbeat IPC: 0.905826 cumulative IPC: 0.824331 (Simulation time: 0 hr 46 min 32 sec) 
Heartbeat CPU 0 instructions: 433000003 cycles: 529990977 heartbeat IPC: 0.903255 cumulative IPC: 0.824502 (Simulation time: 0 hr 46 min 38 sec) 
Heartbeat CPU 0 instructions: 434000000 cycles: 531096903 heartbeat IPC: 0.904217 cumulative IPC: 0.824673 (Simulation time: 0 hr 46 min 44 sec) 
Heartbeat CPU 0 instructions: 435000000 cycles: 532192620 heartbeat IPC: 0.912644 cumulative IPC: 0.82486 (Simulation time: 0 hr 46 min 50 sec) 
Heartbeat CPU 0 instructions: 436000002 cycles: 533298991 heartbeat IPC: 0.903858 cumulative IPC: 0.82503 (Simulation time: 0 hr 46 min 57 sec) 
Heartbeat CPU 0 instructions: 437000000 cycles: 534400302 heartbeat IPC: 0.908007 cumulative IPC: 0.825206 (Simulation time: 0 hr 47 min 3 sec) 
Heartbeat CPU 0 instructions: 438000000 cycles: 535496013 heartbeat IPC: 0.912649 cumulative IPC: 0.825391 (Simulation time: 0 hr 47 min 9 sec) 
Heartbeat CPU 0 instructions: 439000000 cycles: 536639186 heartbeat IPC: 0.874758 cumulative IPC: 0.8255 (Simulation time: 0 hr 47 min 15 sec) 
Heartbeat CPU 0 instructions: 440000000 cycles: 537819324 heartbeat IPC: 0.847359 cumulative IPC: 0.825549 (Simulation time: 0 hr 47 min 21 sec) 
Heartbeat CPU 0 instructions: 441000000 cycles: 538959300 heartbeat IPC: 0.877211 cumulative IPC: 0.825662 (Simulation time: 0 hr 47 min 27 sec) 
Heartbeat CPU 0 instructions: 442000003 cycles: 540115174 heartbeat IPC: 0.865149 cumulative IPC: 0.825749 (Simulation time: 0 hr 47 min 34 sec) 
Heartbeat CPU 0 instructions: 443000003 cycles: 541266515 heartbeat IPC: 0.868552 cumulative IPC: 0.825843 (Simulation time: 0 hr 47 min 40 sec) 
Heartbeat CPU 0 instructions: 444000003 cycles: 542363129 heartbeat IPC: 0.911898 cumulative IPC: 0.826023 (Simulation time: 0 hr 47 min 46 sec) 
Heartbeat CPU 0 instructions: 445000002 cycles: 543459594 heartbeat IPC: 0.912021 cumulative IPC: 0.826202 (Simulation time: 0 hr 47 min 52 sec) 
Heartbeat CPU 0 instructions: 446000000 cycles: 544597088 heartbeat IPC: 0.879124 cumulative IPC: 0.826316 (Simulation time: 0 hr 47 min 59 sec) 
Heartbeat CPU 0 instructions: 447000002 cycles: 545840488 heartbeat IPC: 0.804248 cumulative IPC: 0.826264 (Simulation time: 0 hr 48 min 5 sec) 
Heartbeat CPU 0 instructions: 448000003 cycles: 546930591 heartbeat IPC: 0.917345 cumulative IPC: 0.826451 (Simulation time: 0 hr 48 min 11 sec) 
Heartbeat CPU 0 instructions: 449000002 cycles: 548023661 heartbeat IPC: 0.914854 cumulative IPC: 0.826633 (Simulation time: 0 hr 48 min 18 sec) 
Heartbeat CPU 0 instructions: 450000002 cycles: 549126742 heartbeat IPC: 0.906552 cumulative IPC: 0.826799 (Simulation time: 0 hr 48 min 24 sec) 
Heartbeat CPU 0 instructions: 451000000 cycles: 550224616 heartbeat IPC: 0.91085 cumulative IPC: 0.826972 (Simulation time: 0 hr 48 min 30 sec) 
Heartbeat CPU 0 instructions: 452000000 cycles: 551317701 heartbeat IPC: 0.914842 cumulative IPC: 0.827152 (Simulation time: 0 hr 48 min 37 sec) 
Heartbeat CPU 0 instructions: 453000001 cycles: 552414115 heartbeat IPC: 0.912065 cumulative IPC: 0.827326 (Simulation time: 0 hr 48 min 43 sec) 
Heartbeat CPU 0 instructions: 454000000 cycles: 553503387 heartbeat IPC: 0.918043 cumulative IPC: 0.82751 (Simulation time: 0 hr 48 min 49 sec) 
Heartbeat CPU 0 instructions: 455000002 cycles: 554597595 heartbeat IPC: 0.913905 cumulative IPC: 0.827686 (Simulation time: 0 hr 48 min 55 sec) 
Heartbeat CPU 0 instructions: 456000003 cycles: 555698145 heartbeat IPC: 0.908638 cumulative IPC: 0.827851 (Simulation time: 0 hr 49 min 2 sec) 
Heartbeat CPU 0 instructions: 457000000 cycles: 556791954 heartbeat IPC: 0.914234 cumulative IPC: 0.828026 (Simulation time: 0 hr 49 min 8 sec) 
Heartbeat CPU 0 instructions: 458000003 cycles: 557877173 heartbeat IPC: 0.921476 cumulative IPC: 0.828214 (Simulation time: 0 hr 49 min 14 sec) 
Heartbeat CPU 0 instructions: 459000001 cycles: 558966417 heartbeat IPC: 0.918066 cumulative IPC: 0.828394 (Simulation time: 0 hr 49 min 20 sec) 
Heartbeat CPU 0 instructions: 460000001 cycles: 560056733 heartbeat IPC: 0.917165 cumulative IPC: 0.828572 (Simulation time: 0 hr 49 min 27 sec) 
Heartbeat CPU 0 instructions: 461000000 cycles: 561153242 heartbeat IPC: 0.911984 cumulative IPC: 0.82874 (Simulation time: 0 hr 49 min 33 sec) 
Heartbeat CPU 0 instructions: 462000000 cycles: 562252742 heartbeat IPC: 0.909504 cumulative IPC: 0.828903 (Simulation time: 0 hr 49 min 39 sec) 
Heartbeat CPU 0 instructions: 463000000 cycles: 563352105 heartbeat IPC: 0.909618 cumulative IPC: 0.829066 (Simulation time: 0 hr 49 min 46 sec) 
Heartbeat CPU 0 instructions: 464000001 cycles: 564453546 heartbeat IPC: 0.907902 cumulative IPC: 0.829224 (Simulation time: 0 hr 49 min 52 sec) 
Heartbeat CPU 0 instructions: 465000000 cycles: 565545501 heartbeat IPC: 0.915788 cumulative IPC: 0.829396 (Simulation time: 0 hr 49 min 58 sec) 
Heartbeat CPU 0 instructions: 466000001 cycles: 566644698 heartbeat IPC: 0.909756 cumulative IPC: 0.829557 (Simulation time: 0 hr 50 min 4 sec) 
Heartbeat CPU 0 instructions: 467000000 cycles: 567738848 heartbeat IPC: 0.913951 cumulative IPC: 0.829725 (Simulation time: 0 hr 50 min 11 sec) 
Heartbeat CPU 0 instructions: 468000000 cycles: 568833913 heartbeat IPC: 0.913188 cumulative IPC: 0.82989 (Simulation time: 0 hr 50 min 17 sec) 
Heartbeat CPU 0 instructions: 469000003 cycles: 570031154 heartbeat IPC: 0.835256 cumulative IPC: 0.829902 (Simulation time: 0 hr 50 min 23 sec) 
Heartbeat CPU 0 instructions: 470000000 cycles: 571215330 heartbeat IPC: 0.844467 cumulative IPC: 0.829933 (Simulation time: 0 hr 50 min 29 sec) 
Heartbeat CPU 0 instructions: 471000003 cycles: 573305598 heartbeat IPC: 0.478409 cumulative IPC: 0.828612 (Simulation time: 0 hr 50 min 36 sec) 
Heartbeat CPU 0 instructions: 472000002 cycles: 574404047 heartbeat IPC: 0.910374 cumulative IPC: 0.828774 (Simulation time: 0 hr 50 min 42 sec) 
Heartbeat CPU 0 instructions: 473000000 cycles: 575500296 heartbeat IPC: 0.9122 cumulative IPC: 0.828937 (Simulation time: 0 hr 50 min 48 sec) 
Heartbeat CPU 0 instructions: 474000002 cycles: 576601216 heartbeat IPC: 0.908333 cumulative IPC: 0.829094 (Simulation time: 0 hr 50 min 54 sec) 
Heartbeat CPU 0 instructions: 475000000 cycles: 577706760 heartbeat IPC: 0.90453 cumulative IPC: 0.829242 (Simulation time: 0 hr 51 min 0 sec) 
Heartbeat CPU 0 instructions: 476000000 cycles: 578807611 heartbeat IPC: 0.908388 cumulative IPC: 0.829397 (Simulation time: 0 hr 51 min 7 sec) 
Heartbeat CPU 0 instructions: 477000000 cycles: 579903836 heartbeat IPC: 0.912221 cumulative IPC: 0.829559 (Simulation time: 0 hr 51 min 13 sec) 
Heartbeat CPU 0 instructions: 478000000 cycles: 580998550 heartbeat IPC: 0.913481 cumulative IPC: 0.829721 (Simulation time: 0 hr 51 min 19 sec) 
Heartbeat CPU 0 instructions: 479000002 cycles: 582095398 heartbeat IPC: 0.911705 cumulative IPC: 0.829881 (Simulation time: 0 hr 51 min 26 sec) 
Heartbeat CPU 0 instructions: 480000003 cycles: 583191493 heartbeat IPC: 0.912331 cumulative IPC: 0.83004 (Simulation time: 0 hr 51 min 32 sec) 
Heartbeat CPU 0 instructions: 481000000 cycles: 584294724 heartbeat IPC: 0.906426 cumulative IPC: 0.830189 (Simulation time: 0 hr 51 min 38 sec) 
Heartbeat CPU 0 instructions: 482000003 cycles: 585380301 heartbeat IPC: 0.921172 cumulative IPC: 0.830362 (Simulation time: 0 hr 51 min 44 sec) 
Heartbeat CPU 0 instructions: 483000000 cycles: 586470615 heartbeat IPC: 0.917164 cumulative IPC: 0.830529 (Simulation time: 0 hr 51 min 51 sec) 
Heartbeat CPU 0 instructions: 484000000 cycles: 587558752 heartbeat IPC: 0.919002 cumulative IPC: 0.830697 (Simulation time: 0 hr 51 min 57 sec) 
Heartbeat CPU 0 instructions: 485000003 cycles: 588650254 heartbeat IPC: 0.916171 cumulative IPC: 0.830861 (Simulation time: 0 hr 52 min 3 sec) 
Heartbeat CPU 0 instructions: 486000000 cycles: 589748368 heartbeat IPC: 0.91065 cumulative IPC: 0.831014 (Simulation time: 0 hr 52 min 10 sec) 
Heartbeat CPU 0 instructions: 487000003 cycles: 590855397 heartbeat IPC: 0.903321 cumulative IPC: 0.831153 (Simulation time: 0 hr 52 min 16 sec) 
Heartbeat CPU 0 instructions: 488000000 cycles: 591960038 heartbeat IPC: 0.905269 cumulative IPC: 0.831295 (Simulation time: 0 hr 52 min 22 sec) 
Heartbeat CPU 0 instructions: 489000003 cycles: 593057681 heartbeat IPC: 0.911046 cumulative IPC: 0.831447 (Simulation time: 0 hr 52 min 28 sec) 
Heartbeat CPU 0 instructions: 490000000 cycles: 594156390 heartbeat IPC: 0.910156 cumulative IPC: 0.831597 (Simulation time: 0 hr 52 min 34 sec) 
Heartbeat CPU 0 instructions: 491000002 cycles: 595253863 heartbeat IPC: 0.911186 cumulative IPC: 0.831748 (Simulation time: 0 hr 52 min 41 sec) 
Heartbeat CPU 0 instructions: 492000003 cycles: 596351566 heartbeat IPC: 0.910994 cumulative IPC: 0.831898 (Simulation time: 0 hr 52 min 47 sec) 
Heartbeat CPU 0 instructions: 493000002 cycles: 597478397 heartbeat IPC: 0.887444 cumulative IPC: 0.832006 (Simulation time: 0 hr 52 min 53 sec) 
Heartbeat CPU 0 instructions: 494000001 cycles: 598684465 heartbeat IPC: 0.82914 cumulative IPC: 0.832 (Simulation time: 0 hr 53 min 0 sec) 
Heartbeat CPU 0 instructions: 495000000 cycles: 599954016 heartbeat IPC: 0.787679 cumulative IPC: 0.831904 (Simulation time: 0 hr 53 min 7 sec) 
Heartbeat CPU 0 instructions: 496000000 cycles: 601048866 heartbeat IPC: 0.913367 cumulative IPC: 0.832056 (Simulation time: 0 hr 53 min 13 sec) 
Heartbeat CPU 0 instructions: 497000001 cycles: 602147956 heartbeat IPC: 0.909845 cumulative IPC: 0.832202 (Simulation time: 0 hr 53 min 20 sec) 
Heartbeat CPU 0 instructions: 498000003 cycles: 603243161 heartbeat IPC: 0.913073 cumulative IPC: 0.832354 (Simulation time: 0 hr 53 min 26 sec) 
Heartbeat CPU 0 instructions: 499000003 cycles: 604348882 heartbeat IPC: 0.904387 cumulative IPC: 0.832489 (Simulation time: 0 hr 53 min 33 sec) 
Heartbeat CPU 0 instructions: 500000003 cycles: 605449014 heartbeat IPC: 0.908982 cumulative IPC: 0.832632 (Simulation time: 0 hr 53 min 39 sec) 
Heartbeat CPU 0 instructions: 501000003 cycles: 606539618 heartbeat IPC: 0.916923 cumulative IPC: 0.832788 (Simulation time: 0 hr 53 min 46 sec) 
Heartbeat CPU 0 instructions: 502000003 cycles: 607628673 heartbeat IPC: 0.918227 cumulative IPC: 0.832946 (Simulation time: 0 hr 53 min 52 sec) 
Heartbeat CPU 0 instructions: 503000000 cycles: 608726066 heartbeat IPC: 0.911248 cumulative IPC: 0.833091 (Simulation time: 0 hr 53 min 59 sec) 
Heartbeat CPU 0 instructions: 504000002 cycles: 609823198 heartbeat IPC: 0.911469 cumulative IPC: 0.833236 (Simulation time: 0 hr 54 min 6 sec) 
Heartbeat CPU 0 instructions: 505000002 cycles: 610918745 heartbeat IPC: 0.912786 cumulative IPC: 0.833383 (Simulation time: 0 hr 54 min 12 sec) 
Heartbeat CPU 0 instructions: 506000000 cycles: 612008562 heartbeat IPC: 0.917583 cumulative IPC: 0.833537 (Simulation time: 0 hr 54 min 19 sec) 
Heartbeat CPU 0 instructions: 507000000 cycles: 613099161 heartbeat IPC: 0.916927 cumulative IPC: 0.833689 (Simulation time: 0 hr 54 min 25 sec) 
Heartbeat CPU 0 instructions: 508000002 cycles: 614191906 heartbeat IPC: 0.915128 cumulative IPC: 0.833838 (Simulation time: 0 hr 54 min 32 sec) 
Heartbeat CPU 0 instructions: 509000001 cycles: 615281191 heartbeat IPC: 0.918032 cumulative IPC: 0.833992 (Simulation time: 0 hr 54 min 38 sec) 
Heartbeat CPU 0 instructions: 510000000 cycles: 616376771 heartbeat IPC: 0.912758 cumulative IPC: 0.834136 (Simulation time: 0 hr 54 min 45 sec) 
Finished CPU 0 instructions: 500000003 cycles: 599422925 cumulative IPC: 0.834136 (Simulation time: 0 hr 54 min 45 sec) 

ChampSim completed all CPUs

Region of Interest Statistics

CPU 0 cumulative IPC: 0.834136 instructions: 500000003 cycles: 599422925
L1D TOTAL     ACCESS:  149730390  HIT:  142290976  MISS:    7439414
L1D LOAD      ACCESS:  100042294  HIT:   92610078  MISS:    7432216
L1D RFO       ACCESS:   49688096  HIT:   49680898  MISS:       7198
L1D PREFETCH  ACCESS:          0  HIT:          0  MISS:          0
L1D WRITEBACK ACCESS:          0  HIT:          0  MISS:          0
L1D PREFETCH  REQUESTED:          0  ISSUED:          0  USEFUL:          0  USELESS:          0  UAC CORRECT:          0
L1D AVERAGE MISS LATENCY: 38.3927 cycles
L1I TOTAL     ACCESS:  115203960  HIT:  115203816  MISS:        144
L1I LOAD      ACCESS:  115203960  HIT:  115203816  MISS:        144
L1I RFO       ACCESS:          0  HIT:          0  MISS:          0
L1I PREFETCH  ACCESS:          0  HIT:          0  MISS:          0
L1I WRITEBACK ACCESS:          0  HIT:          0  MISS:          0
L1I PREFETCH  REQUESTED:          0  ISSUED:          0  USEFUL:          0  USELESS:          0  UAC CORRECT:          0
L1I AVERAGE MISS LATENCY: 236.562 cycles
L2C TOTAL     ACCESS:    7523832  HIT:    3178151  MISS:    4345681
L2C LOAD      ACCESS:    7432353  HIT:    3093042  MISS:    4339311
L2C RFO       ACCESS:       7198  HIT:       1279  MISS:       5919
L2C PREFETCH  ACCESS:          0  HIT:          0  MISS:          0
L2C WRITEBACK ACCESS:      84281  HIT:      83830  MISS:        451
L2C PREFETCH  REQUESTED:          0  ISSUED:          0  USEFUL:          0  USELESS:          0  UAC CORRECT:          0
L2C AVERAGE MISS LATENCY: 41.6275 cycles
LLC TOTAL     ACCESS:    8126194  HIT:    3792077  MISS:    4334117
LLC LOAD      ACCESS:    4339311  HIT:    3708989  MISS:     630322
LLC RFO       ACCESS:       5919  HIT:        181  MISS:       5738
LLC PREFETCH  ACCESS:    3729517  HIT:      39747  MISS:    3689770
LLC WRITEBACK ACCESS:      51447  HIT:      43160  MISS:       8287
LLC PREFETCH  REQUESTED:    4068849  ISSUED:    4068849  USEFUL:    3679261  USELESS:      10487  UAC CORRECT:    3214400
LLC AVERAGE MISS LATENCY: 101.41 cycles
Major fault: 0 Minor fault: 11114
performance stats:
mapping cache size: 351512
divergence: 675130

DRAM Statistics
 CHANNEL 0
 RQ ROW_BUFFER_HIT:    2086169  ROW_BUFFER_MISS:      75865
 DBUS_CONGESTED:      51321
 WQ ROW_BUFFER_HIT:      13548  ROW_BUFFER_MISS:      11547  FULL:          0

 CHANNEL 1
 RQ ROW_BUFFER_HIT:    2086539  ROW_BUFFER_MISS:      77257
 DBUS_CONGESTED:      51321
 WQ ROW_BUFFER_HIT:      13649  ROW_BUFFER_MISS:      11667  FULL:          0

 AVG_CONGESTED_CYCLE: 13

CPU 0 Branch Prediction Accuracy: 99.9237% MPKI: 0.181998 Average ROB Occupancy at Mispredict: 111.473

Branch types
NOT_BRANCH: 380780603 76.1561%
BRANCH_DIRECT_JUMP: 12349907 2.46998%
BRANCH_INDIRECT: 0 0%
BRANCH_CONDITIONAL: 94459171 18.8918%
BRANCH_DIRECT_CALL: 6205102 1.24102%
BRANCH_INDIRECT_CALL: 57 1.14e-05%
BRANCH_RETURN: 6205158 1.24103%
BRANCH_OTHER: 0 0%

