
*** ChampSim Multicore Out-of-Order Simulator ***

Warmup Instructions: 1000000
Prefetch Warmup Instructions: 10000000
Simulation Instructions: 500000000
Stat Printing Period: 1000000
Number of CPUs: 1
LLC sets: 2048
LLC ways: 16
Off-chip DRAM Size: 32768 MB Channels: 2 Width: 64-bit Data Rate: 1024 MT/s

CPU 0 runs /scratch/cluster/cmolder/ML-DPC/ChampSimTraces/spec17/602.gcc-s1.trace.xz
Read seed: 270
Heartbeat CPU 0 instructions: 1000000 cycles: 486568 heartbeat IPC: 2.05521 cumulative IPC: 2.05521 (Simulation time: 0 hr 0 min 6 sec) 

Warmup complete CPU 0 instructions: 1000004 cycles: 486569 (Simulation time: 0 hr 0 min 6 sec) 

Heartbeat CPU 0 instructions: 2000003 cycles: 11427874 heartbeat IPC: 0.091397 cumulative IPC: 0.0913967 (Simulation time: 0 hr 0 min 25 sec) 
Heartbeat CPU 0 instructions: 3000002 cycles: 22419354 heartbeat IPC: 0.0909795 cumulative IPC: 0.0911876 (Simulation time: 0 hr 0 min 43 sec) 
Heartbeat CPU 0 instructions: 4000000 cycles: 33413295 heartbeat IPC: 0.090959 cumulative IPC: 0.0911113 (Simulation time: 0 hr 1 min 1 sec) 
Heartbeat CPU 0 instructions: 5000002 cycles: 44345557 heartbeat IPC: 0.0914726 cumulative IPC: 0.0912013 (Simulation time: 0 hr 1 min 19 sec) 
Heartbeat CPU 0 instructions: 6000000 cycles: 54407931 heartbeat IPC: 0.0993799 cumulative IPC: 0.0927276 (Simulation time: 0 hr 1 min 36 sec) 
Heartbeat CPU 0 instructions: 7000001 cycles: 65334849 heartbeat IPC: 0.0915172 cumulative IPC: 0.0925236 (Simulation time: 0 hr 1 min 55 sec) 
Heartbeat CPU 0 instructions: 8000000 cycles: 76291326 heartbeat IPC: 0.0912701 cumulative IPC: 0.0923424 (Simulation time: 0 hr 2 min 12 sec) 
Heartbeat CPU 0 instructions: 9000000 cycles: 87245534 heartbeat IPC: 0.0912891 cumulative IPC: 0.0922094 (Simulation time: 0 hr 2 min 30 sec) 
Heartbeat CPU 0 instructions: 10000002 cycles: 98196399 heartbeat IPC: 0.0913172 cumulative IPC: 0.0921094 (Simulation time: 0 hr 2 min 49 sec) 

Warmup complete CPU 0 instructions: 10000002 cycles: 98196399 (Simulation time: 0 hr 2 min 49 sec) 

Heartbeat CPU 0 instructions: 11000000 cycles: 102732547 heartbeat IPC: 0.220451 cumulative IPC: 0.220451 (Simulation time: 0 hr 2 min 59 sec) 
Heartbeat CPU 0 instructions: 12000001 cycles: 107295632 heartbeat IPC: 0.21915 cumulative IPC: 0.219799 (Simulation time: 0 hr 3 min 10 sec) 
Heartbeat CPU 0 instructions: 13000002 cycles: 111807193 heartbeat IPC: 0.221653 cumulative IPC: 0.220413 (Simulation time: 0 hr 3 min 20 sec) 
Heartbeat CPU 0 instructions: 14000001 cycles: 116317709 heartbeat IPC: 0.221704 cumulative IPC: 0.220735 (Simulation time: 0 hr 3 min 31 sec) 
Heartbeat CPU 0 instructions: 15000000 cycles: 120860842 heartbeat IPC: 0.220112 cumulative IPC: 0.22061 (Simulation time: 0 hr 3 min 42 sec) 
Heartbeat CPU 0 instructions: 16000001 cycles: 125385123 heartbeat IPC: 0.22103 cumulative IPC: 0.22068 (Simulation time: 0 hr 3 min 52 sec) 
Heartbeat CPU 0 instructions: 17000001 cycles: 129908463 heartbeat IPC: 0.221076 cumulative IPC: 0.220736 (Simulation time: 0 hr 4 min 4 sec) 
Heartbeat CPU 0 instructions: 18000000 cycles: 134447235 heartbeat IPC: 0.220324 cumulative IPC: 0.220685 (Simulation time: 0 hr 4 min 14 sec) 
Heartbeat CPU 0 instructions: 19000001 cycles: 138965293 heartbeat IPC: 0.221334 cumulative IPC: 0.220757 (Simulation time: 0 hr 4 min 25 sec) 
Heartbeat CPU 0 instructions: 20000000 cycles: 143471288 heartbeat IPC: 0.221926 cumulative IPC: 0.220873 (Simulation time: 0 hr 4 min 36 sec) 
Heartbeat CPU 0 instructions: 21000002 cycles: 147960273 heartbeat IPC: 0.222768 cumulative IPC: 0.221044 (Simulation time: 0 hr 4 min 46 sec) 
Heartbeat CPU 0 instructions: 22000000 cycles: 152522206 heartbeat IPC: 0.219205 cumulative IPC: 0.220889 (Simulation time: 0 hr 4 min 56 sec) 
Heartbeat CPU 0 instructions: 23000001 cycles: 157094409 heartbeat IPC: 0.218713 cumulative IPC: 0.220721 (Simulation time: 0 hr 5 min 7 sec) 
Heartbeat CPU 0 instructions: 24000003 cycles: 161606005 heartbeat IPC: 0.221651 cumulative IPC: 0.220787 (Simulation time: 0 hr 5 min 18 sec) 
Heartbeat CPU 0 instructions: 25000000 cycles: 166082357 heartbeat IPC: 0.223396 cumulative IPC: 0.220959 (Simulation time: 0 hr 5 min 28 sec) 
Heartbeat CPU 0 instructions: 26000000 cycles: 170585502 heartbeat IPC: 0.222067 cumulative IPC: 0.221028 (Simulation time: 0 hr 5 min 39 sec) 
Heartbeat CPU 0 instructions: 27000000 cycles: 175029965 heartbeat IPC: 0.224999 cumulative IPC: 0.221257 (Simulation time: 0 hr 5 min 50 sec) 
Heartbeat CPU 0 instructions: 28000000 cycles: 179504290 heartbeat IPC: 0.223497 cumulative IPC: 0.221381 (Simulation time: 0 hr 6 min 0 sec) 
Heartbeat CPU 0 instructions: 29000000 cycles: 183975200 heartbeat IPC: 0.223668 cumulative IPC: 0.2215 (Simulation time: 0 hr 6 min 11 sec) 
Heartbeat CPU 0 instructions: 30000001 cycles: 188499749 heartbeat IPC: 0.221017 cumulative IPC: 0.221476 (Simulation time: 0 hr 6 min 21 sec) 
Heartbeat CPU 0 instructions: 31000001 cycles: 193011896 heartbeat IPC: 0.221624 cumulative IPC: 0.221483 (Simulation time: 0 hr 6 min 32 sec) 
Heartbeat CPU 0 instructions: 32000001 cycles: 197590894 heartbeat IPC: 0.218388 cumulative IPC: 0.22134 (Simulation time: 0 hr 6 min 43 sec) 
Heartbeat CPU 0 instructions: 33000000 cycles: 202094285 heartbeat IPC: 0.222055 cumulative IPC: 0.221371 (Simulation time: 0 hr 6 min 54 sec) 
Heartbeat CPU 0 instructions: 34000003 cycles: 206603305 heartbeat IPC: 0.221778 cumulative IPC: 0.221388 (Simulation time: 0 hr 7 min 5 sec) 
Heartbeat CPU 0 instructions: 35000000 cycles: 211062916 heartbeat IPC: 0.224234 cumulative IPC: 0.221501 (Simulation time: 0 hr 7 min 16 sec) 
Heartbeat CPU 0 instructions: 36000003 cycles: 215542877 heartbeat IPC: 0.223217 cumulative IPC: 0.221566 (Simulation time: 0 hr 7 min 27 sec) 
Heartbeat CPU 0 instructions: 37000003 cycles: 221063002 heartbeat IPC: 0.181155 cumulative IPC: 0.219751 (Simulation time: 0 hr 7 min 39 sec) 
Heartbeat CPU 0 instructions: 38000000 cycles: 227335556 heartbeat IPC: 0.159424 cumulative IPC: 0.21682 (Simulation time: 0 hr 7 min 52 sec) 
Heartbeat CPU 0 instructions: 39000000 cycles: 233617586 heartbeat IPC: 0.159184 cumulative IPC: 0.214147 (Simulation time: 0 hr 8 min 5 sec) 
Heartbeat CPU 0 instructions: 40000002 cycles: 239904795 heartbeat IPC: 0.159053 cumulative IPC: 0.211702 (Simulation time: 0 hr 8 min 18 sec) 
Heartbeat CPU 0 instructions: 41000000 cycles: 246196258 heartbeat IPC: 0.158945 cumulative IPC: 0.20946 (Simulation time: 0 hr 8 min 30 sec) 
Heartbeat CPU 0 instructions: 42000002 cycles: 251969817 heartbeat IPC: 0.173204 cumulative IPC: 0.208098 (Simulation time: 0 hr 8 min 44 sec) 
Heartbeat CPU 0 instructions: 43000000 cycles: 258241424 heartbeat IPC: 0.159448 cumulative IPC: 0.206192 (Simulation time: 0 hr 8 min 57 sec) 
Heartbeat CPU 0 instructions: 44000000 cycles: 264510492 heartbeat IPC: 0.159513 cumulative IPC: 0.204432 (Simulation time: 0 hr 9 min 9 sec) 
Heartbeat CPU 0 instructions: 45000000 cycles: 270803216 heartbeat IPC: 0.158914 cumulative IPC: 0.202773 (Simulation time: 0 hr 9 min 21 sec) 
Heartbeat CPU 0 instructions: 46000003 cycles: 277070686 heartbeat IPC: 0.159554 cumulative IPC: 0.201259 (Simulation time: 0 hr 9 min 34 sec) 
Heartbeat CPU 0 instructions: 47000001 cycles: 283372723 heartbeat IPC: 0.158679 cumulative IPC: 0.19981 (Simulation time: 0 hr 9 min 46 sec) 
Heartbeat CPU 0 instructions: 48000000 cycles: 289661472 heartbeat IPC: 0.159014 cumulative IPC: 0.19847 (Simulation time: 0 hr 9 min 58 sec) 
Heartbeat CPU 0 instructions: 49000003 cycles: 295947960 heartbeat IPC: 0.159072 cumulative IPC: 0.197217 (Simulation time: 0 hr 10 min 10 sec) 
Heartbeat CPU 0 instructions: 50000000 cycles: 302234206 heartbeat IPC: 0.159077 cumulative IPC: 0.196042 (Simulation time: 0 hr 10 min 23 sec) 
Heartbeat CPU 0 instructions: 51000002 cycles: 308508249 heartbeat IPC: 0.159387 cumulative IPC: 0.194949 (Simulation time: 0 hr 10 min 35 sec) 
Heartbeat CPU 0 instructions: 52000000 cycles: 314790351 heartbeat IPC: 0.159182 cumulative IPC: 0.193911 (Simulation time: 0 hr 10 min 48 sec) 
Heartbeat CPU 0 instructions: 53000003 cycles: 321087738 heartbeat IPC: 0.158797 cumulative IPC: 0.192919 (Simulation time: 0 hr 11 min 0 sec) 
Heartbeat CPU 0 instructions: 54000000 cycles: 327370881 heartbeat IPC: 0.159156 cumulative IPC: 0.191993 (Simulation time: 0 hr 11 min 13 sec) 
Heartbeat CPU 0 instructions: 55000000 cycles: 333673165 heartbeat IPC: 0.158673 cumulative IPC: 0.191102 (Simulation time: 0 hr 11 min 25 sec) 
Heartbeat CPU 0 instructions: 56000002 cycles: 339991018 heartbeat IPC: 0.158282 cumulative IPC: 0.190244 (Simulation time: 0 hr 11 min 37 sec) 
Heartbeat CPU 0 instructions: 57000001 cycles: 346266231 heartbeat IPC: 0.159357 cumulative IPC: 0.189463 (Simulation time: 0 hr 11 min 49 sec) 
Heartbeat CPU 0 instructions: 58000003 cycles: 352559122 heartbeat IPC: 0.15891 cumulative IPC: 0.188707 (Simulation time: 0 hr 12 min 2 sec) 
Heartbeat CPU 0 instructions: 59000002 cycles: 358855757 heartbeat IPC: 0.158815 cumulative IPC: 0.187985 (Simulation time: 0 hr 12 min 14 sec) 
Heartbeat CPU 0 instructions: 60000002 cycles: 365135462 heartbeat IPC: 0.159243 cumulative IPC: 0.187309 (Simulation time: 0 hr 12 min 27 sec) 
Heartbeat CPU 0 instructions: 61000002 cycles: 371416747 heartbeat IPC: 0.159203 cumulative IPC: 0.186663 (Simulation time: 0 hr 12 min 40 sec) 
Heartbeat CPU 0 instructions: 62000002 cycles: 377692492 heartbeat IPC: 0.159344 cumulative IPC: 0.186049 (Simulation time: 0 hr 12 min 52 sec) 
Heartbeat CPU 0 instructions: 63000001 cycles: 383980752 heartbeat IPC: 0.159026 cumulative IPC: 0.185455 (Simulation time: 0 hr 13 min 5 sec) 
Heartbeat CPU 0 instructions: 64000000 cycles: 390255356 heartbeat IPC: 0.159372 cumulative IPC: 0.184894 (Simulation time: 0 hr 13 min 18 sec) 
Heartbeat CPU 0 instructions: 65000000 cycles: 396534557 heartbeat IPC: 0.159256 cumulative IPC: 0.184355 (Simulation time: 0 hr 13 min 31 sec) 
Heartbeat CPU 0 instructions: 66000000 cycles: 402820504 heartbeat IPC: 0.159085 cumulative IPC: 0.183833 (Simulation time: 0 hr 13 min 43 sec) 
Heartbeat CPU 0 instructions: 67000000 cycles: 409129307 heartbeat IPC: 0.158509 cumulative IPC: 0.183319 (Simulation time: 0 hr 13 min 56 sec) 
Heartbeat CPU 0 instructions: 68000000 cycles: 415407370 heartbeat IPC: 0.159285 cumulative IPC: 0.182844 (Simulation time: 0 hr 14 min 9 sec) 
Heartbeat CPU 0 instructions: 69000001 cycles: 421695708 heartbeat IPC: 0.159025 cumulative IPC: 0.182381 (Simulation time: 0 hr 14 min 21 sec) 
Heartbeat CPU 0 instructions: 70000000 cycles: 427971162 heartbeat IPC: 0.159351 cumulative IPC: 0.181942 (Simulation time: 0 hr 14 min 34 sec) 
Heartbeat CPU 0 instructions: 71000000 cycles: 434262948 heartbeat IPC: 0.158937 cumulative IPC: 0.181512 (Simulation time: 0 hr 14 min 46 sec) 
Heartbeat CPU 0 instructions: 72000000 cycles: 440558896 heartbeat IPC: 0.158832 cumulative IPC: 0.181095 (Simulation time: 0 hr 14 min 59 sec) 
Heartbeat CPU 0 instructions: 73000003 cycles: 446854436 heartbeat IPC: 0.158843 cumulative IPC: 0.180693 (Simulation time: 0 hr 15 min 12 sec) 
Heartbeat CPU 0 instructions: 74000000 cycles: 453131912 heartbeat IPC: 0.159299 cumulative IPC: 0.180314 (Simulation time: 0 hr 15 min 25 sec) 
Heartbeat CPU 0 instructions: 75000000 cycles: 459404733 heartbeat IPC: 0.159418 cumulative IPC: 0.179952 (Simulation time: 0 hr 15 min 38 sec) 
Heartbeat CPU 0 instructions: 76000001 cycles: 465693929 heartbeat IPC: 0.159003 cumulative IPC: 0.179593 (Simulation time: 0 hr 15 min 51 sec) 
Heartbeat CPU 0 instructions: 77000000 cycles: 471993970 heartbeat IPC: 0.158729 cumulative IPC: 0.179241 (Simulation time: 0 hr 16 min 4 sec) 
Heartbeat CPU 0 instructions: 78000001 cycles: 478267002 heartbeat IPC: 0.159413 cumulative IPC: 0.178914 (Simulation time: 0 hr 16 min 16 sec) 
Heartbeat CPU 0 instructions: 79000003 cycles: 484040428 heartbeat IPC: 0.173208 cumulative IPC: 0.178829 (Simulation time: 0 hr 16 min 28 sec) 
Heartbeat CPU 0 instructions: 80000000 cycles: 490300948 heartbeat IPC: 0.159731 cumulative IPC: 0.178524 (Simulation time: 0 hr 16 min 40 sec) 
Heartbeat CPU 0 instructions: 81000000 cycles: 496567007 heartbeat IPC: 0.15959 cumulative IPC: 0.178226 (Simulation time: 0 hr 16 min 52 sec) 
Heartbeat CPU 0 instructions: 82000002 cycles: 502854073 heartbeat IPC: 0.159057 cumulative IPC: 0.177928 (Simulation time: 0 hr 17 min 4 sec) 
Heartbeat CPU 0 instructions: 83000000 cycles: 509142285 heartbeat IPC: 0.159027 cumulative IPC: 0.177639 (Simulation time: 0 hr 17 min 17 sec) 
Heartbeat CPU 0 instructions: 84000000 cycles: 515432749 heartbeat IPC: 0.158971 cumulative IPC: 0.177358 (Simulation time: 0 hr 17 min 29 sec) 
Heartbeat CPU 0 instructions: 85000000 cycles: 521718861 heartbeat IPC: 0.159081 cumulative IPC: 0.177086 (Simulation time: 0 hr 17 min 41 sec) 
Heartbeat CPU 0 instructions: 86000002 cycles: 528003500 heartbeat IPC: 0.159118 cumulative IPC: 0.176824 (Simulation time: 0 hr 17 min 54 sec) 
Heartbeat CPU 0 instructions: 87000000 cycles: 534280084 heartbeat IPC: 0.159322 cumulative IPC: 0.176572 (Simulation time: 0 hr 18 min 6 sec) 
Heartbeat CPU 0 instructions: 88000000 cycles: 540556532 heartbeat IPC: 0.159326 cumulative IPC: 0.176327 (Simulation time: 0 hr 18 min 19 sec) 
Heartbeat CPU 0 instructions: 89000003 cycles: 546841776 heartbeat IPC: 0.159103 cumulative IPC: 0.176086 (Simulation time: 0 hr 18 min 31 sec) 
Heartbeat CPU 0 instructions: 90000001 cycles: 553127515 heartbeat IPC: 0.15909 cumulative IPC: 0.175851 (Simulation time: 0 hr 18 min 44 sec) 
Heartbeat CPU 0 instructions: 91000000 cycles: 559410415 heartbeat IPC: 0.159162 cumulative IPC: 0.175623 (Simulation time: 0 hr 18 min 56 sec) 
Heartbeat CPU 0 instructions: 92000002 cycles: 565725346 heartbeat IPC: 0.158355 cumulative IPC: 0.17539 (Simulation time: 0 hr 19 min 10 sec) 
Heartbeat CPU 0 instructions: 93000002 cycles: 572016795 heartbeat IPC: 0.158946 cumulative IPC: 0.175172 (Simulation time: 0 hr 19 min 22 sec) 
Heartbeat CPU 0 instructions: 94000001 cycles: 578285961 heartbeat IPC: 0.159511 cumulative IPC: 0.174967 (Simulation time: 0 hr 19 min 36 sec) 
Heartbeat CPU 0 instructions: 95000002 cycles: 584600024 heartbeat IPC: 0.158377 cumulative IPC: 0.174752 (Simulation time: 0 hr 19 min 50 sec) 
Heartbeat CPU 0 instructions: 96000001 cycles: 590880563 heartbeat IPC: 0.159222 cumulative IPC: 0.174554 (Simulation time: 0 hr 20 min 2 sec) 
Heartbeat CPU 0 instructions: 97000001 cycles: 597164678 heartbeat IPC: 0.159131 cumulative IPC: 0.17436 (Simulation time: 0 hr 20 min 15 sec) 
Heartbeat CPU 0 instructions: 98000003 cycles: 603438995 heartbeat IPC: 0.15938 cumulative IPC: 0.174174 (Simulation time: 0 hr 20 min 27 sec) 
Heartbeat CPU 0 instructions: 99000000 cycles: 609721056 heartbeat IPC: 0.159183 cumulative IPC: 0.17399 (Simulation time: 0 hr 20 min 40 sec) 
Heartbeat CPU 0 instructions: 100000001 cycles: 616003486 heartbeat IPC: 0.159174 cumulative IPC: 0.17381 (Simulation time: 0 hr 20 min 53 sec) 
Heartbeat CPU 0 instructions: 101000001 cycles: 622280545 heartbeat IPC: 0.15931 cumulative IPC: 0.173636 (Simulation time: 0 hr 21 min 6 sec) 
Heartbeat CPU 0 instructions: 102000002 cycles: 628550758 heartbeat IPC: 0.159484 cumulative IPC: 0.173469 (Simulation time: 0 hr 21 min 18 sec) 
Heartbeat CPU 0 instructions: 103000001 cycles: 634853658 heartbeat IPC: 0.158657 cumulative IPC: 0.173295 (Simulation time: 0 hr 21 min 31 sec) 
Heartbeat CPU 0 instructions: 104000000 cycles: 641151526 heartbeat IPC: 0.158784 cumulative IPC: 0.173127 (Simulation time: 0 hr 21 min 43 sec) 
Heartbeat CPU 0 instructions: 105000003 cycles: 647427665 heartbeat IPC: 0.159334 cumulative IPC: 0.172969 (Simulation time: 0 hr 21 min 55 sec) 
Heartbeat CPU 0 instructions: 106000000 cycles: 653712961 heartbeat IPC: 0.159101 cumulative IPC: 0.172812 (Simulation time: 0 hr 22 min 8 sec) 
Heartbeat CPU 0 instructions: 107000000 cycles: 659991257 heartbeat IPC: 0.159279 cumulative IPC: 0.172661 (Simulation time: 0 hr 22 min 20 sec) 
Heartbeat CPU 0 instructions: 108000001 cycles: 666280300 heartbeat IPC: 0.159007 cumulative IPC: 0.17251 (Simulation time: 0 hr 22 min 32 sec) 
Heartbeat CPU 0 instructions: 109000002 cycles: 672580667 heartbeat IPC: 0.158721 cumulative IPC: 0.172358 (Simulation time: 0 hr 22 min 45 sec) 
Heartbeat CPU 0 instructions: 110000000 cycles: 678867646 heartbeat IPC: 0.159059 cumulative IPC: 0.172214 (Simulation time: 0 hr 22 min 57 sec) 
Heartbeat CPU 0 instructions: 111000001 cycles: 685140968 heartbeat IPC: 0.159405 cumulative IPC: 0.172078 (Simulation time: 0 hr 23 min 10 sec) 
Heartbeat CPU 0 instructions: 112000000 cycles: 691434147 heartbeat IPC: 0.158902 cumulative IPC: 0.171938 (Simulation time: 0 hr 23 min 22 sec) 
Heartbeat CPU 0 instructions: 113000000 cycles: 697716949 heartbeat IPC: 0.159165 cumulative IPC: 0.171804 (Simulation time: 0 hr 23 min 35 sec) 
Heartbeat CPU 0 instructions: 114000000 cycles: 704002045 heartbeat IPC: 0.159107 cumulative IPC: 0.171672 (Simulation time: 0 hr 23 min 47 sec) 
Heartbeat CPU 0 instructions: 115000000 cycles: 708957511 heartbeat IPC: 0.201797 cumulative IPC: 0.171917 (Simulation time: 0 hr 23 min 58 sec) 
Heartbeat CPU 0 instructions: 116000000 cycles: 715228267 heartbeat IPC: 0.15947 cumulative IPC: 0.17179 (Simulation time: 0 hr 24 min 11 sec) 
Heartbeat CPU 0 instructions: 117000001 cycles: 721498426 heartbeat IPC: 0.159486 cumulative IPC: 0.171666 (Simulation time: 0 hr 24 min 23 sec) 
Heartbeat CPU 0 instructions: 118000000 cycles: 727779615 heartbeat IPC: 0.159205 cumulative IPC: 0.171542 (Simulation time: 0 hr 24 min 35 sec) 
Heartbeat CPU 0 instructions: 119000001 cycles: 734052507 heartbeat IPC: 0.159416 cumulative IPC: 0.171422 (Simulation time: 0 hr 24 min 48 sec) 
Heartbeat CPU 0 instructions: 120000000 cycles: 740358285 heartbeat IPC: 0.158585 cumulative IPC: 0.171296 (Simulation time: 0 hr 25 min 1 sec) 
Heartbeat CPU 0 instructions: 121000000 cycles: 746645563 heartbeat IPC: 0.159051 cumulative IPC: 0.171178 (Simulation time: 0 hr 25 min 15 sec) 
Heartbeat CPU 0 instructions: 122000000 cycles: 752933045 heartbeat IPC: 0.159046 cumulative IPC: 0.171061 (Simulation time: 0 hr 25 min 27 sec) 
Heartbeat CPU 0 instructions: 123000001 cycles: 759217985 heartbeat IPC: 0.159111 cumulative IPC: 0.170948 (Simulation time: 0 hr 25 min 39 sec) 
Heartbeat CPU 0 instructions: 124000001 cycles: 765488405 heartbeat IPC: 0.159479 cumulative IPC: 0.17084 (Simulation time: 0 hr 25 min 51 sec) 
Heartbeat CPU 0 instructions: 125000001 cycles: 771773985 heartbeat IPC: 0.159094 cumulative IPC: 0.17073 (Simulation time: 0 hr 26 min 4 sec) 
Heartbeat CPU 0 instructions: 126000003 cycles: 778070705 heartbeat IPC: 0.158813 cumulative IPC: 0.17062 (Simulation time: 0 hr 26 min 16 sec) 
Heartbeat CPU 0 instructions: 127000001 cycles: 784354212 heartbeat IPC: 0.159146 cumulative IPC: 0.170515 (Simulation time: 0 hr 26 min 29 sec) 
Heartbeat CPU 0 instructions: 128000001 cycles: 790653258 heartbeat IPC: 0.158754 cumulative IPC: 0.170408 (Simulation time: 0 hr 26 min 41 sec) 
Heartbeat CPU 0 instructions: 129000000 cycles: 796972820 heartbeat IPC: 0.158239 cumulative IPC: 0.170298 (Simulation time: 0 hr 26 min 54 sec) 
Heartbeat CPU 0 instructions: 130000001 cycles: 803245671 heartbeat IPC: 0.159417 cumulative IPC: 0.170201 (Simulation time: 0 hr 27 min 6 sec) 
Heartbeat CPU 0 instructions: 131000000 cycles: 809529579 heartbeat IPC: 0.159136 cumulative IPC: 0.170103 (Simulation time: 0 hr 27 min 19 sec) 
Heartbeat CPU 0 instructions: 132000000 cycles: 815830892 heartbeat IPC: 0.158697 cumulative IPC: 0.170003 (Simulation time: 0 hr 27 min 31 sec) 
Heartbeat CPU 0 instructions: 133000001 cycles: 822109974 heartbeat IPC: 0.159259 cumulative IPC: 0.16991 (Simulation time: 0 hr 27 min 43 sec) 
Heartbeat CPU 0 instructions: 134000001 cycles: 828393943 heartbeat IPC: 0.159135 cumulative IPC: 0.169817 (Simulation time: 0 hr 27 min 56 sec) 
Heartbeat CPU 0 instructions: 135000000 cycles: 834667848 heartbeat IPC: 0.15939 cumulative IPC: 0.169728 (Simulation time: 0 hr 28 min 8 sec) 
Heartbeat CPU 0 instructions: 136000000 cycles: 840956319 heartbeat IPC: 0.159021 cumulative IPC: 0.169638 (Simulation time: 0 hr 28 min 21 sec) 
Heartbeat CPU 0 instructions: 137000002 cycles: 847223808 heartbeat IPC: 0.159554 cumulative IPC: 0.169553 (Simulation time: 0 hr 28 min 33 sec) 
Heartbeat CPU 0 instructions: 138000000 cycles: 853510328 heartbeat IPC: 0.15907 cumulative IPC: 0.169466 (Simulation time: 0 hr 28 min 46 sec) 
Heartbeat CPU 0 instructions: 139000001 cycles: 859792467 heartbeat IPC: 0.159182 cumulative IPC: 0.169381 (Simulation time: 0 hr 28 min 58 sec) 
Heartbeat CPU 0 instructions: 140000000 cycles: 866102293 heartbeat IPC: 0.158483 cumulative IPC: 0.169292 (Simulation time: 0 hr 29 min 11 sec) 
Heartbeat CPU 0 instructions: 141000001 cycles: 872380086 heartbeat IPC: 0.159292 cumulative IPC: 0.16921 (Simulation time: 0 hr 29 min 23 sec) 
Heartbeat CPU 0 instructions: 142000000 cycles: 878665936 heartbeat IPC: 0.159087 cumulative IPC: 0.169129 (Simulation time: 0 hr 29 min 35 sec) 
Heartbeat CPU 0 instructions: 143000000 cycles: 884945077 heartbeat IPC: 0.159257 cumulative IPC: 0.16905 (Simulation time: 0 hr 29 min 48 sec) 
Heartbeat CPU 0 instructions: 144000003 cycles: 891231605 heartbeat IPC: 0.159071 cumulative IPC: 0.168971 (Simulation time: 0 hr 30 min 0 sec) 
Heartbeat CPU 0 instructions: 145000001 cycles: 897529471 heartbeat IPC: 0.158784 cumulative IPC: 0.168891 (Simulation time: 0 hr 30 min 13 sec) 
Heartbeat CPU 0 instructions: 146000000 cycles: 903824770 heartbeat IPC: 0.158849 cumulative IPC: 0.168812 (Simulation time: 0 hr 30 min 26 sec) 
Heartbeat CPU 0 instructions: 147000000 cycles: 910097013 heartbeat IPC: 0.159433 cumulative IPC: 0.16874 (Simulation time: 0 hr 30 min 39 sec) 
Heartbeat CPU 0 instructions: 148000000 cycles: 916371346 heartbeat IPC: 0.159379 cumulative IPC: 0.168668 (Simulation time: 0 hr 30 min 51 sec) 
Heartbeat CPU 0 instructions: 149000000 cycles: 922661017 heartbeat IPC: 0.158991 cumulative IPC: 0.168594 (Simulation time: 0 hr 31 min 4 sec) 
Heartbeat CPU 0 instructions: 150000001 cycles: 928955787 heartbeat IPC: 0.158862 cumulative IPC: 0.168521 (Simulation time: 0 hr 31 min 17 sec) 
Heartbeat CPU 0 instructions: 151000000 cycles: 935227064 heartbeat IPC: 0.159457 cumulative IPC: 0.168453 (Simulation time: 0 hr 31 min 30 sec) 
Heartbeat CPU 0 instructions: 152000001 cycles: 941005829 heartbeat IPC: 0.173048 cumulative IPC: 0.168484 (Simulation time: 0 hr 31 min 43 sec) 
Heartbeat CPU 0 instructions: 153000002 cycles: 947272015 heartbeat IPC: 0.159587 cumulative IPC: 0.168418 (Simulation time: 0 hr 31 min 55 sec) 
Heartbeat CPU 0 instructions: 154000000 cycles: 953545457 heartbeat IPC: 0.159402 cumulative IPC: 0.168352 (Simulation time: 0 hr 32 min 8 sec) 
Heartbeat CPU 0 instructions: 155000000 cycles: 959829563 heartbeat IPC: 0.159132 cumulative IPC: 0.168285 (Simulation time: 0 hr 32 min 21 sec) 
Heartbeat CPU 0 instructions: 156000000 cycles: 966123586 heartbeat IPC: 0.158881 cumulative IPC: 0.168217 (Simulation time: 0 hr 32 min 34 sec) 
Heartbeat CPU 0 instructions: 157000000 cycles: 972413739 heartbeat IPC: 0.158979 cumulative IPC: 0.16815 (Simulation time: 0 hr 32 min 47 sec) 
Heartbeat CPU 0 instructions: 158000001 cycles: 978697234 heartbeat IPC: 0.159147 cumulative IPC: 0.168086 (Simulation time: 0 hr 33 min 0 sec) 
Heartbeat CPU 0 instructions: 159000000 cycles: 984987435 heartbeat IPC: 0.158977 cumulative IPC: 0.168022 (Simulation time: 0 hr 33 min 13 sec) 
Heartbeat CPU 0 instructions: 160000002 cycles: 991271141 heartbeat IPC: 0.159142 cumulative IPC: 0.167959 (Simulation time: 0 hr 33 min 26 sec) 
Heartbeat CPU 0 instructions: 161000001 cycles: 997546267 heartbeat IPC: 0.159359 cumulative IPC: 0.167899 (Simulation time: 0 hr 33 min 39 sec) 
Heartbeat CPU 0 instructions: 162000000 cycles: 1003828128 heartbeat IPC: 0.159188 cumulative IPC: 0.167839 (Simulation time: 0 hr 33 min 52 sec) 
Heartbeat CPU 0 instructions: 163000003 cycles: 1010115250 heartbeat IPC: 0.159056 cumulative IPC: 0.167778 (Simulation time: 0 hr 34 min 5 sec) 
Heartbeat CPU 0 instructions: 164000001 cycles: 1016396982 heartbeat IPC: 0.159191 cumulative IPC: 0.167719 (Simulation time: 0 hr 34 min 18 sec) 
Heartbeat CPU 0 instructions: 165000000 cycles: 1022716576 heartbeat IPC: 0.158238 cumulative IPC: 0.167655 (Simulation time: 0 hr 34 min 31 sec) 
Heartbeat CPU 0 instructions: 166000000 cycles: 1029008641 heartbeat IPC: 0.15893 cumulative IPC: 0.167596 (Simulation time: 0 hr 34 min 44 sec) 
Heartbeat CPU 0 instructions: 167000001 cycles: 1035278739 heartbeat IPC: 0.159487 cumulative IPC: 0.167541 (Simulation time: 0 hr 34 min 57 sec) 
Heartbeat CPU 0 instructions: 168000001 cycles: 1041588696 heartbeat IPC: 0.15848 cumulative IPC: 0.167481 (Simulation time: 0 hr 35 min 11 sec) 
Heartbeat CPU 0 instructions: 169000001 cycles: 1047873384 heartbeat IPC: 0.159117 cumulative IPC: 0.167425 (Simulation time: 0 hr 35 min 23 sec) 
Heartbeat CPU 0 instructions: 170000001 cycles: 1054160488 heartbeat IPC: 0.159056 cumulative IPC: 0.16737 (Simulation time: 0 hr 35 min 36 sec) 
Heartbeat CPU 0 instructions: 171000000 cycles: 1060433656 heartbeat IPC: 0.159409 cumulative IPC: 0.167318 (Simulation time: 0 hr 35 min 49 sec) 
Heartbeat CPU 0 instructions: 172000002 cycles: 1066717777 heartbeat IPC: 0.159132 cumulative IPC: 0.167265 (Simulation time: 0 hr 36 min 2 sec) 
Heartbeat CPU 0 instructions: 173000001 cycles: 1072995228 heartbeat IPC: 0.1593 cumulative IPC: 0.167214 (Simulation time: 0 hr 36 min 15 sec) 
Heartbeat CPU 0 instructions: 174000003 cycles: 1079273525 heartbeat IPC: 0.159279 cumulative IPC: 0.167163 (Simulation time: 0 hr 36 min 28 sec) 
Heartbeat CPU 0 instructions: 175000000 cycles: 1085542462 heartbeat IPC: 0.159516 cumulative IPC: 0.167115 (Simulation time: 0 hr 36 min 41 sec) 
Heartbeat CPU 0 instructions: 176000000 cycles: 1091844899 heartbeat IPC: 0.158669 cumulative IPC: 0.167061 (Simulation time: 0 hr 36 min 54 sec) 
Heartbeat CPU 0 instructions: 177000001 cycles: 1098144445 heartbeat IPC: 0.158742 cumulative IPC: 0.167009 (Simulation time: 0 hr 37 min 7 sec) 
Heartbeat CPU 0 instructions: 178000000 cycles: 1104423616 heartbeat IPC: 0.159257 cumulative IPC: 0.16696 (Simulation time: 0 hr 37 min 20 sec) 
Heartbeat CPU 0 instructions: 179000001 cycles: 1110699299 heartbeat IPC: 0.159345 cumulative IPC: 0.166913 (Simulation time: 0 hr 37 min 33 sec) 
Heartbeat CPU 0 instructions: 180000000 cycles: 1116980990 heartbeat IPC: 0.159193 cumulative IPC: 0.166865 (Simulation time: 0 hr 37 min 46 sec) 
Heartbeat CPU 0 instructions: 181000002 cycles: 1123275476 heartbeat IPC: 0.15887 cumulative IPC: 0.166816 (Simulation time: 0 hr 37 min 59 sec) 
Heartbeat CPU 0 instructions: 182000000 cycles: 1129568303 heartbeat IPC: 0.158911 cumulative IPC: 0.166768 (Simulation time: 0 hr 38 min 13 sec) 
Heartbeat CPU 0 instructions: 183000000 cycles: 1135857288 heartbeat IPC: 0.159008 cumulative IPC: 0.166721 (Simulation time: 0 hr 38 min 26 sec) 
Heartbeat CPU 0 instructions: 184000000 cycles: 1142130640 heartbeat IPC: 0.159404 cumulative IPC: 0.166677 (Simulation time: 0 hr 38 min 39 sec) 
Heartbeat CPU 0 instructions: 185000000 cycles: 1148417531 heartbeat IPC: 0.159061 cumulative IPC: 0.166632 (Simulation time: 0 hr 38 min 52 sec) 
Heartbeat CPU 0 instructions: 186000002 cycles: 1154700372 heartbeat IPC: 0.159164 cumulative IPC: 0.166587 (Simulation time: 0 hr 39 min 4 sec) 
Heartbeat CPU 0 instructions: 187000000 cycles: 1160989711 heartbeat IPC: 0.158999 cumulative IPC: 0.166542 (Simulation time: 0 hr 39 min 16 sec) 
Heartbeat CPU 0 instructions: 188000000 cycles: 1165908290 heartbeat IPC: 0.203311 cumulative IPC: 0.166712 (Simulation time: 0 hr 39 min 28 sec) 
Heartbeat CPU 0 instructions: 189000000 cycles: 1172181832 heartbeat IPC: 0.1594 cumulative IPC: 0.166669 (Simulation time: 0 hr 39 min 41 sec) 
Heartbeat CPU 0 instructions: 190000002 cycles: 1178448488 heartbeat IPC: 0.159575 cumulative IPC: 0.166628 (Simulation time: 0 hr 39 min 54 sec) 
Heartbeat CPU 0 instructions: 191000000 cycles: 1184733714 heartbeat IPC: 0.159103 cumulative IPC: 0.166584 (Simulation time: 0 hr 40 min 7 sec) 
Heartbeat CPU 0 instructions: 192000001 cycles: 1191008472 heartbeat IPC: 0.159369 cumulative IPC: 0.166543 (Simulation time: 0 hr 40 min 20 sec) 
Heartbeat CPU 0 instructions: 193000001 cycles: 1197311416 heartbeat IPC: 0.158656 cumulative IPC: 0.166498 (Simulation time: 0 hr 40 min 33 sec) 
Heartbeat CPU 0 instructions: 194000003 cycles: 1203597197 heartbeat IPC: 0.15909 cumulative IPC: 0.166455 (Simulation time: 0 hr 40 min 47 sec) 
Heartbeat CPU 0 instructions: 195000001 cycles: 1209883435 heartbeat IPC: 0.159077 cumulative IPC: 0.166414 (Simulation time: 0 hr 41 min 0 sec) 
Heartbeat CPU 0 instructions: 196000000 cycles: 1216171404 heartbeat IPC: 0.159034 cumulative IPC: 0.166372 (Simulation time: 0 hr 41 min 13 sec) 
Heartbeat CPU 0 instructions: 197000000 cycles: 1222443220 heartbeat IPC: 0.159443 cumulative IPC: 0.166334 (Simulation time: 0 hr 41 min 26 sec) 
Heartbeat CPU 0 instructions: 198000000 cycles: 1228727538 heartbeat IPC: 0.159126 cumulative IPC: 0.166294 (Simulation time: 0 hr 41 min 39 sec) 
Heartbeat CPU 0 instructions: 199000000 cycles: 1235019778 heartbeat IPC: 0.158926 cumulative IPC: 0.166253 (Simulation time: 0 hr 41 min 52 sec) 
Heartbeat CPU 0 instructions: 200000000 cycles: 1241298544 heartbeat IPC: 0.159267 cumulative IPC: 0.166214 (Simulation time: 0 hr 42 min 4 sec) 
Heartbeat CPU 0 instructions: 201000000 cycles: 1247601168 heartbeat IPC: 0.158664 cumulative IPC: 0.166173 (Simulation time: 0 hr 42 min 17 sec) 
Heartbeat CPU 0 instructions: 202000000 cycles: 1253922678 heartbeat IPC: 0.15819 cumulative IPC: 0.166129 (Simulation time: 0 hr 42 min 30 sec) 
Heartbeat CPU 0 instructions: 203000000 cycles: 1260190254 heartbeat IPC: 0.159551 cumulative IPC: 0.166094 (Simulation time: 0 hr 42 min 43 sec) 
Heartbeat CPU 0 instructions: 204000003 cycles: 1266472832 heartbeat IPC: 0.159171 cumulative IPC: 0.166057 (Simulation time: 0 hr 42 min 56 sec) 
Heartbeat CPU 0 instructions: 205000000 cycles: 1272778979 heartbeat IPC: 0.158575 cumulative IPC: 0.166016 (Simulation time: 0 hr 43 min 9 sec) 
Heartbeat CPU 0 instructions: 206000000 cycles: 1279057935 heartbeat IPC: 0.159262 cumulative IPC: 0.165981 (Simulation time: 0 hr 43 min 22 sec) 
Heartbeat CPU 0 instructions: 207000000 cycles: 1285339285 heartbeat IPC: 0.159201 cumulative IPC: 0.165945 (Simulation time: 0 hr 43 min 35 sec) 
Heartbeat CPU 0 instructions: 208000000 cycles: 1291616155 heartbeat IPC: 0.159315 cumulative IPC: 0.16591 (Simulation time: 0 hr 43 min 48 sec) 
Heartbeat CPU 0 instructions: 209000000 cycles: 1297902651 heartbeat IPC: 0.159071 cumulative IPC: 0.165874 (Simulation time: 0 hr 44 min 1 sec) 
Heartbeat CPU 0 instructions: 210000003 cycles: 1304170778 heartbeat IPC: 0.159538 cumulative IPC: 0.165841 (Simulation time: 0 hr 44 min 13 sec) 
Heartbeat CPU 0 instructions: 211000001 cycles: 1310458108 heartbeat IPC: 0.15905 cumulative IPC: 0.165806 (Simulation time: 0 hr 44 min 26 sec) 
Heartbeat CPU 0 instructions: 212000000 cycles: 1316736889 heartbeat IPC: 0.159266 cumulative IPC: 0.165772 (Simulation time: 0 hr 44 min 38 sec) 
Heartbeat CPU 0 instructions: 213000003 cycles: 1323048380 heartbeat IPC: 0.158442 cumulative IPC: 0.165734 (Simulation time: 0 hr 44 min 50 sec) 
Heartbeat CPU 0 instructions: 214000001 cycles: 1329327683 heartbeat IPC: 0.159253 cumulative IPC: 0.165701 (Simulation time: 0 hr 45 min 4 sec) 
Heartbeat CPU 0 instructions: 215000001 cycles: 1335612126 heartbeat IPC: 0.159123 cumulative IPC: 0.165668 (Simulation time: 0 hr 45 min 16 sec) 
Heartbeat CPU 0 instructions: 216000000 cycles: 1341893988 heartbeat IPC: 0.159188 cumulative IPC: 0.165635 (Simulation time: 0 hr 45 min 29 sec) 
Heartbeat CPU 0 instructions: 217000001 cycles: 1348174302 heartbeat IPC: 0.159228 cumulative IPC: 0.165603 (Simulation time: 0 hr 45 min 42 sec) 
Heartbeat CPU 0 instructions: 218000002 cycles: 1354475840 heartbeat IPC: 0.158692 cumulative IPC: 0.165568 (Simulation time: 0 hr 45 min 56 sec) 
Heartbeat CPU 0 instructions: 219000001 cycles: 1360769319 heartbeat IPC: 0.158894 cumulative IPC: 0.165535 (Simulation time: 0 hr 46 min 9 sec) 
Heartbeat CPU 0 instructions: 220000000 cycles: 1367041361 heartbeat IPC: 0.159438 cumulative IPC: 0.165505 (Simulation time: 0 hr 46 min 22 sec) 
Heartbeat CPU 0 instructions: 221000000 cycles: 1373316152 heartbeat IPC: 0.159368 cumulative IPC: 0.165475 (Simulation time: 0 hr 46 min 35 sec) 
Heartbeat CPU 0 instructions: 222000000 cycles: 1379610395 heartbeat IPC: 0.158875 cumulative IPC: 0.165442 (Simulation time: 0 hr 46 min 47 sec) 
Heartbeat CPU 0 instructions: 223000000 cycles: 1385900253 heartbeat IPC: 0.158986 cumulative IPC: 0.165411 (Simulation time: 0 hr 47 min 1 sec) 
Heartbeat CPU 0 instructions: 224000000 cycles: 1392167974 heartbeat IPC: 0.159548 cumulative IPC: 0.165382 (Simulation time: 0 hr 47 min 14 sec) 
Heartbeat CPU 0 instructions: 225000000 cycles: 1397936652 heartbeat IPC: 0.17335 cumulative IPC: 0.165418 (Simulation time: 0 hr 47 min 25 sec) 
Heartbeat CPU 0 instructions: 226000000 cycles: 1404196012 heartbeat IPC: 0.159761 cumulative IPC: 0.165391 (Simulation time: 0 hr 47 min 37 sec) 
Heartbeat CPU 0 instructions: 227000003 cycles: 1410468695 heartbeat IPC: 0.159422 cumulative IPC: 0.165362 (Simulation time: 0 hr 47 min 50 sec) 
Heartbeat CPU 0 instructions: 228000002 cycles: 1416757616 heartbeat IPC: 0.15901 cumulative IPC: 0.165332 (Simulation time: 0 hr 48 min 3 sec) 
Heartbeat CPU 0 instructions: 229000001 cycles: 1423048197 heartbeat IPC: 0.158968 cumulative IPC: 0.165302 (Simulation time: 0 hr 48 min 16 sec) 
Heartbeat CPU 0 instructions: 230000001 cycles: 1429340439 heartbeat IPC: 0.158926 cumulative IPC: 0.165271 (Simulation time: 0 hr 48 min 29 sec) 
Heartbeat CPU 0 instructions: 231000000 cycles: 1435623581 heartbeat IPC: 0.159156 cumulative IPC: 0.165243 (Simulation time: 0 hr 48 min 42 sec) 
Heartbeat CPU 0 instructions: 232000000 cycles: 1441914614 heartbeat IPC: 0.158956 cumulative IPC: 0.165213 (Simulation time: 0 hr 48 min 55 sec) 
Heartbeat CPU 0 instructions: 233000003 cycles: 1448199454 heartbeat IPC: 0.159114 cumulative IPC: 0.165185 (Simulation time: 0 hr 49 min 9 sec) 
Heartbeat CPU 0 instructions: 234000001 cycles: 1454471718 heartbeat IPC: 0.159432 cumulative IPC: 0.165158 (Simulation time: 0 hr 49 min 22 sec) 
Heartbeat CPU 0 instructions: 235000001 cycles: 1460755965 heartbeat IPC: 0.159128 cumulative IPC: 0.16513 (Simulation time: 0 hr 49 min 35 sec) 
Heartbeat CPU 0 instructions: 236000001 cycles: 1467040580 heartbeat IPC: 0.159119 cumulative IPC: 0.165103 (Simulation time: 0 hr 49 min 47 sec) 
Heartbeat CPU 0 instructions: 237000002 cycles: 1473326701 heartbeat IPC: 0.159081 cumulative IPC: 0.165075 (Simulation time: 0 hr 50 min 1 sec) 
Heartbeat CPU 0 instructions: 238000001 cycles: 1479639577 heartbeat IPC: 0.158406 cumulative IPC: 0.165045 (Simulation time: 0 hr 50 min 14 sec) 
Heartbeat CPU 0 instructions: 239000000 cycles: 1485938833 heartbeat IPC: 0.158749 cumulative IPC: 0.165016 (Simulation time: 0 hr 50 min 27 sec) 
Heartbeat CPU 0 instructions: 240000001 cycles: 1492206537 heartbeat IPC: 0.159548 cumulative IPC: 0.164992 (Simulation time: 0 hr 50 min 40 sec) 
Heartbeat CPU 0 instructions: 241000000 cycles: 1498518855 heartbeat IPC: 0.15842 cumulative IPC: 0.164962 (Simulation time: 0 hr 50 min 53 sec) 
Heartbeat CPU 0 instructions: 242000000 cycles: 1504801681 heartbeat IPC: 0.159164 cumulative IPC: 0.164936 (Simulation time: 0 hr 51 min 5 sec) 
Heartbeat CPU 0 instructions: 243000000 cycles: 1511089084 heartbeat IPC: 0.159048 cumulative IPC: 0.16491 (Simulation time: 0 hr 51 min 19 sec) 
Heartbeat CPU 0 instructions: 244000003 cycles: 1517361623 heartbeat IPC: 0.159426 cumulative IPC: 0.164886 (Simulation time: 0 hr 51 min 32 sec) 
Heartbeat CPU 0 instructions: 245000000 cycles: 1523647504 heartbeat IPC: 0.159086 cumulative IPC: 0.16486 (Simulation time: 0 hr 51 min 45 sec) 
Heartbeat CPU 0 instructions: 246000001 cycles: 1529929654 heartbeat IPC: 0.159181 cumulative IPC: 0.164835 (Simulation time: 0 hr 51 min 58 sec) 
Heartbeat CPU 0 instructions: 247000001 cycles: 1536204936 heartbeat IPC: 0.159355 cumulative IPC: 0.164811 (Simulation time: 0 hr 52 min 11 sec) 
Heartbeat CPU 0 instructions: 248000001 cycles: 1542476713 heartbeat IPC: 0.159444 cumulative IPC: 0.164788 (Simulation time: 0 hr 52 min 24 sec) 
Heartbeat CPU 0 instructions: 249000001 cycles: 1548776721 heartbeat IPC: 0.15873 cumulative IPC: 0.164762 (Simulation time: 0 hr 52 min 37 sec) 
Heartbeat CPU 0 instructions: 250000000 cycles: 1555082922 heartbeat IPC: 0.158574 cumulative IPC: 0.164735 (Simulation time: 0 hr 52 min 50 sec) 
Heartbeat CPU 0 instructions: 251000002 cycles: 1561360718 heartbeat IPC: 0.159292 cumulative IPC: 0.164712 (Simulation time: 0 hr 53 min 3 sec) 
Heartbeat CPU 0 instructions: 252000003 cycles: 1567640301 heartbeat IPC: 0.159246 cumulative IPC: 0.164688 (Simulation time: 0 hr 53 min 16 sec) 
Heartbeat CPU 0 instructions: 253000000 cycles: 1573920875 heartbeat IPC: 0.159221 cumulative IPC: 0.164665 (Simulation time: 0 hr 53 min 29 sec) 
Heartbeat CPU 0 instructions: 254000000 cycles: 1580212524 heartbeat IPC: 0.158941 cumulative IPC: 0.164641 (Simulation time: 0 hr 53 min 42 sec) 
Heartbeat CPU 0 instructions: 255000002 cycles: 1586511237 heartbeat IPC: 0.158763 cumulative IPC: 0.164616 (Simulation time: 0 hr 53 min 55 sec) 
Heartbeat CPU 0 instructions: 256000000 cycles: 1592800773 heartbeat IPC: 0.158994 cumulative IPC: 0.164592 (Simulation time: 0 hr 54 min 7 sec) 
Heartbeat CPU 0 instructions: 257000000 cycles: 1599071700 heartbeat IPC: 0.159466 cumulative IPC: 0.164571 (Simulation time: 0 hr 54 min 21 sec) 
Heartbeat CPU 0 instructions: 258000002 cycles: 1605356834 heartbeat IPC: 0.159106 cumulative IPC: 0.164548 (Simulation time: 0 hr 54 min 34 sec) 
Heartbeat CPU 0 instructions: 259000003 cycles: 1611639372 heartbeat IPC: 0.159172 cumulative IPC: 0.164526 (Simulation time: 0 hr 54 min 47 sec) 
Heartbeat CPU 0 instructions: 260000000 cycles: 1617931935 heartbeat IPC: 0.158917 cumulative IPC: 0.164502 (Simulation time: 0 hr 55 min 1 sec) 
Heartbeat CPU 0 instructions: 261000002 cycles: 1623705322 heartbeat IPC: 0.173209 cumulative IPC: 0.164535 (Simulation time: 0 hr 55 min 13 sec) 
Heartbeat CPU 0 instructions: 262000000 cycles: 1629974985 heartbeat IPC: 0.159498 cumulative IPC: 0.164515 (Simulation time: 0 hr 55 min 26 sec) 
Heartbeat CPU 0 instructions: 263000000 cycles: 1636244016 heartbeat IPC: 0.159514 cumulative IPC: 0.164494 (Simulation time: 0 hr 55 min 40 sec) 
Heartbeat CPU 0 instructions: 264000000 cycles: 1642527104 heartbeat IPC: 0.159157 cumulative IPC: 0.164473 (Simulation time: 0 hr 55 min 53 sec) 
Heartbeat CPU 0 instructions: 265000000 cycles: 1648798570 heartbeat IPC: 0.159452 cumulative IPC: 0.164452 (Simulation time: 0 hr 56 min 7 sec) 
Heartbeat CPU 0 instructions: 266000003 cycles: 1655097888 heartbeat IPC: 0.158748 cumulative IPC: 0.164429 (Simulation time: 0 hr 56 min 20 sec) 
Heartbeat CPU 0 instructions: 267000003 cycles: 1661384416 heartbeat IPC: 0.15907 cumulative IPC: 0.164408 (Simulation time: 0 hr 56 min 34 sec) 
Heartbeat CPU 0 instructions: 268000002 cycles: 1667672894 heartbeat IPC: 0.159021 cumulative IPC: 0.164386 (Simulation time: 0 hr 56 min 48 sec) 
Heartbeat CPU 0 instructions: 269000002 cycles: 1673956948 heartbeat IPC: 0.159133 cumulative IPC: 0.164365 (Simulation time: 0 hr 57 min 1 sec) 
Heartbeat CPU 0 instructions: 270000000 cycles: 1680231983 heartbeat IPC: 0.159361 cumulative IPC: 0.164345 (Simulation time: 0 hr 57 min 15 sec) 
Heartbeat CPU 0 instructions: 271000001 cycles: 1686509927 heartbeat IPC: 0.159288 cumulative IPC: 0.164325 (Simulation time: 0 hr 57 min 29 sec) 
Heartbeat CPU 0 instructions: 272000003 cycles: 1692809280 heartbeat IPC: 0.158747 cumulative IPC: 0.164303 (Simulation time: 0 hr 57 min 42 sec) 
Heartbeat CPU 0 instructions: 273000001 cycles: 1699092413 heartbeat IPC: 0.159156 cumulative IPC: 0.164283 (Simulation time: 0 hr 57 min 56 sec) 
Heartbeat CPU 0 instructions: 274000002 cycles: 1705391760 heartbeat IPC: 0.158747 cumulative IPC: 0.164261 (Simulation time: 0 hr 58 min 10 sec) 
Heartbeat CPU 0 instructions: 275000000 cycles: 1711706766 heartbeat IPC: 0.158353 cumulative IPC: 0.164238 (Simulation time: 0 hr 58 min 23 sec) 
Heartbeat CPU 0 instructions: 276000001 cycles: 1717980012 heartbeat IPC: 0.159407 cumulative IPC: 0.164219 (Simulation time: 0 hr 58 min 37 sec) 
Heartbeat CPU 0 instructions: 277000000 cycles: 1724276370 heartbeat IPC: 0.158822 cumulative IPC: 0.164199 (Simulation time: 0 hr 58 min 51 sec) 
Heartbeat CPU 0 instructions: 278000000 cycles: 1730568196 heartbeat IPC: 0.158936 cumulative IPC: 0.164178 (Simulation time: 0 hr 59 min 4 sec) 
Heartbeat CPU 0 instructions: 279000003 cycles: 1736850468 heartbeat IPC: 0.159179 cumulative IPC: 0.164159 (Simulation time: 0 hr 59 min 18 sec) 
Heartbeat CPU 0 instructions: 280000003 cycles: 1743130821 heartbeat IPC: 0.159227 cumulative IPC: 0.16414 (Simulation time: 0 hr 59 min 32 sec) 
Heartbeat CPU 0 instructions: 281000002 cycles: 1749413958 heartbeat IPC: 0.159156 cumulative IPC: 0.164121 (Simulation time: 0 hr 59 min 45 sec) 
Heartbeat CPU 0 instructions: 282000000 cycles: 1755696580 heartbeat IPC: 0.159169 cumulative IPC: 0.164103 (Simulation time: 0 hr 59 min 59 sec) 
Heartbeat CPU 0 instructions: 283000000 cycles: 1761968584 heartbeat IPC: 0.159439 cumulative IPC: 0.164085 (Simulation time: 1 hr 0 min 12 sec) 
Heartbeat CPU 0 instructions: 284000003 cycles: 1768250367 heartbeat IPC: 0.159191 cumulative IPC: 0.164067 (Simulation time: 1 hr 0 min 26 sec) 
Heartbeat CPU 0 instructions: 285000000 cycles: 1774538514 heartbeat IPC: 0.159029 cumulative IPC: 0.164048 (Simulation time: 1 hr 0 min 40 sec) 
Heartbeat CPU 0 instructions: 286000000 cycles: 1780843139 heartbeat IPC: 0.158614 cumulative IPC: 0.164027 (Simulation time: 1 hr 0 min 54 sec) 
Heartbeat CPU 0 instructions: 287000001 cycles: 1787120019 heartbeat IPC: 0.159315 cumulative IPC: 0.16401 (Simulation time: 1 hr 1 min 7 sec) 
Heartbeat CPU 0 instructions: 288000000 cycles: 1793410358 heartbeat IPC: 0.158974 cumulative IPC: 0.163991 (Simulation time: 1 hr 1 min 20 sec) 
Heartbeat CPU 0 instructions: 289000000 cycles: 1799683352 heartbeat IPC: 0.159414 cumulative IPC: 0.163974 (Simulation time: 1 hr 1 min 33 sec) 
Heartbeat CPU 0 instructions: 290000003 cycles: 1805973327 heartbeat IPC: 0.158984 cumulative IPC: 0.163956 (Simulation time: 1 hr 1 min 46 sec) 
Heartbeat CPU 0 instructions: 291000000 cycles: 1812268425 heartbeat IPC: 0.158853 cumulative IPC: 0.163937 (Simulation time: 1 hr 1 min 58 sec) 
Heartbeat CPU 0 instructions: 292000003 cycles: 1818563615 heartbeat IPC: 0.158852 cumulative IPC: 0.163918 (Simulation time: 1 hr 2 min 11 sec) 
Heartbeat CPU 0 instructions: 293000001 cycles: 1824840186 heartbeat IPC: 0.159322 cumulative IPC: 0.163902 (Simulation time: 1 hr 2 min 24 sec) 
Heartbeat CPU 0 instructions: 294000002 cycles: 1831107721 heartbeat IPC: 0.159553 cumulative IPC: 0.163886 (Simulation time: 1 hr 2 min 38 sec) 
Heartbeat CPU 0 instructions: 295000003 cycles: 1837398990 heartbeat IPC: 0.158951 cumulative IPC: 0.163868 (Simulation time: 1 hr 2 min 52 sec) 
Heartbeat CPU 0 instructions: 296000001 cycles: 1843695555 heartbeat IPC: 0.158816 cumulative IPC: 0.16385 (Simulation time: 1 hr 3 min 6 sec) 
Heartbeat CPU 0 instructions: 297000000 cycles: 1849965703 heartbeat IPC: 0.159486 cumulative IPC: 0.163834 (Simulation time: 1 hr 3 min 19 sec) 
Heartbeat CPU 0 instructions: 298000002 cycles: 1855781584 heartbeat IPC: 0.171943 cumulative IPC: 0.163861 (Simulation time: 1 hr 3 min 32 sec) 
Heartbeat CPU 0 instructions: 299000003 cycles: 1862051523 heartbeat IPC: 0.159491 cumulative IPC: 0.163846 (Simulation time: 1 hr 3 min 46 sec) 
Heartbeat CPU 0 instructions: 300000000 cycles: 1868322662 heartbeat IPC: 0.15946 cumulative IPC: 0.16383 (Simulation time: 1 hr 4 min 0 sec) 
Heartbeat CPU 0 instructions: 301000000 cycles: 1874605421 heartbeat IPC: 0.159166 cumulative IPC: 0.163814 (Simulation time: 1 hr 4 min 13 sec) 
Heartbeat CPU 0 instructions: 302000001 cycles: 1880894171 heartbeat IPC: 0.159014 cumulative IPC: 0.163797 (Simulation time: 1 hr 4 min 27 sec) 
Heartbeat CPU 0 instructions: 303000000 cycles: 1887186401 heartbeat IPC: 0.158926 cumulative IPC: 0.16378 (Simulation time: 1 hr 4 min 41 sec) 
Heartbeat CPU 0 instructions: 304000003 cycles: 1893470996 heartbeat IPC: 0.15912 cumulative IPC: 0.163763 (Simulation time: 1 hr 4 min 55 sec) 
Heartbeat CPU 0 instructions: 305000000 cycles: 1899760448 heartbeat IPC: 0.158996 cumulative IPC: 0.163747 (Simulation time: 1 hr 5 min 9 sec) 
Heartbeat CPU 0 instructions: 306000000 cycles: 1906040555 heartbeat IPC: 0.159233 cumulative IPC: 0.163731 (Simulation time: 1 hr 5 min 23 sec) 
Heartbeat CPU 0 instructions: 307000000 cycles: 1912319082 heartbeat IPC: 0.159273 cumulative IPC: 0.163715 (Simulation time: 1 hr 5 min 37 sec) 
Heartbeat CPU 0 instructions: 308000000 cycles: 1918608956 heartbeat IPC: 0.158986 cumulative IPC: 0.163699 (Simulation time: 1 hr 5 min 50 sec) 
Heartbeat CPU 0 instructions: 309000001 cycles: 1924892031 heartbeat IPC: 0.159158 cumulative IPC: 0.163684 (Simulation time: 1 hr 6 min 3 sec) 
Heartbeat CPU 0 instructions: 310000000 cycles: 1931184383 heartbeat IPC: 0.158923 cumulative IPC: 0.163667 (Simulation time: 1 hr 6 min 16 sec) 
Heartbeat CPU 0 instructions: 311000001 cycles: 1937498959 heartbeat IPC: 0.158364 cumulative IPC: 0.163649 (Simulation time: 1 hr 6 min 29 sec) 
Heartbeat CPU 0 instructions: 312000000 cycles: 1943783004 heartbeat IPC: 0.159133 cumulative IPC: 0.163634 (Simulation time: 1 hr 6 min 42 sec) 
Heartbeat CPU 0 instructions: 313000003 cycles: 1950054730 heartbeat IPC: 0.159446 cumulative IPC: 0.163619 (Simulation time: 1 hr 6 min 56 sec) 
Heartbeat CPU 0 instructions: 314000002 cycles: 1956371608 heartbeat IPC: 0.158306 cumulative IPC: 0.163601 (Simulation time: 1 hr 7 min 10 sec) 
Heartbeat CPU 0 instructions: 315000000 cycles: 1962652594 heartbeat IPC: 0.15921 cumulative IPC: 0.163587 (Simulation time: 1 hr 7 min 23 sec) 
Heartbeat CPU 0 instructions: 316000002 cycles: 1968936669 heartbeat IPC: 0.159133 cumulative IPC: 0.163572 (Simulation time: 1 hr 7 min 36 sec) 
Heartbeat CPU 0 instructions: 317000000 cycles: 1975212832 heartbeat IPC: 0.159333 cumulative IPC: 0.163557 (Simulation time: 1 hr 7 min 49 sec) 
Heartbeat CPU 0 instructions: 318000000 cycles: 1981499040 heartbeat IPC: 0.159078 cumulative IPC: 0.163542 (Simulation time: 1 hr 8 min 3 sec) 
Heartbeat CPU 0 instructions: 319000000 cycles: 1987775847 heartbeat IPC: 0.159317 cumulative IPC: 0.163528 (Simulation time: 1 hr 8 min 17 sec) 
Heartbeat CPU 0 instructions: 320000003 cycles: 1994058440 heartbeat IPC: 0.15917 cumulative IPC: 0.163514 (Simulation time: 1 hr 8 min 30 sec) 
Heartbeat CPU 0 instructions: 321000000 cycles: 2000324719 heartbeat IPC: 0.159584 cumulative IPC: 0.163501 (Simulation time: 1 hr 8 min 43 sec) 
Heartbeat CPU 0 instructions: 322000002 cycles: 2006635311 heartbeat IPC: 0.158464 cumulative IPC: 0.163484 (Simulation time: 1 hr 8 min 55 sec) 
Heartbeat CPU 0 instructions: 323000002 cycles: 2012925714 heartbeat IPC: 0.158972 cumulative IPC: 0.16347 (Simulation time: 1 hr 9 min 7 sec) 
Heartbeat CPU 0 instructions: 324000001 cycles: 2019207282 heartbeat IPC: 0.159196 cumulative IPC: 0.163456 (Simulation time: 1 hr 9 min 20 sec) 
Heartbeat CPU 0 instructions: 325000000 cycles: 2025491170 heartbeat IPC: 0.159137 cumulative IPC: 0.163442 (Simulation time: 1 hr 9 min 33 sec) 
Heartbeat CPU 0 instructions: 326000000 cycles: 2031769574 heartbeat IPC: 0.159276 cumulative IPC: 0.163428 (Simulation time: 1 hr 9 min 47 sec) 
Heartbeat CPU 0 instructions: 327000000 cycles: 2038057234 heartbeat IPC: 0.159042 cumulative IPC: 0.163414 (Simulation time: 1 hr 10 min 0 sec) 
Heartbeat CPU 0 instructions: 328000000 cycles: 2044353337 heartbeat IPC: 0.158828 cumulative IPC: 0.163399 (Simulation time: 1 hr 10 min 13 sec) 
Heartbeat CPU 0 instructions: 329000000 cycles: 2050646647 heartbeat IPC: 0.158899 cumulative IPC: 0.163384 (Simulation time: 1 hr 10 min 25 sec) 
Heartbeat CPU 0 instructions: 330000000 cycles: 2056918239 heartbeat IPC: 0.159449 cumulative IPC: 0.163372 (Simulation time: 1 hr 10 min 37 sec) 
Heartbeat CPU 0 instructions: 331000001 cycles: 2063208462 heartbeat IPC: 0.158977 cumulative IPC: 0.163358 (Simulation time: 1 hr 10 min 51 sec) 
Heartbeat CPU 0 instructions: 332000002 cycles: 2069500714 heartbeat IPC: 0.158926 cumulative IPC: 0.163344 (Simulation time: 1 hr 11 min 3 sec) 
Heartbeat CPU 0 instructions: 333000001 cycles: 2075776414 heartbeat IPC: 0.159345 cumulative IPC: 0.163331 (Simulation time: 1 hr 11 min 16 sec) 
Heartbeat CPU 0 instructions: 334000000 cycles: 2081542387 heartbeat IPC: 0.173431 cumulative IPC: 0.16336 (Simulation time: 1 hr 11 min 28 sec) 
Heartbeat CPU 0 instructions: 335000002 cycles: 2087814879 heartbeat IPC: 0.159427 cumulative IPC: 0.163348 (Simulation time: 1 hr 11 min 42 sec) 
Heartbeat CPU 0 instructions: 336000003 cycles: 2094081268 heartbeat IPC: 0.159582 cumulative IPC: 0.163336 (Simulation time: 1 hr 11 min 54 sec) 
Heartbeat CPU 0 instructions: 337000003 cycles: 2100365519 heartbeat IPC: 0.159128 cumulative IPC: 0.163323 (Simulation time: 1 hr 12 min 7 sec) 
Heartbeat CPU 0 instructions: 338000000 cycles: 2106649186 heartbeat IPC: 0.159142 cumulative IPC: 0.16331 (Simulation time: 1 hr 12 min 21 sec) 
Heartbeat CPU 0 instructions: 339000001 cycles: 2112940774 heartbeat IPC: 0.158943 cumulative IPC: 0.163296 (Simulation time: 1 hr 12 min 33 sec) 
Heartbeat CPU 0 instructions: 340000002 cycles: 2119230150 heartbeat IPC: 0.158998 cumulative IPC: 0.163283 (Simulation time: 1 hr 12 min 47 sec) 
Heartbeat CPU 0 instructions: 341000000 cycles: 2125520786 heartbeat IPC: 0.158966 cumulative IPC: 0.163269 (Simulation time: 1 hr 12 min 59 sec) 
Heartbeat CPU 0 instructions: 342000003 cycles: 2131808959 heartbeat IPC: 0.159029 cumulative IPC: 0.163256 (Simulation time: 1 hr 13 min 12 sec) 
Heartbeat CPU 0 instructions: 343000001 cycles: 2138075396 heartbeat IPC: 0.15958 cumulative IPC: 0.163245 (Simulation time: 1 hr 13 min 25 sec) 
Heartbeat CPU 0 instructions: 344000000 cycles: 2144348677 heartbeat IPC: 0.159406 cumulative IPC: 0.163233 (Simulation time: 1 hr 13 min 38 sec) 
Heartbeat CPU 0 instructions: 345000001 cycles: 2150653478 heartbeat IPC: 0.158609 cumulative IPC: 0.163219 (Simulation time: 1 hr 13 min 52 sec) 
Heartbeat CPU 0 instructions: 346000001 cycles: 2156936094 heartbeat IPC: 0.159169 cumulative IPC: 0.163207 (Simulation time: 1 hr 14 min 4 sec) 
Heartbeat CPU 0 instructions: 347000002 cycles: 2163241490 heartbeat IPC: 0.158594 cumulative IPC: 0.163193 (Simulation time: 1 hr 14 min 17 sec) 
Heartbeat CPU 0 instructions: 348000002 cycles: 2169547720 heartbeat IPC: 0.158573 cumulative IPC: 0.163179 (Simulation time: 1 hr 14 min 29 sec) 
Heartbeat CPU 0 instructions: 349000000 cycles: 2175818823 heartbeat IPC: 0.159461 cumulative IPC: 0.163167 (Simulation time: 1 hr 14 min 42 sec) 
Heartbeat CPU 0 instructions: 350000000 cycles: 2182125174 heartbeat IPC: 0.15857 cumulative IPC: 0.163153 (Simulation time: 1 hr 14 min 55 sec) 
Heartbeat CPU 0 instructions: 351000000 cycles: 2188409558 heartbeat IPC: 0.159125 cumulative IPC: 0.163141 (Simulation time: 1 hr 15 min 8 sec) 
Heartbeat CPU 0 instructions: 352000000 cycles: 2194688735 heartbeat IPC: 0.159257 cumulative IPC: 0.16313 (Simulation time: 1 hr 15 min 21 sec) 
Heartbeat CPU 0 instructions: 353000000 cycles: 2200968405 heartbeat IPC: 0.159244 cumulative IPC: 0.163118 (Simulation time: 1 hr 15 min 34 sec) 
Heartbeat CPU 0 instructions: 354000001 cycles: 2207259391 heartbeat IPC: 0.158958 cumulative IPC: 0.163106 (Simulation time: 1 hr 15 min 47 sec) 
Heartbeat CPU 0 instructions: 355000000 cycles: 2213540409 heartbeat IPC: 0.15921 cumulative IPC: 0.163094 (Simulation time: 1 hr 16 min 0 sec) 
Heartbeat CPU 0 instructions: 356000001 cycles: 2219816590 heartbeat IPC: 0.159333 cumulative IPC: 0.163083 (Simulation time: 1 hr 16 min 12 sec) 
Heartbeat CPU 0 instructions: 357000000 cycles: 2226088008 heartbeat IPC: 0.159453 cumulative IPC: 0.163072 (Simulation time: 1 hr 16 min 24 sec) 
Heartbeat CPU 0 instructions: 358000000 cycles: 2232381892 heartbeat IPC: 0.158884 cumulative IPC: 0.16306 (Simulation time: 1 hr 16 min 37 sec) 
Heartbeat CPU 0 instructions: 359000002 cycles: 2238685857 heartbeat IPC: 0.158631 cumulative IPC: 0.163047 (Simulation time: 1 hr 16 min 50 sec) 
Heartbeat CPU 0 instructions: 360000002 cycles: 2244963735 heartbeat IPC: 0.159289 cumulative IPC: 0.163036 (Simulation time: 1 hr 17 min 3 sec) 
Heartbeat CPU 0 instructions: 361000003 cycles: 2251245160 heartbeat IPC: 0.1592 cumulative IPC: 0.163025 (Simulation time: 1 hr 17 min 16 sec) 
Heartbeat CPU 0 instructions: 362000001 cycles: 2257523547 heartbeat IPC: 0.159276 cumulative IPC: 0.163014 (Simulation time: 1 hr 17 min 28 sec) 
Heartbeat CPU 0 instructions: 363000000 cycles: 2263817596 heartbeat IPC: 0.15888 cumulative IPC: 0.163002 (Simulation time: 1 hr 17 min 41 sec) 
Heartbeat CPU 0 instructions: 364000002 cycles: 2270106703 heartbeat IPC: 0.159005 cumulative IPC: 0.16299 (Simulation time: 1 hr 17 min 54 sec) 
Heartbeat CPU 0 instructions: 365000000 cycles: 2276406648 heartbeat IPC: 0.158731 cumulative IPC: 0.162978 (Simulation time: 1 hr 18 min 8 sec) 
Heartbeat CPU 0 instructions: 366000002 cycles: 2282682803 heartbeat IPC: 0.159334 cumulative IPC: 0.162967 (Simulation time: 1 hr 18 min 20 sec) 
Heartbeat CPU 0 instructions: 367000001 cycles: 2288947474 heartbeat IPC: 0.159625 cumulative IPC: 0.162958 (Simulation time: 1 hr 18 min 33 sec) 
Heartbeat CPU 0 instructions: 368000000 cycles: 2295245033 heartbeat IPC: 0.158792 cumulative IPC: 0.162946 (Simulation time: 1 hr 18 min 46 sec) 
Heartbeat CPU 0 instructions: 369000001 cycles: 2301531768 heartbeat IPC: 0.159065 cumulative IPC: 0.162935 (Simulation time: 1 hr 18 min 58 sec) 
Heartbeat CPU 0 instructions: 370000000 cycles: 2307278949 heartbeat IPC: 0.173998 cumulative IPC: 0.162964 (Simulation time: 1 hr 19 min 11 sec) 
Heartbeat CPU 0 instructions: 371000002 cycles: 2313573948 heartbeat IPC: 0.158857 cumulative IPC: 0.162952 (Simulation time: 1 hr 19 min 24 sec) 
Heartbeat CPU 0 instructions: 372000000 cycles: 2319839104 heartbeat IPC: 0.159613 cumulative IPC: 0.162942 (Simulation time: 1 hr 19 min 37 sec) 
Heartbeat CPU 0 instructions: 373000000 cycles: 2326117048 heartbeat IPC: 0.159288 cumulative IPC: 0.162932 (Simulation time: 1 hr 19 min 51 sec) 
Heartbeat CPU 0 instructions: 374000000 cycles: 2332399420 heartbeat IPC: 0.159176 cumulative IPC: 0.162922 (Simulation time: 1 hr 20 min 3 sec) 
Heartbeat CPU 0 instructions: 375000001 cycles: 2338696298 heartbeat IPC: 0.158809 cumulative IPC: 0.16291 (Simulation time: 1 hr 20 min 16 sec) 
Heartbeat CPU 0 instructions: 376000000 cycles: 2344978892 heartbeat IPC: 0.15917 cumulative IPC: 0.1629 (Simulation time: 1 hr 20 min 29 sec) 
Heartbeat CPU 0 instructions: 377000000 cycles: 2351267018 heartbeat IPC: 0.15903 cumulative IPC: 0.162889 (Simulation time: 1 hr 20 min 42 sec) 
Heartbeat CPU 0 instructions: 378000001 cycles: 2357559423 heartbeat IPC: 0.158922 cumulative IPC: 0.162878 (Simulation time: 1 hr 20 min 55 sec) 
Heartbeat CPU 0 instructions: 379000000 cycles: 2363828666 heartbeat IPC: 0.159509 cumulative IPC: 0.162868 (Simulation time: 1 hr 21 min 8 sec) 
Heartbeat CPU 0 instructions: 380000002 cycles: 2370107157 heartbeat IPC: 0.159274 cumulative IPC: 0.162859 (Simulation time: 1 hr 21 min 21 sec) 
Heartbeat CPU 0 instructions: 381000002 cycles: 2376407182 heartbeat IPC: 0.15873 cumulative IPC: 0.162847 (Simulation time: 1 hr 21 min 33 sec) 
Heartbeat CPU 0 instructions: 382000003 cycles: 2382686225 heartbeat IPC: 0.15926 cumulative IPC: 0.162837 (Simulation time: 1 hr 21 min 47 sec) 
Heartbeat CPU 0 instructions: 383000001 cycles: 2388988655 heartbeat IPC: 0.158669 cumulative IPC: 0.162826 (Simulation time: 1 hr 22 min 0 sec) 
Heartbeat CPU 0 instructions: 384000000 cycles: 2395312052 heartbeat IPC: 0.158143 cumulative IPC: 0.162813 (Simulation time: 1 hr 22 min 13 sec) 
Heartbeat CPU 0 instructions: 385000000 cycles: 2401582815 heartbeat IPC: 0.15947 cumulative IPC: 0.162804 (Simulation time: 1 hr 22 min 26 sec) 
Heartbeat CPU 0 instructions: 386000000 cycles: 2407860928 heartbeat IPC: 0.159284 cumulative IPC: 0.162794 (Simulation time: 1 hr 22 min 39 sec) 
Heartbeat CPU 0 instructions: 387000002 cycles: 2414173126 heartbeat IPC: 0.158424 cumulative IPC: 0.162782 (Simulation time: 1 hr 22 min 51 sec) 
Heartbeat CPU 0 instructions: 388000000 cycles: 2420446602 heartbeat IPC: 0.159401 cumulative IPC: 0.162773 (Simulation time: 1 hr 23 min 5 sec) 
Heartbeat CPU 0 instructions: 389000000 cycles: 2426732557 heartbeat IPC: 0.159085 cumulative IPC: 0.162763 (Simulation time: 1 hr 23 min 17 sec) 
Heartbeat CPU 0 instructions: 390000002 cycles: 2433006794 heartbeat IPC: 0.159382 cumulative IPC: 0.162754 (Simulation time: 1 hr 23 min 30 sec) 
Heartbeat CPU 0 instructions: 391000001 cycles: 2439300934 heartbeat IPC: 0.158878 cumulative IPC: 0.162744 (Simulation time: 1 hr 23 min 43 sec) 
Heartbeat CPU 0 instructions: 392000000 cycles: 2445569626 heartbeat IPC: 0.159523 cumulative IPC: 0.162735 (Simulation time: 1 hr 23 min 56 sec) 
Heartbeat CPU 0 instructions: 393000000 cycles: 2451853541 heartbeat IPC: 0.159136 cumulative IPC: 0.162725 (Simulation time: 1 hr 24 min 10 sec) 
Heartbeat CPU 0 instructions: 394000001 cycles: 2458125393 heartbeat IPC: 0.159443 cumulative IPC: 0.162717 (Simulation time: 1 hr 24 min 23 sec) 
Heartbeat CPU 0 instructions: 395000002 cycles: 2464431124 heartbeat IPC: 0.158586 cumulative IPC: 0.162706 (Simulation time: 1 hr 24 min 36 sec) 
Heartbeat CPU 0 instructions: 396000000 cycles: 2470721835 heartbeat IPC: 0.158964 cumulative IPC: 0.162696 (Simulation time: 1 hr 24 min 48 sec) 
Heartbeat CPU 0 instructions: 397000002 cycles: 2477005854 heartbeat IPC: 0.159134 cumulative IPC: 0.162686 (Simulation time: 1 hr 25 min 2 sec) 
Heartbeat CPU 0 instructions: 398000003 cycles: 2483291561 heartbeat IPC: 0.159091 cumulative IPC: 0.162677 (Simulation time: 1 hr 25 min 15 sec) 
Heartbeat CPU 0 instructions: 399000000 cycles: 2489567441 heartbeat IPC: 0.15934 cumulative IPC: 0.162668 (Simulation time: 1 hr 25 min 28 sec) 
Heartbeat CPU 0 instructions: 400000003 cycles: 2495861366 heartbeat IPC: 0.158884 cumulative IPC: 0.162658 (Simulation time: 1 hr 25 min 41 sec) 
Heartbeat CPU 0 instructions: 401000000 cycles: 2502159354 heartbeat IPC: 0.15878 cumulative IPC: 0.162648 (Simulation time: 1 hr 25 min 54 sec) 
Heartbeat CPU 0 instructions: 402000003 cycles: 2508444420 heartbeat IPC: 0.159108 cumulative IPC: 0.162639 (Simulation time: 1 hr 26 min 7 sec) 
Heartbeat CPU 0 instructions: 403000003 cycles: 2514716377 heartbeat IPC: 0.15944 cumulative IPC: 0.162631 (Simulation time: 1 hr 26 min 20 sec) 
Heartbeat CPU 0 instructions: 404000003 cycles: 2521012407 heartbeat IPC: 0.15883 cumulative IPC: 0.162621 (Simulation time: 1 hr 26 min 33 sec) 
Heartbeat CPU 0 instructions: 405000000 cycles: 2527300199 heartbeat IPC: 0.159038 cumulative IPC: 0.162611 (Simulation time: 1 hr 26 min 46 sec) 
Heartbeat CPU 0 instructions: 406000001 cycles: 2533577267 heartbeat IPC: 0.15931 cumulative IPC: 0.162603 (Simulation time: 1 hr 26 min 59 sec) 
Heartbeat CPU 0 instructions: 407000000 cycles: 2539344907 heartbeat IPC: 0.173381 cumulative IPC: 0.162628 (Simulation time: 1 hr 27 min 12 sec) 
Heartbeat CPU 0 instructions: 408000000 cycles: 2545614379 heartbeat IPC: 0.159503 cumulative IPC: 0.16262 (Simulation time: 1 hr 27 min 25 sec) 
Heartbeat CPU 0 instructions: 409000001 cycles: 2551886663 heartbeat IPC: 0.159432 cumulative IPC: 0.162612 (Simulation time: 1 hr 27 min 38 sec) 
Heartbeat CPU 0 instructions: 410000002 cycles: 2558172584 heartbeat IPC: 0.159086 cumulative IPC: 0.162603 (Simulation time: 1 hr 27 min 51 sec) 
Heartbeat CPU 0 instructions: 411000000 cycles: 2564457345 heartbeat IPC: 0.159115 cumulative IPC: 0.162594 (Simulation time: 1 hr 28 min 5 sec) 
Heartbeat CPU 0 instructions: 412000000 cycles: 2570748445 heartbeat IPC: 0.158955 cumulative IPC: 0.162585 (Simulation time: 1 hr 28 min 18 sec) 
Heartbeat CPU 0 instructions: 413000002 cycles: 2577038627 heartbeat IPC: 0.158978 cumulative IPC: 0.162576 (Simulation time: 1 hr 28 min 31 sec) 
Heartbeat CPU 0 instructions: 414000000 cycles: 2583321490 heartbeat IPC: 0.159163 cumulative IPC: 0.162567 (Simulation time: 1 hr 28 min 44 sec) 
Heartbeat CPU 0 instructions: 415000003 cycles: 2589612820 heartbeat IPC: 0.158949 cumulative IPC: 0.162558 (Simulation time: 1 hr 28 min 57 sec) 
Heartbeat CPU 0 instructions: 416000003 cycles: 2595873490 heartbeat IPC: 0.159727 cumulative IPC: 0.162551 (Simulation time: 1 hr 29 min 10 sec) 
Heartbeat CPU 0 instructions: 417000003 cycles: 2602156858 heartbeat IPC: 0.15915 cumulative IPC: 0.162543 (Simulation time: 1 hr 29 min 23 sec) 
Heartbeat CPU 0 instructions: 418000000 cycles: 2608455814 heartbeat IPC: 0.158756 cumulative IPC: 0.162533 (Simulation time: 1 hr 29 min 36 sec) 
Heartbeat CPU 0 instructions: 419000001 cycles: 2614738203 heartbeat IPC: 0.159175 cumulative IPC: 0.162525 (Simulation time: 1 hr 29 min 49 sec) 
Heartbeat CPU 0 instructions: 420000002 cycles: 2621050190 heartbeat IPC: 0.158429 cumulative IPC: 0.162514 (Simulation time: 1 hr 30 min 2 sec) 
Heartbeat CPU 0 instructions: 421000002 cycles: 2627349283 heartbeat IPC: 0.158753 cumulative IPC: 0.162505 (Simulation time: 1 hr 30 min 15 sec) 
Heartbeat CPU 0 instructions: 422000003 cycles: 2633624672 heartbeat IPC: 0.159353 cumulative IPC: 0.162497 (Simulation time: 1 hr 30 min 28 sec) 
Heartbeat CPU 0 instructions: 423000000 cycles: 2639931126 heartbeat IPC: 0.158567 cumulative IPC: 0.162487 (Simulation time: 1 hr 30 min 41 sec) 
Heartbeat CPU 0 instructions: 424000000 cycles: 2646217324 heartbeat IPC: 0.159079 cumulative IPC: 0.162479 (Simulation time: 1 hr 30 min 55 sec) 
Heartbeat CPU 0 instructions: 425000002 cycles: 2652493482 heartbeat IPC: 0.159333 cumulative IPC: 0.162471 (Simulation time: 1 hr 31 min 8 sec) 
Heartbeat CPU 0 instructions: 426000001 cycles: 2658775822 heartbeat IPC: 0.159176 cumulative IPC: 0.162463 (Simulation time: 1 hr 31 min 21 sec) 
Heartbeat CPU 0 instructions: 427000000 cycles: 2665063538 heartbeat IPC: 0.15904 cumulative IPC: 0.162455 (Simulation time: 1 hr 31 min 33 sec) 
Heartbeat CPU 0 instructions: 428000000 cycles: 2671343546 heartbeat IPC: 0.159235 cumulative IPC: 0.162447 (Simulation time: 1 hr 31 min 46 sec) 
Heartbeat CPU 0 instructions: 429000000 cycles: 2677622102 heartbeat IPC: 0.159272 cumulative IPC: 0.162439 (Simulation time: 1 hr 31 min 59 sec) 
Heartbeat CPU 0 instructions: 430000001 cycles: 2683890984 heartbeat IPC: 0.159518 cumulative IPC: 0.162432 (Simulation time: 1 hr 32 min 12 sec) 
Heartbeat CPU 0 instructions: 431000003 cycles: 2690191110 heartbeat IPC: 0.158727 cumulative IPC: 0.162423 (Simulation time: 1 hr 32 min 25 sec) 
Heartbeat CPU 0 instructions: 432000001 cycles: 2696492845 heartbeat IPC: 0.158686 cumulative IPC: 0.162414 (Simulation time: 1 hr 32 min 38 sec) 
Heartbeat CPU 0 instructions: 433000001 cycles: 2702773516 heartbeat IPC: 0.159219 cumulative IPC: 0.162406 (Simulation time: 1 hr 32 min 50 sec) 
Heartbeat CPU 0 instructions: 434000000 cycles: 2709052028 heartbeat IPC: 0.159273 cumulative IPC: 0.162399 (Simulation time: 1 hr 33 min 4 sec) 
Heartbeat CPU 0 instructions: 435000002 cycles: 2715330732 heartbeat IPC: 0.159269 cumulative IPC: 0.162391 (Simulation time: 1 hr 33 min 16 sec) 
Heartbeat CPU 0 instructions: 436000001 cycles: 2721629404 heartbeat IPC: 0.158763 cumulative IPC: 0.162383 (Simulation time: 1 hr 33 min 29 sec) 
Heartbeat CPU 0 instructions: 437000000 cycles: 2727916122 heartbeat IPC: 0.159065 cumulative IPC: 0.162375 (Simulation time: 1 hr 33 min 42 sec) 
Heartbeat CPU 0 instructions: 438000003 cycles: 2734216194 heartbeat IPC: 0.158729 cumulative IPC: 0.162366 (Simulation time: 1 hr 33 min 56 sec) 
Heartbeat CPU 0 instructions: 439000002 cycles: 2740487733 heartbeat IPC: 0.15945 cumulative IPC: 0.162359 (Simulation time: 1 hr 34 min 8 sec) 
Heartbeat CPU 0 instructions: 440000000 cycles: 2746765602 heartbeat IPC: 0.159289 cumulative IPC: 0.162352 (Simulation time: 1 hr 34 min 22 sec) 
Heartbeat CPU 0 instructions: 441000000 cycles: 2753052789 heartbeat IPC: 0.159054 cumulative IPC: 0.162344 (Simulation time: 1 hr 34 min 35 sec) 
Heartbeat CPU 0 instructions: 442000000 cycles: 2759354264 heartbeat IPC: 0.158693 cumulative IPC: 0.162335 (Simulation time: 1 hr 34 min 48 sec) 
Heartbeat CPU 0 instructions: 443000000 cycles: 2764611794 heartbeat IPC: 0.190203 cumulative IPC: 0.16239 (Simulation time: 1 hr 34 min 59 sec) 
Heartbeat CPU 0 instructions: 444000003 cycles: 2768261981 heartbeat IPC: 0.273959 cumulative IPC: 0.162543 (Simulation time: 1 hr 35 min 7 sec) 
Heartbeat CPU 0 instructions: 445000000 cycles: 2774409969 heartbeat IPC: 0.162654 cumulative IPC: 0.162543 (Simulation time: 1 hr 35 min 20 sec) 
Heartbeat CPU 0 instructions: 446000000 cycles: 2780362460 heartbeat IPC: 0.167997 cumulative IPC: 0.162555 (Simulation time: 1 hr 35 min 32 sec) 
Heartbeat CPU 0 instructions: 447000001 cycles: 2786247143 heartbeat IPC: 0.169933 cumulative IPC: 0.162571 (Simulation time: 1 hr 35 min 45 sec) 
Heartbeat CPU 0 instructions: 448000003 cycles: 2792407083 heartbeat IPC: 0.16234 cumulative IPC: 0.162571 (Simulation time: 1 hr 35 min 57 sec) 
Heartbeat CPU 0 instructions: 449000000 cycles: 2798495560 heartbeat IPC: 0.164244 cumulative IPC: 0.162575 (Simulation time: 1 hr 36 min 10 sec) 
Heartbeat CPU 0 instructions: 450000000 cycles: 2804786692 heartbeat IPC: 0.158954 cumulative IPC: 0.162566 (Simulation time: 1 hr 36 min 23 sec) 
Heartbeat CPU 0 instructions: 451000000 cycles: 2811021075 heartbeat IPC: 0.160401 cumulative IPC: 0.162561 (Simulation time: 1 hr 36 min 36 sec) 
Heartbeat CPU 0 instructions: 452000003 cycles: 2817059094 heartbeat IPC: 0.165618 cumulative IPC: 0.162568 (Simulation time: 1 hr 36 min 49 sec) 
Heartbeat CPU 0 instructions: 453000000 cycles: 2823200376 heartbeat IPC: 0.162832 cumulative IPC: 0.162569 (Simulation time: 1 hr 37 min 2 sec) 
Heartbeat CPU 0 instructions: 454000000 cycles: 2829218535 heartbeat IPC: 0.166164 cumulative IPC: 0.162576 (Simulation time: 1 hr 37 min 15 sec) 
Heartbeat CPU 0 instructions: 455000000 cycles: 2835250782 heartbeat IPC: 0.165776 cumulative IPC: 0.162584 (Simulation time: 1 hr 37 min 27 sec) 
Heartbeat CPU 0 instructions: 456000003 cycles: 2841151678 heartbeat IPC: 0.169466 cumulative IPC: 0.162598 (Simulation time: 1 hr 37 min 39 sec) 
Heartbeat CPU 0 instructions: 457000003 cycles: 2847154944 heartbeat IPC: 0.166576 cumulative IPC: 0.162607 (Simulation time: 1 hr 37 min 51 sec) 
Heartbeat CPU 0 instructions: 458000000 cycles: 2853241147 heartbeat IPC: 0.164306 cumulative IPC: 0.162611 (Simulation time: 1 hr 38 min 4 sec) 
Heartbeat CPU 0 instructions: 459000002 cycles: 2859234397 heartbeat IPC: 0.166855 cumulative IPC: 0.16262 (Simulation time: 1 hr 38 min 16 sec) 
Heartbeat CPU 0 instructions: 460000000 cycles: 2865357299 heartbeat IPC: 0.163321 cumulative IPC: 0.162622 (Simulation time: 1 hr 38 min 29 sec) 
Heartbeat CPU 0 instructions: 461000000 cycles: 2871359499 heartbeat IPC: 0.166606 cumulative IPC: 0.16263 (Simulation time: 1 hr 38 min 41 sec) 
Heartbeat CPU 0 instructions: 462000000 cycles: 2877589569 heartbeat IPC: 0.160512 cumulative IPC: 0.162625 (Simulation time: 1 hr 38 min 53 sec) 
Heartbeat CPU 0 instructions: 463000001 cycles: 2883875583 heartbeat IPC: 0.159083 cumulative IPC: 0.162617 (Simulation time: 1 hr 39 min 6 sec) 
Heartbeat CPU 0 instructions: 464000000 cycles: 2890062096 heartbeat IPC: 0.161642 cumulative IPC: 0.162615 (Simulation time: 1 hr 39 min 18 sec) 
Heartbeat CPU 0 instructions: 465000001 cycles: 2896230106 heartbeat IPC: 0.162127 cumulative IPC: 0.162614 (Simulation time: 1 hr 39 min 30 sec) 
Heartbeat CPU 0 instructions: 466000000 cycles: 2902501413 heartbeat IPC: 0.159456 cumulative IPC: 0.162607 (Simulation time: 1 hr 39 min 43 sec) 
Heartbeat CPU 0 instructions: 467000001 cycles: 2908789265 heartbeat IPC: 0.159037 cumulative IPC: 0.162599 (Simulation time: 1 hr 39 min 55 sec) 
Heartbeat CPU 0 instructions: 468000000 cycles: 2915071769 heartbeat IPC: 0.159172 cumulative IPC: 0.162592 (Simulation time: 1 hr 40 min 7 sec) 
Heartbeat CPU 0 instructions: 469000001 cycles: 2921352240 heartbeat IPC: 0.159224 cumulative IPC: 0.162584 (Simulation time: 1 hr 40 min 20 sec) 
Heartbeat CPU 0 instructions: 470000000 cycles: 2927624111 heartbeat IPC: 0.159442 cumulative IPC: 0.162577 (Simulation time: 1 hr 40 min 32 sec) 
Heartbeat CPU 0 instructions: 471000001 cycles: 2933923527 heartbeat IPC: 0.158745 cumulative IPC: 0.162569 (Simulation time: 1 hr 40 min 45 sec) 
Heartbeat CPU 0 instructions: 472000002 cycles: 2940223370 heartbeat IPC: 0.158734 cumulative IPC: 0.16256 (Simulation time: 1 hr 40 min 57 sec) 
Heartbeat CPU 0 instructions: 473000000 cycles: 2946504384 heartbeat IPC: 0.15921 cumulative IPC: 0.162553 (Simulation time: 1 hr 41 min 9 sec) 
Heartbeat CPU 0 instructions: 474000001 cycles: 2952783190 heartbeat IPC: 0.159266 cumulative IPC: 0.162545 (Simulation time: 1 hr 41 min 22 sec) 
Heartbeat CPU 0 instructions: 475000000 cycles: 2959067104 heartbeat IPC: 0.159136 cumulative IPC: 0.162538 (Simulation time: 1 hr 41 min 34 sec) 
Heartbeat CPU 0 instructions: 476000002 cycles: 2965361574 heartbeat IPC: 0.15887 cumulative IPC: 0.16253 (Simulation time: 1 hr 41 min 46 sec) 
Heartbeat CPU 0 instructions: 477000000 cycles: 2971656747 heartbeat IPC: 0.158852 cumulative IPC: 0.162522 (Simulation time: 1 hr 41 min 59 sec) 
Heartbeat CPU 0 instructions: 478000000 cycles: 2977949744 heartbeat IPC: 0.158907 cumulative IPC: 0.162514 (Simulation time: 1 hr 42 min 11 sec) 
Heartbeat CPU 0 instructions: 479000003 cycles: 2984024872 heartbeat IPC: 0.164606 cumulative IPC: 0.162518 (Simulation time: 1 hr 42 min 23 sec) 
Heartbeat CPU 0 instructions: 480000000 cycles: 2990144484 heartbeat IPC: 0.163409 cumulative IPC: 0.16252 (Simulation time: 1 hr 42 min 35 sec) 
Heartbeat CPU 0 instructions: 481000002 cycles: 2996322062 heartbeat IPC: 0.161876 cumulative IPC: 0.162519 (Simulation time: 1 hr 42 min 48 sec) 
Heartbeat CPU 0 instructions: 482000002 cycles: 3002322336 heartbeat IPC: 0.166659 cumulative IPC: 0.162527 (Simulation time: 1 hr 42 min 59 sec) 
Heartbeat CPU 0 instructions: 483000001 cycles: 3008229692 heartbeat IPC: 0.16928 cumulative IPC: 0.162541 (Simulation time: 1 hr 43 min 11 sec) 
Heartbeat CPU 0 instructions: 484000000 cycles: 3013089407 heartbeat IPC: 0.205773 cumulative IPC: 0.162613 (Simulation time: 1 hr 43 min 22 sec) 
Heartbeat CPU 0 instructions: 485000000 cycles: 3019363687 heartbeat IPC: 0.159381 cumulative IPC: 0.162606 (Simulation time: 1 hr 43 min 34 sec) 
Heartbeat CPU 0 instructions: 486000000 cycles: 3025637865 heartbeat IPC: 0.159383 cumulative IPC: 0.162599 (Simulation time: 1 hr 43 min 47 sec) 
Heartbeat CPU 0 instructions: 487000000 cycles: 3031926856 heartbeat IPC: 0.159008 cumulative IPC: 0.162592 (Simulation time: 1 hr 43 min 59 sec) 
Heartbeat CPU 0 instructions: 488000000 cycles: 3038211059 heartbeat IPC: 0.159129 cumulative IPC: 0.162584 (Simulation time: 1 hr 44 min 11 sec) 
Heartbeat CPU 0 instructions: 489000002 cycles: 3044508330 heartbeat IPC: 0.158799 cumulative IPC: 0.162576 (Simulation time: 1 hr 44 min 24 sec) 
Heartbeat CPU 0 instructions: 490000000 cycles: 3050799939 heartbeat IPC: 0.158942 cumulative IPC: 0.162568 (Simulation time: 1 hr 44 min 36 sec) 
Heartbeat CPU 0 instructions: 491000002 cycles: 3057096755 heartbeat IPC: 0.158811 cumulative IPC: 0.16256 (Simulation time: 1 hr 44 min 49 sec) 
Heartbeat CPU 0 instructions: 492000000 cycles: 3063391656 heartbeat IPC: 0.158858 cumulative IPC: 0.162553 (Simulation time: 1 hr 45 min 1 sec) 
Heartbeat CPU 0 instructions: 493000001 cycles: 3069666634 heartbeat IPC: 0.159363 cumulative IPC: 0.162546 (Simulation time: 1 hr 45 min 13 sec) 
Heartbeat CPU 0 instructions: 494000000 cycles: 3075956059 heartbeat IPC: 0.158997 cumulative IPC: 0.162538 (Simulation time: 1 hr 45 min 26 sec) 
Heartbeat CPU 0 instructions: 495000000 cycles: 3082271252 heartbeat IPC: 0.158348 cumulative IPC: 0.162529 (Simulation time: 1 hr 45 min 38 sec) 
Heartbeat CPU 0 instructions: 496000001 cycles: 3088554778 heartbeat IPC: 0.159146 cumulative IPC: 0.162522 (Simulation time: 1 hr 45 min 50 sec) 
Heartbeat CPU 0 instructions: 497000001 cycles: 3094865750 heartbeat IPC: 0.158454 cumulative IPC: 0.162514 (Simulation time: 1 hr 46 min 3 sec) 
Heartbeat CPU 0 instructions: 498000000 cycles: 3101179910 heartbeat IPC: 0.158374 cumulative IPC: 0.162505 (Simulation time: 1 hr 46 min 15 sec) 
Heartbeat CPU 0 instructions: 499000003 cycles: 3107454656 heartbeat IPC: 0.159369 cumulative IPC: 0.162499 (Simulation time: 1 hr 46 min 28 sec) 
Heartbeat CPU 0 instructions: 500000000 cycles: 3113759423 heartbeat IPC: 0.15861 cumulative IPC: 0.16249 (Simulation time: 1 hr 46 min 40 sec) 
Heartbeat CPU 0 instructions: 501000002 cycles: 3120047730 heartbeat IPC: 0.159026 cumulative IPC: 0.162483 (Simulation time: 1 hr 46 min 53 sec) 
Heartbeat CPU 0 instructions: 502000000 cycles: 3126339109 heartbeat IPC: 0.158947 cumulative IPC: 0.162476 (Simulation time: 1 hr 47 min 5 sec) 
Heartbeat CPU 0 instructions: 503000000 cycles: 3132617675 heartbeat IPC: 0.159272 cumulative IPC: 0.162469 (Simulation time: 1 hr 47 min 17 sec) 
Heartbeat CPU 0 instructions: 504000001 cycles: 3138905063 heartbeat IPC: 0.159049 cumulative IPC: 0.162462 (Simulation time: 1 hr 47 min 29 sec) 
Heartbeat CPU 0 instructions: 505000001 cycles: 3145188274 heartbeat IPC: 0.159154 cumulative IPC: 0.162455 (Simulation time: 1 hr 47 min 42 sec) 
Heartbeat CPU 0 instructions: 506000000 cycles: 3151456760 heartbeat IPC: 0.159528 cumulative IPC: 0.162449 (Simulation time: 1 hr 47 min 54 sec) 
Heartbeat CPU 0 instructions: 507000000 cycles: 3157737357 heartbeat IPC: 0.159221 cumulative IPC: 0.162443 (Simulation time: 1 hr 48 min 7 sec) 
Heartbeat CPU 0 instructions: 508000002 cycles: 3164029801 heartbeat IPC: 0.158921 cumulative IPC: 0.162435 (Simulation time: 1 hr 48 min 19 sec) 
Heartbeat CPU 0 instructions: 509000002 cycles: 3170334741 heartbeat IPC: 0.158606 cumulative IPC: 0.162428 (Simulation time: 1 hr 48 min 31 sec) 
Heartbeat CPU 0 instructions: 510000001 cycles: 3176607298 heartbeat IPC: 0.159424 cumulative IPC: 0.162421 (Simulation time: 1 hr 48 min 44 sec) 
Finished CPU 0 instructions: 500000001 cycles: 3078410900 cumulative IPC: 0.162421 (Simulation time: 1 hr 48 min 44 sec) 

ChampSim completed all CPUs

Region of Interest Statistics

CPU 0 cumulative IPC: 0.162421 instructions: 500000001 cycles: 3078410900
L1D TOTAL     ACCESS:   77606016  HIT:   42636529  MISS:   34969487
L1D LOAD      ACCESS:   70882660  HIT:   35928431  MISS:   34954229
L1D RFO       ACCESS:    6723356  HIT:    6708098  MISS:      15258
L1D PREFETCH  ACCESS:          0  HIT:          0  MISS:          0
L1D WRITEBACK ACCESS:          0  HIT:          0  MISS:          0
L1D PREFETCH  REQUESTED:          0  ISSUED:          0  USEFUL:          0  USELESS:          0  UAC CORRECT:          0
L1D AVERAGE MISS LATENCY: 78.8464 cycles
L1I TOTAL     ACCESS:  117141509  HIT:  117141435  MISS:         74
L1I LOAD      ACCESS:  117141509  HIT:  117141435  MISS:         74
L1I RFO       ACCESS:          0  HIT:          0  MISS:          0
L1I PREFETCH  ACCESS:          0  HIT:          0  MISS:          0
L1I WRITEBACK ACCESS:          0  HIT:          0  MISS:          0
L1I PREFETCH  REQUESTED:          0  ISSUED:          0  USEFUL:          0  USELESS:          0  UAC CORRECT:          0
L1I AVERAGE MISS LATENCY: 221.189 cycles
L2C TOTAL     ACCESS:   35027669  HIT:      80077  MISS:   34947592
L2C LOAD      ACCESS:   34954247  HIT:      21851  MISS:   34932396
L2C RFO       ACCESS:      15258  HIT:        431  MISS:      14827
L2C PREFETCH  ACCESS:          0  HIT:          0  MISS:          0
L2C WRITEBACK ACCESS:      58164  HIT:      57795  MISS:        369
L2C PREFETCH  REQUESTED:          0  ISSUED:          0  USEFUL:          0  USELESS:          0  UAC CORRECT:          0
L2C AVERAGE MISS LATENCY: 64.8331 cycles
LLC TOTAL     ACCESS:   44406778  HIT:    9421321  MISS:   34985457
LLC LOAD      ACCESS:   34932396  HIT:    9347139  MISS:   25585257
LLC RFO       ACCESS:      14827  HIT:        331  MISS:      14496
LLC PREFETCH  ACCESS:    9401867  HIT:      16455  MISS:    9385412
LLC WRITEBACK ACCESS:      57688  HIT:      57396  MISS:        292
LLC PREFETCH  REQUESTED:   34932322  ISSUED:   34831327  USEFUL:    9341570  USELESS:      43832  UAC CORRECT:    7747534
LLC AVERAGE MISS LATENCY: 76.042 cycles
Major fault: 0 Minor fault: 54251
performance stats:
mapping cache size: 2810191
divergence: 30703

DRAM Statistics
 CHANNEL 0
 RQ ROW_BUFFER_HIT:   17205337  ROW_BUFFER_MISS:     287475
 DBUS_CONGESTED:     251139
 WQ ROW_BUFFER_HIT:      23142  ROW_BUFFER_MISS:       4976  FULL:          0

 CHANNEL 1
 RQ ROW_BUFFER_HIT:   17206933  ROW_BUFFER_MISS:     285419
 DBUS_CONGESTED:     251139
 WQ ROW_BUFFER_HIT:      25211  ROW_BUFFER_MISS:       4059  FULL:          0

 AVG_CONGESTED_CYCLE: 8

CPU 0 Branch Prediction Accuracy: 99.6992% MPKI: 1.07148 Average ROB Occupancy at Mispredict: 263.586

Branch types
NOT_BRANCH: 321877364 64.3755%
BRANCH_DIRECT_JUMP: 1731214 0.346243%
BRANCH_INDIRECT: 0 0%
BRANCH_CONDITIONAL: 174689739 34.9379%
BRANCH_DIRECT_CALL: 850994 0.170199%
BRANCH_INDIRECT_CALL: 1 2e-07%
BRANCH_RETURN: 850995 0.170199%
BRANCH_OTHER: 0 0%

