
*** ChampSim Multicore Out-of-Order Simulator ***

Warmup Instructions: 1000000
Prefetch Warmup Instructions: 10000000
Simulation Instructions: 500000000
Stat Printing Period: 1000000
Number of CPUs: 1
LLC sets: 2048
LLC ways: 16
Off-chip DRAM Size: 32768 MB Channels: 2 Width: 64-bit Data Rate: 1024 MT/s

CPU 0 runs /scratch/cluster/cmolder/ML-DPC/ChampSimTraces/spec17/602.gcc-s3.trace.xz
Read seed: 224
Heartbeat CPU 0 instructions: 1000000 cycles: 501312 heartbeat IPC: 1.99477 cumulative IPC: 1.99477 (Simulation time: 0 hr 0 min 8 sec) 

Warmup complete CPU 0 instructions: 1000004 cycles: 501313 (Simulation time: 0 hr 0 min 8 sec) 

Heartbeat CPU 0 instructions: 2000003 cycles: 2333438 heartbeat IPC: 0.545816 cumulative IPC: 0.545814 (Simulation time: 0 hr 0 min 18 sec) 
Heartbeat CPU 0 instructions: 3000000 cycles: 4149825 heartbeat IPC: 0.550542 cumulative IPC: 0.548168 (Simulation time: 0 hr 0 min 28 sec) 
Heartbeat CPU 0 instructions: 4000002 cycles: 5957452 heartbeat IPC: 0.553213 cumulative IPC: 0.549839 (Simulation time: 0 hr 0 min 38 sec) 
Heartbeat CPU 0 instructions: 5000003 cycles: 7789888 heartbeat IPC: 0.545722 cumulative IPC: 0.548804 (Simulation time: 0 hr 0 min 48 sec) 
Heartbeat CPU 0 instructions: 6000003 cycles: 9609416 heartbeat IPC: 0.549593 cumulative IPC: 0.548962 (Simulation time: 0 hr 0 min 58 sec) 
Heartbeat CPU 0 instructions: 7000000 cycles: 11423458 heartbeat IPC: 0.551253 cumulative IPC: 0.549342 (Simulation time: 0 hr 1 min 7 sec) 
Heartbeat CPU 0 instructions: 8000003 cycles: 13274765 heartbeat IPC: 0.540161 cumulative IPC: 0.548012 (Simulation time: 0 hr 1 min 17 sec) 
Heartbeat CPU 0 instructions: 9000000 cycles: 15122032 heartbeat IPC: 0.541339 cumulative IPC: 0.547168 (Simulation time: 0 hr 1 min 27 sec) 
Heartbeat CPU 0 instructions: 10000000 cycles: 16953846 heartbeat IPC: 0.545907 cumulative IPC: 0.547028 (Simulation time: 0 hr 1 min 37 sec) 

Warmup complete CPU 0 instructions: 10000001 cycles: 16953847 (Simulation time: 0 hr 1 min 37 sec) 

Heartbeat CPU 0 instructions: 11000000 cycles: 18084000 heartbeat IPC: 0.884835 cumulative IPC: 0.884835 (Simulation time: 0 hr 1 min 46 sec) 
Heartbeat CPU 0 instructions: 12000000 cycles: 19225320 heartbeat IPC: 0.876178 cumulative IPC: 0.880485 (Simulation time: 0 hr 1 min 55 sec) 
Heartbeat CPU 0 instructions: 13000003 cycles: 20413732 heartbeat IPC: 0.841462 cumulative IPC: 0.867081 (Simulation time: 0 hr 2 min 4 sec) 
Heartbeat CPU 0 instructions: 14000003 cycles: 21652157 heartbeat IPC: 0.807477 cumulative IPC: 0.85137 (Simulation time: 0 hr 2 min 12 sec) 
Heartbeat CPU 0 instructions: 15000002 cycles: 22953751 heartbeat IPC: 0.768288 cumulative IPC: 0.833347 (Simulation time: 0 hr 2 min 21 sec) 
Heartbeat CPU 0 instructions: 16000003 cycles: 24095119 heartbeat IPC: 0.876143 cumulative IPC: 0.840187 (Simulation time: 0 hr 2 min 30 sec) 
Heartbeat CPU 0 instructions: 17000001 cycles: 25224256 heartbeat IPC: 0.88563 cumulative IPC: 0.846391 (Simulation time: 0 hr 2 min 39 sec) 
Heartbeat CPU 0 instructions: 18000000 cycles: 26362483 heartbeat IPC: 0.878559 cumulative IPC: 0.850283 (Simulation time: 0 hr 2 min 48 sec) 
Heartbeat CPU 0 instructions: 19000001 cycles: 27507108 heartbeat IPC: 0.873649 cumulative IPC: 0.852817 (Simulation time: 0 hr 2 min 57 sec) 
Heartbeat CPU 0 instructions: 20000000 cycles: 28648504 heartbeat IPC: 0.876119 cumulative IPC: 0.855091 (Simulation time: 0 hr 3 min 6 sec) 
Heartbeat CPU 0 instructions: 21000000 cycles: 29784670 heartbeat IPC: 0.880153 cumulative IPC: 0.85731 (Simulation time: 0 hr 3 min 15 sec) 
Heartbeat CPU 0 instructions: 22000000 cycles: 30926078 heartbeat IPC: 0.876111 cumulative IPC: 0.858846 (Simulation time: 0 hr 3 min 24 sec) 
Heartbeat CPU 0 instructions: 23000000 cycles: 32067155 heartbeat IPC: 0.876365 cumulative IPC: 0.860169 (Simulation time: 0 hr 3 min 33 sec) 
Heartbeat CPU 0 instructions: 24000001 cycles: 33205504 heartbeat IPC: 0.878466 cumulative IPC: 0.861451 (Simulation time: 0 hr 3 min 42 sec) 
Heartbeat CPU 0 instructions: 25000001 cycles: 34356946 heartbeat IPC: 0.868476 cumulative IPC: 0.861915 (Simulation time: 0 hr 3 min 51 sec) 
Heartbeat CPU 0 instructions: 26000000 cycles: 35481432 heartbeat IPC: 0.889294 cumulative IPC: 0.863577 (Simulation time: 0 hr 4 min 0 sec) 
Heartbeat CPU 0 instructions: 27000003 cycles: 36604686 heartbeat IPC: 0.890273 cumulative IPC: 0.865103 (Simulation time: 0 hr 4 min 9 sec) 
Heartbeat CPU 0 instructions: 28000001 cycles: 37731824 heartbeat IPC: 0.887201 cumulative IPC: 0.866302 (Simulation time: 0 hr 4 min 18 sec) 
Heartbeat CPU 0 instructions: 29000001 cycles: 38879258 heartbeat IPC: 0.87151 cumulative IPC: 0.866574 (Simulation time: 0 hr 4 min 27 sec) 
Heartbeat CPU 0 instructions: 30000000 cycles: 40009940 heartbeat IPC: 0.884421 cumulative IPC: 0.86745 (Simulation time: 0 hr 4 min 36 sec) 
Heartbeat CPU 0 instructions: 31000000 cycles: 41151208 heartbeat IPC: 0.876218 cumulative IPC: 0.867863 (Simulation time: 0 hr 4 min 46 sec) 
Heartbeat CPU 0 instructions: 32000002 cycles: 42279828 heartbeat IPC: 0.88604 cumulative IPC: 0.868673 (Simulation time: 0 hr 4 min 54 sec) 
Heartbeat CPU 0 instructions: 33000000 cycles: 43394712 heartbeat IPC: 0.896953 cumulative IPC: 0.869866 (Simulation time: 0 hr 5 min 3 sec) 
Heartbeat CPU 0 instructions: 34000000 cycles: 44526820 heartbeat IPC: 0.883308 cumulative IPC: 0.870418 (Simulation time: 0 hr 5 min 12 sec) 
Heartbeat CPU 0 instructions: 35000002 cycles: 45657650 heartbeat IPC: 0.884308 cumulative IPC: 0.870965 (Simulation time: 0 hr 5 min 22 sec) 
Heartbeat CPU 0 instructions: 36000003 cycles: 46769818 heartbeat IPC: 0.899146 cumulative IPC: 0.872016 (Simulation time: 0 hr 5 min 31 sec) 
Heartbeat CPU 0 instructions: 37000001 cycles: 48021200 heartbeat IPC: 0.799115 cumulative IPC: 0.86908 (Simulation time: 0 hr 5 min 40 sec) 
Heartbeat CPU 0 instructions: 38000003 cycles: 49306577 heartbeat IPC: 0.777983 cumulative IPC: 0.86546 (Simulation time: 0 hr 5 min 49 sec) 
Heartbeat CPU 0 instructions: 39000000 cycles: 50547148 heartbeat IPC: 0.806078 cumulative IPC: 0.863267 (Simulation time: 0 hr 5 min 58 sec) 
Heartbeat CPU 0 instructions: 40000002 cycles: 51659877 heartbeat IPC: 0.898693 cumulative IPC: 0.864403 (Simulation time: 0 hr 6 min 7 sec) 
Heartbeat CPU 0 instructions: 41000001 cycles: 52771497 heartbeat IPC: 0.899587 cumulative IPC: 0.865495 (Simulation time: 0 hr 6 min 16 sec) 
Heartbeat CPU 0 instructions: 42000001 cycles: 53889676 heartbeat IPC: 0.894311 cumulative IPC: 0.866367 (Simulation time: 0 hr 6 min 25 sec) 
Heartbeat CPU 0 instructions: 43000001 cycles: 55014550 heartbeat IPC: 0.888988 cumulative IPC: 0.867036 (Simulation time: 0 hr 6 min 34 sec) 
Heartbeat CPU 0 instructions: 44000000 cycles: 56127202 heartbeat IPC: 0.898753 cumulative IPC: 0.867937 (Simulation time: 0 hr 6 min 43 sec) 
Heartbeat CPU 0 instructions: 45000003 cycles: 57245436 heartbeat IPC: 0.89427 cumulative IPC: 0.868668 (Simulation time: 0 hr 6 min 52 sec) 
Heartbeat CPU 0 instructions: 46000000 cycles: 58354830 heartbeat IPC: 0.90139 cumulative IPC: 0.869545 (Simulation time: 0 hr 7 min 1 sec) 
Heartbeat CPU 0 instructions: 47000000 cycles: 59472204 heartbeat IPC: 0.894956 cumulative IPC: 0.870212 (Simulation time: 0 hr 7 min 10 sec) 
Heartbeat CPU 0 instructions: 48000000 cycles: 60590057 heartbeat IPC: 0.894572 cumulative IPC: 0.870836 (Simulation time: 0 hr 7 min 19 sec) 
Heartbeat CPU 0 instructions: 49000003 cycles: 61713533 heartbeat IPC: 0.890097 cumulative IPC: 0.87132 (Simulation time: 0 hr 7 min 28 sec) 
Heartbeat CPU 0 instructions: 50000000 cycles: 62809666 heartbeat IPC: 0.912295 cumulative IPC: 0.872299 (Simulation time: 0 hr 7 min 37 sec) 
Heartbeat CPU 0 instructions: 51000002 cycles: 63908027 heartbeat IPC: 0.910449 cumulative IPC: 0.873192 (Simulation time: 0 hr 7 min 46 sec) 
Heartbeat CPU 0 instructions: 52000003 cycles: 65012822 heartbeat IPC: 0.905146 cumulative IPC: 0.873926 (Simulation time: 0 hr 7 min 55 sec) 
Heartbeat CPU 0 instructions: 53000000 cycles: 66131711 heartbeat IPC: 0.893741 cumulative IPC: 0.874377 (Simulation time: 0 hr 8 min 4 sec) 
Heartbeat CPU 0 instructions: 54000000 cycles: 67240510 heartbeat IPC: 0.901877 cumulative IPC: 0.874983 (Simulation time: 0 hr 8 min 13 sec) 
Heartbeat CPU 0 instructions: 55000000 cycles: 68358045 heartbeat IPC: 0.894827 cumulative IPC: 0.875415 (Simulation time: 0 hr 8 min 22 sec) 
Heartbeat CPU 0 instructions: 56000000 cycles: 69485556 heartbeat IPC: 0.886909 cumulative IPC: 0.875662 (Simulation time: 0 hr 8 min 31 sec) 
Heartbeat CPU 0 instructions: 57000003 cycles: 70594656 heartbeat IPC: 0.901635 cumulative IPC: 0.876199 (Simulation time: 0 hr 8 min 40 sec) 
Heartbeat CPU 0 instructions: 58000001 cycles: 71713794 heartbeat IPC: 0.893543 cumulative IPC: 0.876553 (Simulation time: 0 hr 8 min 49 sec) 
Heartbeat CPU 0 instructions: 59000003 cycles: 72834443 heartbeat IPC: 0.892342 cumulative IPC: 0.87687 (Simulation time: 0 hr 8 min 58 sec) 
Heartbeat CPU 0 instructions: 60000000 cycles: 73940243 heartbeat IPC: 0.90432 cumulative IPC: 0.877402 (Simulation time: 0 hr 9 min 7 sec) 
Heartbeat CPU 0 instructions: 61000001 cycles: 75196867 heartbeat IPC: 0.795784 cumulative IPC: 0.875641 (Simulation time: 0 hr 9 min 16 sec) 
Heartbeat CPU 0 instructions: 62000000 cycles: 76468727 heartbeat IPC: 0.786249 cumulative IPC: 0.873731 (Simulation time: 0 hr 9 min 25 sec) 
Heartbeat CPU 0 instructions: 63000001 cycles: 78121533 heartbeat IPC: 0.605032 cumulative IPC: 0.866471 (Simulation time: 0 hr 9 min 32 sec) 
Heartbeat CPU 0 instructions: 64000003 cycles: 79252901 heartbeat IPC: 0.883887 cumulative IPC: 0.866787 (Simulation time: 0 hr 9 min 41 sec) 
Heartbeat CPU 0 instructions: 65000001 cycles: 80366521 heartbeat IPC: 0.897971 cumulative IPC: 0.867334 (Simulation time: 0 hr 9 min 50 sec) 
Heartbeat CPU 0 instructions: 66000000 cycles: 81464564 heartbeat IPC: 0.91071 cumulative IPC: 0.868073 (Simulation time: 0 hr 9 min 59 sec) 
Heartbeat CPU 0 instructions: 67000000 cycles: 82582835 heartbeat IPC: 0.894238 cumulative IPC: 0.868519 (Simulation time: 0 hr 10 min 8 sec) 
Heartbeat CPU 0 instructions: 68000003 cycles: 83691862 heartbeat IPC: 0.901694 cumulative IPC: 0.86907 (Simulation time: 0 hr 10 min 16 sec) 
Heartbeat CPU 0 instructions: 69000000 cycles: 84814298 heartbeat IPC: 0.890917 cumulative IPC: 0.869431 (Simulation time: 0 hr 10 min 25 sec) 
Heartbeat CPU 0 instructions: 70000002 cycles: 85932121 heartbeat IPC: 0.894598 cumulative IPC: 0.869839 (Simulation time: 0 hr 10 min 34 sec) 
Heartbeat CPU 0 instructions: 71000002 cycles: 87044585 heartbeat IPC: 0.898906 cumulative IPC: 0.8703 (Simulation time: 0 hr 10 min 43 sec) 
Heartbeat CPU 0 instructions: 72000003 cycles: 88152776 heartbeat IPC: 0.902372 cumulative IPC: 0.8708 (Simulation time: 0 hr 10 min 52 sec) 
Heartbeat CPU 0 instructions: 73000000 cycles: 89276584 heartbeat IPC: 0.889829 cumulative IPC: 0.871095 (Simulation time: 0 hr 11 min 1 sec) 
Heartbeat CPU 0 instructions: 74000000 cycles: 90382166 heartbeat IPC: 0.904501 cumulative IPC: 0.871598 (Simulation time: 0 hr 11 min 9 sec) 
Heartbeat CPU 0 instructions: 75000002 cycles: 91480634 heartbeat IPC: 0.910361 cumulative IPC: 0.87217 (Simulation time: 0 hr 11 min 18 sec) 
Heartbeat CPU 0 instructions: 76000003 cycles: 92593007 heartbeat IPC: 0.89898 cumulative IPC: 0.872564 (Simulation time: 0 hr 11 min 27 sec) 
Heartbeat CPU 0 instructions: 77000000 cycles: 93689014 heartbeat IPC: 0.9124 cumulative IPC: 0.873133 (Simulation time: 0 hr 11 min 36 sec) 
Heartbeat CPU 0 instructions: 78000001 cycles: 94813186 heartbeat IPC: 0.889544 cumulative IPC: 0.87337 (Simulation time: 0 hr 11 min 45 sec) 
Heartbeat CPU 0 instructions: 79000000 cycles: 95938797 heartbeat IPC: 0.888406 cumulative IPC: 0.873584 (Simulation time: 0 hr 11 min 54 sec) 
Heartbeat CPU 0 instructions: 80000000 cycles: 97071295 heartbeat IPC: 0.883004 cumulative IPC: 0.873717 (Simulation time: 0 hr 12 min 2 sec) 
Heartbeat CPU 0 instructions: 81000000 cycles: 98188800 heartbeat IPC: 0.894851 cumulative IPC: 0.874008 (Simulation time: 0 hr 12 min 11 sec) 
Heartbeat CPU 0 instructions: 82000003 cycles: 99301269 heartbeat IPC: 0.898904 cumulative IPC: 0.874344 (Simulation time: 0 hr 12 min 20 sec) 
Heartbeat CPU 0 instructions: 83000001 cycles: 100417138 heartbeat IPC: 0.896161 cumulative IPC: 0.874636 (Simulation time: 0 hr 12 min 29 sec) 
Heartbeat CPU 0 instructions: 84000002 cycles: 101534844 heartbeat IPC: 0.894691 cumulative IPC: 0.874901 (Simulation time: 0 hr 12 min 38 sec) 
Heartbeat CPU 0 instructions: 85000001 cycles: 102652945 heartbeat IPC: 0.894373 cumulative IPC: 0.875155 (Simulation time: 0 hr 12 min 47 sec) 
Heartbeat CPU 0 instructions: 86000001 cycles: 103798469 heartbeat IPC: 0.872963 cumulative IPC: 0.875126 (Simulation time: 0 hr 12 min 56 sec) 
Heartbeat CPU 0 instructions: 87000000 cycles: 104947236 heartbeat IPC: 0.870498 cumulative IPC: 0.875066 (Simulation time: 0 hr 13 min 5 sec) 
Heartbeat CPU 0 instructions: 88000000 cycles: 106083204 heartbeat IPC: 0.880306 cumulative IPC: 0.875133 (Simulation time: 0 hr 13 min 14 sec) 
Heartbeat CPU 0 instructions: 89000000 cycles: 107185872 heartbeat IPC: 0.906891 cumulative IPC: 0.875521 (Simulation time: 0 hr 13 min 23 sec) 
Heartbeat CPU 0 instructions: 90000000 cycles: 108312675 heartbeat IPC: 0.887467 cumulative IPC: 0.875668 (Simulation time: 0 hr 13 min 32 sec) 
Heartbeat CPU 0 instructions: 91000002 cycles: 109464236 heartbeat IPC: 0.868388 cumulative IPC: 0.875577 (Simulation time: 0 hr 13 min 41 sec) 
Heartbeat CPU 0 instructions: 92000002 cycles: 110682585 heartbeat IPC: 0.820783 cumulative IPC: 0.874865 (Simulation time: 0 hr 13 min 50 sec) 
Heartbeat CPU 0 instructions: 93000003 cycles: 114034451 heartbeat IPC: 0.298342 cumulative IPC: 0.85496 (Simulation time: 0 hr 14 min 2 sec) 
Heartbeat CPU 0 instructions: 94000000 cycles: 118386664 heartbeat IPC: 0.229767 cumulative IPC: 0.828134 (Simulation time: 0 hr 14 min 16 sec) 
Heartbeat CPU 0 instructions: 95000001 cycles: 122177049 heartbeat IPC: 0.263826 cumulative IPC: 0.807807 (Simulation time: 0 hr 14 min 27 sec) 
Heartbeat CPU 0 instructions: 96000000 cycles: 125158524 heartbeat IPC: 0.335404 cumulative IPC: 0.79479 (Simulation time: 0 hr 14 min 34 sec) 
Heartbeat CPU 0 instructions: 97000002 cycles: 126286696 heartbeat IPC: 0.886391 cumulative IPC: 0.795735 (Simulation time: 0 hr 14 min 43 sec) 
Heartbeat CPU 0 instructions: 98000001 cycles: 127393803 heartbeat IPC: 0.903254 cumulative IPC: 0.796813 (Simulation time: 0 hr 14 min 51 sec) 
Heartbeat CPU 0 instructions: 99000000 cycles: 128509674 heartbeat IPC: 0.89616 cumulative IPC: 0.797807 (Simulation time: 0 hr 15 min 0 sec) 
Heartbeat CPU 0 instructions: 100000000 cycles: 129635495 heartbeat IPC: 0.888241 cumulative IPC: 0.79871 (Simulation time: 0 hr 15 min 9 sec) 
Heartbeat CPU 0 instructions: 101000000 cycles: 130749768 heartbeat IPC: 0.897446 cumulative IPC: 0.799677 (Simulation time: 0 hr 15 min 18 sec) 
Heartbeat CPU 0 instructions: 102000000 cycles: 131870045 heartbeat IPC: 0.892636 cumulative IPC: 0.800583 (Simulation time: 0 hr 15 min 27 sec) 
Heartbeat CPU 0 instructions: 103000002 cycles: 132985474 heartbeat IPC: 0.896518 cumulative IPC: 0.801506 (Simulation time: 0 hr 15 min 35 sec) 
Heartbeat CPU 0 instructions: 104000002 cycles: 134086789 heartbeat IPC: 0.908005 cumulative IPC: 0.802507 (Simulation time: 0 hr 15 min 44 sec) 
Heartbeat CPU 0 instructions: 105000002 cycles: 135196472 heartbeat IPC: 0.901158 cumulative IPC: 0.803433 (Simulation time: 0 hr 15 min 53 sec) 
Heartbeat CPU 0 instructions: 106000000 cycles: 136328295 heartbeat IPC: 0.883529 cumulative IPC: 0.804192 (Simulation time: 0 hr 16 min 2 sec) 
Heartbeat CPU 0 instructions: 107000003 cycles: 137426915 heartbeat IPC: 0.910236 cumulative IPC: 0.805159 (Simulation time: 0 hr 16 min 11 sec) 
Heartbeat CPU 0 instructions: 108000000 cycles: 138520682 heartbeat IPC: 0.914269 cumulative IPC: 0.806141 (Simulation time: 0 hr 16 min 19 sec) 
Heartbeat CPU 0 instructions: 109000000 cycles: 139622707 heartbeat IPC: 0.90742 cumulative IPC: 0.807051 (Simulation time: 0 hr 16 min 28 sec) 
Heartbeat CPU 0 instructions: 110000000 cycles: 140725029 heartbeat IPC: 0.907176 cumulative IPC: 0.807943 (Simulation time: 0 hr 16 min 37 sec) 
Heartbeat CPU 0 instructions: 111000002 cycles: 141841207 heartbeat IPC: 0.895916 cumulative IPC: 0.808729 (Simulation time: 0 hr 16 min 46 sec) 
Heartbeat CPU 0 instructions: 112000000 cycles: 142965440 heartbeat IPC: 0.889494 cumulative IPC: 0.809449 (Simulation time: 0 hr 16 min 55 sec) 
Heartbeat CPU 0 instructions: 113000000 cycles: 144090318 heartbeat IPC: 0.888985 cumulative IPC: 0.810153 (Simulation time: 0 hr 17 min 4 sec) 
Heartbeat CPU 0 instructions: 114000000 cycles: 145203699 heartbeat IPC: 0.898165 cumulative IPC: 0.810917 (Simulation time: 0 hr 17 min 13 sec) 
Heartbeat CPU 0 instructions: 115000001 cycles: 146316593 heartbeat IPC: 0.898559 cumulative IPC: 0.811671 (Simulation time: 0 hr 17 min 22 sec) 
Heartbeat CPU 0 instructions: 116000002 cycles: 147433416 heartbeat IPC: 0.895398 cumulative IPC: 0.812388 (Simulation time: 0 hr 17 min 31 sec) 
Heartbeat CPU 0 instructions: 117000002 cycles: 148543368 heartbeat IPC: 0.90094 cumulative IPC: 0.813135 (Simulation time: 0 hr 17 min 40 sec) 
Heartbeat CPU 0 instructions: 118000001 cycles: 149653173 heartbeat IPC: 0.901058 cumulative IPC: 0.81387 (Simulation time: 0 hr 17 min 49 sec) 
Heartbeat CPU 0 instructions: 119000001 cycles: 150788693 heartbeat IPC: 0.880654 cumulative IPC: 0.814437 (Simulation time: 0 hr 17 min 58 sec) 
Heartbeat CPU 0 instructions: 120000000 cycles: 151951325 heartbeat IPC: 0.860117 cumulative IPC: 0.81483 (Simulation time: 0 hr 18 min 7 sec) 
Heartbeat CPU 0 instructions: 121000000 cycles: 153090541 heartbeat IPC: 0.877797 cumulative IPC: 0.815357 (Simulation time: 0 hr 18 min 15 sec) 
Heartbeat CPU 0 instructions: 122000000 cycles: 154199763 heartbeat IPC: 0.901533 cumulative IPC: 0.816053 (Simulation time: 0 hr 18 min 24 sec) 
Heartbeat CPU 0 instructions: 123000000 cycles: 155313215 heartbeat IPC: 0.898108 cumulative IPC: 0.816714 (Simulation time: 0 hr 18 min 33 sec) 
Heartbeat CPU 0 instructions: 124000002 cycles: 156471042 heartbeat IPC: 0.863689 cumulative IPC: 0.817104 (Simulation time: 0 hr 18 min 42 sec) 
Heartbeat CPU 0 instructions: 125000000 cycles: 157641707 heartbeat IPC: 0.854214 cumulative IPC: 0.817412 (Simulation time: 0 hr 18 min 51 sec) 
Heartbeat CPU 0 instructions: 126000001 cycles: 159590782 heartbeat IPC: 0.513064 cumulative IPC: 0.813254 (Simulation time: 0 hr 19 min 0 sec) 
Heartbeat CPU 0 instructions: 127000003 cycles: 161499079 heartbeat IPC: 0.524028 cumulative IPC: 0.809435 (Simulation time: 0 hr 19 min 8 sec) 
Heartbeat CPU 0 instructions: 128000000 cycles: 162684515 heartbeat IPC: 0.843569 cumulative IPC: 0.809713 (Simulation time: 0 hr 19 min 17 sec) 
Heartbeat CPU 0 instructions: 129000000 cycles: 163821516 heartbeat IPC: 0.879507 cumulative IPC: 0.810253 (Simulation time: 0 hr 19 min 26 sec) 
Heartbeat CPU 0 instructions: 130000003 cycles: 164948829 heartbeat IPC: 0.887068 cumulative IPC: 0.810838 (Simulation time: 0 hr 19 min 35 sec) 
Heartbeat CPU 0 instructions: 131000000 cycles: 166099045 heartbeat IPC: 0.869399 cumulative IPC: 0.81129 (Simulation time: 0 hr 19 min 44 sec) 
Heartbeat CPU 0 instructions: 132000000 cycles: 167255924 heartbeat IPC: 0.864395 cumulative IPC: 0.811699 (Simulation time: 0 hr 19 min 53 sec) 
Heartbeat CPU 0 instructions: 133000003 cycles: 168403918 heartbeat IPC: 0.871087 cumulative IPC: 0.812149 (Simulation time: 0 hr 20 min 2 sec) 
Heartbeat CPU 0 instructions: 134000000 cycles: 169544904 heartbeat IPC: 0.876432 cumulative IPC: 0.81263 (Simulation time: 0 hr 20 min 11 sec) 
Heartbeat CPU 0 instructions: 135000003 cycles: 170693531 heartbeat IPC: 0.870607 cumulative IPC: 0.813063 (Simulation time: 0 hr 20 min 20 sec) 
Heartbeat CPU 0 instructions: 136000000 cycles: 171830810 heartbeat IPC: 0.879289 cumulative IPC: 0.813549 (Simulation time: 0 hr 20 min 29 sec) 
Heartbeat CPU 0 instructions: 137000002 cycles: 172988448 heartbeat IPC: 0.86383 cumulative IPC: 0.813922 (Simulation time: 0 hr 20 min 39 sec) 
Heartbeat CPU 0 instructions: 138000000 cycles: 174122965 heartbeat IPC: 0.881431 cumulative IPC: 0.814409 (Simulation time: 0 hr 20 min 48 sec) 
Heartbeat CPU 0 instructions: 139000001 cycles: 175251930 heartbeat IPC: 0.885768 cumulative IPC: 0.814918 (Simulation time: 0 hr 20 min 57 sec) 
Heartbeat CPU 0 instructions: 140000001 cycles: 176398922 heartbeat IPC: 0.871846 cumulative IPC: 0.815328 (Simulation time: 0 hr 21 min 6 sec) 
Heartbeat CPU 0 instructions: 141000003 cycles: 177538030 heartbeat IPC: 0.877882 cumulative IPC: 0.815772 (Simulation time: 0 hr 21 min 16 sec) 
Heartbeat CPU 0 instructions: 142000003 cycles: 178689568 heartbeat IPC: 0.868404 cumulative IPC: 0.816146 (Simulation time: 0 hr 21 min 25 sec) 
Heartbeat CPU 0 instructions: 143000000 cycles: 179847828 heartbeat IPC: 0.863361 cumulative IPC: 0.816482 (Simulation time: 0 hr 21 min 34 sec) 
Heartbeat CPU 0 instructions: 144000000 cycles: 181010497 heartbeat IPC: 0.86009 cumulative IPC: 0.816791 (Simulation time: 0 hr 21 min 43 sec) 
Heartbeat CPU 0 instructions: 145000001 cycles: 182154194 heartbeat IPC: 0.874358 cumulative IPC: 0.81719 (Simulation time: 0 hr 21 min 52 sec) 
Heartbeat CPU 0 instructions: 146000002 cycles: 183306528 heartbeat IPC: 0.867805 cumulative IPC: 0.81754 (Simulation time: 0 hr 22 min 1 sec) 
Heartbeat CPU 0 instructions: 147000002 cycles: 184468034 heartbeat IPC: 0.860951 cumulative IPC: 0.817841 (Simulation time: 0 hr 22 min 10 sec) 
Heartbeat CPU 0 instructions: 148000000 cycles: 185620380 heartbeat IPC: 0.867793 cumulative IPC: 0.818182 (Simulation time: 0 hr 22 min 19 sec) 
Heartbeat CPU 0 instructions: 149000003 cycles: 186779605 heartbeat IPC: 0.862648 cumulative IPC: 0.818486 (Simulation time: 0 hr 22 min 28 sec) 
Heartbeat CPU 0 instructions: 150000000 cycles: 187966146 heartbeat IPC: 0.842783 cumulative IPC: 0.818655 (Simulation time: 0 hr 22 min 37 sec) 
Heartbeat CPU 0 instructions: 151000000 cycles: 189169227 heartbeat IPC: 0.831199 cumulative IPC: 0.818742 (Simulation time: 0 hr 22 min 46 sec) 
Heartbeat CPU 0 instructions: 152000003 cycles: 190346668 heartbeat IPC: 0.849302 cumulative IPC: 0.81895 (Simulation time: 0 hr 22 min 55 sec) 
Heartbeat CPU 0 instructions: 153000000 cycles: 191493682 heartbeat IPC: 0.871826 cumulative IPC: 0.819297 (Simulation time: 0 hr 23 min 4 sec) 
Heartbeat CPU 0 instructions: 154000000 cycles: 192636737 heartbeat IPC: 0.874849 cumulative IPC: 0.819659 (Simulation time: 0 hr 23 min 13 sec) 
Heartbeat CPU 0 instructions: 155000002 cycles: 193850017 heartbeat IPC: 0.824214 cumulative IPC: 0.81969 (Simulation time: 0 hr 23 min 22 sec) 
Heartbeat CPU 0 instructions: 156000000 cycles: 195067548 heartbeat IPC: 0.821333 cumulative IPC: 0.819701 (Simulation time: 0 hr 23 min 31 sec) 
Heartbeat CPU 0 instructions: 157000000 cycles: 196320303 heartbeat IPC: 0.798241 cumulative IPC: 0.819551 (Simulation time: 0 hr 23 min 39 sec) 
Heartbeat CPU 0 instructions: 158000001 cycles: 197437820 heartbeat IPC: 0.894842 cumulative IPC: 0.820017 (Simulation time: 0 hr 23 min 48 sec) 
Heartbeat CPU 0 instructions: 159000001 cycles: 198552127 heartbeat IPC: 0.897419 cumulative IPC: 0.820492 (Simulation time: 0 hr 23 min 58 sec) 
Heartbeat CPU 0 instructions: 160000003 cycles: 199673573 heartbeat IPC: 0.891708 cumulative IPC: 0.820929 (Simulation time: 0 hr 24 min 7 sec) 
Heartbeat CPU 0 instructions: 161000002 cycles: 200806978 heartbeat IPC: 0.882296 cumulative IPC: 0.821308 (Simulation time: 0 hr 24 min 15 sec) 
Heartbeat CPU 0 instructions: 162000001 cycles: 201921453 heartbeat IPC: 0.897283 cumulative IPC: 0.821766 (Simulation time: 0 hr 24 min 24 sec) 
Heartbeat CPU 0 instructions: 163000000 cycles: 203039461 heartbeat IPC: 0.894447 cumulative IPC: 0.822202 (Simulation time: 0 hr 24 min 33 sec) 
Heartbeat CPU 0 instructions: 164000003 cycles: 204149596 heartbeat IPC: 0.900794 cumulative IPC: 0.822668 (Simulation time: 0 hr 24 min 42 sec) 
Heartbeat CPU 0 instructions: 165000000 cycles: 205270791 heartbeat IPC: 0.891903 cumulative IPC: 0.82308 (Simulation time: 0 hr 24 min 51 sec) 
Heartbeat CPU 0 instructions: 166000003 cycles: 206396572 heartbeat IPC: 0.888275 cumulative IPC: 0.823468 (Simulation time: 0 hr 25 min 0 sec) 
Heartbeat CPU 0 instructions: 167000001 cycles: 207522656 heartbeat IPC: 0.888031 cumulative IPC: 0.823849 (Simulation time: 0 hr 25 min 9 sec) 
Heartbeat CPU 0 instructions: 168000000 cycles: 208627104 heartbeat IPC: 0.905429 cumulative IPC: 0.824319 (Simulation time: 0 hr 25 min 18 sec) 
Heartbeat CPU 0 instructions: 169000002 cycles: 209741275 heartbeat IPC: 0.89753 cumulative IPC: 0.824743 (Simulation time: 0 hr 25 min 27 sec) 
Heartbeat CPU 0 instructions: 170000000 cycles: 210851218 heartbeat IPC: 0.900945 cumulative IPC: 0.825179 (Simulation time: 0 hr 25 min 35 sec) 
Heartbeat CPU 0 instructions: 171000002 cycles: 211972130 heartbeat IPC: 0.892132 cumulative IPC: 0.825564 (Simulation time: 0 hr 25 min 44 sec) 
Heartbeat CPU 0 instructions: 172000001 cycles: 213081172 heartbeat IPC: 0.901678 cumulative IPC: 0.825994 (Simulation time: 0 hr 25 min 53 sec) 
Heartbeat CPU 0 instructions: 173000003 cycles: 214224512 heartbeat IPC: 0.874632 cumulative IPC: 0.826276 (Simulation time: 0 hr 26 min 2 sec) 
Heartbeat CPU 0 instructions: 174000000 cycles: 215350874 heartbeat IPC: 0.887811 cumulative IPC: 0.826625 (Simulation time: 0 hr 26 min 11 sec) 
Heartbeat CPU 0 instructions: 175000001 cycles: 216460658 heartbeat IPC: 0.901077 cumulative IPC: 0.827039 (Simulation time: 0 hr 26 min 20 sec) 
Heartbeat CPU 0 instructions: 176000000 cycles: 217581766 heartbeat IPC: 0.891974 cumulative IPC: 0.827402 (Simulation time: 0 hr 26 min 29 sec) 
Heartbeat CPU 0 instructions: 177000003 cycles: 218707246 heartbeat IPC: 0.888512 cumulative IPC: 0.827743 (Simulation time: 0 hr 26 min 37 sec) 
Heartbeat CPU 0 instructions: 178000000 cycles: 219809497 heartbeat IPC: 0.907232 cumulative IPC: 0.828175 (Simulation time: 0 hr 26 min 46 sec) 
Heartbeat CPU 0 instructions: 179000000 cycles: 221040767 heartbeat IPC: 0.81217 cumulative IPC: 0.828079 (Simulation time: 0 hr 26 min 56 sec) 
Heartbeat CPU 0 instructions: 180000000 cycles: 222331782 heartbeat IPC: 0.774584 cumulative IPC: 0.827742 (Simulation time: 0 hr 27 min 5 sec) 
Heartbeat CPU 0 instructions: 181000000 cycles: 223840293 heartbeat IPC: 0.662905 cumulative IPC: 0.82654 (Simulation time: 0 hr 27 min 14 sec) 
Heartbeat CPU 0 instructions: 182000002 cycles: 225432556 heartbeat IPC: 0.628038 cumulative IPC: 0.825024 (Simulation time: 0 hr 27 min 24 sec) 
Heartbeat CPU 0 instructions: 183000001 cycles: 227026696 heartbeat IPC: 0.627297 cumulative IPC: 0.823524 (Simulation time: 0 hr 27 min 34 sec) 
Heartbeat CPU 0 instructions: 184000000 cycles: 228627024 heartbeat IPC: 0.624871 cumulative IPC: 0.822022 (Simulation time: 0 hr 27 min 44 sec) 
Heartbeat CPU 0 instructions: 185000000 cycles: 230242748 heartbeat IPC: 0.618918 cumulative IPC: 0.820483 (Simulation time: 0 hr 27 min 54 sec) 
Heartbeat CPU 0 instructions: 186000000 cycles: 231824381 heartbeat IPC: 0.632258 cumulative IPC: 0.819098 (Simulation time: 0 hr 28 min 4 sec) 
Heartbeat CPU 0 instructions: 187000000 cycles: 233427264 heartbeat IPC: 0.623876 cumulative IPC: 0.817652 (Simulation time: 0 hr 28 min 14 sec) 
Heartbeat CPU 0 instructions: 188000000 cycles: 235013868 heartbeat IPC: 0.630277 cumulative IPC: 0.816289 (Simulation time: 0 hr 28 min 25 sec) 
Heartbeat CPU 0 instructions: 189000003 cycles: 236589517 heartbeat IPC: 0.634661 cumulative IPC: 0.814986 (Simulation time: 0 hr 28 min 35 sec) 
Heartbeat CPU 0 instructions: 190000002 cycles: 238206223 heartbeat IPC: 0.618541 cumulative IPC: 0.813551 (Simulation time: 0 hr 28 min 44 sec) 
Heartbeat CPU 0 instructions: 191000003 cycles: 239814798 heartbeat IPC: 0.621669 cumulative IPC: 0.812166 (Simulation time: 0 hr 28 min 54 sec) 
Heartbeat CPU 0 instructions: 192000002 cycles: 241436930 heartbeat IPC: 0.616472 cumulative IPC: 0.810751 (Simulation time: 0 hr 29 min 4 sec) 
Heartbeat CPU 0 instructions: 193000001 cycles: 243044114 heartbeat IPC: 0.622206 cumulative IPC: 0.809411 (Simulation time: 0 hr 29 min 14 sec) 
Heartbeat CPU 0 instructions: 194000000 cycles: 244367951 heartbeat IPC: 0.755379 cumulative IPC: 0.809097 (Simulation time: 0 hr 29 min 23 sec) 
Heartbeat CPU 0 instructions: 195000001 cycles: 245491541 heartbeat IPC: 0.890005 cumulative IPC: 0.809494 (Simulation time: 0 hr 29 min 32 sec) 
Heartbeat CPU 0 instructions: 196000001 cycles: 246619251 heartbeat IPC: 0.886753 cumulative IPC: 0.809874 (Simulation time: 0 hr 29 min 42 sec) 
Heartbeat CPU 0 instructions: 197000003 cycles: 247734320 heartbeat IPC: 0.896807 cumulative IPC: 0.810294 (Simulation time: 0 hr 29 min 50 sec) 
Heartbeat CPU 0 instructions: 198000000 cycles: 248873051 heartbeat IPC: 0.878168 cumulative IPC: 0.810627 (Simulation time: 0 hr 30 min 0 sec) 
Heartbeat CPU 0 instructions: 199000001 cycles: 249996940 heartbeat IPC: 0.889768 cumulative IPC: 0.811009 (Simulation time: 0 hr 30 min 9 sec) 
Heartbeat CPU 0 instructions: 200000000 cycles: 251114904 heartbeat IPC: 0.894482 cumulative IPC: 0.811407 (Simulation time: 0 hr 30 min 18 sec) 
Heartbeat CPU 0 instructions: 201000000 cycles: 252226719 heartbeat IPC: 0.89943 cumulative IPC: 0.811823 (Simulation time: 0 hr 30 min 27 sec) 
Heartbeat CPU 0 instructions: 202000001 cycles: 253349512 heartbeat IPC: 0.890637 cumulative IPC: 0.812198 (Simulation time: 0 hr 30 min 36 sec) 
Heartbeat CPU 0 instructions: 203000000 cycles: 254469519 heartbeat IPC: 0.892851 cumulative IPC: 0.812578 (Simulation time: 0 hr 30 min 45 sec) 
Heartbeat CPU 0 instructions: 204000000 cycles: 255602022 heartbeat IPC: 0.883 cumulative IPC: 0.812912 (Simulation time: 0 hr 30 min 54 sec) 
Heartbeat CPU 0 instructions: 205000000 cycles: 256712177 heartbeat IPC: 0.900775 cumulative IPC: 0.813319 (Simulation time: 0 hr 31 min 2 sec) 
Heartbeat CPU 0 instructions: 206000003 cycles: 257819739 heartbeat IPC: 0.902887 cumulative IPC: 0.813731 (Simulation time: 0 hr 31 min 11 sec) 
Heartbeat CPU 0 instructions: 207000002 cycles: 258936875 heartbeat IPC: 0.895145 cumulative IPC: 0.814107 (Simulation time: 0 hr 31 min 20 sec) 
Heartbeat CPU 0 instructions: 208000000 cycles: 260047577 heartbeat IPC: 0.90033 cumulative IPC: 0.814501 (Simulation time: 0 hr 31 min 29 sec) 
Heartbeat CPU 0 instructions: 209000000 cycles: 261170366 heartbeat IPC: 0.890639 cumulative IPC: 0.814851 (Simulation time: 0 hr 31 min 39 sec) 
Heartbeat CPU 0 instructions: 210000000 cycles: 262310730 heartbeat IPC: 0.876913 cumulative IPC: 0.815139 (Simulation time: 0 hr 31 min 47 sec) 
Heartbeat CPU 0 instructions: 211000003 cycles: 263444841 heartbeat IPC: 0.881751 cumulative IPC: 0.815446 (Simulation time: 0 hr 31 min 56 sec) 
Heartbeat CPU 0 instructions: 212000000 cycles: 264562928 heartbeat IPC: 0.894382 cumulative IPC: 0.815802 (Simulation time: 0 hr 32 min 5 sec) 
Heartbeat CPU 0 instructions: 213000000 cycles: 265686783 heartbeat IPC: 0.889795 cumulative IPC: 0.816136 (Simulation time: 0 hr 32 min 14 sec) 
Heartbeat CPU 0 instructions: 214000003 cycles: 266817114 heartbeat IPC: 0.884699 cumulative IPC: 0.816447 (Simulation time: 0 hr 32 min 23 sec) 
Heartbeat CPU 0 instructions: 215000000 cycles: 267938453 heartbeat IPC: 0.891788 cumulative IPC: 0.816783 (Simulation time: 0 hr 32 min 32 sec) 
Heartbeat CPU 0 instructions: 216000001 cycles: 269114002 heartbeat IPC: 0.850667 cumulative IPC: 0.816941 (Simulation time: 0 hr 32 min 41 sec) 
Heartbeat CPU 0 instructions: 217000000 cycles: 270414557 heartbeat IPC: 0.768902 cumulative IPC: 0.816695 (Simulation time: 0 hr 32 min 50 sec) 
Heartbeat CPU 0 instructions: 218000003 cycles: 271714607 heartbeat IPC: 0.769203 cumulative IPC: 0.816452 (Simulation time: 0 hr 32 min 59 sec) 
Heartbeat CPU 0 instructions: 219000000 cycles: 272830086 heartbeat IPC: 0.896473 cumulative IPC: 0.816801 (Simulation time: 0 hr 33 min 8 sec) 
Heartbeat CPU 0 instructions: 220000000 cycles: 273947595 heartbeat IPC: 0.894847 cumulative IPC: 0.817141 (Simulation time: 0 hr 33 min 17 sec) 
Heartbeat CPU 0 instructions: 221000000 cycles: 275068123 heartbeat IPC: 0.892436 cumulative IPC: 0.817467 (Simulation time: 0 hr 33 min 26 sec) 
Heartbeat CPU 0 instructions: 222000000 cycles: 276201772 heartbeat IPC: 0.882107 cumulative IPC: 0.81775 (Simulation time: 0 hr 33 min 34 sec) 
Heartbeat CPU 0 instructions: 223000000 cycles: 277323857 heartbeat IPC: 0.891198 cumulative IPC: 0.818067 (Simulation time: 0 hr 33 min 43 sec) 
Heartbeat CPU 0 instructions: 224000000 cycles: 278434394 heartbeat IPC: 0.900465 cumulative IPC: 0.818417 (Simulation time: 0 hr 33 min 52 sec) 
Heartbeat CPU 0 instructions: 225000000 cycles: 279556505 heartbeat IPC: 0.891177 cumulative IPC: 0.818727 (Simulation time: 0 hr 34 min 1 sec) 
Heartbeat CPU 0 instructions: 226000001 cycles: 280680088 heartbeat IPC: 0.890011 cumulative IPC: 0.819031 (Simulation time: 0 hr 34 min 10 sec) 
Heartbeat CPU 0 instructions: 227000003 cycles: 281802743 heartbeat IPC: 0.890747 cumulative IPC: 0.819335 (Simulation time: 0 hr 34 min 19 sec) 
Heartbeat CPU 0 instructions: 228000001 cycles: 282928673 heartbeat IPC: 0.888153 cumulative IPC: 0.819626 (Simulation time: 0 hr 34 min 28 sec) 
Heartbeat CPU 0 instructions: 229000000 cycles: 284034355 heartbeat IPC: 0.904418 cumulative IPC: 0.819977 (Simulation time: 0 hr 34 min 37 sec) 
Heartbeat CPU 0 instructions: 230000002 cycles: 285150380 heartbeat IPC: 0.896039 cumulative IPC: 0.820294 (Simulation time: 0 hr 34 min 46 sec) 
Heartbeat CPU 0 instructions: 231000000 cycles: 286261252 heartbeat IPC: 0.900192 cumulative IPC: 0.820624 (Simulation time: 0 hr 34 min 55 sec) 
Heartbeat CPU 0 instructions: 232000002 cycles: 287376524 heartbeat IPC: 0.896644 cumulative IPC: 0.820937 (Simulation time: 0 hr 35 min 4 sec) 
Heartbeat CPU 0 instructions: 233000000 cycles: 288499874 heartbeat IPC: 0.890193 cumulative IPC: 0.821224 (Simulation time: 0 hr 35 min 13 sec) 
Heartbeat CPU 0 instructions: 234000003 cycles: 289638141 heartbeat IPC: 0.878531 cumulative IPC: 0.821463 (Simulation time: 0 hr 35 min 22 sec) 
Heartbeat CPU 0 instructions: 235000002 cycles: 290774670 heartbeat IPC: 0.879871 cumulative IPC: 0.821705 (Simulation time: 0 hr 35 min 30 sec) 
Heartbeat CPU 0 instructions: 236000003 cycles: 291893938 heartbeat IPC: 0.893442 cumulative IPC: 0.821997 (Simulation time: 0 hr 35 min 40 sec) 
Heartbeat CPU 0 instructions: 237000001 cycles: 293010831 heartbeat IPC: 0.895339 cumulative IPC: 0.822294 (Simulation time: 0 hr 35 min 48 sec) 
Heartbeat CPU 0 instructions: 238000002 cycles: 294132008 heartbeat IPC: 0.891921 cumulative IPC: 0.822576 (Simulation time: 0 hr 35 min 57 sec) 
Heartbeat CPU 0 instructions: 239000003 cycles: 295255373 heartbeat IPC: 0.890184 cumulative IPC: 0.822849 (Simulation time: 0 hr 36 min 6 sec) 
Heartbeat CPU 0 instructions: 240000001 cycles: 296438634 heartbeat IPC: 0.84512 cumulative IPC: 0.822943 (Simulation time: 0 hr 36 min 15 sec) 
Heartbeat CPU 0 instructions: 241000000 cycles: 297735620 heartbeat IPC: 0.771018 cumulative IPC: 0.822703 (Simulation time: 0 hr 36 min 24 sec) 
Heartbeat CPU 0 instructions: 242000000 cycles: 299310296 heartbeat IPC: 0.635051 cumulative IPC: 0.821656 (Simulation time: 0 hr 36 min 32 sec) 
Heartbeat CPU 0 instructions: 243000000 cycles: 300557971 heartbeat IPC: 0.801491 cumulative IPC: 0.821568 (Simulation time: 0 hr 36 min 41 sec) 
Heartbeat CPU 0 instructions: 244000000 cycles: 301674134 heartbeat IPC: 0.895926 cumulative IPC: 0.821859 (Simulation time: 0 hr 36 min 50 sec) 
Heartbeat CPU 0 instructions: 245000001 cycles: 302793848 heartbeat IPC: 0.893086 cumulative IPC: 0.822138 (Simulation time: 0 hr 36 min 59 sec) 
Heartbeat CPU 0 instructions: 246000000 cycles: 303916736 heartbeat IPC: 0.89056 cumulative IPC: 0.822406 (Simulation time: 0 hr 37 min 8 sec) 
Heartbeat CPU 0 instructions: 247000003 cycles: 305046410 heartbeat IPC: 0.885214 cumulative IPC: 0.822652 (Simulation time: 0 hr 37 min 17 sec) 
Heartbeat CPU 0 instructions: 248000002 cycles: 306163060 heartbeat IPC: 0.895535 cumulative IPC: 0.822934 (Simulation time: 0 hr 37 min 26 sec) 
Heartbeat CPU 0 instructions: 249000001 cycles: 307286209 heartbeat IPC: 0.890353 cumulative IPC: 0.823195 (Simulation time: 0 hr 37 min 35 sec) 
Heartbeat CPU 0 instructions: 250000003 cycles: 308401082 heartbeat IPC: 0.896965 cumulative IPC: 0.823477 (Simulation time: 0 hr 37 min 44 sec) 
Heartbeat CPU 0 instructions: 251000000 cycles: 309516456 heartbeat IPC: 0.896558 cumulative IPC: 0.823755 (Simulation time: 0 hr 37 min 53 sec) 
Heartbeat CPU 0 instructions: 252000001 cycles: 310642218 heartbeat IPC: 0.888288 cumulative IPC: 0.824003 (Simulation time: 0 hr 38 min 2 sec) 
Heartbeat CPU 0 instructions: 253000000 cycles: 311757684 heartbeat IPC: 0.896485 cumulative IPC: 0.824277 (Simulation time: 0 hr 38 min 11 sec) 
Heartbeat CPU 0 instructions: 254000000 cycles: 312856633 heartbeat IPC: 0.90996 cumulative IPC: 0.824595 (Simulation time: 0 hr 38 min 19 sec) 
Heartbeat CPU 0 instructions: 255000000 cycles: 313966957 heartbeat IPC: 0.900638 cumulative IPC: 0.824879 (Simulation time: 0 hr 38 min 28 sec) 
Heartbeat CPU 0 instructions: 256000000 cycles: 315081435 heartbeat IPC: 0.897281 cumulative IPC: 0.82515 (Simulation time: 0 hr 38 min 37 sec) 
Heartbeat CPU 0 instructions: 257000002 cycles: 316205293 heartbeat IPC: 0.889794 cumulative IPC: 0.825393 (Simulation time: 0 hr 38 min 46 sec) 
Heartbeat CPU 0 instructions: 258000000 cycles: 317331000 heartbeat IPC: 0.888329 cumulative IPC: 0.825629 (Simulation time: 0 hr 38 min 55 sec) 
Heartbeat CPU 0 instructions: 259000001 cycles: 318458274 heartbeat IPC: 0.887097 cumulative IPC: 0.825859 (Simulation time: 0 hr 39 min 4 sec) 
Heartbeat CPU 0 instructions: 260000000 cycles: 319584794 heartbeat IPC: 0.887689 cumulative IPC: 0.826089 (Simulation time: 0 hr 39 min 13 sec) 
Heartbeat CPU 0 instructions: 261000002 cycles: 320711298 heartbeat IPC: 0.887704 cumulative IPC: 0.826317 (Simulation time: 0 hr 39 min 22 sec) 
Heartbeat CPU 0 instructions: 262000001 cycles: 321834676 heartbeat IPC: 0.890171 cumulative IPC: 0.826552 (Simulation time: 0 hr 39 min 30 sec) 
Heartbeat CPU 0 instructions: 263000000 cycles: 322956302 heartbeat IPC: 0.891562 cumulative IPC: 0.826791 (Simulation time: 0 hr 39 min 40 sec) 
Heartbeat CPU 0 instructions: 264000000 cycles: 324066498 heartbeat IPC: 0.900742 cumulative IPC: 0.827058 (Simulation time: 0 hr 39 min 49 sec) 
Heartbeat CPU 0 instructions: 265000001 cycles: 325324611 heartbeat IPC: 0.794842 cumulative IPC: 0.826927 (Simulation time: 0 hr 39 min 58 sec) 
Heartbeat CPU 0 instructions: 266000000 cycles: 326579765 heartbeat IPC: 0.796714 cumulative IPC: 0.826804 (Simulation time: 0 hr 40 min 7 sec) 
Heartbeat CPU 0 instructions: 267000001 cycles: 327727710 heartbeat IPC: 0.871123 cumulative IPC: 0.826968 (Simulation time: 0 hr 40 min 16 sec) 
Heartbeat CPU 0 instructions: 268000001 cycles: 328871141 heartbeat IPC: 0.874561 cumulative IPC: 0.827142 (Simulation time: 0 hr 40 min 25 sec) 
Heartbeat CPU 0 instructions: 269000003 cycles: 329979539 heartbeat IPC: 0.902205 cumulative IPC: 0.827408 (Simulation time: 0 hr 40 min 35 sec) 
Heartbeat CPU 0 instructions: 270000000 cycles: 331076048 heartbeat IPC: 0.911982 cumulative IPC: 0.827703 (Simulation time: 0 hr 40 min 44 sec) 
Heartbeat CPU 0 instructions: 271000000 cycles: 332201429 heartbeat IPC: 0.888588 cumulative IPC: 0.827921 (Simulation time: 0 hr 40 min 53 sec) 
Heartbeat CPU 0 instructions: 272000002 cycles: 333331541 heartbeat IPC: 0.88487 cumulative IPC: 0.828124 (Simulation time: 0 hr 41 min 2 sec) 
Heartbeat CPU 0 instructions: 273000003 cycles: 334443626 heartbeat IPC: 0.899213 cumulative IPC: 0.828373 (Simulation time: 0 hr 41 min 11 sec) 
Heartbeat CPU 0 instructions: 274000000 cycles: 335563426 heartbeat IPC: 0.893014 cumulative IPC: 0.8286 (Simulation time: 0 hr 41 min 20 sec) 
Heartbeat CPU 0 instructions: 275000000 cycles: 336663488 heartbeat IPC: 0.90904 cumulative IPC: 0.828877 (Simulation time: 0 hr 41 min 29 sec) 
Heartbeat CPU 0 instructions: 276000001 cycles: 337777338 heartbeat IPC: 0.897788 cumulative IPC: 0.829116 (Simulation time: 0 hr 41 min 38 sec) 
Heartbeat CPU 0 instructions: 277000003 cycles: 338898380 heartbeat IPC: 0.892029 cumulative IPC: 0.829335 (Simulation time: 0 hr 41 min 47 sec) 
Heartbeat CPU 0 instructions: 278000000 cycles: 340010502 heartbeat IPC: 0.899179 cumulative IPC: 0.829576 (Simulation time: 0 hr 41 min 57 sec) 
Heartbeat CPU 0 instructions: 279000000 cycles: 341106199 heartbeat IPC: 0.912661 cumulative IPC: 0.829857 (Simulation time: 0 hr 42 min 5 sec) 
Heartbeat CPU 0 instructions: 280000001 cycles: 342208668 heartbeat IPC: 0.907056 cumulative IPC: 0.830118 (Simulation time: 0 hr 42 min 14 sec) 
Heartbeat CPU 0 instructions: 281000001 cycles: 343311143 heartbeat IPC: 0.90705 cumulative IPC: 0.830378 (Simulation time: 0 hr 42 min 23 sec) 
Heartbeat CPU 0 instructions: 282000001 cycles: 344421784 heartbeat IPC: 0.900381 cumulative IPC: 0.830616 (Simulation time: 0 hr 42 min 32 sec) 
Heartbeat CPU 0 instructions: 283000000 cycles: 345551440 heartbeat IPC: 0.885224 cumulative IPC: 0.830803 (Simulation time: 0 hr 42 min 41 sec) 
Heartbeat CPU 0 instructions: 284000003 cycles: 346677221 heartbeat IPC: 0.888275 cumulative IPC: 0.831 (Simulation time: 0 hr 42 min 50 sec) 
Heartbeat CPU 0 instructions: 285000001 cycles: 347789682 heartbeat IPC: 0.898906 cumulative IPC: 0.831228 (Simulation time: 0 hr 42 min 59 sec) 
Heartbeat CPU 0 instructions: 286000000 cycles: 348905698 heartbeat IPC: 0.896044 cumulative IPC: 0.831446 (Simulation time: 0 hr 43 min 7 sec) 
Heartbeat CPU 0 instructions: 287000000 cycles: 350027936 heartbeat IPC: 0.891077 cumulative IPC: 0.831647 (Simulation time: 0 hr 43 min 16 sec) 
Heartbeat CPU 0 instructions: 288000001 cycles: 351144862 heartbeat IPC: 0.895315 cumulative IPC: 0.83186 (Simulation time: 0 hr 43 min 25 sec) 
Heartbeat CPU 0 instructions: 289000003 cycles: 352251347 heartbeat IPC: 0.903765 cumulative IPC: 0.832097 (Simulation time: 0 hr 43 min 34 sec) 
Heartbeat CPU 0 instructions: 290000002 cycles: 353394752 heartbeat IPC: 0.87458 cumulative IPC: 0.832241 (Simulation time: 0 hr 43 min 42 sec) 
Heartbeat CPU 0 instructions: 291000003 cycles: 354553880 heartbeat IPC: 0.862718 cumulative IPC: 0.832346 (Simulation time: 0 hr 43 min 51 sec) 
Heartbeat CPU 0 instructions: 292000000 cycles: 355681566 heartbeat IPC: 0.886769 cumulative IPC: 0.832527 (Simulation time: 0 hr 44 min 0 sec) 
Heartbeat CPU 0 instructions: 293000002 cycles: 356806692 heartbeat IPC: 0.888791 cumulative IPC: 0.832713 (Simulation time: 0 hr 44 min 9 sec) 
Heartbeat CPU 0 instructions: 294000000 cycles: 357925422 heartbeat IPC: 0.893869 cumulative IPC: 0.832914 (Simulation time: 0 hr 44 min 18 sec) 
Heartbeat CPU 0 instructions: 295000001 cycles: 359081837 heartbeat IPC: 0.864742 cumulative IPC: 0.833022 (Simulation time: 0 hr 44 min 27 sec) 
Heartbeat CPU 0 instructions: 296000000 cycles: 360263538 heartbeat IPC: 0.846237 cumulative IPC: 0.833067 (Simulation time: 0 hr 44 min 35 sec) 
Heartbeat CPU 0 instructions: 297000000 cycles: 361500488 heartbeat IPC: 0.80844 cumulative IPC: 0.832979 (Simulation time: 0 hr 44 min 44 sec) 
Heartbeat CPU 0 instructions: 298000000 cycles: 362621675 heartbeat IPC: 0.891912 cumulative IPC: 0.83317 (Simulation time: 0 hr 44 min 53 sec) 
Heartbeat CPU 0 instructions: 299000001 cycles: 363738566 heartbeat IPC: 0.895343 cumulative IPC: 0.83337 (Simulation time: 0 hr 45 min 2 sec) 
Heartbeat CPU 0 instructions: 300000001 cycles: 364856064 heartbeat IPC: 0.894856 cumulative IPC: 0.833568 (Simulation time: 0 hr 45 min 11 sec) 
Heartbeat CPU 0 instructions: 301000003 cycles: 365983588 heartbeat IPC: 0.886901 cumulative IPC: 0.83374 (Simulation time: 0 hr 45 min 20 sec) 
Heartbeat CPU 0 instructions: 302000000 cycles: 367101206 heartbeat IPC: 0.894757 cumulative IPC: 0.833935 (Simulation time: 0 hr 45 min 29 sec) 
Heartbeat CPU 0 instructions: 303000002 cycles: 368221884 heartbeat IPC: 0.892319 cumulative IPC: 0.834121 (Simulation time: 0 hr 45 min 38 sec) 
Heartbeat CPU 0 instructions: 304000003 cycles: 369328671 heartbeat IPC: 0.903517 cumulative IPC: 0.834339 (Simulation time: 0 hr 45 min 47 sec) 
Heartbeat CPU 0 instructions: 305000000 cycles: 370449766 heartbeat IPC: 0.891982 cumulative IPC: 0.834522 (Simulation time: 0 hr 45 min 55 sec) 
Heartbeat CPU 0 instructions: 306000000 cycles: 371571536 heartbeat IPC: 0.891448 cumulative IPC: 0.834702 (Simulation time: 0 hr 46 min 4 sec) 
Heartbeat CPU 0 instructions: 307000002 cycles: 372691517 heartbeat IPC: 0.892874 cumulative IPC: 0.834885 (Simulation time: 0 hr 46 min 13 sec) 
Heartbeat CPU 0 instructions: 308000000 cycles: 373792308 heartbeat IPC: 0.908436 cumulative IPC: 0.835112 (Simulation time: 0 hr 46 min 22 sec) 
Heartbeat CPU 0 instructions: 309000001 cycles: 374905797 heartbeat IPC: 0.898079 cumulative IPC: 0.835308 (Simulation time: 0 hr 46 min 31 sec) 
Heartbeat CPU 0 instructions: 310000000 cycles: 376021573 heartbeat IPC: 0.896236 cumulative IPC: 0.835497 (Simulation time: 0 hr 46 min 40 sec) 
Heartbeat CPU 0 instructions: 311000001 cycles: 377136308 heartbeat IPC: 0.897075 cumulative IPC: 0.835688 (Simulation time: 0 hr 46 min 49 sec) 
Heartbeat CPU 0 instructions: 312000000 cycles: 378249418 heartbeat IPC: 0.898383 cumulative IPC: 0.835881 (Simulation time: 0 hr 46 min 57 sec) 
Heartbeat CPU 0 instructions: 313000000 cycles: 379392182 heartbeat IPC: 0.875071 cumulative IPC: 0.836004 (Simulation time: 0 hr 47 min 6 sec) 
Heartbeat CPU 0 instructions: 314000003 cycles: 380518071 heartbeat IPC: 0.88819 cumulative IPC: 0.836166 (Simulation time: 0 hr 47 min 15 sec) 
Heartbeat CPU 0 instructions: 315000001 cycles: 381635434 heartbeat IPC: 0.894962 cumulative IPC: 0.836346 (Simulation time: 0 hr 47 min 24 sec) 
Heartbeat CPU 0 instructions: 316000001 cycles: 382763265 heartbeat IPC: 0.886658 cumulative IPC: 0.836501 (Simulation time: 0 hr 47 min 33 sec) 
Heartbeat CPU 0 instructions: 317000000 cycles: 383888658 heartbeat IPC: 0.888578 cumulative IPC: 0.836661 (Simulation time: 0 hr 47 min 42 sec) 
Heartbeat CPU 0 instructions: 318000000 cycles: 384999010 heartbeat IPC: 0.900615 cumulative IPC: 0.836854 (Simulation time: 0 hr 47 min 51 sec) 
Heartbeat CPU 0 instructions: 319000000 cycles: 386158804 heartbeat IPC: 0.862222 cumulative IPC: 0.836933 (Simulation time: 0 hr 48 min 0 sec) 
Heartbeat CPU 0 instructions: 320000001 cycles: 387344158 heartbeat IPC: 0.843631 cumulative IPC: 0.836955 (Simulation time: 0 hr 48 min 9 sec) 
Heartbeat CPU 0 instructions: 321000000 cycles: 388508625 heartbeat IPC: 0.858761 cumulative IPC: 0.837023 (Simulation time: 0 hr 48 min 18 sec) 
Heartbeat CPU 0 instructions: 322000002 cycles: 389679898 heartbeat IPC: 0.853774 cumulative IPC: 0.837076 (Simulation time: 0 hr 48 min 27 sec) 
Heartbeat CPU 0 instructions: 323000000 cycles: 390878747 heartbeat IPC: 0.834132 cumulative IPC: 0.837066 (Simulation time: 0 hr 48 min 36 sec) 
Heartbeat CPU 0 instructions: 324000001 cycles: 392015168 heartbeat IPC: 0.879956 cumulative IPC: 0.837196 (Simulation time: 0 hr 48 min 45 sec) 
Heartbeat CPU 0 instructions: 325000001 cycles: 393147691 heartbeat IPC: 0.882984 cumulative IPC: 0.837334 (Simulation time: 0 hr 48 min 54 sec) 
Heartbeat CPU 0 instructions: 326000000 cycles: 394283120 heartbeat IPC: 0.880723 cumulative IPC: 0.837465 (Simulation time: 0 hr 49 min 3 sec) 
Heartbeat CPU 0 instructions: 327000000 cycles: 395542054 heartbeat IPC: 0.794323 cumulative IPC: 0.837321 (Simulation time: 0 hr 49 min 12 sec) 
Heartbeat CPU 0 instructions: 328000003 cycles: 396666878 heartbeat IPC: 0.889031 cumulative IPC: 0.837475 (Simulation time: 0 hr 49 min 21 sec) 
Heartbeat CPU 0 instructions: 329000003 cycles: 397773961 heartbeat IPC: 0.903275 cumulative IPC: 0.837666 (Simulation time: 0 hr 49 min 30 sec) 
Heartbeat CPU 0 instructions: 330000000 cycles: 398904383 heartbeat IPC: 0.884623 cumulative IPC: 0.837805 (Simulation time: 0 hr 49 min 39 sec) 
Heartbeat CPU 0 instructions: 331000000 cycles: 400034274 heartbeat IPC: 0.885041 cumulative IPC: 0.837944 (Simulation time: 0 hr 49 min 47 sec) 
Heartbeat CPU 0 instructions: 332000000 cycles: 401161220 heartbeat IPC: 0.887354 cumulative IPC: 0.838089 (Simulation time: 0 hr 49 min 56 sec) 
Heartbeat CPU 0 instructions: 333000000 cycles: 402283024 heartbeat IPC: 0.891421 cumulative IPC: 0.838244 (Simulation time: 0 hr 50 min 5 sec) 
Heartbeat CPU 0 instructions: 334000001 cycles: 403396950 heartbeat IPC: 0.897727 cumulative IPC: 0.838416 (Simulation time: 0 hr 50 min 14 sec) 
Heartbeat CPU 0 instructions: 335000002 cycles: 404513954 heartbeat IPC: 0.895253 cumulative IPC: 0.83858 (Simulation time: 0 hr 50 min 23 sec) 
Heartbeat CPU 0 instructions: 336000001 cycles: 405648125 heartbeat IPC: 0.8817 cumulative IPC: 0.838705 (Simulation time: 0 hr 50 min 32 sec) 
Heartbeat CPU 0 instructions: 337000000 cycles: 406769317 heartbeat IPC: 0.891907 cumulative IPC: 0.838858 (Simulation time: 0 hr 50 min 41 sec) 
Heartbeat CPU 0 instructions: 338000001 cycles: 407873573 heartbeat IPC: 0.905588 cumulative IPC: 0.839047 (Simulation time: 0 hr 50 min 49 sec) 
Heartbeat CPU 0 instructions: 339000002 cycles: 408982191 heartbeat IPC: 0.902025 cumulative IPC: 0.839225 (Simulation time: 0 hr 50 min 58 sec) 
Heartbeat CPU 0 instructions: 340000002 cycles: 410093599 heartbeat IPC: 0.89976 cumulative IPC: 0.839396 (Simulation time: 0 hr 51 min 7 sec) 
Heartbeat CPU 0 instructions: 341000000 cycles: 411221592 heartbeat IPC: 0.886529 cumulative IPC: 0.839531 (Simulation time: 0 hr 51 min 16 sec) 
Heartbeat CPU 0 instructions: 342000002 cycles: 412348788 heartbeat IPC: 0.887159 cumulative IPC: 0.839667 (Simulation time: 0 hr 51 min 25 sec) 
Heartbeat CPU 0 instructions: 343000000 cycles: 413473013 heartbeat IPC: 0.8895 cumulative IPC: 0.839808 (Simulation time: 0 hr 51 min 34 sec) 
Heartbeat CPU 0 instructions: 344000003 cycles: 414604100 heartbeat IPC: 0.884108 cumulative IPC: 0.839934 (Simulation time: 0 hr 51 min 43 sec) 
Heartbeat CPU 0 instructions: 345000003 cycles: 415725461 heartbeat IPC: 0.891773 cumulative IPC: 0.84008 (Simulation time: 0 hr 51 min 51 sec) 
Heartbeat CPU 0 instructions: 346000000 cycles: 416857781 heartbeat IPC: 0.88314 cumulative IPC: 0.840202 (Simulation time: 0 hr 52 min 0 sec) 
Heartbeat CPU 0 instructions: 347000000 cycles: 417975821 heartbeat IPC: 0.894422 cumulative IPC: 0.840353 (Simulation time: 0 hr 52 min 9 sec) 
Heartbeat CPU 0 instructions: 348000001 cycles: 419091105 heartbeat IPC: 0.896634 cumulative IPC: 0.840509 (Simulation time: 0 hr 52 min 18 sec) 
Heartbeat CPU 0 instructions: 349000000 cycles: 420268655 heartbeat IPC: 0.84922 cumulative IPC: 0.840534 (Simulation time: 0 hr 52 min 27 sec) 
Heartbeat CPU 0 instructions: 350000000 cycles: 421451369 heartbeat IPC: 0.845513 cumulative IPC: 0.840549 (Simulation time: 0 hr 52 min 36 sec) 
Heartbeat CPU 0 instructions: 351000000 cycles: 422603433 heartbeat IPC: 0.868007 cumulative IPC: 0.840627 (Simulation time: 0 hr 52 min 44 sec) 
Heartbeat CPU 0 instructions: 352000000 cycles: 423781740 heartbeat IPC: 0.848675 cumulative IPC: 0.84065 (Simulation time: 0 hr 52 min 53 sec) 
Heartbeat CPU 0 instructions: 353000001 cycles: 424961164 heartbeat IPC: 0.847872 cumulative IPC: 0.840671 (Simulation time: 0 hr 53 min 2 sec) 
Heartbeat CPU 0 instructions: 354000000 cycles: 426071488 heartbeat IPC: 0.900637 cumulative IPC: 0.840834 (Simulation time: 0 hr 53 min 11 sec) 
Heartbeat CPU 0 instructions: 355000001 cycles: 427187616 heartbeat IPC: 0.895956 cumulative IPC: 0.840984 (Simulation time: 0 hr 53 min 20 sec) 
Heartbeat CPU 0 instructions: 356000003 cycles: 428353418 heartbeat IPC: 0.85778 cumulative IPC: 0.841031 (Simulation time: 0 hr 53 min 29 sec) 
Heartbeat CPU 0 instructions: 357000002 cycles: 429625266 heartbeat IPC: 0.786257 cumulative IPC: 0.840863 (Simulation time: 0 hr 53 min 37 sec) 
Heartbeat CPU 0 instructions: 358000000 cycles: 430746178 heartbeat IPC: 0.892129 cumulative IPC: 0.841002 (Simulation time: 0 hr 53 min 46 sec) 
Heartbeat CPU 0 instructions: 359000002 cycles: 431862279 heartbeat IPC: 0.895978 cumulative IPC: 0.841149 (Simulation time: 0 hr 53 min 55 sec) 
Heartbeat CPU 0 instructions: 360000000 cycles: 432988251 heartbeat IPC: 0.88812 cumulative IPC: 0.841277 (Simulation time: 0 hr 54 min 4 sec) 
Heartbeat CPU 0 instructions: 361000001 cycles: 434117767 heartbeat IPC: 0.885336 cumulative IPC: 0.841396 (Simulation time: 0 hr 54 min 13 sec) 
Heartbeat CPU 0 instructions: 362000001 cycles: 435249684 heartbeat IPC: 0.883457 cumulative IPC: 0.84151 (Simulation time: 0 hr 54 min 22 sec) 
Heartbeat CPU 0 instructions: 363000000 cycles: 436378286 heartbeat IPC: 0.886051 cumulative IPC: 0.84163 (Simulation time: 0 hr 54 min 30 sec) 
Heartbeat CPU 0 instructions: 364000000 cycles: 437493230 heartbeat IPC: 0.896906 cumulative IPC: 0.841776 (Simulation time: 0 hr 54 min 39 sec) 
Heartbeat CPU 0 instructions: 365000003 cycles: 438610174 heartbeat IPC: 0.895303 cumulative IPC: 0.841918 (Simulation time: 0 hr 54 min 49 sec) 
Heartbeat CPU 0 instructions: 366000000 cycles: 439741012 heartbeat IPC: 0.884297 cumulative IPC: 0.842031 (Simulation time: 0 hr 54 min 58 sec) 
Heartbeat CPU 0 instructions: 367000003 cycles: 440860345 heartbeat IPC: 0.893392 cumulative IPC: 0.842167 (Simulation time: 0 hr 55 min 6 sec) 
Heartbeat CPU 0 instructions: 368000002 cycles: 441960674 heartbeat IPC: 0.908818 cumulative IPC: 0.842339 (Simulation time: 0 hr 55 min 15 sec) 
Heartbeat CPU 0 instructions: 369000002 cycles: 443076390 heartbeat IPC: 0.896285 cumulative IPC: 0.842481 (Simulation time: 0 hr 55 min 24 sec) 
Heartbeat CPU 0 instructions: 370000000 cycles: 444188494 heartbeat IPC: 0.899195 cumulative IPC: 0.842628 (Simulation time: 0 hr 55 min 33 sec) 
Heartbeat CPU 0 instructions: 371000000 cycles: 445312737 heartbeat IPC: 0.889487 cumulative IPC: 0.842751 (Simulation time: 0 hr 55 min 42 sec) 
Heartbeat CPU 0 instructions: 372000001 cycles: 446443995 heartbeat IPC: 0.883973 cumulative IPC: 0.84286 (Simulation time: 0 hr 55 min 51 sec) 
Heartbeat CPU 0 instructions: 373000000 cycles: 447571421 heartbeat IPC: 0.886975 cumulative IPC: 0.842975 (Simulation time: 0 hr 56 min 0 sec) 
Heartbeat CPU 0 instructions: 374000000 cycles: 448700903 heartbeat IPC: 0.885362 cumulative IPC: 0.843086 (Simulation time: 0 hr 56 min 8 sec) 
Heartbeat CPU 0 instructions: 375000001 cycles: 449821402 heartbeat IPC: 0.89246 cumulative IPC: 0.843214 (Simulation time: 0 hr 56 min 17 sec) 
Heartbeat CPU 0 instructions: 376000002 cycles: 450946457 heartbeat IPC: 0.888846 cumulative IPC: 0.843332 (Simulation time: 0 hr 56 min 26 sec) 
Heartbeat CPU 0 instructions: 377000002 cycles: 452071930 heartbeat IPC: 0.888515 cumulative IPC: 0.843449 (Simulation time: 0 hr 56 min 35 sec) 
Heartbeat CPU 0 instructions: 378000002 cycles: 453185796 heartbeat IPC: 0.897774 cumulative IPC: 0.843588 (Simulation time: 0 hr 56 min 44 sec) 
Heartbeat CPU 0 instructions: 379000000 cycles: 454372127 heartbeat IPC: 0.842933 cumulative IPC: 0.843586 (Simulation time: 0 hr 56 min 53 sec) 
Heartbeat CPU 0 instructions: 380000003 cycles: 455582932 heartbeat IPC: 0.825899 cumulative IPC: 0.843537 (Simulation time: 0 hr 57 min 2 sec) 
Heartbeat CPU 0 instructions: 381000001 cycles: 456772019 heartbeat IPC: 0.84098 cumulative IPC: 0.84353 (Simulation time: 0 hr 57 min 11 sec) 
Heartbeat CPU 0 instructions: 382000001 cycles: 457965392 heartbeat IPC: 0.837961 cumulative IPC: 0.843515 (Simulation time: 0 hr 57 min 20 sec) 
Heartbeat CPU 0 instructions: 383000000 cycles: 459105991 heartbeat IPC: 0.876731 cumulative IPC: 0.843601 (Simulation time: 0 hr 57 min 28 sec) 
Heartbeat CPU 0 instructions: 384000001 cycles: 460271526 heartbeat IPC: 0.857976 cumulative IPC: 0.843639 (Simulation time: 0 hr 57 min 37 sec) 
Heartbeat CPU 0 instructions: 385000000 cycles: 461545300 heartbeat IPC: 0.785068 cumulative IPC: 0.843471 (Simulation time: 0 hr 57 min 46 sec) 
Heartbeat CPU 0 instructions: 386000000 cycles: 462646196 heartbeat IPC: 0.908351 cumulative IPC: 0.843631 (Simulation time: 0 hr 57 min 55 sec) 
Heartbeat CPU 0 instructions: 387000000 cycles: 463777136 heartbeat IPC: 0.88422 cumulative IPC: 0.843734 (Simulation time: 0 hr 58 min 3 sec) 
Heartbeat CPU 0 instructions: 388000002 cycles: 464899704 heartbeat IPC: 0.890816 cumulative IPC: 0.843852 (Simulation time: 0 hr 58 min 12 sec) 
Heartbeat CPU 0 instructions: 389000002 cycles: 466022083 heartbeat IPC: 0.890965 cumulative IPC: 0.84397 (Simulation time: 0 hr 58 min 21 sec) 
Heartbeat CPU 0 instructions: 390000000 cycles: 467148936 heartbeat IPC: 0.887425 cumulative IPC: 0.844078 (Simulation time: 0 hr 58 min 30 sec) 
Heartbeat CPU 0 instructions: 391000001 cycles: 468279787 heartbeat IPC: 0.884291 cumulative IPC: 0.844179 (Simulation time: 0 hr 58 min 39 sec) 
Heartbeat CPU 0 instructions: 392000000 cycles: 469384365 heartbeat IPC: 0.905322 cumulative IPC: 0.844329 (Simulation time: 0 hr 58 min 48 sec) 
Heartbeat CPU 0 instructions: 393000001 cycles: 470499785 heartbeat IPC: 0.896524 cumulative IPC: 0.844457 (Simulation time: 0 hr 58 min 57 sec) 
Heartbeat CPU 0 instructions: 394000002 cycles: 471607032 heartbeat IPC: 0.903142 cumulative IPC: 0.8446 (Simulation time: 0 hr 59 min 6 sec) 
Heartbeat CPU 0 instructions: 395000002 cycles: 472727770 heartbeat IPC: 0.892269 cumulative IPC: 0.844717 (Simulation time: 0 hr 59 min 15 sec) 
Heartbeat CPU 0 instructions: 396000000 cycles: 473859139 heartbeat IPC: 0.883883 cumulative IPC: 0.844814 (Simulation time: 0 hr 59 min 23 sec) 
Heartbeat CPU 0 instructions: 397000000 cycles: 474964896 heartbeat IPC: 0.904358 cumulative IPC: 0.844958 (Simulation time: 0 hr 59 min 32 sec) 
Heartbeat CPU 0 instructions: 398000003 cycles: 476066207 heartbeat IPC: 0.908011 cumulative IPC: 0.845109 (Simulation time: 0 hr 59 min 41 sec) 
Heartbeat CPU 0 instructions: 399000002 cycles: 477173074 heartbeat IPC: 0.90345 cumulative IPC: 0.845249 (Simulation time: 0 hr 59 min 50 sec) 
Heartbeat CPU 0 instructions: 400000002 cycles: 478277418 heartbeat IPC: 0.905515 cumulative IPC: 0.845394 (Simulation time: 0 hr 59 min 59 sec) 
Heartbeat CPU 0 instructions: 401000001 cycles: 479400790 heartbeat IPC: 0.890176 cumulative IPC: 0.845502 (Simulation time: 1 hr 0 min 8 sec) 
Heartbeat CPU 0 instructions: 402000002 cycles: 480522721 heartbeat IPC: 0.891321 cumulative IPC: 0.845613 (Simulation time: 1 hr 0 min 17 sec) 
Heartbeat CPU 0 instructions: 403000001 cycles: 481651640 heartbeat IPC: 0.885802 cumulative IPC: 0.845711 (Simulation time: 1 hr 0 min 26 sec) 
Heartbeat CPU 0 instructions: 404000000 cycles: 482770507 heartbeat IPC: 0.89376 cumulative IPC: 0.845826 (Simulation time: 1 hr 0 min 35 sec) 
Heartbeat CPU 0 instructions: 405000000 cycles: 483882490 heartbeat IPC: 0.899294 cumulative IPC: 0.845954 (Simulation time: 1 hr 0 min 44 sec) 
Heartbeat CPU 0 instructions: 406000001 cycles: 485007023 heartbeat IPC: 0.889259 cumulative IPC: 0.846058 (Simulation time: 1 hr 0 min 53 sec) 
Heartbeat CPU 0 instructions: 407000000 cycles: 486120942 heartbeat IPC: 0.89773 cumulative IPC: 0.84618 (Simulation time: 1 hr 1 min 2 sec) 
Heartbeat CPU 0 instructions: 408000000 cycles: 487232435 heartbeat IPC: 0.899691 cumulative IPC: 0.846307 (Simulation time: 1 hr 1 min 11 sec) 
Heartbeat CPU 0 instructions: 409000001 cycles: 488378013 heartbeat IPC: 0.872923 cumulative IPC: 0.846372 (Simulation time: 1 hr 1 min 21 sec) 
Heartbeat CPU 0 instructions: 410000002 cycles: 489538556 heartbeat IPC: 0.861667 cumulative IPC: 0.846409 (Simulation time: 1 hr 1 min 30 sec) 
Heartbeat CPU 0 instructions: 411000000 cycles: 490676443 heartbeat IPC: 0.87882 cumulative IPC: 0.846487 (Simulation time: 1 hr 1 min 39 sec) 
Heartbeat CPU 0 instructions: 412000000 cycles: 491790857 heartbeat IPC: 0.897333 cumulative IPC: 0.846606 (Simulation time: 1 hr 1 min 48 sec) 
Heartbeat CPU 0 instructions: 413000000 cycles: 492910060 heartbeat IPC: 0.893493 cumulative IPC: 0.846717 (Simulation time: 1 hr 1 min 57 sec) 
Heartbeat CPU 0 instructions: 414000000 cycles: 494073994 heartbeat IPC: 0.859155 cumulative IPC: 0.846747 (Simulation time: 1 hr 2 min 6 sec) 
Heartbeat CPU 0 instructions: 415000000 cycles: 495254499 heartbeat IPC: 0.847095 cumulative IPC: 0.846748 (Simulation time: 1 hr 2 min 15 sec) 
Heartbeat CPU 0 instructions: 416000002 cycles: 498180272 heartbeat IPC: 0.341791 cumulative IPC: 0.843678 (Simulation time: 1 hr 2 min 22 sec) 
Heartbeat CPU 0 instructions: 417000002 cycles: 499468845 heartbeat IPC: 0.776052 cumulative IPC: 0.843497 (Simulation time: 1 hr 2 min 31 sec) 
Heartbeat CPU 0 instructions: 418000000 cycles: 500587561 heartbeat IPC: 0.89388 cumulative IPC: 0.843614 (Simulation time: 1 hr 2 min 40 sec) 
Heartbeat CPU 0 instructions: 419000000 cycles: 501698282 heartbeat IPC: 0.900316 cumulative IPC: 0.843744 (Simulation time: 1 hr 2 min 48 sec) 
Heartbeat CPU 0 instructions: 420000000 cycles: 502826835 heartbeat IPC: 0.88609 cumulative IPC: 0.843842 (Simulation time: 1 hr 2 min 57 sec) 
Heartbeat CPU 0 instructions: 421000000 cycles: 503961303 heartbeat IPC: 0.88147 cumulative IPC: 0.84393 (Simulation time: 1 hr 3 min 6 sec) 
Heartbeat CPU 0 instructions: 422000003 cycles: 505076275 heartbeat IPC: 0.896886 cumulative IPC: 0.844051 (Simulation time: 1 hr 3 min 15 sec) 
Heartbeat CPU 0 instructions: 423000002 cycles: 506200067 heartbeat IPC: 0.889844 cumulative IPC: 0.844156 (Simulation time: 1 hr 3 min 24 sec) 
Heartbeat CPU 0 instructions: 424000001 cycles: 507314427 heartbeat IPC: 0.897375 cumulative IPC: 0.844277 (Simulation time: 1 hr 3 min 33 sec) 
Heartbeat CPU 0 instructions: 425000002 cycles: 508436626 heartbeat IPC: 0.891108 cumulative IPC: 0.844384 (Simulation time: 1 hr 3 min 42 sec) 
Heartbeat CPU 0 instructions: 426000003 cycles: 509561650 heartbeat IPC: 0.888871 cumulative IPC: 0.844485 (Simulation time: 1 hr 3 min 51 sec) 
Heartbeat CPU 0 instructions: 427000002 cycles: 510685119 heartbeat IPC: 0.890099 cumulative IPC: 0.844589 (Simulation time: 1 hr 3 min 59 sec) 
Heartbeat CPU 0 instructions: 428000000 cycles: 511791431 heartbeat IPC: 0.903902 cumulative IPC: 0.844722 (Simulation time: 1 hr 4 min 8 sec) 
Heartbeat CPU 0 instructions: 429000000 cycles: 512908119 heartbeat IPC: 0.895505 cumulative IPC: 0.844836 (Simulation time: 1 hr 4 min 17 sec) 
Heartbeat CPU 0 instructions: 430000001 cycles: 514020761 heartbeat IPC: 0.898763 cumulative IPC: 0.844957 (Simulation time: 1 hr 4 min 26 sec) 
Heartbeat CPU 0 instructions: 431000003 cycles: 515135028 heartbeat IPC: 0.897453 cumulative IPC: 0.845074 (Simulation time: 1 hr 4 min 35 sec) 
Heartbeat CPU 0 instructions: 432000001 cycles: 516250902 heartbeat IPC: 0.896157 cumulative IPC: 0.845188 (Simulation time: 1 hr 4 min 44 sec) 
Heartbeat CPU 0 instructions: 433000003 cycles: 517379809 heartbeat IPC: 0.885814 cumulative IPC: 0.84528 (Simulation time: 1 hr 4 min 53 sec) 
Heartbeat CPU 0 instructions: 434000000 cycles: 518513376 heartbeat IPC: 0.882168 cumulative IPC: 0.845363 (Simulation time: 1 hr 5 min 1 sec) 
Heartbeat CPU 0 instructions: 435000000 cycles: 519630321 heartbeat IPC: 0.895299 cumulative IPC: 0.845474 (Simulation time: 1 hr 5 min 10 sec) 
Heartbeat CPU 0 instructions: 436000002 cycles: 520761567 heartbeat IPC: 0.883983 cumulative IPC: 0.845561 (Simulation time: 1 hr 5 min 19 sec) 
Heartbeat CPU 0 instructions: 437000000 cycles: 521888461 heartbeat IPC: 0.887393 cumulative IPC: 0.845654 (Simulation time: 1 hr 5 min 28 sec) 
Heartbeat CPU 0 instructions: 438000000 cycles: 523001786 heartbeat IPC: 0.89821 cumulative IPC: 0.84577 (Simulation time: 1 hr 5 min 37 sec) 
Heartbeat CPU 0 instructions: 439000000 cycles: 524172698 heartbeat IPC: 0.854035 cumulative IPC: 0.845789 (Simulation time: 1 hr 5 min 46 sec) 
Heartbeat CPU 0 instructions: 440000000 cycles: 525361281 heartbeat IPC: 0.841338 cumulative IPC: 0.845778 (Simulation time: 1 hr 5 min 55 sec) 
Heartbeat CPU 0 instructions: 441000000 cycles: 526521487 heartbeat IPC: 0.861916 cumulative IPC: 0.845815 (Simulation time: 1 hr 6 min 4 sec) 
Heartbeat CPU 0 instructions: 442000003 cycles: 527707204 heartbeat IPC: 0.843374 cumulative IPC: 0.845809 (Simulation time: 1 hr 6 min 13 sec) 
Heartbeat CPU 0 instructions: 443000003 cycles: 528886741 heartbeat IPC: 0.84779 cumulative IPC: 0.845814 (Simulation time: 1 hr 6 min 22 sec) 
Heartbeat CPU 0 instructions: 444000003 cycles: 530003413 heartbeat IPC: 0.895518 cumulative IPC: 0.845922 (Simulation time: 1 hr 6 min 31 sec) 
Heartbeat CPU 0 instructions: 445000002 cycles: 531123723 heartbeat IPC: 0.892609 cumulative IPC: 0.846024 (Simulation time: 1 hr 6 min 40 sec) 
Heartbeat CPU 0 instructions: 446000000 cycles: 532297261 heartbeat IPC: 0.852122 cumulative IPC: 0.846038 (Simulation time: 1 hr 6 min 49 sec) 
Heartbeat CPU 0 instructions: 447000002 cycles: 533546844 heartbeat IPC: 0.800269 cumulative IPC: 0.845927 (Simulation time: 1 hr 6 min 58 sec) 
Heartbeat CPU 0 instructions: 448000003 cycles: 534655128 heartbeat IPC: 0.902297 cumulative IPC: 0.846048 (Simulation time: 1 hr 7 min 6 sec) 
Heartbeat CPU 0 instructions: 449000002 cycles: 535768007 heartbeat IPC: 0.898569 cumulative IPC: 0.84616 (Simulation time: 1 hr 7 min 15 sec) 
Heartbeat CPU 0 instructions: 450000002 cycles: 536903127 heartbeat IPC: 0.880964 cumulative IPC: 0.846236 (Simulation time: 1 hr 7 min 24 sec) 
Heartbeat CPU 0 instructions: 451000000 cycles: 538025776 heartbeat IPC: 0.890749 cumulative IPC: 0.846332 (Simulation time: 1 hr 7 min 33 sec) 
Heartbeat CPU 0 instructions: 452000000 cycles: 539144650 heartbeat IPC: 0.893756 cumulative IPC: 0.846434 (Simulation time: 1 hr 7 min 42 sec) 
Heartbeat CPU 0 instructions: 453000001 cycles: 540272113 heartbeat IPC: 0.886948 cumulative IPC: 0.846521 (Simulation time: 1 hr 7 min 51 sec) 
Heartbeat CPU 0 instructions: 454000000 cycles: 541385420 heartbeat IPC: 0.898224 cumulative IPC: 0.846631 (Simulation time: 1 hr 8 min 0 sec) 
Heartbeat CPU 0 instructions: 455000002 cycles: 542499778 heartbeat IPC: 0.897379 cumulative IPC: 0.846739 (Simulation time: 1 hr 8 min 9 sec) 
Heartbeat CPU 0 instructions: 456000003 cycles: 543634171 heartbeat IPC: 0.88153 cumulative IPC: 0.846813 (Simulation time: 1 hr 8 min 18 sec) 
Heartbeat CPU 0 instructions: 457000000 cycles: 544753699 heartbeat IPC: 0.893231 cumulative IPC: 0.846912 (Simulation time: 1 hr 8 min 27 sec) 
Heartbeat CPU 0 instructions: 458000003 cycles: 545855489 heartbeat IPC: 0.907617 cumulative IPC: 0.847038 (Simulation time: 1 hr 8 min 35 sec) 
Heartbeat CPU 0 instructions: 459000001 cycles: 546970987 heartbeat IPC: 0.896459 cumulative IPC: 0.847142 (Simulation time: 1 hr 8 min 44 sec) 
Heartbeat CPU 0 instructions: 460000001 cycles: 548086059 heartbeat IPC: 0.896803 cumulative IPC: 0.847247 (Simulation time: 1 hr 8 min 53 sec) 
Heartbeat CPU 0 instructions: 461000000 cycles: 549203083 heartbeat IPC: 0.895235 cumulative IPC: 0.847347 (Simulation time: 1 hr 9 min 2 sec) 
Heartbeat CPU 0 instructions: 462000000 cycles: 550326819 heartbeat IPC: 0.889889 cumulative IPC: 0.847437 (Simulation time: 1 hr 9 min 11 sec) 
Heartbeat CPU 0 instructions: 463000000 cycles: 551461060 heartbeat IPC: 0.881647 cumulative IPC: 0.84751 (Simulation time: 1 hr 9 min 20 sec) 
Heartbeat CPU 0 instructions: 464000001 cycles: 552591291 heartbeat IPC: 0.884776 cumulative IPC: 0.847588 (Simulation time: 1 hr 9 min 28 sec) 
Heartbeat CPU 0 instructions: 465000000 cycles: 553713264 heartbeat IPC: 0.891286 cumulative IPC: 0.84768 (Simulation time: 1 hr 9 min 37 sec) 
Heartbeat CPU 0 instructions: 466000001 cycles: 554834109 heartbeat IPC: 0.892185 cumulative IPC: 0.847772 (Simulation time: 1 hr 9 min 46 sec) 
Heartbeat CPU 0 instructions: 467000000 cycles: 555951370 heartbeat IPC: 0.895045 cumulative IPC: 0.84787 (Simulation time: 1 hr 9 min 55 sec) 
Heartbeat CPU 0 instructions: 468000000 cycles: 557068633 heartbeat IPC: 0.895044 cumulative IPC: 0.847968 (Simulation time: 1 hr 10 min 4 sec) 
Heartbeat CPU 0 instructions: 469000003 cycles: 558338129 heartbeat IPC: 0.787717 cumulative IPC: 0.847827 (Simulation time: 1 hr 10 min 12 sec) 
Heartbeat CPU 0 instructions: 470000000 cycles: 559626238 heartbeat IPC: 0.77633 cumulative IPC: 0.847657 (Simulation time: 1 hr 10 min 21 sec) 
Heartbeat CPU 0 instructions: 471000003 cycles: 561800969 heartbeat IPC: 0.459828 cumulative IPC: 0.846109 (Simulation time: 1 hr 10 min 30 sec) 
Heartbeat CPU 0 instructions: 472000002 cycles: 562915681 heartbeat IPC: 0.897092 cumulative IPC: 0.846213 (Simulation time: 1 hr 10 min 39 sec) 
Heartbeat CPU 0 instructions: 473000000 cycles: 564033362 heartbeat IPC: 0.894708 cumulative IPC: 0.846312 (Simulation time: 1 hr 10 min 48 sec) 
Heartbeat CPU 0 instructions: 474000002 cycles: 565154214 heartbeat IPC: 0.89218 cumulative IPC: 0.846406 (Simulation time: 1 hr 10 min 57 sec) 
Heartbeat CPU 0 instructions: 475000000 cycles: 566288845 heartbeat IPC: 0.881342 cumulative IPC: 0.846478 (Simulation time: 1 hr 11 min 5 sec) 
Heartbeat CPU 0 instructions: 476000000 cycles: 567416359 heartbeat IPC: 0.886907 cumulative IPC: 0.846561 (Simulation time: 1 hr 11 min 14 sec) 
Heartbeat CPU 0 instructions: 477000000 cycles: 568541669 heartbeat IPC: 0.888644 cumulative IPC: 0.846647 (Simulation time: 1 hr 11 min 23 sec) 
Heartbeat CPU 0 instructions: 478000000 cycles: 569659899 heartbeat IPC: 0.89427 cumulative IPC: 0.846743 (Simulation time: 1 hr 11 min 32 sec) 
Heartbeat CPU 0 instructions: 479000002 cycles: 570788726 heartbeat IPC: 0.885877 cumulative IPC: 0.846823 (Simulation time: 1 hr 11 min 41 sec) 
Heartbeat CPU 0 instructions: 480000003 cycles: 571905498 heartbeat IPC: 0.895439 cumulative IPC: 0.846921 (Simulation time: 1 hr 11 min 50 sec) 
Heartbeat CPU 0 instructions: 481000000 cycles: 573034437 heartbeat IPC: 0.885785 cumulative IPC: 0.847 (Simulation time: 1 hr 11 min 59 sec) 
Heartbeat CPU 0 instructions: 482000003 cycles: 574133298 heartbeat IPC: 0.910036 cumulative IPC: 0.847124 (Simulation time: 1 hr 12 min 8 sec) 
Heartbeat CPU 0 instructions: 483000000 cycles: 575243152 heartbeat IPC: 0.901017 cumulative IPC: 0.847231 (Simulation time: 1 hr 12 min 17 sec) 
Heartbeat CPU 0 instructions: 484000000 cycles: 576351823 heartbeat IPC: 0.901981 cumulative IPC: 0.84734 (Simulation time: 1 hr 12 min 26 sec) 
Heartbeat CPU 0 instructions: 485000003 cycles: 577465958 heartbeat IPC: 0.89756 cumulative IPC: 0.847439 (Simulation time: 1 hr 12 min 34 sec) 
Heartbeat CPU 0 instructions: 486000000 cycles: 578590802 heartbeat IPC: 0.889009 cumulative IPC: 0.847523 (Simulation time: 1 hr 12 min 43 sec) 
Heartbeat CPU 0 instructions: 487000003 cycles: 579728295 heartbeat IPC: 0.879129 cumulative IPC: 0.847586 (Simulation time: 1 hr 12 min 52 sec) 
Heartbeat CPU 0 instructions: 488000000 cycles: 580855450 heartbeat IPC: 0.887187 cumulative IPC: 0.847666 (Simulation time: 1 hr 13 min 1 sec) 
Heartbeat CPU 0 instructions: 489000003 cycles: 581981366 heartbeat IPC: 0.888168 cumulative IPC: 0.847746 (Simulation time: 1 hr 13 min 10 sec) 
Heartbeat CPU 0 instructions: 490000000 cycles: 583105346 heartbeat IPC: 0.889693 cumulative IPC: 0.84783 (Simulation time: 1 hr 13 min 19 sec) 
Heartbeat CPU 0 instructions: 491000002 cycles: 584225915 heartbeat IPC: 0.892406 cumulative IPC: 0.847918 (Simulation time: 1 hr 13 min 28 sec) 
Heartbeat CPU 0 instructions: 492000003 cycles: 585347155 heartbeat IPC: 0.891871 cumulative IPC: 0.848004 (Simulation time: 1 hr 13 min 37 sec) 
Heartbeat CPU 0 instructions: 493000002 cycles: 586521362 heartbeat IPC: 0.851638 cumulative IPC: 0.848012 (Simulation time: 1 hr 13 min 46 sec) 
Heartbeat CPU 0 instructions: 494000001 cycles: 587819354 heartbeat IPC: 0.77042 cumulative IPC: 0.847835 (Simulation time: 1 hr 13 min 55 sec) 
Heartbeat CPU 0 instructions: 495000000 cycles: 589108528 heartbeat IPC: 0.77569 cumulative IPC: 0.847673 (Simulation time: 1 hr 14 min 4 sec) 
Heartbeat CPU 0 instructions: 496000000 cycles: 590225648 heartbeat IPC: 0.895159 cumulative IPC: 0.847765 (Simulation time: 1 hr 14 min 12 sec) 
Heartbeat CPU 0 instructions: 497000001 cycles: 591346218 heartbeat IPC: 0.892404 cumulative IPC: 0.847852 (Simulation time: 1 hr 14 min 22 sec) 
Heartbeat CPU 0 instructions: 498000003 cycles: 592469113 heartbeat IPC: 0.890557 cumulative IPC: 0.847936 (Simulation time: 1 hr 14 min 31 sec) 
Heartbeat CPU 0 instructions: 499000003 cycles: 593610773 heartbeat IPC: 0.875917 cumulative IPC: 0.847991 (Simulation time: 1 hr 14 min 40 sec) 
Heartbeat CPU 0 instructions: 500000003 cycles: 594740192 heartbeat IPC: 0.885411 cumulative IPC: 0.848064 (Simulation time: 1 hr 14 min 49 sec) 
Heartbeat CPU 0 instructions: 501000003 cycles: 595860053 heartbeat IPC: 0.892968 cumulative IPC: 0.848151 (Simulation time: 1 hr 14 min 58 sec) 
Heartbeat CPU 0 instructions: 502000003 cycles: 596966558 heartbeat IPC: 0.903746 cumulative IPC: 0.848257 (Simulation time: 1 hr 15 min 7 sec) 
Heartbeat CPU 0 instructions: 503000000 cycles: 598090283 heartbeat IPC: 0.889895 cumulative IPC: 0.848338 (Simulation time: 1 hr 15 min 16 sec) 
Heartbeat CPU 0 instructions: 504000002 cycles: 599206828 heartbeat IPC: 0.895622 cumulative IPC: 0.848428 (Simulation time: 1 hr 15 min 24 sec) 
Heartbeat CPU 0 instructions: 505000002 cycles: 600330997 heartbeat IPC: 0.889546 cumulative IPC: 0.848508 (Simulation time: 1 hr 15 min 33 sec) 
Heartbeat CPU 0 instructions: 506000000 cycles: 601447141 heartbeat IPC: 0.89594 cumulative IPC: 0.848598 (Simulation time: 1 hr 15 min 42 sec) 
Heartbeat CPU 0 instructions: 507000001 cycles: 602560926 heartbeat IPC: 0.89784 cumulative IPC: 0.848692 (Simulation time: 1 hr 15 min 51 sec) 
Heartbeat CPU 0 instructions: 508000002 cycles: 603673929 heartbeat IPC: 0.898471 cumulative IPC: 0.848786 (Simulation time: 1 hr 16 min 0 sec) 
Heartbeat CPU 0 instructions: 509000001 cycles: 604786062 heartbeat IPC: 0.899172 cumulative IPC: 0.848882 (Simulation time: 1 hr 16 min 9 sec) 
Heartbeat CPU 0 instructions: 510000000 cycles: 605908735 heartbeat IPC: 0.89073 cumulative IPC: 0.848961 (Simulation time: 1 hr 16 min 18 sec) 
Finished CPU 0 instructions: 500000003 cycles: 588954889 cumulative IPC: 0.848961 (Simulation time: 1 hr 16 min 18 sec) 

ChampSim completed all CPUs

Region of Interest Statistics

CPU 0 cumulative IPC: 0.848961 instructions: 500000003 cycles: 588954889
L1D TOTAL     ACCESS:  149686906  HIT:  142247512  MISS:    7439394
L1D LOAD      ACCESS:   99998441  HIT:   92566244  MISS:    7432197
L1D RFO       ACCESS:   49688465  HIT:   49681268  MISS:       7197
L1D PREFETCH  ACCESS:          0  HIT:          0  MISS:          0
L1D WRITEBACK ACCESS:          0  HIT:          0  MISS:          0
L1D PREFETCH  REQUESTED:          0  ISSUED:          0  USEFUL:          0  USELESS:          0  UAC CORRECT:          0
L1D AVERAGE MISS LATENCY: 37.2208 cycles
L1I TOTAL     ACCESS:  115074619  HIT:  115074475  MISS:        144
L1I LOAD      ACCESS:  115074619  HIT:  115074475  MISS:        144
L1I RFO       ACCESS:          0  HIT:          0  MISS:          0
L1I PREFETCH  ACCESS:          0  HIT:          0  MISS:          0
L1I WRITEBACK ACCESS:          0  HIT:          0  MISS:          0
L1I PREFETCH  REQUESTED:          0  ISSUED:          0  USEFUL:          0  USELESS:          0  UAC CORRECT:          0
L1I AVERAGE MISS LATENCY: 234.451 cycles
L2C TOTAL     ACCESS:    7523813  HIT:    3178130  MISS:    4345683
L2C LOAD      ACCESS:    7432333  HIT:    3093022  MISS:    4339311
L2C RFO       ACCESS:       7197  HIT:       1277  MISS:       5920
L2C PREFETCH  ACCESS:          0  HIT:          0  MISS:          0
L2C WRITEBACK ACCESS:      84283  HIT:      83831  MISS:        452
L2C PREFETCH  REQUESTED:          0  ISSUED:          0  USEFUL:          0  USELESS:          0  UAC CORRECT:          0
L2C AVERAGE MISS LATENCY: 39.6456 cycles
LLC TOTAL     ACCESS:    8148233  HIT:    3680946  MISS:    4467287
LLC LOAD      ACCESS:    4339311  HIT:    3587983  MISS:     751328
LLC RFO       ACCESS:       5920  HIT:        267  MISS:       5653
LLC PREFETCH  ACCESS:    3751549  HIT:      49562  MISS:    3701987
LLC WRITEBACK ACCESS:      51453  HIT:      43134  MISS:       8319
LLC PREFETCH  REQUESTED:    4339167  ISSUED:    4330565  USEFUL:    3559826  USELESS:     141704  UAC CORRECT:    1002177
LLC AVERAGE MISS LATENCY: 98.1335 cycles
Major fault: 0 Minor fault: 11114

DRAM Statistics
 CHANNEL 0
 RQ ROW_BUFFER_HIT:    2144217  ROW_BUFFER_MISS:      86340
 DBUS_CONGESTED:      99944
 WQ ROW_BUFFER_HIT:      21605  ROW_BUFFER_MISS:       3514  FULL:          0

 CHANNEL 1
 RQ ROW_BUFFER_HIT:    2141568  ROW_BUFFER_MISS:      86842
 DBUS_CONGESTED:      99944
 WQ ROW_BUFFER_HIT:      21755  ROW_BUFFER_MISS:       3589  FULL:          0

 AVG_CONGESTED_CYCLE: 6

CPU 0 Branch Prediction Accuracy: 99.9237% MPKI: 0.181998 Average ROB Occupancy at Mispredict: 112.655

Branch types
NOT_BRANCH: 380780603 76.1561%
BRANCH_DIRECT_JUMP: 12349907 2.46998%
BRANCH_INDIRECT: 0 0%
BRANCH_CONDITIONAL: 94459171 18.8918%
BRANCH_DIRECT_CALL: 6205102 1.24102%
BRANCH_INDIRECT_CALL: 57 1.14e-05%
BRANCH_RETURN: 6205158 1.24103%
BRANCH_OTHER: 0 0%

