
*** ChampSim Multicore Out-of-Order Simulator ***

Warmup Instructions: 1000000
Prefetch Warmup Instructions: 10000000
Simulation Instructions: 500000000
Stat Printing Period: 1000000
Number of CPUs: 1
LLC sets: 2048
LLC ways: 16
Off-chip DRAM Size: 32768 MB Channels: 2 Width: 64-bit Data Rate: 1024 MT/s

CPU 0 runs /scratch/cluster/cmolder/ML-DPC/ChampSimTraces/spec17/605.mcf-s5.trace.xz
Read seed: 226
Heartbeat CPU 0 instructions: 1000001 cycles: 417980 heartbeat IPC: 2.39246 cumulative IPC: 2.39246 (Simulation time: 0 hr 0 min 6 sec) 

Warmup complete CPU 0 instructions: 1000001 cycles: 417980 (Simulation time: 0 hr 0 min 6 sec) 

Heartbeat CPU 0 instructions: 2000003 cycles: 2162418 heartbeat IPC: 0.573252 cumulative IPC: 0.573252 (Simulation time: 0 hr 0 min 14 sec) 
Heartbeat CPU 0 instructions: 3000001 cycles: 4309026 heartbeat IPC: 0.46585 cumulative IPC: 0.514001 (Simulation time: 0 hr 0 min 22 sec) 
Heartbeat CPU 0 instructions: 4000001 cycles: 6346623 heartbeat IPC: 0.490774 cumulative IPC: 0.506018 (Simulation time: 0 hr 0 min 31 sec) 
Heartbeat CPU 0 instructions: 5000001 cycles: 8696182 heartbeat IPC: 0.425612 cumulative IPC: 0.483197 (Simulation time: 0 hr 0 min 39 sec) 
Heartbeat CPU 0 instructions: 6000000 cycles: 11303360 heartbeat IPC: 0.383556 cumulative IPC: 0.459332 (Simulation time: 0 hr 0 min 48 sec) 
Heartbeat CPU 0 instructions: 7000002 cycles: 15072914 heartbeat IPC: 0.265284 cumulative IPC: 0.409418 (Simulation time: 0 hr 0 min 57 sec) 
Heartbeat CPU 0 instructions: 8000000 cycles: 17672310 heartbeat IPC: 0.384704 cumulative IPC: 0.405695 (Simulation time: 0 hr 1 min 6 sec) 
Heartbeat CPU 0 instructions: 9000000 cycles: 19488686 heartbeat IPC: 0.550547 cumulative IPC: 0.419491 (Simulation time: 0 hr 1 min 14 sec) 
Heartbeat CPU 0 instructions: 10000000 cycles: 21568700 heartbeat IPC: 0.480766 cumulative IPC: 0.425517 (Simulation time: 0 hr 1 min 22 sec) 

Warmup complete CPU 0 instructions: 10000002 cycles: 21568701 (Simulation time: 0 hr 1 min 22 sec) 

Heartbeat CPU 0 instructions: 11000000 cycles: 24113817 heartbeat IPC: 0.392909 cumulative IPC: 0.392909 (Simulation time: 0 hr 1 min 30 sec) 
Heartbeat CPU 0 instructions: 12000000 cycles: 26175399 heartbeat IPC: 0.485064 cumulative IPC: 0.43415 (Simulation time: 0 hr 1 min 38 sec) 
Heartbeat CPU 0 instructions: 13000000 cycles: 27942296 heartbeat IPC: 0.565964 cumulative IPC: 0.470692 (Simulation time: 0 hr 1 min 45 sec) 
Heartbeat CPU 0 instructions: 14000001 cycles: 29789962 heartbeat IPC: 0.541224 cumulative IPC: 0.486543 (Simulation time: 0 hr 1 min 53 sec) 
Heartbeat CPU 0 instructions: 15000001 cycles: 35255684 heartbeat IPC: 0.182958 cumulative IPC: 0.365311 (Simulation time: 0 hr 2 min 5 sec) 
Heartbeat CPU 0 instructions: 16000000 cycles: 39108870 heartbeat IPC: 0.259525 cumulative IPC: 0.342072 (Simulation time: 0 hr 2 min 16 sec) 
Heartbeat CPU 0 instructions: 17000003 cycles: 41848994 heartbeat IPC: 0.364948 cumulative IPC: 0.345163 (Simulation time: 0 hr 2 min 24 sec) 
Heartbeat CPU 0 instructions: 18000001 cycles: 44562843 heartbeat IPC: 0.36848 cumulative IPC: 0.347915 (Simulation time: 0 hr 2 min 33 sec) 
Heartbeat CPU 0 instructions: 19000001 cycles: 46666084 heartbeat IPC: 0.475457 cumulative IPC: 0.358603 (Simulation time: 0 hr 2 min 41 sec) 
Heartbeat CPU 0 instructions: 20000000 cycles: 49247546 heartbeat IPC: 0.387377 cumulative IPC: 0.361287 (Simulation time: 0 hr 2 min 50 sec) 
Heartbeat CPU 0 instructions: 21000000 cycles: 51419700 heartbeat IPC: 0.460373 cumulative IPC: 0.368497 (Simulation time: 0 hr 2 min 59 sec) 
Heartbeat CPU 0 instructions: 22000000 cycles: 53208789 heartbeat IPC: 0.558944 cumulative IPC: 0.379266 (Simulation time: 0 hr 3 min 6 sec) 
Heartbeat CPU 0 instructions: 23000000 cycles: 58035434 heartbeat IPC: 0.207183 cumulative IPC: 0.356489 (Simulation time: 0 hr 3 min 19 sec) 
Heartbeat CPU 0 instructions: 24000002 cycles: 61978189 heartbeat IPC: 0.25363 cumulative IPC: 0.346453 (Simulation time: 0 hr 3 min 29 sec) 
Heartbeat CPU 0 instructions: 25000000 cycles: 63460262 heartbeat IPC: 0.674729 cumulative IPC: 0.358067 (Simulation time: 0 hr 3 min 36 sec) 
Heartbeat CPU 0 instructions: 26000000 cycles: 64914913 heartbeat IPC: 0.68745 cumulative IPC: 0.369121 (Simulation time: 0 hr 3 min 43 sec) 
Heartbeat CPU 0 instructions: 27000000 cycles: 66536762 heartbeat IPC: 0.61658 cumulative IPC: 0.378046 (Simulation time: 0 hr 3 min 51 sec) 
Heartbeat CPU 0 instructions: 28000001 cycles: 68321667 heartbeat IPC: 0.560254 cumulative IPC: 0.385002 (Simulation time: 0 hr 3 min 58 sec) 
Heartbeat CPU 0 instructions: 29000002 cycles: 70206715 heartbeat IPC: 0.530491 cumulative IPC: 0.390641 (Simulation time: 0 hr 4 min 5 sec) 
Heartbeat CPU 0 instructions: 30000000 cycles: 73964969 heartbeat IPC: 0.26608 cumulative IPC: 0.381707 (Simulation time: 0 hr 4 min 15 sec) 
Heartbeat CPU 0 instructions: 31000000 cycles: 75604768 heartbeat IPC: 0.609831 cumulative IPC: 0.388629 (Simulation time: 0 hr 4 min 23 sec) 
Heartbeat CPU 0 instructions: 32000001 cycles: 77700331 heartbeat IPC: 0.477199 cumulative IPC: 0.391936 (Simulation time: 0 hr 4 min 31 sec) 
Heartbeat CPU 0 instructions: 33000000 cycles: 79857575 heartbeat IPC: 0.463554 cumulative IPC: 0.394586 (Simulation time: 0 hr 4 min 39 sec) 
Heartbeat CPU 0 instructions: 34000000 cycles: 81760021 heartbeat IPC: 0.525639 cumulative IPC: 0.398729 (Simulation time: 0 hr 4 min 46 sec) 
Heartbeat CPU 0 instructions: 35000000 cycles: 84086338 heartbeat IPC: 0.429864 cumulative IPC: 0.399887 (Simulation time: 0 hr 4 min 55 sec) 
Heartbeat CPU 0 instructions: 36000000 cycles: 86516978 heartbeat IPC: 0.411414 cumulative IPC: 0.400319 (Simulation time: 0 hr 5 min 3 sec) 
Heartbeat CPU 0 instructions: 37000000 cycles: 90991433 heartbeat IPC: 0.223491 cumulative IPC: 0.388922 (Simulation time: 0 hr 5 min 16 sec) 
Heartbeat CPU 0 instructions: 38000001 cycles: 93256980 heartbeat IPC: 0.441395 cumulative IPC: 0.39058 (Simulation time: 0 hr 5 min 24 sec) 
Heartbeat CPU 0 instructions: 39000000 cycles: 94871690 heartbeat IPC: 0.619306 cumulative IPC: 0.395618 (Simulation time: 0 hr 5 min 31 sec) 
Heartbeat CPU 0 instructions: 40000000 cycles: 97312426 heartbeat IPC: 0.409712 cumulative IPC: 0.396072 (Simulation time: 0 hr 5 min 40 sec) 
Heartbeat CPU 0 instructions: 41000003 cycles: 99048866 heartbeat IPC: 0.575893 cumulative IPC: 0.400102 (Simulation time: 0 hr 5 min 48 sec) 
Heartbeat CPU 0 instructions: 42000001 cycles: 100914237 heartbeat IPC: 0.536085 cumulative IPC: 0.403299 (Simulation time: 0 hr 5 min 56 sec) 
Heartbeat CPU 0 instructions: 43000000 cycles: 102716780 heartbeat IPC: 0.554771 cumulative IPC: 0.406664 (Simulation time: 0 hr 6 min 4 sec) 
Heartbeat CPU 0 instructions: 44000000 cycles: 105693445 heartbeat IPC: 0.335946 cumulative IPC: 0.404162 (Simulation time: 0 hr 6 min 14 sec) 
Heartbeat CPU 0 instructions: 45000002 cycles: 111512666 heartbeat IPC: 0.171845 cumulative IPC: 0.389131 (Simulation time: 0 hr 6 min 29 sec) 
Heartbeat CPU 0 instructions: 46000001 cycles: 114256747 heartbeat IPC: 0.36442 cumulative IPC: 0.3884 (Simulation time: 0 hr 6 min 38 sec) 
Heartbeat CPU 0 instructions: 47000003 cycles: 116550251 heartbeat IPC: 0.436015 cumulative IPC: 0.389549 (Simulation time: 0 hr 6 min 47 sec) 
Heartbeat CPU 0 instructions: 48000000 cycles: 119313182 heartbeat IPC: 0.361933 cumulative IPC: 0.388769 (Simulation time: 0 hr 6 min 56 sec) 
Heartbeat CPU 0 instructions: 49000000 cycles: 121709880 heartbeat IPC: 0.417241 cumulative IPC: 0.38945 (Simulation time: 0 hr 7 min 5 sec) 
Heartbeat CPU 0 instructions: 50000000 cycles: 123569044 heartbeat IPC: 0.537876 cumulative IPC: 0.392156 (Simulation time: 0 hr 7 min 14 sec) 
Heartbeat CPU 0 instructions: 51000003 cycles: 126053435 heartbeat IPC: 0.402514 cumulative IPC: 0.392402 (Simulation time: 0 hr 7 min 22 sec) 
Heartbeat CPU 0 instructions: 52000001 cycles: 128647522 heartbeat IPC: 0.385491 cumulative IPC: 0.392234 (Simulation time: 0 hr 7 min 31 sec) 
Heartbeat CPU 0 instructions: 53000001 cycles: 132105737 heartbeat IPC: 0.289167 cumulative IPC: 0.38901 (Simulation time: 0 hr 7 min 42 sec) 
Heartbeat CPU 0 instructions: 54000002 cycles: 133760834 heartbeat IPC: 0.604195 cumulative IPC: 0.392184 (Simulation time: 0 hr 7 min 50 sec) 
Heartbeat CPU 0 instructions: 55000000 cycles: 135517061 heartbeat IPC: 0.569401 cumulative IPC: 0.394916 (Simulation time: 0 hr 7 min 58 sec) 
Heartbeat CPU 0 instructions: 56000003 cycles: 137311580 heartbeat IPC: 0.557254 cumulative IPC: 0.397433 (Simulation time: 0 hr 8 min 5 sec) 
Heartbeat CPU 0 instructions: 57000000 cycles: 139158332 heartbeat IPC: 0.54149 cumulative IPC: 0.399695 (Simulation time: 0 hr 8 min 13 sec) 
Heartbeat CPU 0 instructions: 58000001 cycles: 140874747 heartbeat IPC: 0.58261 cumulative IPC: 0.402327 (Simulation time: 0 hr 8 min 19 sec) 
Heartbeat CPU 0 instructions: 59000001 cycles: 143330612 heartbeat IPC: 0.407189 cumulative IPC: 0.402425 (Simulation time: 0 hr 8 min 27 sec) 
Heartbeat CPU 0 instructions: 60000003 cycles: 148466325 heartbeat IPC: 0.194715 cumulative IPC: 0.394018 (Simulation time: 0 hr 8 min 38 sec) 
Heartbeat CPU 0 instructions: 61000000 cycles: 154510112 heartbeat IPC: 0.165459 cumulative IPC: 0.383628 (Simulation time: 0 hr 8 min 50 sec) 
Heartbeat CPU 0 instructions: 62000000 cycles: 158882344 heartbeat IPC: 0.228716 cumulative IPC: 0.378695 (Simulation time: 0 hr 9 min 0 sec) 
Heartbeat CPU 0 instructions: 63000001 cycles: 160766796 heartbeat IPC: 0.530659 cumulative IPC: 0.380752 (Simulation time: 0 hr 9 min 6 sec) 
Heartbeat CPU 0 instructions: 64000001 cycles: 162371759 heartbeat IPC: 0.623067 cumulative IPC: 0.383514 (Simulation time: 0 hr 9 min 12 sec) 
Heartbeat CPU 0 instructions: 65000000 cycles: 164535813 heartbeat IPC: 0.462095 cumulative IPC: 0.384704 (Simulation time: 0 hr 9 min 19 sec) 
Heartbeat CPU 0 instructions: 66000000 cycles: 167118697 heartbeat IPC: 0.387164 cumulative IPC: 0.384748 (Simulation time: 0 hr 9 min 27 sec) 
Heartbeat CPU 0 instructions: 67000001 cycles: 169860534 heartbeat IPC: 0.364719 cumulative IPC: 0.384377 (Simulation time: 0 hr 9 min 34 sec) 
Heartbeat CPU 0 instructions: 68000000 cycles: 171690085 heartbeat IPC: 0.546582 cumulative IPC: 0.386354 (Simulation time: 0 hr 9 min 41 sec) 
Heartbeat CPU 0 instructions: 69000002 cycles: 176161645 heartbeat IPC: 0.223636 cumulative IPC: 0.381647 (Simulation time: 0 hr 9 min 53 sec) 
Heartbeat CPU 0 instructions: 70000002 cycles: 180674265 heartbeat IPC: 0.221601 cumulative IPC: 0.377108 (Simulation time: 0 hr 10 min 3 sec) 
Heartbeat CPU 0 instructions: 71000003 cycles: 183510050 heartbeat IPC: 0.352636 cumulative IPC: 0.37668 (Simulation time: 0 hr 10 min 9 sec) 
Heartbeat CPU 0 instructions: 72000003 cycles: 186020890 heartbeat IPC: 0.398273 cumulative IPC: 0.377009 (Simulation time: 0 hr 10 min 16 sec) 
Heartbeat CPU 0 instructions: 73000000 cycles: 189253062 heartbeat IPC: 0.309389 cumulative IPC: 0.375706 (Simulation time: 0 hr 10 min 23 sec) 
Heartbeat CPU 0 instructions: 74000001 cycles: 191913598 heartbeat IPC: 0.375864 cumulative IPC: 0.375708 (Simulation time: 0 hr 10 min 30 sec) 
Heartbeat CPU 0 instructions: 75000000 cycles: 195151997 heartbeat IPC: 0.308794 cumulative IPC: 0.37446 (Simulation time: 0 hr 10 min 37 sec) 
Heartbeat CPU 0 instructions: 76000003 cycles: 198409787 heartbeat IPC: 0.306957 cumulative IPC: 0.373216 (Simulation time: 0 hr 10 min 43 sec) 
Heartbeat CPU 0 instructions: 77000000 cycles: 203182608 heartbeat IPC: 0.209519 cumulative IPC: 0.368914 (Simulation time: 0 hr 10 min 52 sec) 
Heartbeat CPU 0 instructions: 78000000 cycles: 208457162 heartbeat IPC: 0.189589 cumulative IPC: 0.363853 (Simulation time: 0 hr 11 min 0 sec) 
Heartbeat CPU 0 instructions: 79000002 cycles: 210113436 heartbeat IPC: 0.603766 cumulative IPC: 0.365961 (Simulation time: 0 hr 11 min 4 sec) 
Heartbeat CPU 0 instructions: 80000000 cycles: 211712704 heartbeat IPC: 0.625285 cumulative IPC: 0.368142 (Simulation time: 0 hr 11 min 10 sec) 
Heartbeat CPU 0 instructions: 81000002 cycles: 213451880 heartbeat IPC: 0.574986 cumulative IPC: 0.370017 (Simulation time: 0 hr 11 min 15 sec) 
Heartbeat CPU 0 instructions: 82000001 cycles: 215130588 heartbeat IPC: 0.595696 cumulative IPC: 0.371974 (Simulation time: 0 hr 11 min 19 sec) 
Heartbeat CPU 0 instructions: 83000002 cycles: 216910974 heartbeat IPC: 0.561677 cumulative IPC: 0.373703 (Simulation time: 0 hr 11 min 23 sec) 
Heartbeat CPU 0 instructions: 84000000 cycles: 221317131 heartbeat IPC: 0.226955 cumulative IPC: 0.370466 (Simulation time: 0 hr 11 min 30 sec) 
Heartbeat CPU 0 instructions: 85000001 cycles: 227000994 heartbeat IPC: 0.175937 cumulative IPC: 0.365084 (Simulation time: 0 hr 11 min 41 sec) 
Heartbeat CPU 0 instructions: 86000001 cycles: 230771154 heartbeat IPC: 0.265241 cumulative IPC: 0.363284 (Simulation time: 0 hr 11 min 50 sec) 
Heartbeat CPU 0 instructions: 87000001 cycles: 233280401 heartbeat IPC: 0.398526 cumulative IPC: 0.363702 (Simulation time: 0 hr 11 min 57 sec) 
Heartbeat CPU 0 instructions: 88000000 cycles: 235147013 heartbeat IPC: 0.535729 cumulative IPC: 0.365206 (Simulation time: 0 hr 12 min 3 sec) 
Heartbeat CPU 0 instructions: 89000001 cycles: 237774898 heartbeat IPC: 0.380535 cumulative IPC: 0.365392 (Simulation time: 0 hr 12 min 11 sec) 
Heartbeat CPU 0 instructions: 90000001 cycles: 239825386 heartbeat IPC: 0.487689 cumulative IPC: 0.366541 (Simulation time: 0 hr 12 min 17 sec) 
Heartbeat CPU 0 instructions: 91000002 cycles: 241849704 heartbeat IPC: 0.493994 cumulative IPC: 0.367712 (Simulation time: 0 hr 12 min 24 sec) 
Heartbeat CPU 0 instructions: 92000000 cycles: 244327518 heartbeat IPC: 0.403581 cumulative IPC: 0.368111 (Simulation time: 0 hr 12 min 32 sec) 
Heartbeat CPU 0 instructions: 93000001 cycles: 248994929 heartbeat IPC: 0.214252 cumulative IPC: 0.364954 (Simulation time: 0 hr 12 min 42 sec) 
Heartbeat CPU 0 instructions: 94000003 cycles: 253426351 heartbeat IPC: 0.225662 cumulative IPC: 0.362291 (Simulation time: 0 hr 12 min 51 sec) 
Heartbeat CPU 0 instructions: 95000000 cycles: 255569790 heartbeat IPC: 0.466539 cumulative IPC: 0.363246 (Simulation time: 0 hr 12 min 57 sec) 
Heartbeat CPU 0 instructions: 96000002 cycles: 257449942 heartbeat IPC: 0.531873 cumulative IPC: 0.36459 (Simulation time: 0 hr 13 min 4 sec) 
Heartbeat CPU 0 instructions: 97000003 cycles: 259190037 heartbeat IPC: 0.574682 cumulative IPC: 0.366129 (Simulation time: 0 hr 13 min 10 sec) 
Heartbeat CPU 0 instructions: 98000000 cycles: 260767438 heartbeat IPC: 0.633952 cumulative IPC: 0.367895 (Simulation time: 0 hr 13 min 16 sec) 
Heartbeat CPU 0 instructions: 99000000 cycles: 262316099 heartbeat IPC: 0.645719 cumulative IPC: 0.369682 (Simulation time: 0 hr 13 min 23 sec) 
Heartbeat CPU 0 instructions: 100000000 cycles: 263830569 heartbeat IPC: 0.660297 cumulative IPC: 0.371499 (Simulation time: 0 hr 13 min 29 sec) 
Heartbeat CPU 0 instructions: 101000002 cycles: 267728975 heartbeat IPC: 0.256516 cumulative IPC: 0.369678 (Simulation time: 0 hr 13 min 38 sec) 
Heartbeat CPU 0 instructions: 102000001 cycles: 272341582 heartbeat IPC: 0.216797 cumulative IPC: 0.366866 (Simulation time: 0 hr 13 min 48 sec) 
Heartbeat CPU 0 instructions: 103000001 cycles: 273954597 heartbeat IPC: 0.619957 cumulative IPC: 0.368483 (Simulation time: 0 hr 13 min 55 sec) 
Heartbeat CPU 0 instructions: 104000002 cycles: 275935326 heartbeat IPC: 0.504865 cumulative IPC: 0.369545 (Simulation time: 0 hr 14 min 1 sec) 
Heartbeat CPU 0 instructions: 105000001 cycles: 277897695 heartbeat IPC: 0.509588 cumulative IPC: 0.370617 (Simulation time: 0 hr 14 min 9 sec) 
Heartbeat CPU 0 instructions: 106000001 cycles: 279770723 heartbeat IPC: 0.533895 cumulative IPC: 0.371802 (Simulation time: 0 hr 14 min 17 sec) 
Heartbeat CPU 0 instructions: 107000002 cycles: 281665356 heartbeat IPC: 0.527807 cumulative IPC: 0.372938 (Simulation time: 0 hr 14 min 24 sec) 
Heartbeat CPU 0 instructions: 108000001 cycles: 283337104 heartbeat IPC: 0.598176 cumulative IPC: 0.374377 (Simulation time: 0 hr 14 min 31 sec) 
Heartbeat CPU 0 instructions: 109000001 cycles: 287064630 heartbeat IPC: 0.268274 cumulative IPC: 0.372887 (Simulation time: 0 hr 14 min 40 sec) 
Heartbeat CPU 0 instructions: 110000000 cycles: 288983113 heartbeat IPC: 0.521245 cumulative IPC: 0.373951 (Simulation time: 0 hr 14 min 48 sec) 
Heartbeat CPU 0 instructions: 111000001 cycles: 290504603 heartbeat IPC: 0.657251 cumulative IPC: 0.375554 (Simulation time: 0 hr 14 min 55 sec) 
Heartbeat CPU 0 instructions: 112000000 cycles: 292214173 heartbeat IPC: 0.584942 cumulative IPC: 0.376877 (Simulation time: 0 hr 15 min 1 sec) 
Heartbeat CPU 0 instructions: 113000000 cycles: 294443213 heartbeat IPC: 0.448624 cumulative IPC: 0.377463 (Simulation time: 0 hr 15 min 8 sec) 
Heartbeat CPU 0 instructions: 114000001 cycles: 296225505 heartbeat IPC: 0.561076 cumulative IPC: 0.378654 (Simulation time: 0 hr 15 min 14 sec) 
Heartbeat CPU 0 instructions: 115000002 cycles: 297943129 heartbeat IPC: 0.5822 cumulative IPC: 0.379919 (Simulation time: 0 hr 15 min 21 sec) 
Heartbeat CPU 0 instructions: 116000000 cycles: 300484877 heartbeat IPC: 0.393429 cumulative IPC: 0.380042 (Simulation time: 0 hr 15 min 28 sec) 
Heartbeat CPU 0 instructions: 117000000 cycles: 303302125 heartbeat IPC: 0.354956 cumulative IPC: 0.379792 (Simulation time: 0 hr 15 min 35 sec) 
Heartbeat CPU 0 instructions: 118000000 cycles: 304884162 heartbeat IPC: 0.632096 cumulative IPC: 0.381201 (Simulation time: 0 hr 15 min 42 sec) 
Heartbeat CPU 0 instructions: 119000002 cycles: 306639409 heartbeat IPC: 0.569722 cumulative IPC: 0.382361 (Simulation time: 0 hr 15 min 48 sec) 
Heartbeat CPU 0 instructions: 120000001 cycles: 308696929 heartbeat IPC: 0.486022 cumulative IPC: 0.383104 (Simulation time: 0 hr 15 min 55 sec) 
Heartbeat CPU 0 instructions: 121000000 cycles: 310653415 heartbeat IPC: 0.51112 cumulative IPC: 0.38397 (Simulation time: 0 hr 16 min 2 sec) 
Heartbeat CPU 0 instructions: 122000000 cycles: 312845858 heartbeat IPC: 0.456112 cumulative IPC: 0.384513 (Simulation time: 0 hr 16 min 9 sec) 
Heartbeat CPU 0 instructions: 123000002 cycles: 315137651 heartbeat IPC: 0.43634 cumulative IPC: 0.384918 (Simulation time: 0 hr 16 min 17 sec) 
Heartbeat CPU 0 instructions: 124000003 cycles: 318868979 heartbeat IPC: 0.268001 cumulative IPC: 0.383451 (Simulation time: 0 hr 16 min 26 sec) 
Heartbeat CPU 0 instructions: 125000002 cycles: 320761626 heartbeat IPC: 0.52836 cumulative IPC: 0.384367 (Simulation time: 0 hr 16 min 33 sec) 
Heartbeat CPU 0 instructions: 126000001 cycles: 322533013 heartbeat IPC: 0.564529 cumulative IPC: 0.385428 (Simulation time: 0 hr 16 min 39 sec) 
Heartbeat CPU 0 instructions: 127000003 cycles: 324168067 heartbeat IPC: 0.611602 cumulative IPC: 0.38665 (Simulation time: 0 hr 16 min 46 sec) 
Heartbeat CPU 0 instructions: 128000001 cycles: 325866757 heartbeat IPC: 0.588688 cumulative IPC: 0.387778 (Simulation time: 0 hr 16 min 53 sec) 
Heartbeat CPU 0 instructions: 129000001 cycles: 327551768 heartbeat IPC: 0.593468 cumulative IPC: 0.38891 (Simulation time: 0 hr 17 min 0 sec) 
Heartbeat CPU 0 instructions: 130000001 cycles: 329877739 heartbeat IPC: 0.429928 cumulative IPC: 0.38922 (Simulation time: 0 hr 17 min 7 sec) 
Heartbeat CPU 0 instructions: 131000003 cycles: 333674385 heartbeat IPC: 0.263391 cumulative IPC: 0.387689 (Simulation time: 0 hr 17 min 17 sec) 
Heartbeat CPU 0 instructions: 132000000 cycles: 339060739 heartbeat IPC: 0.185654 cumulative IPC: 0.384262 (Simulation time: 0 hr 17 min 30 sec) 
Heartbeat CPU 0 instructions: 133000002 cycles: 340856554 heartbeat IPC: 0.556851 cumulative IPC: 0.385232 (Simulation time: 0 hr 17 min 36 sec) 
Heartbeat CPU 0 instructions: 134000000 cycles: 342675136 heartbeat IPC: 0.549878 cumulative IPC: 0.386165 (Simulation time: 0 hr 17 min 43 sec) 
Heartbeat CPU 0 instructions: 135000002 cycles: 344076010 heartbeat IPC: 0.713841 cumulative IPC: 0.387588 (Simulation time: 0 hr 17 min 50 sec) 
Heartbeat CPU 0 instructions: 136000002 cycles: 345573588 heartbeat IPC: 0.667745 cumulative IPC: 0.388883 (Simulation time: 0 hr 17 min 56 sec) 
Heartbeat CPU 0 instructions: 137000002 cycles: 347422993 heartbeat IPC: 0.540714 cumulative IPC: 0.389745 (Simulation time: 0 hr 18 min 3 sec) 
Heartbeat CPU 0 instructions: 138000001 cycles: 349322135 heartbeat IPC: 0.526553 cumulative IPC: 0.390537 (Simulation time: 0 hr 18 min 10 sec) 
Heartbeat CPU 0 instructions: 139000001 cycles: 352069957 heartbeat IPC: 0.363925 cumulative IPC: 0.390316 (Simulation time: 0 hr 18 min 17 sec) 
Heartbeat CPU 0 instructions: 140000000 cycles: 354806242 heartbeat IPC: 0.365459 cumulative IPC: 0.390112 (Simulation time: 0 hr 18 min 26 sec) 
Heartbeat CPU 0 instructions: 141000000 cycles: 356394179 heartbeat IPC: 0.629748 cumulative IPC: 0.391249 (Simulation time: 0 hr 18 min 33 sec) 
Heartbeat CPU 0 instructions: 142000000 cycles: 357927215 heartbeat IPC: 0.6523 cumulative IPC: 0.392438 (Simulation time: 0 hr 18 min 40 sec) 
Heartbeat CPU 0 instructions: 143000000 cycles: 360003358 heartbeat IPC: 0.481662 cumulative IPC: 0.392986 (Simulation time: 0 hr 18 min 48 sec) 
Heartbeat CPU 0 instructions: 144000001 cycles: 361787852 heartbeat IPC: 0.560383 cumulative IPC: 0.393864 (Simulation time: 0 hr 18 min 55 sec) 
Heartbeat CPU 0 instructions: 145000003 cycles: 364338003 heartbeat IPC: 0.392134 cumulative IPC: 0.393851 (Simulation time: 0 hr 19 min 4 sec) 
Heartbeat CPU 0 instructions: 146000002 cycles: 366338912 heartbeat IPC: 0.499772 cumulative IPC: 0.394466 (Simulation time: 0 hr 19 min 11 sec) 
Heartbeat CPU 0 instructions: 147000000 cycles: 369969448 heartbeat IPC: 0.275441 cumulative IPC: 0.393225 (Simulation time: 0 hr 19 min 21 sec) 
Heartbeat CPU 0 instructions: 148000003 cycles: 371515597 heartbeat IPC: 0.64677 cumulative IPC: 0.394346 (Simulation time: 0 hr 19 min 28 sec) 
Heartbeat CPU 0 instructions: 149000003 cycles: 373048668 heartbeat IPC: 0.652286 cumulative IPC: 0.395471 (Simulation time: 0 hr 19 min 35 sec) 
Heartbeat CPU 0 instructions: 150000002 cycles: 375052801 heartbeat IPC: 0.498968 cumulative IPC: 0.396057 (Simulation time: 0 hr 19 min 42 sec) 
Heartbeat CPU 0 instructions: 151000002 cycles: 376873280 heartbeat IPC: 0.549306 cumulative IPC: 0.396843 (Simulation time: 0 hr 19 min 49 sec) 
Heartbeat CPU 0 instructions: 152000000 cycles: 378839159 heartbeat IPC: 0.508677 cumulative IPC: 0.397458 (Simulation time: 0 hr 19 min 57 sec) 
Heartbeat CPU 0 instructions: 153000002 cycles: 381046338 heartbeat IPC: 0.453068 cumulative IPC: 0.397799 (Simulation time: 0 hr 20 min 5 sec) 
Heartbeat CPU 0 instructions: 154000000 cycles: 385335610 heartbeat IPC: 0.233139 cumulative IPC: 0.395858 (Simulation time: 0 hr 20 min 15 sec) 
Heartbeat CPU 0 instructions: 155000001 cycles: 387375781 heartbeat IPC: 0.490155 cumulative IPC: 0.396384 (Simulation time: 0 hr 20 min 22 sec) 
Heartbeat CPU 0 instructions: 156000001 cycles: 388984633 heartbeat IPC: 0.621561 cumulative IPC: 0.39737 (Simulation time: 0 hr 20 min 29 sec) 
Heartbeat CPU 0 instructions: 157000001 cycles: 391673111 heartbeat IPC: 0.371958 cumulative IPC: 0.397185 (Simulation time: 0 hr 20 min 37 sec) 
Heartbeat CPU 0 instructions: 158000001 cycles: 393638758 heartbeat IPC: 0.508738 cumulative IPC: 0.397775 (Simulation time: 0 hr 20 min 44 sec) 
Heartbeat CPU 0 instructions: 159000003 cycles: 395787595 heartbeat IPC: 0.465369 cumulative IPC: 0.398163 (Simulation time: 0 hr 20 min 51 sec) 
Heartbeat CPU 0 instructions: 160000001 cycles: 398157554 heartbeat IPC: 0.421947 cumulative IPC: 0.398312 (Simulation time: 0 hr 20 min 59 sec) 
Heartbeat CPU 0 instructions: 161000003 cycles: 401739239 heartbeat IPC: 0.279199 cumulative IPC: 0.39719 (Simulation time: 0 hr 21 min 9 sec) 
Heartbeat CPU 0 instructions: 162000000 cycles: 407621587 heartbeat IPC: 0.17 cumulative IPC: 0.393728 (Simulation time: 0 hr 21 min 23 sec) 
Heartbeat CPU 0 instructions: 163000001 cycles: 409883634 heartbeat IPC: 0.442078 cumulative IPC: 0.39401 (Simulation time: 0 hr 21 min 31 sec) 
Heartbeat CPU 0 instructions: 164000002 cycles: 411457038 heartbeat IPC: 0.635565 cumulative IPC: 0.394985 (Simulation time: 0 hr 21 min 38 sec) 
Heartbeat CPU 0 instructions: 165000000 cycles: 413018251 heartbeat IPC: 0.640526 cumulative IPC: 0.395964 (Simulation time: 0 hr 21 min 46 sec) 
Heartbeat CPU 0 instructions: 166000001 cycles: 415122967 heartbeat IPC: 0.475124 cumulative IPC: 0.396388 (Simulation time: 0 hr 21 min 53 sec) 
Heartbeat CPU 0 instructions: 167000002 cycles: 416859487 heartbeat IPC: 0.575865 cumulative IPC: 0.397176 (Simulation time: 0 hr 22 min 1 sec) 
Heartbeat CPU 0 instructions: 168000001 cycles: 418767360 heartbeat IPC: 0.524143 cumulative IPC: 0.397786 (Simulation time: 0 hr 22 min 8 sec) 
Heartbeat CPU 0 instructions: 169000000 cycles: 420953681 heartbeat IPC: 0.457389 cumulative IPC: 0.398112 (Simulation time: 0 hr 22 min 16 sec) 
Heartbeat CPU 0 instructions: 170000001 cycles: 424316649 heartbeat IPC: 0.297357 cumulative IPC: 0.397271 (Simulation time: 0 hr 22 min 25 sec) 
Heartbeat CPU 0 instructions: 171000002 cycles: 426197270 heartbeat IPC: 0.53174 cumulative IPC: 0.397896 (Simulation time: 0 hr 22 min 32 sec) 
Heartbeat CPU 0 instructions: 172000003 cycles: 427892961 heartbeat IPC: 0.589731 cumulative IPC: 0.398696 (Simulation time: 0 hr 22 min 39 sec) 
Heartbeat CPU 0 instructions: 173000000 cycles: 429492305 heartbeat IPC: 0.625254 cumulative IPC: 0.399585 (Simulation time: 0 hr 22 min 47 sec) 
Heartbeat CPU 0 instructions: 174000003 cycles: 431891847 heartbeat IPC: 0.416747 cumulative IPC: 0.399685 (Simulation time: 0 hr 22 min 55 sec) 
Heartbeat CPU 0 instructions: 175000000 cycles: 434125800 heartbeat IPC: 0.447636 cumulative IPC: 0.399945 (Simulation time: 0 hr 23 min 3 sec) 
Heartbeat CPU 0 instructions: 176000000 cycles: 438480831 heartbeat IPC: 0.229619 cumulative IPC: 0.398165 (Simulation time: 0 hr 23 min 14 sec) 
Heartbeat CPU 0 instructions: 177000000 cycles: 443248238 heartbeat IPC: 0.209758 cumulative IPC: 0.396035 (Simulation time: 0 hr 23 min 26 sec) 
Heartbeat CPU 0 instructions: 178000001 cycles: 445243798 heartbeat IPC: 0.501113 cumulative IPC: 0.39653 (Simulation time: 0 hr 23 min 33 sec) 
Heartbeat CPU 0 instructions: 179000002 cycles: 446824916 heartbeat IPC: 0.632464 cumulative IPC: 0.397407 (Simulation time: 0 hr 23 min 40 sec) 
Heartbeat CPU 0 instructions: 180000001 cycles: 448548265 heartbeat IPC: 0.580265 cumulative IPC: 0.398146 (Simulation time: 0 hr 23 min 47 sec) 
Heartbeat CPU 0 instructions: 181000000 cycles: 450180753 heartbeat IPC: 0.612561 cumulative IPC: 0.398962 (Simulation time: 0 hr 23 min 53 sec) 
Heartbeat CPU 0 instructions: 182000000 cycles: 451989272 heartbeat IPC: 0.552939 cumulative IPC: 0.399609 (Simulation time: 0 hr 24 min 1 sec) 
Heartbeat CPU 0 instructions: 183000003 cycles: 455311006 heartbeat IPC: 0.301048 cumulative IPC: 0.398854 (Simulation time: 0 hr 24 min 10 sec) 
Heartbeat CPU 0 instructions: 184000000 cycles: 461048893 heartbeat IPC: 0.17428 cumulative IPC: 0.395922 (Simulation time: 0 hr 24 min 25 sec) 
Heartbeat CPU 0 instructions: 185000000 cycles: 463065354 heartbeat IPC: 0.495918 cumulative IPC: 0.396379 (Simulation time: 0 hr 24 min 32 sec) 
Heartbeat CPU 0 instructions: 186000003 cycles: 464715777 heartbeat IPC: 0.605907 cumulative IPC: 0.397159 (Simulation time: 0 hr 24 min 39 sec) 
Heartbeat CPU 0 instructions: 187000000 cycles: 466529630 heartbeat IPC: 0.551311 cumulative IPC: 0.397788 (Simulation time: 0 hr 24 min 47 sec) 
Heartbeat CPU 0 instructions: 188000001 cycles: 468582258 heartbeat IPC: 0.487181 cumulative IPC: 0.398198 (Simulation time: 0 hr 24 min 54 sec) 
Heartbeat CPU 0 instructions: 189000000 cycles: 470652700 heartbeat IPC: 0.482988 cumulative IPC: 0.398589 (Simulation time: 0 hr 25 min 2 sec) 
Heartbeat CPU 0 instructions: 190000001 cycles: 472549362 heartbeat IPC: 0.527243 cumulative IPC: 0.39913 (Simulation time: 0 hr 25 min 9 sec) 
Heartbeat CPU 0 instructions: 191000000 cycles: 477306878 heartbeat IPC: 0.210194 cumulative IPC: 0.397158 (Simulation time: 0 hr 25 min 21 sec) 
Heartbeat CPU 0 instructions: 192000001 cycles: 483102739 heartbeat IPC: 0.172537 cumulative IPC: 0.394337 (Simulation time: 0 hr 25 min 34 sec) 
Heartbeat CPU 0 instructions: 193000001 cycles: 489150515 heartbeat IPC: 0.16535 cumulative IPC: 0.391375 (Simulation time: 0 hr 25 min 47 sec) 
Heartbeat CPU 0 instructions: 194000000 cycles: 491890289 heartbeat IPC: 0.364993 cumulative IPC: 0.391222 (Simulation time: 0 hr 25 min 56 sec) 
Heartbeat CPU 0 instructions: 195000001 cycles: 493365456 heartbeat IPC: 0.67789 cumulative IPC: 0.392118 (Simulation time: 0 hr 26 min 3 sec) 
Heartbeat CPU 0 instructions: 196000001 cycles: 494862871 heartbeat IPC: 0.667818 cumulative IPC: 0.39299 (Simulation time: 0 hr 26 min 10 sec) 
Heartbeat CPU 0 instructions: 197000002 cycles: 496402252 heartbeat IPC: 0.649612 cumulative IPC: 0.393822 (Simulation time: 0 hr 26 min 18 sec) 
Heartbeat CPU 0 instructions: 198000000 cycles: 498009358 heartbeat IPC: 0.622235 cumulative IPC: 0.394593 (Simulation time: 0 hr 26 min 25 sec) 
Heartbeat CPU 0 instructions: 199000000 cycles: 499834492 heartbeat IPC: 0.547905 cumulative IPC: 0.395178 (Simulation time: 0 hr 26 min 32 sec) 
Heartbeat CPU 0 instructions: 200000002 cycles: 505093253 heartbeat IPC: 0.190159 cumulative IPC: 0.392948 (Simulation time: 0 hr 26 min 45 sec) 
Heartbeat CPU 0 instructions: 201000000 cycles: 508771976 heartbeat IPC: 0.271833 cumulative IPC: 0.392033 (Simulation time: 0 hr 26 min 55 sec) 
Heartbeat CPU 0 instructions: 202000000 cycles: 511205582 heartbeat IPC: 0.410913 cumulative IPC: 0.392127 (Simulation time: 0 hr 27 min 4 sec) 
Heartbeat CPU 0 instructions: 203000000 cycles: 512879804 heartbeat IPC: 0.597292 cumulative IPC: 0.392826 (Simulation time: 0 hr 27 min 11 sec) 
Heartbeat CPU 0 instructions: 204000000 cycles: 515123379 heartbeat IPC: 0.445717 cumulative IPC: 0.393067 (Simulation time: 0 hr 27 min 19 sec) 
Heartbeat CPU 0 instructions: 205000000 cycles: 517668583 heartbeat IPC: 0.392896 cumulative IPC: 0.393066 (Simulation time: 0 hr 27 min 28 sec) 
Heartbeat CPU 0 instructions: 206000002 cycles: 520459465 heartbeat IPC: 0.35831 cumulative IPC: 0.392872 (Simulation time: 0 hr 27 min 37 sec) 
Heartbeat CPU 0 instructions: 207000001 cycles: 523360236 heartbeat IPC: 0.344736 cumulative IPC: 0.392593 (Simulation time: 0 hr 27 min 45 sec) 
Heartbeat CPU 0 instructions: 208000001 cycles: 528576511 heartbeat IPC: 0.191708 cumulative IPC: 0.390527 (Simulation time: 0 hr 27 min 58 sec) 
Heartbeat CPU 0 instructions: 209000000 cycles: 534682662 heartbeat IPC: 0.163769 cumulative IPC: 0.387828 (Simulation time: 0 hr 28 min 12 sec) 
Heartbeat CPU 0 instructions: 210000000 cycles: 537811546 heartbeat IPC: 0.319603 cumulative IPC: 0.387415 (Simulation time: 0 hr 28 min 21 sec) 
Heartbeat CPU 0 instructions: 211000003 cycles: 539673810 heartbeat IPC: 0.536982 cumulative IPC: 0.387952 (Simulation time: 0 hr 28 min 28 sec) 
Heartbeat CPU 0 instructions: 212000002 cycles: 541298016 heartbeat IPC: 0.615685 cumulative IPC: 0.388664 (Simulation time: 0 hr 28 min 35 sec) 
Heartbeat CPU 0 instructions: 213000000 cycles: 543023823 heartbeat IPC: 0.579438 cumulative IPC: 0.389295 (Simulation time: 0 hr 28 min 43 sec) 
Heartbeat CPU 0 instructions: 214000000 cycles: 544680773 heartbeat IPC: 0.603518 cumulative IPC: 0.389974 (Simulation time: 0 hr 28 min 50 sec) 
Heartbeat CPU 0 instructions: 215000000 cycles: 546490863 heartbeat IPC: 0.552459 cumulative IPC: 0.390534 (Simulation time: 0 hr 28 min 57 sec) 
Heartbeat CPU 0 instructions: 216000001 cycles: 548563794 heartbeat IPC: 0.482409 cumulative IPC: 0.390895 (Simulation time: 0 hr 29 min 5 sec) 
Heartbeat CPU 0 instructions: 217000003 cycles: 553762313 heartbeat IPC: 0.192363 cumulative IPC: 0.388956 (Simulation time: 0 hr 29 min 18 sec) 
Heartbeat CPU 0 instructions: 218000001 cycles: 557039124 heartbeat IPC: 0.305174 cumulative IPC: 0.388443 (Simulation time: 0 hr 29 min 28 sec) 
Heartbeat CPU 0 instructions: 219000000 cycles: 558552975 heartbeat IPC: 0.660566 cumulative IPC: 0.389211 (Simulation time: 0 hr 29 min 35 sec) 
Heartbeat CPU 0 instructions: 220000000 cycles: 560299967 heartbeat IPC: 0.572412 cumulative IPC: 0.389805 (Simulation time: 0 hr 29 min 42 sec) 
Heartbeat CPU 0 instructions: 221000000 cycles: 562709329 heartbeat IPC: 0.415048 cumulative IPC: 0.389917 (Simulation time: 0 hr 29 min 50 sec) 
Heartbeat CPU 0 instructions: 222000001 cycles: 564458101 heartbeat IPC: 0.57183 cumulative IPC: 0.390503 (Simulation time: 0 hr 29 min 57 sec) 
Heartbeat CPU 0 instructions: 223000000 cycles: 566481247 heartbeat IPC: 0.494279 cumulative IPC: 0.390888 (Simulation time: 0 hr 30 min 5 sec) 
Heartbeat CPU 0 instructions: 224000000 cycles: 568361728 heartbeat IPC: 0.531779 cumulative IPC: 0.391373 (Simulation time: 0 hr 30 min 12 sec) 
Heartbeat CPU 0 instructions: 225000001 cycles: 572147936 heartbeat IPC: 0.264117 cumulative IPC: 0.390498 (Simulation time: 0 hr 30 min 23 sec) 
Heartbeat CPU 0 instructions: 226000002 cycles: 574427495 heartbeat IPC: 0.438682 cumulative IPC: 0.390696 (Simulation time: 0 hr 30 min 31 sec) 
Heartbeat CPU 0 instructions: 227000002 cycles: 576250518 heartbeat IPC: 0.548539 cumulative IPC: 0.391215 (Simulation time: 0 hr 30 min 39 sec) 
Heartbeat CPU 0 instructions: 228000000 cycles: 578470247 heartbeat IPC: 0.450505 cumulative IPC: 0.391452 (Simulation time: 0 hr 30 min 47 sec) 
Heartbeat CPU 0 instructions: 229000000 cycles: 580877827 heartbeat IPC: 0.415355 cumulative IPC: 0.391554 (Simulation time: 0 hr 30 min 55 sec) 
Heartbeat CPU 0 instructions: 230000000 cycles: 583178239 heartbeat IPC: 0.434705 cumulative IPC: 0.391731 (Simulation time: 0 hr 31 min 4 sec) 
Heartbeat CPU 0 instructions: 231000000 cycles: 585588178 heartbeat IPC: 0.414948 cumulative IPC: 0.39183 (Simulation time: 0 hr 31 min 12 sec) 
Heartbeat CPU 0 instructions: 232000000 cycles: 589121146 heartbeat IPC: 0.283048 cumulative IPC: 0.391153 (Simulation time: 0 hr 31 min 22 sec) 
Heartbeat CPU 0 instructions: 233000003 cycles: 590983539 heartbeat IPC: 0.536945 cumulative IPC: 0.39163 (Simulation time: 0 hr 31 min 30 sec) 
Heartbeat CPU 0 instructions: 234000001 cycles: 592976973 heartbeat IPC: 0.501646 cumulative IPC: 0.392014 (Simulation time: 0 hr 31 min 38 sec) 
Heartbeat CPU 0 instructions: 235000000 cycles: 595325943 heartbeat IPC: 0.425718 cumulative IPC: 0.392152 (Simulation time: 0 hr 31 min 46 sec) 
Heartbeat CPU 0 instructions: 236000000 cycles: 598081579 heartbeat IPC: 0.362893 cumulative IPC: 0.392012 (Simulation time: 0 hr 31 min 55 sec) 
Heartbeat CPU 0 instructions: 237000001 cycles: 599770802 heartbeat IPC: 0.591989 cumulative IPC: 0.392596 (Simulation time: 0 hr 32 min 3 sec) 
Heartbeat CPU 0 instructions: 238000000 cycles: 601896715 heartbeat IPC: 0.470386 cumulative IPC: 0.392881 (Simulation time: 0 hr 32 min 11 sec) 
Heartbeat CPU 0 instructions: 239000001 cycles: 606000417 heartbeat IPC: 0.243683 cumulative IPC: 0.391834 (Simulation time: 0 hr 32 min 23 sec) 
Heartbeat CPU 0 instructions: 240000000 cycles: 607553046 heartbeat IPC: 0.644068 cumulative IPC: 0.392502 (Simulation time: 0 hr 32 min 30 sec) 
Heartbeat CPU 0 instructions: 241000001 cycles: 609054658 heartbeat IPC: 0.665952 cumulative IPC: 0.393201 (Simulation time: 0 hr 32 min 38 sec) 
Heartbeat CPU 0 instructions: 242000000 cycles: 610704780 heartbeat IPC: 0.606015 cumulative IPC: 0.393797 (Simulation time: 0 hr 32 min 45 sec) 
Heartbeat CPU 0 instructions: 243000000 cycles: 613295790 heartbeat IPC: 0.38595 cumulative IPC: 0.393763 (Simulation time: 0 hr 32 min 54 sec) 
Heartbeat CPU 0 instructions: 244000001 cycles: 615871092 heartbeat IPC: 0.388304 cumulative IPC: 0.393739 (Simulation time: 0 hr 33 min 3 sec) 
Heartbeat CPU 0 instructions: 245000001 cycles: 618040721 heartbeat IPC: 0.460908 cumulative IPC: 0.393983 (Simulation time: 0 hr 33 min 11 sec) 
Heartbeat CPU 0 instructions: 246000002 cycles: 622829272 heartbeat IPC: 0.208832 cumulative IPC: 0.392509 (Simulation time: 0 hr 33 min 24 sec) 
Heartbeat CPU 0 instructions: 247000001 cycles: 628637304 heartbeat IPC: 0.172175 cumulative IPC: 0.390401 (Simulation time: 0 hr 33 min 38 sec) 
Heartbeat CPU 0 instructions: 248000001 cycles: 632208029 heartbeat IPC: 0.280055 cumulative IPC: 0.389755 (Simulation time: 0 hr 33 min 49 sec) 
Heartbeat CPU 0 instructions: 249000000 cycles: 634016303 heartbeat IPC: 0.553013 cumulative IPC: 0.390237 (Simulation time: 0 hr 33 min 56 sec) 
Heartbeat CPU 0 instructions: 250000001 cycles: 636165609 heartbeat IPC: 0.465267 cumulative IPC: 0.3905 (Simulation time: 0 hr 34 min 5 sec) 
Heartbeat CPU 0 instructions: 251000000 cycles: 638135148 heartbeat IPC: 0.507733 cumulative IPC: 0.390874 (Simulation time: 0 hr 34 min 13 sec) 
Heartbeat CPU 0 instructions: 252000002 cycles: 640026447 heartbeat IPC: 0.528738 cumulative IPC: 0.391296 (Simulation time: 0 hr 34 min 20 sec) 
Heartbeat CPU 0 instructions: 253000000 cycles: 641804107 heartbeat IPC: 0.562536 cumulative IPC: 0.391787 (Simulation time: 0 hr 34 min 28 sec) 
Heartbeat CPU 0 instructions: 254000001 cycles: 644206201 heartbeat IPC: 0.416304 cumulative IPC: 0.391881 (Simulation time: 0 hr 34 min 36 sec) 
Heartbeat CPU 0 instructions: 255000001 cycles: 647121343 heartbeat IPC: 0.343036 cumulative IPC: 0.391654 (Simulation time: 0 hr 34 min 46 sec) 
Heartbeat CPU 0 instructions: 256000000 cycles: 648668372 heartbeat IPC: 0.6464 cumulative IPC: 0.392282 (Simulation time: 0 hr 34 min 54 sec) 
Heartbeat CPU 0 instructions: 257000000 cycles: 650335658 heartbeat IPC: 0.599777 cumulative IPC: 0.392832 (Simulation time: 0 hr 35 min 1 sec) 
Heartbeat CPU 0 instructions: 258000001 cycles: 652589447 heartbeat IPC: 0.443698 cumulative IPC: 0.393014 (Simulation time: 0 hr 35 min 9 sec) 
Heartbeat CPU 0 instructions: 259000002 cycles: 654286382 heartbeat IPC: 0.589298 cumulative IPC: 0.39354 (Simulation time: 0 hr 35 min 17 sec) 
Heartbeat CPU 0 instructions: 260000001 cycles: 656435019 heartbeat IPC: 0.465411 cumulative IPC: 0.393784 (Simulation time: 0 hr 35 min 25 sec) 
Heartbeat CPU 0 instructions: 261000001 cycles: 659063284 heartbeat IPC: 0.380479 cumulative IPC: 0.393729 (Simulation time: 0 hr 35 min 34 sec) 
Heartbeat CPU 0 instructions: 262000002 cycles: 662604599 heartbeat IPC: 0.282381 cumulative IPC: 0.393114 (Simulation time: 0 hr 35 min 45 sec) 
Heartbeat CPU 0 instructions: 263000002 cycles: 665114543 heartbeat IPC: 0.398415 cumulative IPC: 0.393134 (Simulation time: 0 hr 35 min 53 sec) 
Heartbeat CPU 0 instructions: 264000000 cycles: 667603622 heartbeat IPC: 0.401754 cumulative IPC: 0.393168 (Simulation time: 0 hr 36 min 2 sec) 
Heartbeat CPU 0 instructions: 265000003 cycles: 670791811 heartbeat IPC: 0.313659 cumulative IPC: 0.392777 (Simulation time: 0 hr 36 min 12 sec) 
Heartbeat CPU 0 instructions: 266000002 cycles: 672634673 heartbeat IPC: 0.542634 cumulative IPC: 0.393201 (Simulation time: 0 hr 36 min 20 sec) 
Heartbeat CPU 0 instructions: 267000001 cycles: 674545175 heartbeat IPC: 0.523422 cumulative IPC: 0.393582 (Simulation time: 0 hr 36 min 29 sec) 
Heartbeat CPU 0 instructions: 268000003 cycles: 677077251 heartbeat IPC: 0.394934 cumulative IPC: 0.393588 (Simulation time: 0 hr 36 min 37 sec) 
Heartbeat CPU 0 instructions: 269000000 cycles: 681535695 heartbeat IPC: 0.224293 cumulative IPC: 0.392444 (Simulation time: 0 hr 36 min 49 sec) 
Heartbeat CPU 0 instructions: 270000002 cycles: 683922239 heartbeat IPC: 0.419017 cumulative IPC: 0.39254 (Simulation time: 0 hr 36 min 58 sec) 
Heartbeat CPU 0 instructions: 271000000 cycles: 686004104 heartbeat IPC: 0.480338 cumulative IPC: 0.392815 (Simulation time: 0 hr 37 min 6 sec) 
Heartbeat CPU 0 instructions: 272000000 cycles: 688090128 heartbeat IPC: 0.479381 cumulative IPC: 0.393086 (Simulation time: 0 hr 37 min 15 sec) 
Heartbeat CPU 0 instructions: 273000000 cycles: 689876075 heartbeat IPC: 0.559927 cumulative IPC: 0.393532 (Simulation time: 0 hr 37 min 22 sec) 
Heartbeat CPU 0 instructions: 274000002 cycles: 691876503 heartbeat IPC: 0.499894 cumulative IPC: 0.393849 (Simulation time: 0 hr 37 min 31 sec) 
Heartbeat CPU 0 instructions: 275000000 cycles: 693918536 heartbeat IPC: 0.489707 cumulative IPC: 0.39414 (Simulation time: 0 hr 37 min 39 sec) 
Heartbeat CPU 0 instructions: 276000003 cycles: 699037908 heartbeat IPC: 0.195337 cumulative IPC: 0.392638 (Simulation time: 0 hr 37 min 52 sec) 
Heartbeat CPU 0 instructions: 277000001 cycles: 703230815 heartbeat IPC: 0.238498 cumulative IPC: 0.39169 (Simulation time: 0 hr 38 min 3 sec) 
Heartbeat CPU 0 instructions: 278000000 cycles: 705064010 heartbeat IPC: 0.545495 cumulative IPC: 0.392102 (Simulation time: 0 hr 38 min 11 sec) 
Heartbeat CPU 0 instructions: 279000001 cycles: 706686732 heartbeat IPC: 0.616249 cumulative IPC: 0.392633 (Simulation time: 0 hr 38 min 19 sec) 
Heartbeat CPU 0 instructions: 280000002 cycles: 708939811 heartbeat IPC: 0.443838 cumulative IPC: 0.392801 (Simulation time: 0 hr 38 min 28 sec) 
Heartbeat CPU 0 instructions: 281000002 cycles: 711869342 heartbeat IPC: 0.341352 cumulative IPC: 0.392583 (Simulation time: 0 hr 38 min 37 sec) 
Heartbeat CPU 0 instructions: 282000000 cycles: 714807828 heartbeat IPC: 0.340311 cumulative IPC: 0.392361 (Simulation time: 0 hr 38 min 47 sec) 
Heartbeat CPU 0 instructions: 283000003 cycles: 717217056 heartbeat IPC: 0.415072 cumulative IPC: 0.39244 (Simulation time: 0 hr 38 min 56 sec) 
Heartbeat CPU 0 instructions: 284000000 cycles: 722206429 heartbeat IPC: 0.200425 cumulative IPC: 0.391072 (Simulation time: 0 hr 39 min 9 sec) 
Heartbeat CPU 0 instructions: 285000003 cycles: 728060244 heartbeat IPC: 0.170829 cumulative IPC: 0.389247 (Simulation time: 0 hr 39 min 22 sec) 
Heartbeat CPU 0 instructions: 286000000 cycles: 730920574 heartbeat IPC: 0.349609 cumulative IPC: 0.389088 (Simulation time: 0 hr 39 min 32 sec) 
Heartbeat CPU 0 instructions: 287000002 cycles: 732430047 heartbeat IPC: 0.662484 cumulative IPC: 0.389668 (Simulation time: 0 hr 39 min 39 sec) 
Heartbeat CPU 0 instructions: 288000002 cycles: 734440730 heartbeat IPC: 0.497343 cumulative IPC: 0.389972 (Simulation time: 0 hr 39 min 47 sec) 
Heartbeat CPU 0 instructions: 289000000 cycles: 736296475 heartbeat IPC: 0.538866 cumulative IPC: 0.390358 (Simulation time: 0 hr 39 min 54 sec) 
Heartbeat CPU 0 instructions: 290000001 cycles: 738026689 heartbeat IPC: 0.577964 cumulative IPC: 0.390811 (Simulation time: 0 hr 40 min 2 sec) 
Heartbeat CPU 0 instructions: 291000001 cycles: 739844587 heartbeat IPC: 0.550086 cumulative IPC: 0.391215 (Simulation time: 0 hr 40 min 10 sec) 
Heartbeat CPU 0 instructions: 292000000 cycles: 742573541 heartbeat IPC: 0.36644 cumulative IPC: 0.391121 (Simulation time: 0 hr 40 min 19 sec) 
Heartbeat CPU 0 instructions: 293000000 cycles: 748454579 heartbeat IPC: 0.170038 cumulative IPC: 0.389332 (Simulation time: 0 hr 40 min 32 sec) 
Heartbeat CPU 0 instructions: 294000000 cycles: 750949073 heartbeat IPC: 0.400883 cumulative IPC: 0.389372 (Simulation time: 0 hr 40 min 41 sec) 
Heartbeat CPU 0 instructions: 295000000 cycles: 753188360 heartbeat IPC: 0.446571 cumulative IPC: 0.389547 (Simulation time: 0 hr 40 min 49 sec) 
Heartbeat CPU 0 instructions: 296000000 cycles: 755553197 heartbeat IPC: 0.422862 cumulative IPC: 0.389654 (Simulation time: 0 hr 40 min 57 sec) 
Heartbeat CPU 0 instructions: 297000000 cycles: 757260650 heartbeat IPC: 0.585668 cumulative IPC: 0.390109 (Simulation time: 0 hr 41 min 5 sec) 
Heartbeat CPU 0 instructions: 298000001 cycles: 758961202 heartbeat IPC: 0.588045 cumulative IPC: 0.390565 (Simulation time: 0 hr 41 min 13 sec) 
Heartbeat CPU 0 instructions: 299000001 cycles: 760798020 heartbeat IPC: 0.54442 cumulative IPC: 0.390948 (Simulation time: 0 hr 41 min 21 sec) 
Heartbeat CPU 0 instructions: 300000000 cycles: 763716306 heartbeat IPC: 0.342667 cumulative IPC: 0.390758 (Simulation time: 0 hr 41 min 31 sec) 
Heartbeat CPU 0 instructions: 301000002 cycles: 769225804 heartbeat IPC: 0.181505 cumulative IPC: 0.389216 (Simulation time: 0 hr 41 min 45 sec) 
Heartbeat CPU 0 instructions: 302000000 cycles: 771134085 heartbeat IPC: 0.524031 cumulative IPC: 0.389559 (Simulation time: 0 hr 41 min 53 sec) 
Heartbeat CPU 0 instructions: 303000000 cycles: 773070778 heartbeat IPC: 0.516344 cumulative IPC: 0.389886 (Simulation time: 0 hr 42 min 1 sec) 
Heartbeat CPU 0 instructions: 304000000 cycles: 774692408 heartbeat IPC: 0.616663 cumulative IPC: 0.390374 (Simulation time: 0 hr 42 min 8 sec) 
Heartbeat CPU 0 instructions: 305000000 cycles: 776377715 heartbeat IPC: 0.593364 cumulative IPC: 0.390827 (Simulation time: 0 hr 42 min 15 sec) 
Heartbeat CPU 0 instructions: 306000001 cycles: 778291061 heartbeat IPC: 0.522645 cumulative IPC: 0.391161 (Simulation time: 0 hr 42 min 23 sec) 
Heartbeat CPU 0 instructions: 307000001 cycles: 780543614 heartbeat IPC: 0.443941 cumulative IPC: 0.391317 (Simulation time: 0 hr 42 min 31 sec) 
Heartbeat CPU 0 instructions: 308000000 cycles: 783918954 heartbeat IPC: 0.296266 cumulative IPC: 0.390896 (Simulation time: 0 hr 42 min 41 sec) 
Heartbeat CPU 0 instructions: 309000000 cycles: 786576739 heartbeat IPC: 0.376253 cumulative IPC: 0.390846 (Simulation time: 0 hr 42 min 50 sec) 
Heartbeat CPU 0 instructions: 310000000 cycles: 788815447 heartbeat IPC: 0.446686 cumulative IPC: 0.391008 (Simulation time: 0 hr 42 min 58 sec) 
Heartbeat CPU 0 instructions: 311000001 cycles: 790620363 heartbeat IPC: 0.554043 cumulative IPC: 0.391391 (Simulation time: 0 hr 43 min 6 sec) 
Heartbeat CPU 0 instructions: 312000001 cycles: 792552284 heartbeat IPC: 0.517619 cumulative IPC: 0.391707 (Simulation time: 0 hr 43 min 14 sec) 
Heartbeat CPU 0 instructions: 313000000 cycles: 794371662 heartbeat IPC: 0.549638 cumulative IPC: 0.392079 (Simulation time: 0 hr 43 min 22 sec) 
Heartbeat CPU 0 instructions: 314000001 cycles: 796781905 heartbeat IPC: 0.414896 cumulative IPC: 0.39215 (Simulation time: 0 hr 43 min 30 sec) 
Heartbeat CPU 0 instructions: 315000003 cycles: 801047005 heartbeat IPC: 0.234462 cumulative IPC: 0.391287 (Simulation time: 0 hr 43 min 42 sec) 
Heartbeat CPU 0 instructions: 316000003 cycles: 806783563 heartbeat IPC: 0.174321 cumulative IPC: 0.389702 (Simulation time: 0 hr 43 min 56 sec) 
Heartbeat CPU 0 instructions: 317000001 cycles: 812248550 heartbeat IPC: 0.182983 cumulative IPC: 0.388273 (Simulation time: 0 hr 44 min 9 sec) 
Heartbeat CPU 0 instructions: 318000002 cycles: 815092759 heartbeat IPC: 0.351592 cumulative IPC: 0.388142 (Simulation time: 0 hr 44 min 18 sec) 
Heartbeat CPU 0 instructions: 319000000 cycles: 816883632 heartbeat IPC: 0.558386 cumulative IPC: 0.388525 (Simulation time: 0 hr 44 min 26 sec) 
Heartbeat CPU 0 instructions: 320000003 cycles: 819205013 heartbeat IPC: 0.430779 cumulative IPC: 0.388648 (Simulation time: 0 hr 44 min 34 sec) 
Heartbeat CPU 0 instructions: 321000002 cycles: 821574152 heartbeat IPC: 0.422094 cumulative IPC: 0.388747 (Simulation time: 0 hr 44 min 42 sec) 
Heartbeat CPU 0 instructions: 322000000 cycles: 823656524 heartbeat IPC: 0.480221 cumulative IPC: 0.388985 (Simulation time: 0 hr 44 min 51 sec) 
Heartbeat CPU 0 instructions: 323000000 cycles: 825645740 heartbeat IPC: 0.502711 cumulative IPC: 0.389266 (Simulation time: 0 hr 44 min 59 sec) 
Heartbeat CPU 0 instructions: 324000001 cycles: 829951100 heartbeat IPC: 0.232269 cumulative IPC: 0.38843 (Simulation time: 0 hr 45 min 10 sec) 
Heartbeat CPU 0 instructions: 325000003 cycles: 831960178 heartbeat IPC: 0.497742 cumulative IPC: 0.388701 (Simulation time: 0 hr 45 min 18 sec) 
Heartbeat CPU 0 instructions: 326000000 cycles: 833811931 heartbeat IPC: 0.540027 cumulative IPC: 0.389046 (Simulation time: 0 hr 45 min 25 sec) 
Heartbeat CPU 0 instructions: 327000002 cycles: 835577779 heartbeat IPC: 0.566301 cumulative IPC: 0.389431 (Simulation time: 0 hr 45 min 33 sec) 
Heartbeat CPU 0 instructions: 328000000 cycles: 837430953 heartbeat IPC: 0.539614 cumulative IPC: 0.389772 (Simulation time: 0 hr 45 min 41 sec) 
Heartbeat CPU 0 instructions: 329000001 cycles: 839555712 heartbeat IPC: 0.470642 cumulative IPC: 0.389982 (Simulation time: 0 hr 45 min 49 sec) 
Heartbeat CPU 0 instructions: 330000000 cycles: 841232460 heartbeat IPC: 0.596392 cumulative IPC: 0.390404 (Simulation time: 0 hr 45 min 57 sec) 
Heartbeat CPU 0 instructions: 331000001 cycles: 844531347 heartbeat IPC: 0.303133 cumulative IPC: 0.390054 (Simulation time: 0 hr 46 min 7 sec) 
Heartbeat CPU 0 instructions: 332000001 cycles: 850208463 heartbeat IPC: 0.176146 cumulative IPC: 0.388589 (Simulation time: 0 hr 46 min 21 sec) 
Heartbeat CPU 0 instructions: 333000002 cycles: 854879853 heartbeat IPC: 0.214069 cumulative IPC: 0.38761 (Simulation time: 0 hr 46 min 34 sec) 
Heartbeat CPU 0 instructions: 334000003 cycles: 856412371 heartbeat IPC: 0.652522 cumulative IPC: 0.388097 (Simulation time: 0 hr 46 min 41 sec) 
Heartbeat CPU 0 instructions: 335000001 cycles: 858913304 heartbeat IPC: 0.39985 cumulative IPC: 0.388132 (Simulation time: 0 hr 46 min 50 sec) 
Heartbeat CPU 0 instructions: 336000001 cycles: 860746473 heartbeat IPC: 0.545503 cumulative IPC: 0.388476 (Simulation time: 0 hr 46 min 58 sec) 
Heartbeat CPU 0 instructions: 337000001 cycles: 862793421 heartbeat IPC: 0.488532 cumulative IPC: 0.388719 (Simulation time: 0 hr 47 min 6 sec) 
Heartbeat CPU 0 instructions: 338000002 cycles: 865357160 heartbeat IPC: 0.390056 cumulative IPC: 0.388723 (Simulation time: 0 hr 47 min 15 sec) 
Heartbeat CPU 0 instructions: 339000001 cycles: 867273342 heartbeat IPC: 0.521871 cumulative IPC: 0.389025 (Simulation time: 0 hr 47 min 23 sec) 
Heartbeat CPU 0 instructions: 340000000 cycles: 872250799 heartbeat IPC: 0.200906 cumulative IPC: 0.387924 (Simulation time: 0 hr 47 min 35 sec) 
Heartbeat CPU 0 instructions: 341000000 cycles: 878415290 heartbeat IPC: 0.162219 cumulative IPC: 0.3863 (Simulation time: 0 hr 47 min 50 sec) 
Heartbeat CPU 0 instructions: 342000000 cycles: 881441123 heartbeat IPC: 0.330488 cumulative IPC: 0.386104 (Simulation time: 0 hr 47 min 59 sec) 
Heartbeat CPU 0 instructions: 343000000 cycles: 884132968 heartbeat IPC: 0.371492 cumulative IPC: 0.386058 (Simulation time: 0 hr 48 min 8 sec) 
Heartbeat CPU 0 instructions: 344000003 cycles: 886416788 heartbeat IPC: 0.437864 cumulative IPC: 0.386195 (Simulation time: 0 hr 48 min 17 sec) 
Heartbeat CPU 0 instructions: 345000000 cycles: 888412855 heartbeat IPC: 0.500984 cumulative IPC: 0.386459 (Simulation time: 0 hr 48 min 26 sec) 
Heartbeat CPU 0 instructions: 346000003 cycles: 890950323 heartbeat IPC: 0.394095 cumulative IPC: 0.386482 (Simulation time: 0 hr 48 min 35 sec) 
Heartbeat CPU 0 instructions: 347000000 cycles: 892744268 heartbeat IPC: 0.557429 cumulative IPC: 0.386834 (Simulation time: 0 hr 48 min 42 sec) 
Heartbeat CPU 0 instructions: 348000002 cycles: 895485254 heartbeat IPC: 0.364833 cumulative IPC: 0.386765 (Simulation time: 0 hr 48 min 51 sec) 
Heartbeat CPU 0 instructions: 349000002 cycles: 898224124 heartbeat IPC: 0.365114 cumulative IPC: 0.386697 (Simulation time: 0 hr 49 min 1 sec) 
Heartbeat CPU 0 instructions: 350000003 cycles: 899998169 heartbeat IPC: 0.563684 cumulative IPC: 0.387054 (Simulation time: 0 hr 49 min 8 sec) 
Heartbeat CPU 0 instructions: 351000001 cycles: 901675173 heartbeat IPC: 0.5963 cumulative IPC: 0.387453 (Simulation time: 0 hr 49 min 16 sec) 
Heartbeat CPU 0 instructions: 352000000 cycles: 904292958 heartbeat IPC: 0.382002 cumulative IPC: 0.387437 (Simulation time: 0 hr 49 min 25 sec) 
Heartbeat CPU 0 instructions: 353000001 cycles: 906428614 heartbeat IPC: 0.468241 cumulative IPC: 0.387632 (Simulation time: 0 hr 49 min 34 sec) 
Heartbeat CPU 0 instructions: 354000002 cycles: 908832952 heartbeat IPC: 0.415915 cumulative IPC: 0.387709 (Simulation time: 0 hr 49 min 43 sec) 
Heartbeat CPU 0 instructions: 355000001 cycles: 914351258 heartbeat IPC: 0.181215 cumulative IPC: 0.386432 (Simulation time: 0 hr 49 min 58 sec) 
Heartbeat CPU 0 instructions: 356000003 cycles: 920215797 heartbeat IPC: 0.170517 cumulative IPC: 0.385023 (Simulation time: 0 hr 50 min 13 sec) 
Heartbeat CPU 0 instructions: 357000001 cycles: 922502335 heartbeat IPC: 0.437342 cumulative IPC: 0.385156 (Simulation time: 0 hr 50 min 21 sec) 
Heartbeat CPU 0 instructions: 358000000 cycles: 924241315 heartbeat IPC: 0.575049 cumulative IPC: 0.385522 (Simulation time: 0 hr 50 min 30 sec) 
Heartbeat CPU 0 instructions: 359000000 cycles: 925942592 heartbeat IPC: 0.587794 cumulative IPC: 0.385902 (Simulation time: 0 hr 50 min 38 sec) 
Heartbeat CPU 0 instructions: 360000000 cycles: 927815387 heartbeat IPC: 0.533961 cumulative IPC: 0.386208 (Simulation time: 0 hr 50 min 46 sec) 
Heartbeat CPU 0 instructions: 361000001 cycles: 929535781 heartbeat IPC: 0.581263 cumulative IPC: 0.386578 (Simulation time: 0 hr 50 min 55 sec) 
Heartbeat CPU 0 instructions: 362000003 cycles: 931492500 heartbeat IPC: 0.511061 cumulative IPC: 0.386846 (Simulation time: 0 hr 51 min 4 sec) 
Heartbeat CPU 0 instructions: 363000000 cycles: 934879914 heartbeat IPC: 0.29521 cumulative IPC: 0.386506 (Simulation time: 0 hr 51 min 15 sec) 
Heartbeat CPU 0 instructions: 364000001 cycles: 937092829 heartbeat IPC: 0.451893 cumulative IPC: 0.386664 (Simulation time: 0 hr 51 min 24 sec) 
Heartbeat CPU 0 instructions: 365000001 cycles: 938848228 heartbeat IPC: 0.569671 cumulative IPC: 0.387014 (Simulation time: 0 hr 51 min 33 sec) 
Heartbeat CPU 0 instructions: 366000001 cycles: 940304916 heartbeat IPC: 0.686489 cumulative IPC: 0.387489 (Simulation time: 0 hr 51 min 41 sec) 
Heartbeat CPU 0 instructions: 367000001 cycles: 943271843 heartbeat IPC: 0.337049 cumulative IPC: 0.387326 (Simulation time: 0 hr 51 min 51 sec) 
Heartbeat CPU 0 instructions: 368000002 cycles: 945614054 heartbeat IPC: 0.426947 cumulative IPC: 0.387427 (Simulation time: 0 hr 52 min 0 sec) 
Heartbeat CPU 0 instructions: 369000003 cycles: 948310286 heartbeat IPC: 0.370888 cumulative IPC: 0.387379 (Simulation time: 0 hr 52 min 10 sec) 
Heartbeat CPU 0 instructions: 370000001 cycles: 951380193 heartbeat IPC: 0.325742 cumulative IPC: 0.387175 (Simulation time: 0 hr 52 min 21 sec) 
Heartbeat CPU 0 instructions: 371000003 cycles: 956352960 heartbeat IPC: 0.201096 cumulative IPC: 0.386185 (Simulation time: 0 hr 52 min 36 sec) 
Heartbeat CPU 0 instructions: 372000000 cycles: 958089362 heartbeat IPC: 0.575902 cumulative IPC: 0.386537 (Simulation time: 0 hr 52 min 44 sec) 
Heartbeat CPU 0 instructions: 373000002 cycles: 960270328 heartbeat IPC: 0.458513 cumulative IPC: 0.386704 (Simulation time: 0 hr 52 min 53 sec) 
Heartbeat CPU 0 instructions: 374000000 cycles: 962351470 heartbeat IPC: 0.480504 cumulative IPC: 0.386912 (Simulation time: 0 hr 53 min 1 sec) 
Heartbeat CPU 0 instructions: 375000001 cycles: 963922308 heartbeat IPC: 0.636604 cumulative IPC: 0.387328 (Simulation time: 0 hr 53 min 10 sec) 
Heartbeat CPU 0 instructions: 376000001 cycles: 965856773 heartbeat IPC: 0.516939 cumulative IPC: 0.387594 (Simulation time: 0 hr 53 min 18 sec) 
Heartbeat CPU 0 instructions: 377000000 cycles: 967414445 heartbeat IPC: 0.641983 cumulative IPC: 0.388013 (Simulation time: 0 hr 53 min 27 sec) 
Heartbeat CPU 0 instructions: 378000001 cycles: 971401161 heartbeat IPC: 0.250833 cumulative IPC: 0.387437 (Simulation time: 0 hr 53 min 38 sec) 
Heartbeat CPU 0 instructions: 379000002 cycles: 976127351 heartbeat IPC: 0.211587 cumulative IPC: 0.386566 (Simulation time: 0 hr 53 min 51 sec) 
Heartbeat CPU 0 instructions: 380000001 cycles: 977661450 heartbeat IPC: 0.651848 cumulative IPC: 0.386992 (Simulation time: 0 hr 53 min 58 sec) 
Heartbeat CPU 0 instructions: 381000000 cycles: 979177775 heartbeat IPC: 0.659489 cumulative IPC: 0.387423 (Simulation time: 0 hr 54 min 6 sec) 
Heartbeat CPU 0 instructions: 382000001 cycles: 981119280 heartbeat IPC: 0.515065 cumulative IPC: 0.387681 (Simulation time: 0 hr 54 min 14 sec) 
Heartbeat CPU 0 instructions: 383000001 cycles: 983506799 heartbeat IPC: 0.418845 cumulative IPC: 0.387759 (Simulation time: 0 hr 54 min 22 sec) 
Heartbeat CPU 0 instructions: 384000000 cycles: 985991960 heartbeat IPC: 0.402388 cumulative IPC: 0.387797 (Simulation time: 0 hr 54 min 32 sec) 
Heartbeat CPU 0 instructions: 385000000 cycles: 989539279 heartbeat IPC: 0.281903 cumulative IPC: 0.387408 (Simulation time: 0 hr 54 min 42 sec) 
Heartbeat CPU 0 instructions: 386000000 cycles: 992830372 heartbeat IPC: 0.30385 cumulative IPC: 0.387125 (Simulation time: 0 hr 54 min 52 sec) 
Heartbeat CPU 0 instructions: 387000003 cycles: 994540876 heartbeat IPC: 0.584625 cumulative IPC: 0.387473 (Simulation time: 0 hr 55 min 0 sec) 
Heartbeat CPU 0 instructions: 388000003 cycles: 996411760 heartbeat IPC: 0.534507 cumulative IPC: 0.387755 (Simulation time: 0 hr 55 min 8 sec) 
Heartbeat CPU 0 instructions: 389000002 cycles: 998911253 heartbeat IPC: 0.400081 cumulative IPC: 0.387786 (Simulation time: 0 hr 55 min 18 sec) 
Heartbeat CPU 0 instructions: 390000003 cycles: 1001773807 heartbeat IPC: 0.349339 cumulative IPC: 0.387674 (Simulation time: 0 hr 55 min 28 sec) 
Heartbeat CPU 0 instructions: 391000000 cycles: 1003946793 heartbeat IPC: 0.460195 cumulative IPC: 0.387834 (Simulation time: 0 hr 55 min 37 sec) 
Heartbeat CPU 0 instructions: 392000000 cycles: 1006466273 heartbeat IPC: 0.396907 cumulative IPC: 0.387858 (Simulation time: 0 hr 55 min 46 sec) 
Heartbeat CPU 0 instructions: 393000002 cycles: 1010000565 heartbeat IPC: 0.282943 cumulative IPC: 0.387482 (Simulation time: 0 hr 55 min 57 sec) 
Heartbeat CPU 0 instructions: 394000003 cycles: 1012260005 heartbeat IPC: 0.442588 cumulative IPC: 0.387608 (Simulation time: 0 hr 56 min 5 sec) 
Heartbeat CPU 0 instructions: 395000000 cycles: 1014562469 heartbeat IPC: 0.434316 cumulative IPC: 0.387716 (Simulation time: 0 hr 56 min 13 sec) 
Heartbeat CPU 0 instructions: 396000000 cycles: 1016453498 heartbeat IPC: 0.528813 cumulative IPC: 0.387985 (Simulation time: 0 hr 56 min 21 sec) 
Heartbeat CPU 0 instructions: 397000000 cycles: 1018648994 heartbeat IPC: 0.455478 cumulative IPC: 0.388133 (Simulation time: 0 hr 56 min 30 sec) 
Heartbeat CPU 0 instructions: 398000001 cycles: 1020687426 heartbeat IPC: 0.490574 cumulative IPC: 0.388342 (Simulation time: 0 hr 56 min 38 sec) 
Heartbeat CPU 0 instructions: 399000002 cycles: 1023257633 heartbeat IPC: 0.389074 cumulative IPC: 0.388344 (Simulation time: 0 hr 56 min 46 sec) 
Heartbeat CPU 0 instructions: 400000001 cycles: 1028498363 heartbeat IPC: 0.190813 cumulative IPC: 0.387316 (Simulation time: 0 hr 57 min 0 sec) 
Heartbeat CPU 0 instructions: 401000001 cycles: 1032402092 heartbeat IPC: 0.256165 cumulative IPC: 0.38681 (Simulation time: 0 hr 57 min 10 sec) 
Heartbeat CPU 0 instructions: 402000000 cycles: 1034829340 heartbeat IPC: 0.411989 cumulative IPC: 0.38687 (Simulation time: 0 hr 57 min 18 sec) 
Heartbeat CPU 0 instructions: 403000001 cycles: 1036739426 heartbeat IPC: 0.523537 cumulative IPC: 0.387127 (Simulation time: 0 hr 57 min 26 sec) 
Heartbeat CPU 0 instructions: 404000000 cycles: 1038358605 heartbeat IPC: 0.617596 cumulative IPC: 0.387494 (Simulation time: 0 hr 57 min 34 sec) 
Heartbeat CPU 0 instructions: 405000000 cycles: 1039970049 heartbeat IPC: 0.620561 cumulative IPC: 0.387863 (Simulation time: 0 hr 57 min 42 sec) 
Heartbeat CPU 0 instructions: 406000001 cycles: 1041647255 heartbeat IPC: 0.59623 cumulative IPC: 0.388205 (Simulation time: 0 hr 57 min 49 sec) 
Heartbeat CPU 0 instructions: 407000000 cycles: 1043527497 heartbeat IPC: 0.531846 cumulative IPC: 0.38847 (Simulation time: 0 hr 57 min 57 sec) 
Heartbeat CPU 0 instructions: 408000000 cycles: 1047050321 heartbeat IPC: 0.283863 cumulative IPC: 0.38811 (Simulation time: 0 hr 58 min 8 sec) 
Heartbeat CPU 0 instructions: 409000000 cycles: 1049032054 heartbeat IPC: 0.504609 cumulative IPC: 0.388335 (Simulation time: 0 hr 58 min 16 sec) 
Heartbeat CPU 0 instructions: 410000001 cycles: 1050661936 heartbeat IPC: 0.613542 cumulative IPC: 0.388692 (Simulation time: 0 hr 58 min 24 sec) 
Heartbeat CPU 0 instructions: 411000002 cycles: 1052709601 heartbeat IPC: 0.488362 cumulative IPC: 0.38889 (Simulation time: 0 hr 58 min 32 sec) 
Heartbeat CPU 0 instructions: 412000003 cycles: 1054528024 heartbeat IPC: 0.549928 cumulative IPC: 0.389173 (Simulation time: 0 hr 58 min 40 sec) 
Heartbeat CPU 0 instructions: 413000000 cycles: 1056503751 heartbeat IPC: 0.506141 cumulative IPC: 0.389396 (Simulation time: 0 hr 58 min 48 sec) 
Heartbeat CPU 0 instructions: 414000002 cycles: 1058759016 heartbeat IPC: 0.443408 cumulative IPC: 0.389514 (Simulation time: 0 hr 58 min 56 sec) 
Heartbeat CPU 0 instructions: 415000000 cycles: 1062834003 heartbeat IPC: 0.245399 cumulative IPC: 0.38895 (Simulation time: 0 hr 59 min 7 sec) 
Heartbeat CPU 0 instructions: 416000000 cycles: 1064415897 heartbeat IPC: 0.632154 cumulative IPC: 0.389319 (Simulation time: 0 hr 59 min 15 sec) 
Heartbeat CPU 0 instructions: 417000002 cycles: 1065949326 heartbeat IPC: 0.652135 cumulative IPC: 0.389705 (Simulation time: 0 hr 59 min 22 sec) 
Heartbeat CPU 0 instructions: 418000000 cycles: 1067649696 heartbeat IPC: 0.588106 cumulative IPC: 0.390027 (Simulation time: 0 hr 59 min 29 sec) 
Heartbeat CPU 0 instructions: 419000000 cycles: 1070905454 heartbeat IPC: 0.307148 cumulative IPC: 0.38977 (Simulation time: 0 hr 59 min 39 sec) 
Heartbeat CPU 0 instructions: 420000000 cycles: 1074293046 heartbeat IPC: 0.295195 cumulative IPC: 0.389466 (Simulation time: 0 hr 59 min 49 sec) 
Heartbeat CPU 0 instructions: 421000000 cycles: 1077344272 heartbeat IPC: 0.327737 cumulative IPC: 0.389287 (Simulation time: 0 hr 59 min 58 sec) 
Heartbeat CPU 0 instructions: 422000000 cycles: 1081258330 heartbeat IPC: 0.255489 cumulative IPC: 0.388793 (Simulation time: 1 hr 0 min 9 sec) 
Heartbeat CPU 0 instructions: 423000000 cycles: 1083036095 heartbeat IPC: 0.562504 cumulative IPC: 0.389084 (Simulation time: 1 hr 0 min 16 sec) 
Heartbeat CPU 0 instructions: 424000001 cycles: 1084667587 heartbeat IPC: 0.612936 cumulative IPC: 0.389428 (Simulation time: 1 hr 0 min 24 sec) 
Heartbeat CPU 0 instructions: 425000003 cycles: 1086439366 heartbeat IPC: 0.564406 cumulative IPC: 0.389719 (Simulation time: 1 hr 0 min 31 sec) 
Heartbeat CPU 0 instructions: 426000000 cycles: 1088199395 heartbeat IPC: 0.568171 cumulative IPC: 0.390013 (Simulation time: 1 hr 0 min 38 sec) 
Heartbeat CPU 0 instructions: 427000001 cycles: 1089988349 heartbeat IPC: 0.558986 cumulative IPC: 0.390296 (Simulation time: 1 hr 0 min 46 sec) 
Heartbeat CPU 0 instructions: 428000002 cycles: 1093585520 heartbeat IPC: 0.277997 cumulative IPC: 0.389919 (Simulation time: 1 hr 0 min 56 sec) 
Heartbeat CPU 0 instructions: 429000000 cycles: 1095271730 heartbeat IPC: 0.593045 cumulative IPC: 0.390238 (Simulation time: 1 hr 1 min 4 sec) 
Heartbeat CPU 0 instructions: 430000000 cycles: 1096859986 heartbeat IPC: 0.629621 cumulative IPC: 0.390592 (Simulation time: 1 hr 1 min 11 sec) 
Heartbeat CPU 0 instructions: 431000000 cycles: 1098741377 heartbeat IPC: 0.531522 cumulative IPC: 0.390838 (Simulation time: 1 hr 1 min 18 sec) 
Heartbeat CPU 0 instructions: 432000001 cycles: 1100778407 heartbeat IPC: 0.490911 cumulative IPC: 0.391027 (Simulation time: 1 hr 1 min 26 sec) 
Heartbeat CPU 0 instructions: 433000001 cycles: 1103605480 heartbeat IPC: 0.353723 cumulative IPC: 0.390929 (Simulation time: 1 hr 1 min 35 sec) 
Heartbeat CPU 0 instructions: 434000000 cycles: 1108306055 heartbeat IPC: 0.21274 cumulative IPC: 0.390159 (Simulation time: 1 hr 1 min 46 sec) 
Heartbeat CPU 0 instructions: 435000001 cycles: 1110413830 heartbeat IPC: 0.474434 cumulative IPC: 0.390322 (Simulation time: 1 hr 1 min 54 sec) 
Heartbeat CPU 0 instructions: 436000001 cycles: 1112667894 heartbeat IPC: 0.443643 cumulative IPC: 0.390432 (Simulation time: 1 hr 2 min 2 sec) 
Heartbeat CPU 0 instructions: 437000002 cycles: 1114414802 heartbeat IPC: 0.572441 cumulative IPC: 0.390723 (Simulation time: 1 hr 2 min 9 sec) 
Heartbeat CPU 0 instructions: 438000001 cycles: 1116258519 heartbeat IPC: 0.542382 cumulative IPC: 0.390978 (Simulation time: 1 hr 2 min 17 sec) 
Heartbeat CPU 0 instructions: 439000001 cycles: 1118714722 heartbeat IPC: 0.407132 cumulative IPC: 0.391014 (Simulation time: 1 hr 2 min 25 sec) 
Heartbeat CPU 0 instructions: 440000000 cycles: 1122994748 heartbeat IPC: 0.233643 cumulative IPC: 0.390403 (Simulation time: 1 hr 2 min 36 sec) 
Heartbeat CPU 0 instructions: 441000001 cycles: 1128715533 heartbeat IPC: 0.174801 cumulative IPC: 0.389289 (Simulation time: 1 hr 2 min 50 sec) 
Heartbeat CPU 0 instructions: 442000000 cycles: 1133407664 heartbeat IPC: 0.213123 cumulative IPC: 0.388545 (Simulation time: 1 hr 3 min 2 sec) 
Heartbeat CPU 0 instructions: 443000001 cycles: 1135636602 heartbeat IPC: 0.448645 cumulative IPC: 0.388666 (Simulation time: 1 hr 3 min 10 sec) 
Heartbeat CPU 0 instructions: 444000001 cycles: 1138143853 heartbeat IPC: 0.398843 cumulative IPC: 0.388689 (Simulation time: 1 hr 3 min 19 sec) 
Heartbeat CPU 0 instructions: 445000002 cycles: 1139974957 heartbeat IPC: 0.546119 cumulative IPC: 0.388946 (Simulation time: 1 hr 3 min 26 sec) 
Heartbeat CPU 0 instructions: 446000003 cycles: 1141599431 heartbeat IPC: 0.615584 cumulative IPC: 0.389275 (Simulation time: 1 hr 3 min 34 sec) 
Heartbeat CPU 0 instructions: 447000000 cycles: 1143792260 heartbeat IPC: 0.456031 cumulative IPC: 0.389405 (Simulation time: 1 hr 3 min 42 sec) 
Heartbeat CPU 0 instructions: 448000001 cycles: 1145822853 heartbeat IPC: 0.492467 cumulative IPC: 0.389592 (Simulation time: 1 hr 3 min 50 sec) 
Heartbeat CPU 0 instructions: 449000001 cycles: 1149387879 heartbeat IPC: 0.280503 cumulative IPC: 0.389247 (Simulation time: 1 hr 4 min 0 sec) 
Heartbeat CPU 0 instructions: 450000002 cycles: 1151282557 heartbeat IPC: 0.527795 cumulative IPC: 0.389479 (Simulation time: 1 hr 4 min 8 sec) 
Heartbeat CPU 0 instructions: 451000000 cycles: 1153176751 heartbeat IPC: 0.527928 cumulative IPC: 0.389711 (Simulation time: 1 hr 4 min 15 sec) 
Heartbeat CPU 0 instructions: 452000001 cycles: 1155995780 heartbeat IPC: 0.354732 cumulative IPC: 0.389624 (Simulation time: 1 hr 4 min 24 sec) 
Heartbeat CPU 0 instructions: 453000000 cycles: 1158364015 heartbeat IPC: 0.422255 cumulative IPC: 0.389692 (Simulation time: 1 hr 4 min 32 sec) 
Heartbeat CPU 0 instructions: 454000000 cycles: 1160901166 heartbeat IPC: 0.394143 cumulative IPC: 0.389702 (Simulation time: 1 hr 4 min 40 sec) 
Heartbeat CPU 0 instructions: 455000000 cycles: 1165077174 heartbeat IPC: 0.239463 cumulative IPC: 0.389153 (Simulation time: 1 hr 4 min 51 sec) 
Heartbeat CPU 0 instructions: 456000001 cycles: 1170156955 heartbeat IPC: 0.196859 cumulative IPC: 0.388303 (Simulation time: 1 hr 5 min 4 sec) 
Heartbeat CPU 0 instructions: 457000003 cycles: 1171793515 heartbeat IPC: 0.611039 cumulative IPC: 0.38862 (Simulation time: 1 hr 5 min 12 sec) 
Heartbeat CPU 0 instructions: 458000000 cycles: 1173769928 heartbeat IPC: 0.505966 cumulative IPC: 0.388821 (Simulation time: 1 hr 5 min 20 sec) 
Heartbeat CPU 0 instructions: 459000003 cycles: 1176258016 heartbeat IPC: 0.401916 cumulative IPC: 0.388849 (Simulation time: 1 hr 5 min 29 sec) 
Heartbeat CPU 0 instructions: 460000000 cycles: 1178121083 heartbeat IPC: 0.536748 cumulative IPC: 0.389087 (Simulation time: 1 hr 5 min 37 sec) 
Heartbeat CPU 0 instructions: 461000000 cycles: 1180124617 heartbeat IPC: 0.499118 cumulative IPC: 0.389278 (Simulation time: 1 hr 5 min 45 sec) 
Heartbeat CPU 0 instructions: 462000000 cycles: 1183081080 heartbeat IPC: 0.338242 cumulative IPC: 0.389148 (Simulation time: 1 hr 5 min 54 sec) 
Heartbeat CPU 0 instructions: 463000001 cycles: 1187413598 heartbeat IPC: 0.230813 cumulative IPC: 0.388559 (Simulation time: 1 hr 6 min 6 sec) 
Heartbeat CPU 0 instructions: 464000001 cycles: 1189122918 heartbeat IPC: 0.585028 cumulative IPC: 0.388847 (Simulation time: 1 hr 6 min 13 sec) 
Heartbeat CPU 0 instructions: 465000001 cycles: 1190797747 heartbeat IPC: 0.597076 cumulative IPC: 0.389145 (Simulation time: 1 hr 6 min 21 sec) 
Heartbeat CPU 0 instructions: 466000000 cycles: 1192552728 heartbeat IPC: 0.569806 cumulative IPC: 0.389416 (Simulation time: 1 hr 6 min 28 sec) 
Heartbeat CPU 0 instructions: 467000001 cycles: 1194296042 heartbeat IPC: 0.573621 cumulative IPC: 0.38969 (Simulation time: 1 hr 6 min 36 sec) 
Heartbeat CPU 0 instructions: 468000001 cycles: 1196448564 heartbeat IPC: 0.464571 cumulative IPC: 0.389827 (Simulation time: 1 hr 6 min 44 sec) 
Heartbeat CPU 0 instructions: 469000002 cycles: 1198980486 heartbeat IPC: 0.394957 cumulative IPC: 0.389838 (Simulation time: 1 hr 6 min 52 sec) 
Heartbeat CPU 0 instructions: 470000000 cycles: 1203100074 heartbeat IPC: 0.242742 cumulative IPC: 0.389325 (Simulation time: 1 hr 7 min 3 sec) 
Heartbeat CPU 0 instructions: 471000001 cycles: 1205165752 heartbeat IPC: 0.484103 cumulative IPC: 0.389491 (Simulation time: 1 hr 7 min 11 sec) 
Heartbeat CPU 0 instructions: 472000000 cycles: 1206896312 heartbeat IPC: 0.577847 cumulative IPC: 0.389766 (Simulation time: 1 hr 7 min 18 sec) 
Heartbeat CPU 0 instructions: 473000000 cycles: 1208586690 heartbeat IPC: 0.591584 cumulative IPC: 0.390053 (Simulation time: 1 hr 7 min 26 sec) 
Heartbeat CPU 0 instructions: 474000002 cycles: 1210468326 heartbeat IPC: 0.531453 cumulative IPC: 0.390277 (Simulation time: 1 hr 7 min 34 sec) 
Heartbeat CPU 0 instructions: 475000001 cycles: 1212537612 heartbeat IPC: 0.483258 cumulative IPC: 0.390438 (Simulation time: 1 hr 7 min 41 sec) 
Heartbeat CPU 0 instructions: 476000003 cycles: 1214701750 heartbeat IPC: 0.462079 cumulative IPC: 0.390568 (Simulation time: 1 hr 7 min 49 sec) 
Heartbeat CPU 0 instructions: 477000001 cycles: 1218019095 heartbeat IPC: 0.301445 cumulative IPC: 0.390321 (Simulation time: 1 hr 7 min 59 sec) 
Heartbeat CPU 0 instructions: 478000001 cycles: 1223444771 heartbeat IPC: 0.184309 cumulative IPC: 0.389391 (Simulation time: 1 hr 8 min 12 sec) 
Heartbeat CPU 0 instructions: 479000000 cycles: 1225063060 heartbeat IPC: 0.617936 cumulative IPC: 0.389699 (Simulation time: 1 hr 8 min 19 sec) 
Heartbeat CPU 0 instructions: 480000001 cycles: 1226675876 heartbeat IPC: 0.620034 cumulative IPC: 0.390007 (Simulation time: 1 hr 8 min 27 sec) 
Heartbeat CPU 0 instructions: 481000000 cycles: 1228422132 heartbeat IPC: 0.572653 cumulative IPC: 0.390271 (Simulation time: 1 hr 8 min 34 sec) 
Heartbeat CPU 0 instructions: 482000002 cycles: 1231334459 heartbeat IPC: 0.343369 cumulative IPC: 0.390158 (Simulation time: 1 hr 8 min 43 sec) 
Heartbeat CPU 0 instructions: 483000000 cycles: 1234141807 heartbeat IPC: 0.356207 cumulative IPC: 0.39008 (Simulation time: 1 hr 8 min 52 sec) 
Heartbeat CPU 0 instructions: 484000000 cycles: 1236014540 heartbeat IPC: 0.533979 cumulative IPC: 0.390301 (Simulation time: 1 hr 8 min 59 sec) 
Heartbeat CPU 0 instructions: 485000000 cycles: 1239794763 heartbeat IPC: 0.264535 cumulative IPC: 0.389911 (Simulation time: 1 hr 9 min 10 sec) 
Heartbeat CPU 0 instructions: 486000002 cycles: 1242191458 heartbeat IPC: 0.417242 cumulative IPC: 0.389965 (Simulation time: 1 hr 9 min 17 sec) 
Heartbeat CPU 0 instructions: 487000001 cycles: 1243823237 heartbeat IPC: 0.612827 cumulative IPC: 0.390262 (Simulation time: 1 hr 9 min 25 sec) 
Heartbeat CPU 0 instructions: 488000001 cycles: 1245451455 heartbeat IPC: 0.614168 cumulative IPC: 0.39056 (Simulation time: 1 hr 9 min 32 sec) 
Heartbeat CPU 0 instructions: 489000003 cycles: 1247359436 heartbeat IPC: 0.524115 cumulative IPC: 0.390768 (Simulation time: 1 hr 9 min 39 sec) 
Heartbeat CPU 0 instructions: 490000000 cycles: 1249179047 heartbeat IPC: 0.549566 cumulative IPC: 0.391004 (Simulation time: 1 hr 9 min 47 sec) 
Heartbeat CPU 0 instructions: 491000000 cycles: 1251604259 heartbeat IPC: 0.412335 cumulative IPC: 0.391046 (Simulation time: 1 hr 9 min 55 sec) 
Heartbeat CPU 0 instructions: 492000000 cycles: 1254993698 heartbeat IPC: 0.295034 cumulative IPC: 0.390782 (Simulation time: 1 hr 10 min 5 sec) 
Heartbeat CPU 0 instructions: 493000000 cycles: 1257970286 heartbeat IPC: 0.335955 cumulative IPC: 0.39065 (Simulation time: 1 hr 10 min 15 sec) 
Heartbeat CPU 0 instructions: 494000000 cycles: 1259980079 heartbeat IPC: 0.497564 cumulative IPC: 0.390823 (Simulation time: 1 hr 10 min 23 sec) 
Heartbeat CPU 0 instructions: 495000000 cycles: 1262150284 heartbeat IPC: 0.460786 cumulative IPC: 0.390946 (Simulation time: 1 hr 10 min 31 sec) 
Heartbeat CPU 0 instructions: 496000000 cycles: 1264597194 heartbeat IPC: 0.408679 cumulative IPC: 0.390981 (Simulation time: 1 hr 10 min 39 sec) 
Heartbeat CPU 0 instructions: 497000003 cycles: 1266387835 heartbeat IPC: 0.558461 cumulative IPC: 0.391221 (Simulation time: 1 hr 10 min 47 sec) 
Heartbeat CPU 0 instructions: 498000002 cycles: 1269260490 heartbeat IPC: 0.34811 cumulative IPC: 0.391122 (Simulation time: 1 hr 10 min 55 sec) 
Heartbeat CPU 0 instructions: 499000001 cycles: 1272464337 heartbeat IPC: 0.312124 cumulative IPC: 0.39092 (Simulation time: 1 hr 11 min 5 sec) 
Heartbeat CPU 0 instructions: 500000001 cycles: 1274263358 heartbeat IPC: 0.555858 cumulative IPC: 0.391157 (Simulation time: 1 hr 11 min 13 sec) 
Heartbeat CPU 0 instructions: 501000002 cycles: 1275839989 heartbeat IPC: 0.634264 cumulative IPC: 0.391462 (Simulation time: 1 hr 11 min 21 sec) 
Heartbeat CPU 0 instructions: 502000001 cycles: 1277493545 heartbeat IPC: 0.604757 cumulative IPC: 0.391743 (Simulation time: 1 hr 11 min 29 sec) 
Heartbeat CPU 0 instructions: 503000001 cycles: 1279971862 heartbeat IPC: 0.4035 cumulative IPC: 0.391766 (Simulation time: 1 hr 11 min 37 sec) 
Heartbeat CPU 0 instructions: 504000001 cycles: 1282354416 heartbeat IPC: 0.419718 cumulative IPC: 0.391819 (Simulation time: 1 hr 11 min 46 sec) 
Heartbeat CPU 0 instructions: 505000000 cycles: 1284548952 heartbeat IPC: 0.455677 cumulative IPC: 0.39193 (Simulation time: 1 hr 11 min 54 sec) 
Heartbeat CPU 0 instructions: 506000000 cycles: 1287891855 heartbeat IPC: 0.299141 cumulative IPC: 0.391685 (Simulation time: 1 hr 12 min 4 sec) 
Heartbeat CPU 0 instructions: 507000000 cycles: 1289438512 heartbeat IPC: 0.646556 cumulative IPC: 0.391996 (Simulation time: 1 hr 12 min 12 sec) 
Heartbeat CPU 0 instructions: 508000001 cycles: 1291309372 heartbeat IPC: 0.534514 cumulative IPC: 0.392206 (Simulation time: 1 hr 12 min 20 sec) 
Heartbeat CPU 0 instructions: 509000003 cycles: 1293791167 heartbeat IPC: 0.402935 cumulative IPC: 0.392227 (Simulation time: 1 hr 12 min 28 sec) 
Heartbeat CPU 0 instructions: 510000003 cycles: 1295637321 heartbeat IPC: 0.541667 cumulative IPC: 0.392444 (Simulation time: 1 hr 12 min 36 sec) 
Finished CPU 0 instructions: 500000001 cycles: 1274068620 cumulative IPC: 0.392444 (Simulation time: 1 hr 12 min 36 sec) 

ChampSim completed all CPUs

Region of Interest Statistics

CPU 0 cumulative IPC: 0.392444 instructions: 500000001 cycles: 1274068620
L1D TOTAL     ACCESS:  244447271  HIT:  231508791  MISS:   12938480
L1D LOAD      ACCESS:  105313068  HIT:   93541755  MISS:   11771313
L1D RFO       ACCESS:  139134203  HIT:  137967036  MISS:    1167167
L1D PREFETCH  ACCESS:          0  HIT:          0  MISS:          0
L1D WRITEBACK ACCESS:          0  HIT:          0  MISS:          0
L1D PREFETCH  REQUESTED:          0  ISSUED:          0  USEFUL:          0  USELESS:          0  UAC CORRECT:          0
L1D AVERAGE MISS LATENCY: 182.614 cycles
L1I TOTAL     ACCESS:  105092212  HIT:  105092212  MISS:          0
L1I LOAD      ACCESS:  105092212  HIT:  105092212  MISS:          0
L1I RFO       ACCESS:          0  HIT:          0  MISS:          0
L1I PREFETCH  ACCESS:          0  HIT:          0  MISS:          0
L1I WRITEBACK ACCESS:          0  HIT:          0  MISS:          0
L1I PREFETCH  REQUESTED:          0  ISSUED:          0  USEFUL:          0  USELESS:          0  UAC CORRECT:          0
L1I AVERAGE MISS LATENCY: -nan cycles
L2C TOTAL     ACCESS:   16000031  HIT:    3254571  MISS:   12745460
L2C LOAD      ACCESS:   11771144  HIT:     194603  MISS:   11576541
L2C RFO       ACCESS:    1167142  HIT:       8025  MISS:    1159117
L2C PREFETCH  ACCESS:          0  HIT:          0  MISS:          0
L2C WRITEBACK ACCESS:    3061745  HIT:    3051943  MISS:       9802
L2C PREFETCH  REQUESTED:          0  ISSUED:          0  USEFUL:          0  USELESS:          0  UAC CORRECT:          0
L2C AVERAGE MISS LATENCY: 169.367 cycles
LLC TOTAL     ACCESS:   15651725  HIT:    2929551  MISS:   12722174
LLC LOAD      ACCESS:   11576541  HIT:      18732  MISS:   11557809
LLC RFO       ACCESS:    1159117  HIT:        223  MISS:    1158894
LLC PREFETCH  ACCESS:          0  HIT:          0  MISS:          0
LLC WRITEBACK ACCESS:    2916067  HIT:    2910596  MISS:       5471
LLC PREFETCH  REQUESTED:          0  ISSUED:          0  USEFUL:          0  USELESS:          0  UAC CORRECT:          0
LLC AVERAGE MISS LATENCY: 137.44 cycles
Major fault: 0 Minor fault: 125386

DRAM Statistics
 CHANNEL 0
 RQ ROW_BUFFER_HIT:    5236062  ROW_BUFFER_MISS:    1128753
 DBUS_CONGESTED:    4432789
 WQ ROW_BUFFER_HIT:     957151  ROW_BUFFER_MISS:     494522  FULL:          0

 CHANNEL 1
 RQ ROW_BUFFER_HIT:    5208233  ROW_BUFFER_MISS:    1143654
 DBUS_CONGESTED:    4432789
 WQ ROW_BUFFER_HIT:     976404  ROW_BUFFER_MISS:     469403  FULL:          0

 AVG_CONGESTED_CYCLE: 18

CPU 0 Branch Prediction Accuracy: 99.1291% MPKI: 0.856568 Average ROB Occupancy at Mispredict: 277.143

Branch types
NOT_BRANCH: 450822801 90.1646%
BRANCH_DIRECT_JUMP: 2348256 0.469651%
BRANCH_INDIRECT: 0 0%
BRANCH_CONDITIONAL: 46828456 9.36569%
BRANCH_DIRECT_CALL: 220 4.4e-05%
BRANCH_INDIRECT_CALL: 0 0%
BRANCH_RETURN: 220 4.4e-05%
BRANCH_OTHER: 0 0%

