
*** ChampSim Multicore Out-of-Order Simulator ***

Warmup Instructions: 1000000
Prefetch Warmup Instructions: 10000000
Simulation Instructions: 500000000
Stat Printing Period: 1000000
Number of CPUs: 1
LLC sets: 2048
LLC ways: 16
Off-chip DRAM Size: 32768 MB Channels: 2 Width: 64-bit Data Rate: 1024 MT/s

CPU 0 runs /scratch/cluster/cmolder/ML-DPC/ChampSimTraces/spec17/605.mcf-s7.trace.xz
Read seed: 227
Heartbeat CPU 0 instructions: 1000001 cycles: 452855 heartbeat IPC: 2.20821 cumulative IPC: 2.20821 (Simulation time: 0 hr 0 min 6 sec) 

Warmup complete CPU 0 instructions: 1000001 cycles: 452855 (Simulation time: 0 hr 0 min 6 sec) 

Heartbeat CPU 0 instructions: 2000001 cycles: 6579085 heartbeat IPC: 0.163233 cumulative IPC: 0.163233 (Simulation time: 0 hr 0 min 16 sec) 
Heartbeat CPU 0 instructions: 3000000 cycles: 12711642 heartbeat IPC: 0.163064 cumulative IPC: 0.163148 (Simulation time: 0 hr 0 min 25 sec) 
Heartbeat CPU 0 instructions: 4000001 cycles: 22908147 heartbeat IPC: 0.0980729 cumulative IPC: 0.133599 (Simulation time: 0 hr 0 min 37 sec) 
Heartbeat CPU 0 instructions: 5000000 cycles: 29432399 heartbeat IPC: 0.153274 cumulative IPC: 0.138028 (Simulation time: 0 hr 0 min 47 sec) 
Heartbeat CPU 0 instructions: 6000001 cycles: 35441882 heartbeat IPC: 0.166404 cumulative IPC: 0.142902 (Simulation time: 0 hr 0 min 56 sec) 
Heartbeat CPU 0 instructions: 7000001 cycles: 41351011 heartbeat IPC: 0.16923 cumulative IPC: 0.146706 (Simulation time: 0 hr 1 min 5 sec) 
Heartbeat CPU 0 instructions: 8000002 cycles: 47241790 heartbeat IPC: 0.169757 cumulative IPC: 0.149608 (Simulation time: 0 hr 1 min 15 sec) 
Heartbeat CPU 0 instructions: 9000001 cycles: 53245245 heartbeat IPC: 0.166571 cumulative IPC: 0.151537 (Simulation time: 0 hr 1 min 24 sec) 
Heartbeat CPU 0 instructions: 10000000 cycles: 59323866 heartbeat IPC: 0.164511 cumulative IPC: 0.152877 (Simulation time: 0 hr 1 min 34 sec) 

Warmup complete CPU 0 instructions: 10000002 cycles: 59324074 (Simulation time: 0 hr 1 min 34 sec) 

Heartbeat CPU 0 instructions: 11000000 cycles: 63928458 heartbeat IPC: 0.217175 cumulative IPC: 0.217184 (Simulation time: 0 hr 1 min 43 sec) 
Heartbeat CPU 0 instructions: 12000003 cycles: 68512997 heartbeat IPC: 0.218125 cumulative IPC: 0.217653 (Simulation time: 0 hr 1 min 51 sec) 
Heartbeat CPU 0 instructions: 13000000 cycles: 73228492 heartbeat IPC: 0.212066 cumulative IPC: 0.215759 (Simulation time: 0 hr 2 min 0 sec) 
Heartbeat CPU 0 instructions: 14000000 cycles: 77783785 heartbeat IPC: 0.219525 cumulative IPC: 0.216688 (Simulation time: 0 hr 2 min 9 sec) 
Heartbeat CPU 0 instructions: 15000000 cycles: 82315205 heartbeat IPC: 0.220681 cumulative IPC: 0.217475 (Simulation time: 0 hr 2 min 17 sec) 
Heartbeat CPU 0 instructions: 16000001 cycles: 86759368 heartbeat IPC: 0.225014 cumulative IPC: 0.218696 (Simulation time: 0 hr 2 min 26 sec) 
Heartbeat CPU 0 instructions: 17000001 cycles: 91387860 heartbeat IPC: 0.216053 cumulative IPC: 0.218315 (Simulation time: 0 hr 2 min 35 sec) 
Heartbeat CPU 0 instructions: 18000000 cycles: 96068872 heartbeat IPC: 0.213629 cumulative IPC: 0.217718 (Simulation time: 0 hr 2 min 44 sec) 
Heartbeat CPU 0 instructions: 19000002 cycles: 100745241 heartbeat IPC: 0.213842 cumulative IPC: 0.21728 (Simulation time: 0 hr 2 min 53 sec) 
Heartbeat CPU 0 instructions: 20000000 cycles: 105663345 heartbeat IPC: 0.20333 cumulative IPC: 0.2158 (Simulation time: 0 hr 3 min 2 sec) 
Heartbeat CPU 0 instructions: 21000000 cycles: 110715319 heartbeat IPC: 0.197942 cumulative IPC: 0.214044 (Simulation time: 0 hr 3 min 11 sec) 
Heartbeat CPU 0 instructions: 22000000 cycles: 117132291 heartbeat IPC: 0.155837 cumulative IPC: 0.207583 (Simulation time: 0 hr 3 min 21 sec) 
Heartbeat CPU 0 instructions: 23000002 cycles: 122172346 heartbeat IPC: 0.198411 cumulative IPC: 0.206847 (Simulation time: 0 hr 3 min 31 sec) 
Heartbeat CPU 0 instructions: 24000002 cycles: 127085859 heartbeat IPC: 0.20352 cumulative IPC: 0.206606 (Simulation time: 0 hr 3 min 40 sec) 
Heartbeat CPU 0 instructions: 25000000 cycles: 131899448 heartbeat IPC: 0.207745 cumulative IPC: 0.206682 (Simulation time: 0 hr 3 min 48 sec) 
Heartbeat CPU 0 instructions: 26000003 cycles: 136915549 heartbeat IPC: 0.199359 cumulative IPC: 0.206208 (Simulation time: 0 hr 3 min 57 sec) 
Heartbeat CPU 0 instructions: 27000002 cycles: 141894634 heartbeat IPC: 0.20084 cumulative IPC: 0.205885 (Simulation time: 0 hr 4 min 6 sec) 
Heartbeat CPU 0 instructions: 28000001 cycles: 146956351 heartbeat IPC: 0.197561 cumulative IPC: 0.205404 (Simulation time: 0 hr 4 min 16 sec) 
Heartbeat CPU 0 instructions: 29000002 cycles: 152055993 heartbeat IPC: 0.196092 cumulative IPC: 0.204892 (Simulation time: 0 hr 4 min 25 sec) 
Heartbeat CPU 0 instructions: 30000001 cycles: 157611886 heartbeat IPC: 0.179989 cumulative IPC: 0.203484 (Simulation time: 0 hr 4 min 34 sec) 
Heartbeat CPU 0 instructions: 31000001 cycles: 162911533 heartbeat IPC: 0.188692 cumulative IPC: 0.202727 (Simulation time: 0 hr 4 min 44 sec) 
Heartbeat CPU 0 instructions: 32000000 cycles: 167552794 heartbeat IPC: 0.215458 cumulative IPC: 0.203273 (Simulation time: 0 hr 4 min 52 sec) 
Heartbeat CPU 0 instructions: 33000000 cycles: 173118251 heartbeat IPC: 0.17968 cumulative IPC: 0.202119 (Simulation time: 0 hr 5 min 1 sec) 
Heartbeat CPU 0 instructions: 34000000 cycles: 177689438 heartbeat IPC: 0.218762 cumulative IPC: 0.202762 (Simulation time: 0 hr 5 min 10 sec) 
Heartbeat CPU 0 instructions: 35000002 cycles: 182970742 heartbeat IPC: 0.189348 cumulative IPC: 0.202189 (Simulation time: 0 hr 5 min 20 sec) 
Heartbeat CPU 0 instructions: 36000002 cycles: 188636907 heartbeat IPC: 0.176486 cumulative IPC: 0.201063 (Simulation time: 0 hr 5 min 30 sec) 
Heartbeat CPU 0 instructions: 37000001 cycles: 193681327 heartbeat IPC: 0.198239 cumulative IPC: 0.200957 (Simulation time: 0 hr 5 min 39 sec) 
Heartbeat CPU 0 instructions: 38000000 cycles: 198514753 heartbeat IPC: 0.206892 cumulative IPC: 0.201163 (Simulation time: 0 hr 5 min 48 sec) 
Heartbeat CPU 0 instructions: 39000003 cycles: 203685284 heartbeat IPC: 0.193404 cumulative IPC: 0.200885 (Simulation time: 0 hr 5 min 57 sec) 
Heartbeat CPU 0 instructions: 40000002 cycles: 208560224 heartbeat IPC: 0.205131 cumulative IPC: 0.201024 (Simulation time: 0 hr 6 min 6 sec) 
Heartbeat CPU 0 instructions: 41000001 cycles: 213475171 heartbeat IPC: 0.203461 cumulative IPC: 0.201101 (Simulation time: 0 hr 6 min 15 sec) 
Heartbeat CPU 0 instructions: 42000001 cycles: 221555112 heartbeat IPC: 0.123763 cumulative IPC: 0.19725 (Simulation time: 0 hr 6 min 27 sec) 
Heartbeat CPU 0 instructions: 43000000 cycles: 226675600 heartbeat IPC: 0.195294 cumulative IPC: 0.19719 (Simulation time: 0 hr 6 min 36 sec) 
Heartbeat CPU 0 instructions: 44000000 cycles: 231441159 heartbeat IPC: 0.209839 cumulative IPC: 0.19754 (Simulation time: 0 hr 6 min 45 sec) 
Heartbeat CPU 0 instructions: 45000000 cycles: 236414396 heartbeat IPC: 0.201076 cumulative IPC: 0.197639 (Simulation time: 0 hr 6 min 54 sec) 
Heartbeat CPU 0 instructions: 46000002 cycles: 241488983 heartbeat IPC: 0.197061 cumulative IPC: 0.197623 (Simulation time: 0 hr 7 min 4 sec) 
Heartbeat CPU 0 instructions: 47000000 cycles: 246509916 heartbeat IPC: 0.199166 cumulative IPC: 0.197665 (Simulation time: 0 hr 7 min 13 sec) 
Heartbeat CPU 0 instructions: 48000001 cycles: 251440318 heartbeat IPC: 0.202823 cumulative IPC: 0.197797 (Simulation time: 0 hr 7 min 22 sec) 
Heartbeat CPU 0 instructions: 49000003 cycles: 256807466 heartbeat IPC: 0.186319 cumulative IPC: 0.197485 (Simulation time: 0 hr 7 min 31 sec) 
Heartbeat CPU 0 instructions: 50000000 cycles: 261662639 heartbeat IPC: 0.205965 cumulative IPC: 0.197688 (Simulation time: 0 hr 7 min 40 sec) 
Heartbeat CPU 0 instructions: 51000002 cycles: 266372988 heartbeat IPC: 0.212299 cumulative IPC: 0.198021 (Simulation time: 0 hr 7 min 49 sec) 
Heartbeat CPU 0 instructions: 52000000 cycles: 270941345 heartbeat IPC: 0.218897 cumulative IPC: 0.198472 (Simulation time: 0 hr 7 min 58 sec) 
Heartbeat CPU 0 instructions: 53000001 cycles: 275652787 heartbeat IPC: 0.212249 cumulative IPC: 0.198772 (Simulation time: 0 hr 8 min 7 sec) 
Heartbeat CPU 0 instructions: 54000003 cycles: 280624401 heartbeat IPC: 0.201142 cumulative IPC: 0.198825 (Simulation time: 0 hr 8 min 16 sec) 
Heartbeat CPU 0 instructions: 55000000 cycles: 285656278 heartbeat IPC: 0.198732 cumulative IPC: 0.198823 (Simulation time: 0 hr 8 min 25 sec) 
Heartbeat CPU 0 instructions: 56000001 cycles: 291069401 heartbeat IPC: 0.184736 cumulative IPC: 0.198494 (Simulation time: 0 hr 8 min 35 sec) 
Heartbeat CPU 0 instructions: 57000001 cycles: 296146336 heartbeat IPC: 0.196969 cumulative IPC: 0.198461 (Simulation time: 0 hr 8 min 44 sec) 
Heartbeat CPU 0 instructions: 58000000 cycles: 300865823 heartbeat IPC: 0.211887 cumulative IPC: 0.198723 (Simulation time: 0 hr 8 min 53 sec) 
Heartbeat CPU 0 instructions: 59000000 cycles: 305554476 heartbeat IPC: 0.213281 cumulative IPC: 0.199001 (Simulation time: 0 hr 9 min 1 sec) 
Heartbeat CPU 0 instructions: 60000000 cycles: 310215931 heartbeat IPC: 0.214525 cumulative IPC: 0.199289 (Simulation time: 0 hr 9 min 10 sec) 
Heartbeat CPU 0 instructions: 61000001 cycles: 315035455 heartbeat IPC: 0.20749 cumulative IPC: 0.199444 (Simulation time: 0 hr 9 min 19 sec) 
Heartbeat CPU 0 instructions: 62000002 cycles: 319748051 heartbeat IPC: 0.212197 cumulative IPC: 0.199674 (Simulation time: 0 hr 9 min 28 sec) 
Heartbeat CPU 0 instructions: 63000000 cycles: 324566626 heartbeat IPC: 0.20753 cumulative IPC: 0.199817 (Simulation time: 0 hr 9 min 37 sec) 
Heartbeat CPU 0 instructions: 64000001 cycles: 329460143 heartbeat IPC: 0.204352 cumulative IPC: 0.199899 (Simulation time: 0 hr 9 min 46 sec) 
Heartbeat CPU 0 instructions: 65000002 cycles: 334562789 heartbeat IPC: 0.195977 cumulative IPC: 0.199827 (Simulation time: 0 hr 9 min 55 sec) 
Heartbeat CPU 0 instructions: 66000000 cycles: 339344635 heartbeat IPC: 0.209124 cumulative IPC: 0.199985 (Simulation time: 0 hr 10 min 4 sec) 
Heartbeat CPU 0 instructions: 67000000 cycles: 344206012 heartbeat IPC: 0.205703 cumulative IPC: 0.200083 (Simulation time: 0 hr 10 min 13 sec) 
Heartbeat CPU 0 instructions: 68000001 cycles: 348841714 heartbeat IPC: 0.215717 cumulative IPC: 0.200333 (Simulation time: 0 hr 10 min 22 sec) 
Heartbeat CPU 0 instructions: 69000002 cycles: 353617591 heartbeat IPC: 0.209386 cumulative IPC: 0.20048 (Simulation time: 0 hr 10 min 31 sec) 
Heartbeat CPU 0 instructions: 70000002 cycles: 358341434 heartbeat IPC: 0.211692 cumulative IPC: 0.200657 (Simulation time: 0 hr 10 min 40 sec) 
Heartbeat CPU 0 instructions: 71000000 cycles: 363083821 heartbeat IPC: 0.210864 cumulative IPC: 0.200817 (Simulation time: 0 hr 10 min 49 sec) 
Heartbeat CPU 0 instructions: 72000001 cycles: 367817810 heartbeat IPC: 0.211239 cumulative IPC: 0.200977 (Simulation time: 0 hr 10 min 58 sec) 
Heartbeat CPU 0 instructions: 73000002 cycles: 372510465 heartbeat IPC: 0.213099 cumulative IPC: 0.201158 (Simulation time: 0 hr 11 min 7 sec) 
Heartbeat CPU 0 instructions: 74000000 cycles: 377333549 heartbeat IPC: 0.207336 cumulative IPC: 0.201252 (Simulation time: 0 hr 11 min 15 sec) 
Heartbeat CPU 0 instructions: 75000000 cycles: 382180667 heartbeat IPC: 0.206308 cumulative IPC: 0.201328 (Simulation time: 0 hr 11 min 24 sec) 
Heartbeat CPU 0 instructions: 76000001 cycles: 387060690 heartbeat IPC: 0.204917 cumulative IPC: 0.201381 (Simulation time: 0 hr 11 min 33 sec) 
Heartbeat CPU 0 instructions: 77000000 cycles: 391923566 heartbeat IPC: 0.205639 cumulative IPC: 0.201443 (Simulation time: 0 hr 11 min 42 sec) 
Heartbeat CPU 0 instructions: 78000000 cycles: 396798721 heartbeat IPC: 0.205122 cumulative IPC: 0.201497 (Simulation time: 0 hr 11 min 51 sec) 
Heartbeat CPU 0 instructions: 79000002 cycles: 401740060 heartbeat IPC: 0.202375 cumulative IPC: 0.201509 (Simulation time: 0 hr 12 min 0 sec) 
Heartbeat CPU 0 instructions: 80000002 cycles: 406558216 heartbeat IPC: 0.207548 cumulative IPC: 0.201593 (Simulation time: 0 hr 12 min 9 sec) 
Heartbeat CPU 0 instructions: 81000001 cycles: 411439119 heartbeat IPC: 0.20488 cumulative IPC: 0.201639 (Simulation time: 0 hr 12 min 17 sec) 
Heartbeat CPU 0 instructions: 82000003 cycles: 416410366 heartbeat IPC: 0.201157 cumulative IPC: 0.201632 (Simulation time: 0 hr 12 min 26 sec) 
Heartbeat CPU 0 instructions: 83000001 cycles: 421435863 heartbeat IPC: 0.198985 cumulative IPC: 0.201595 (Simulation time: 0 hr 12 min 35 sec) 
Heartbeat CPU 0 instructions: 84000001 cycles: 426609582 heartbeat IPC: 0.193285 cumulative IPC: 0.201478 (Simulation time: 0 hr 12 min 45 sec) 
Heartbeat CPU 0 instructions: 85000003 cycles: 432082585 heartbeat IPC: 0.182715 cumulative IPC: 0.201203 (Simulation time: 0 hr 12 min 54 sec) 
Heartbeat CPU 0 instructions: 86000000 cycles: 437198794 heartbeat IPC: 0.195457 cumulative IPC: 0.201125 (Simulation time: 0 hr 13 min 3 sec) 
Heartbeat CPU 0 instructions: 87000001 cycles: 442923859 heartbeat IPC: 0.174671 cumulative IPC: 0.20073 (Simulation time: 0 hr 13 min 13 sec) 
Heartbeat CPU 0 instructions: 88000000 cycles: 448226634 heartbeat IPC: 0.18858 cumulative IPC: 0.200564 (Simulation time: 0 hr 13 min 22 sec) 
Heartbeat CPU 0 instructions: 89000000 cycles: 453195626 heartbeat IPC: 0.201248 cumulative IPC: 0.200573 (Simulation time: 0 hr 13 min 30 sec) 
Heartbeat CPU 0 instructions: 90000000 cycles: 458109741 heartbeat IPC: 0.203495 cumulative IPC: 0.200609 (Simulation time: 0 hr 13 min 39 sec) 
Heartbeat CPU 0 instructions: 91000000 cycles: 465830867 heartbeat IPC: 0.129515 cumulative IPC: 0.199259 (Simulation time: 0 hr 13 min 49 sec) 
Heartbeat CPU 0 instructions: 92000000 cycles: 470679803 heartbeat IPC: 0.206231 cumulative IPC: 0.199341 (Simulation time: 0 hr 13 min 58 sec) 
Heartbeat CPU 0 instructions: 93000000 cycles: 475643676 heartbeat IPC: 0.201456 cumulative IPC: 0.199366 (Simulation time: 0 hr 14 min 7 sec) 
Heartbeat CPU 0 instructions: 94000001 cycles: 480967118 heartbeat IPC: 0.187849 cumulative IPC: 0.199221 (Simulation time: 0 hr 14 min 16 sec) 
Heartbeat CPU 0 instructions: 95000000 cycles: 485859742 heartbeat IPC: 0.204389 cumulative IPC: 0.19928 (Simulation time: 0 hr 14 min 25 sec) 
Heartbeat CPU 0 instructions: 96000000 cycles: 490865331 heartbeat IPC: 0.199777 cumulative IPC: 0.199286 (Simulation time: 0 hr 14 min 33 sec) 
Heartbeat CPU 0 instructions: 97000001 cycles: 495813716 heartbeat IPC: 0.202086 cumulative IPC: 0.199317 (Simulation time: 0 hr 14 min 42 sec) 
Heartbeat CPU 0 instructions: 98000000 cycles: 500963481 heartbeat IPC: 0.194183 cumulative IPC: 0.199258 (Simulation time: 0 hr 14 min 51 sec) 
Heartbeat CPU 0 instructions: 99000000 cycles: 506146126 heartbeat IPC: 0.192952 cumulative IPC: 0.199184 (Simulation time: 0 hr 15 min 0 sec) 
Heartbeat CPU 0 instructions: 100000001 cycles: 510943489 heartbeat IPC: 0.208448 cumulative IPC: 0.199283 (Simulation time: 0 hr 15 min 9 sec) 
Heartbeat CPU 0 instructions: 101000000 cycles: 515740678 heartbeat IPC: 0.208455 cumulative IPC: 0.199379 (Simulation time: 0 hr 15 min 17 sec) 
Heartbeat CPU 0 instructions: 102000000 cycles: 520466128 heartbeat IPC: 0.21162 cumulative IPC: 0.199505 (Simulation time: 0 hr 15 min 26 sec) 
Heartbeat CPU 0 instructions: 103000002 cycles: 525322806 heartbeat IPC: 0.205902 cumulative IPC: 0.199571 (Simulation time: 0 hr 15 min 34 sec) 
Heartbeat CPU 0 instructions: 104000000 cycles: 530067133 heartbeat IPC: 0.210778 cumulative IPC: 0.199684 (Simulation time: 0 hr 15 min 43 sec) 
Heartbeat CPU 0 instructions: 105000000 cycles: 538273983 heartbeat IPC: 0.121849 cumulative IPC: 0.198351 (Simulation time: 0 hr 15 min 54 sec) 
Heartbeat CPU 0 instructions: 106000002 cycles: 544727861 heartbeat IPC: 0.154946 cumulative IPC: 0.197773 (Simulation time: 0 hr 16 min 4 sec) 
Heartbeat CPU 0 instructions: 107000002 cycles: 549752844 heartbeat IPC: 0.199006 cumulative IPC: 0.197786 (Simulation time: 0 hr 16 min 12 sec) 
Heartbeat CPU 0 instructions: 108000000 cycles: 554619145 heartbeat IPC: 0.205494 cumulative IPC: 0.197862 (Simulation time: 0 hr 16 min 21 sec) 
Heartbeat CPU 0 instructions: 109000000 cycles: 559616188 heartbeat IPC: 0.200118 cumulative IPC: 0.197884 (Simulation time: 0 hr 16 min 30 sec) 
Heartbeat CPU 0 instructions: 110000000 cycles: 564755375 heartbeat IPC: 0.194583 cumulative IPC: 0.197851 (Simulation time: 0 hr 16 min 39 sec) 
Heartbeat CPU 0 instructions: 111000000 cycles: 570932604 heartbeat IPC: 0.161885 cumulative IPC: 0.197417 (Simulation time: 0 hr 16 min 48 sec) 
Heartbeat CPU 0 instructions: 112000000 cycles: 576057825 heartbeat IPC: 0.195114 cumulative IPC: 0.197394 (Simulation time: 0 hr 16 min 57 sec) 
Heartbeat CPU 0 instructions: 113000000 cycles: 580917057 heartbeat IPC: 0.205794 cumulative IPC: 0.197472 (Simulation time: 0 hr 17 min 5 sec) 
Heartbeat CPU 0 instructions: 114000000 cycles: 585774375 heartbeat IPC: 0.205875 cumulative IPC: 0.19755 (Simulation time: 0 hr 17 min 13 sec) 
Heartbeat CPU 0 instructions: 115000001 cycles: 591138677 heartbeat IPC: 0.186418 cumulative IPC: 0.197437 (Simulation time: 0 hr 17 min 22 sec) 
Heartbeat CPU 0 instructions: 116000001 cycles: 596840235 heartbeat IPC: 0.175391 cumulative IPC: 0.197203 (Simulation time: 0 hr 17 min 31 sec) 
Heartbeat CPU 0 instructions: 117000001 cycles: 601658171 heartbeat IPC: 0.207558 cumulative IPC: 0.197295 (Simulation time: 0 hr 17 min 40 sec) 
Heartbeat CPU 0 instructions: 118000000 cycles: 606473547 heartbeat IPC: 0.207668 cumulative IPC: 0.197387 (Simulation time: 0 hr 17 min 49 sec) 
Heartbeat CPU 0 instructions: 119000000 cycles: 611526089 heartbeat IPC: 0.19792 cumulative IPC: 0.197392 (Simulation time: 0 hr 17 min 58 sec) 
Heartbeat CPU 0 instructions: 120000000 cycles: 616328818 heartbeat IPC: 0.208215 cumulative IPC: 0.197485 (Simulation time: 0 hr 18 min 7 sec) 
Heartbeat CPU 0 instructions: 121000000 cycles: 621191241 heartbeat IPC: 0.205659 cumulative IPC: 0.197556 (Simulation time: 0 hr 18 min 16 sec) 
Heartbeat CPU 0 instructions: 122000001 cycles: 625953235 heartbeat IPC: 0.209996 cumulative IPC: 0.19766 (Simulation time: 0 hr 18 min 25 sec) 
Heartbeat CPU 0 instructions: 123000000 cycles: 630920759 heartbeat IPC: 0.201307 cumulative IPC: 0.197692 (Simulation time: 0 hr 18 min 34 sec) 
Heartbeat CPU 0 instructions: 124000001 cycles: 635797902 heartbeat IPC: 0.205038 cumulative IPC: 0.197754 (Simulation time: 0 hr 18 min 43 sec) 
Heartbeat CPU 0 instructions: 125000000 cycles: 640948130 heartbeat IPC: 0.194166 cumulative IPC: 0.197722 (Simulation time: 0 hr 18 min 52 sec) 
Heartbeat CPU 0 instructions: 126000000 cycles: 646117384 heartbeat IPC: 0.193452 cumulative IPC: 0.197685 (Simulation time: 0 hr 19 min 1 sec) 
Heartbeat CPU 0 instructions: 127000003 cycles: 651449901 heartbeat IPC: 0.187529 cumulative IPC: 0.197593 (Simulation time: 0 hr 19 min 10 sec) 
Heartbeat CPU 0 instructions: 128000002 cycles: 656896125 heartbeat IPC: 0.183613 cumulative IPC: 0.197466 (Simulation time: 0 hr 19 min 20 sec) 
Heartbeat CPU 0 instructions: 129000002 cycles: 661880348 heartbeat IPC: 0.200633 cumulative IPC: 0.197492 (Simulation time: 0 hr 19 min 29 sec) 
Heartbeat CPU 0 instructions: 130000000 cycles: 666657038 heartbeat IPC: 0.20935 cumulative IPC: 0.197585 (Simulation time: 0 hr 19 min 38 sec) 
Heartbeat CPU 0 instructions: 131000001 cycles: 671278829 heartbeat IPC: 0.216367 cumulative IPC: 0.197727 (Simulation time: 0 hr 19 min 46 sec) 
Heartbeat CPU 0 instructions: 132000000 cycles: 675911998 heartbeat IPC: 0.215835 cumulative IPC: 0.197863 (Simulation time: 0 hr 19 min 55 sec) 
Heartbeat CPU 0 instructions: 133000001 cycles: 680976971 heartbeat IPC: 0.197435 cumulative IPC: 0.19786 (Simulation time: 0 hr 20 min 4 sec) 
Heartbeat CPU 0 instructions: 134000001 cycles: 685656757 heartbeat IPC: 0.213685 cumulative IPC: 0.197978 (Simulation time: 0 hr 20 min 13 sec) 
Heartbeat CPU 0 instructions: 135000000 cycles: 690441400 heartbeat IPC: 0.209002 cumulative IPC: 0.198061 (Simulation time: 0 hr 20 min 21 sec) 
Heartbeat CPU 0 instructions: 136000000 cycles: 695242468 heartbeat IPC: 0.208287 cumulative IPC: 0.198139 (Simulation time: 0 hr 20 min 30 sec) 
Heartbeat CPU 0 instructions: 137000000 cycles: 700115132 heartbeat IPC: 0.205227 cumulative IPC: 0.198193 (Simulation time: 0 hr 20 min 39 sec) 
Heartbeat CPU 0 instructions: 138000000 cycles: 704955936 heartbeat IPC: 0.206577 cumulative IPC: 0.198255 (Simulation time: 0 hr 20 min 48 sec) 
Heartbeat CPU 0 instructions: 139000003 cycles: 709748189 heartbeat IPC: 0.208671 cumulative IPC: 0.198332 (Simulation time: 0 hr 20 min 57 sec) 
Heartbeat CPU 0 instructions: 140000001 cycles: 715065348 heartbeat IPC: 0.18807 cumulative IPC: 0.198249 (Simulation time: 0 hr 21 min 6 sec) 
Heartbeat CPU 0 instructions: 141000002 cycles: 720060946 heartbeat IPC: 0.200176 cumulative IPC: 0.198263 (Simulation time: 0 hr 21 min 16 sec) 
Heartbeat CPU 0 instructions: 142000000 cycles: 724776340 heartbeat IPC: 0.212071 cumulative IPC: 0.198361 (Simulation time: 0 hr 21 min 24 sec) 
Heartbeat CPU 0 instructions: 143000000 cycles: 729588456 heartbeat IPC: 0.207809 cumulative IPC: 0.198429 (Simulation time: 0 hr 21 min 33 sec) 
Heartbeat CPU 0 instructions: 144000001 cycles: 734517026 heartbeat IPC: 0.202899 cumulative IPC: 0.198462 (Simulation time: 0 hr 21 min 42 sec) 
Heartbeat CPU 0 instructions: 145000000 cycles: 739402491 heartbeat IPC: 0.204689 cumulative IPC: 0.198507 (Simulation time: 0 hr 21 min 51 sec) 
Heartbeat CPU 0 instructions: 146000002 cycles: 745352572 heartbeat IPC: 0.168065 cumulative IPC: 0.198243 (Simulation time: 0 hr 22 min 1 sec) 
Heartbeat CPU 0 instructions: 147000001 cycles: 750131092 heartbeat IPC: 0.20927 cumulative IPC: 0.198319 (Simulation time: 0 hr 22 min 9 sec) 
Heartbeat CPU 0 instructions: 148000000 cycles: 754830202 heartbeat IPC: 0.212806 cumulative IPC: 0.198417 (Simulation time: 0 hr 22 min 18 sec) 
Heartbeat CPU 0 instructions: 149000001 cycles: 759534197 heartbeat IPC: 0.212585 cumulative IPC: 0.198512 (Simulation time: 0 hr 22 min 26 sec) 
Heartbeat CPU 0 instructions: 150000000 cycles: 764437967 heartbeat IPC: 0.203925 cumulative IPC: 0.198549 (Simulation time: 0 hr 22 min 35 sec) 
Heartbeat CPU 0 instructions: 151000002 cycles: 769620837 heartbeat IPC: 0.192944 cumulative IPC: 0.198509 (Simulation time: 0 hr 22 min 44 sec) 
Heartbeat CPU 0 instructions: 152000001 cycles: 774413604 heartbeat IPC: 0.208648 cumulative IPC: 0.198577 (Simulation time: 0 hr 22 min 53 sec) 
Heartbeat CPU 0 instructions: 153000000 cycles: 779254600 heartbeat IPC: 0.206569 cumulative IPC: 0.19863 (Simulation time: 0 hr 23 min 2 sec) 
Heartbeat CPU 0 instructions: 154000000 cycles: 784178094 heartbeat IPC: 0.203108 cumulative IPC: 0.198661 (Simulation time: 0 hr 23 min 10 sec) 
Heartbeat CPU 0 instructions: 155000003 cycles: 789147167 heartbeat IPC: 0.201245 cumulative IPC: 0.198678 (Simulation time: 0 hr 23 min 19 sec) 
Heartbeat CPU 0 instructions: 156000000 cycles: 794030800 heartbeat IPC: 0.204765 cumulative IPC: 0.198719 (Simulation time: 0 hr 23 min 28 sec) 
Heartbeat CPU 0 instructions: 157000003 cycles: 799150352 heartbeat IPC: 0.19533 cumulative IPC: 0.198695 (Simulation time: 0 hr 23 min 37 sec) 
Heartbeat CPU 0 instructions: 158000000 cycles: 804514800 heartbeat IPC: 0.186412 cumulative IPC: 0.198607 (Simulation time: 0 hr 23 min 47 sec) 
Heartbeat CPU 0 instructions: 159000000 cycles: 809696716 heartbeat IPC: 0.192979 cumulative IPC: 0.198568 (Simulation time: 0 hr 23 min 56 sec) 
Heartbeat CPU 0 instructions: 160000002 cycles: 814986014 heartbeat IPC: 0.189061 cumulative IPC: 0.198501 (Simulation time: 0 hr 24 min 5 sec) 
Heartbeat CPU 0 instructions: 161000001 cycles: 820103858 heartbeat IPC: 0.195395 cumulative IPC: 0.198481 (Simulation time: 0 hr 24 min 14 sec) 
Heartbeat CPU 0 instructions: 162000001 cycles: 825568509 heartbeat IPC: 0.182994 cumulative IPC: 0.19837 (Simulation time: 0 hr 24 min 23 sec) 
Heartbeat CPU 0 instructions: 163000002 cycles: 830809757 heartbeat IPC: 0.190794 cumulative IPC: 0.198319 (Simulation time: 0 hr 24 min 32 sec) 
Heartbeat CPU 0 instructions: 164000000 cycles: 836471755 heartbeat IPC: 0.176616 cumulative IPC: 0.198161 (Simulation time: 0 hr 24 min 42 sec) 
Heartbeat CPU 0 instructions: 165000000 cycles: 841578801 heartbeat IPC: 0.195808 cumulative IPC: 0.198145 (Simulation time: 0 hr 24 min 51 sec) 
Heartbeat CPU 0 instructions: 166000002 cycles: 846310265 heartbeat IPC: 0.211351 cumulative IPC: 0.198225 (Simulation time: 0 hr 25 min 0 sec) 
Heartbeat CPU 0 instructions: 167000001 cycles: 851639625 heartbeat IPC: 0.18764 cumulative IPC: 0.198153 (Simulation time: 0 hr 25 min 9 sec) 
Heartbeat CPU 0 instructions: 168000002 cycles: 856661469 heartbeat IPC: 0.19913 cumulative IPC: 0.19816 (Simulation time: 0 hr 25 min 18 sec) 
Heartbeat CPU 0 instructions: 169000000 cycles: 861629436 heartbeat IPC: 0.201289 cumulative IPC: 0.198179 (Simulation time: 0 hr 25 min 27 sec) 
Heartbeat CPU 0 instructions: 170000001 cycles: 866541201 heartbeat IPC: 0.203593 cumulative IPC: 0.198212 (Simulation time: 0 hr 25 min 36 sec) 
Heartbeat CPU 0 instructions: 171000000 cycles: 871206497 heartbeat IPC: 0.214348 cumulative IPC: 0.198305 (Simulation time: 0 hr 25 min 44 sec) 
Heartbeat CPU 0 instructions: 172000003 cycles: 876033783 heartbeat IPC: 0.207156 cumulative IPC: 0.198357 (Simulation time: 0 hr 25 min 53 sec) 
Heartbeat CPU 0 instructions: 173000000 cycles: 880919696 heartbeat IPC: 0.204669 cumulative IPC: 0.198394 (Simulation time: 0 hr 26 min 2 sec) 
Heartbeat CPU 0 instructions: 174000001 cycles: 886286063 heartbeat IPC: 0.186346 cumulative IPC: 0.198316 (Simulation time: 0 hr 26 min 11 sec) 
Heartbeat CPU 0 instructions: 175000003 cycles: 891703922 heartbeat IPC: 0.184575 cumulative IPC: 0.198227 (Simulation time: 0 hr 26 min 21 sec) 
Heartbeat CPU 0 instructions: 176000000 cycles: 896951545 heartbeat IPC: 0.190562 cumulative IPC: 0.198179 (Simulation time: 0 hr 26 min 30 sec) 
Heartbeat CPU 0 instructions: 177000002 cycles: 902084169 heartbeat IPC: 0.194833 cumulative IPC: 0.198158 (Simulation time: 0 hr 26 min 39 sec) 
Heartbeat CPU 0 instructions: 178000003 cycles: 907217074 heartbeat IPC: 0.194822 cumulative IPC: 0.198138 (Simulation time: 0 hr 26 min 48 sec) 
Heartbeat CPU 0 instructions: 179000003 cycles: 912159518 heartbeat IPC: 0.202329 cumulative IPC: 0.198162 (Simulation time: 0 hr 26 min 57 sec) 
Heartbeat CPU 0 instructions: 180000002 cycles: 917479402 heartbeat IPC: 0.187974 cumulative IPC: 0.198099 (Simulation time: 0 hr 27 min 6 sec) 
Heartbeat CPU 0 instructions: 181000001 cycles: 922784727 heartbeat IPC: 0.18849 cumulative IPC: 0.19804 (Simulation time: 0 hr 27 min 15 sec) 
Heartbeat CPU 0 instructions: 182000003 cycles: 928311389 heartbeat IPC: 0.180941 cumulative IPC: 0.197932 (Simulation time: 0 hr 27 min 25 sec) 
Heartbeat CPU 0 instructions: 183000001 cycles: 933635346 heartbeat IPC: 0.18783 cumulative IPC: 0.19787 (Simulation time: 0 hr 27 min 34 sec) 
Heartbeat CPU 0 instructions: 184000002 cycles: 939265400 heartbeat IPC: 0.177618 cumulative IPC: 0.19774 (Simulation time: 0 hr 27 min 43 sec) 
Heartbeat CPU 0 instructions: 185000000 cycles: 944687424 heartbeat IPC: 0.184433 cumulative IPC: 0.197659 (Simulation time: 0 hr 27 min 53 sec) 
Heartbeat CPU 0 instructions: 186000000 cycles: 949918133 heartbeat IPC: 0.191179 cumulative IPC: 0.197621 (Simulation time: 0 hr 28 min 2 sec) 
Heartbeat CPU 0 instructions: 187000000 cycles: 955083678 heartbeat IPC: 0.19359 cumulative IPC: 0.197598 (Simulation time: 0 hr 28 min 11 sec) 
Heartbeat CPU 0 instructions: 188000000 cycles: 960159046 heartbeat IPC: 0.19703 cumulative IPC: 0.197594 (Simulation time: 0 hr 28 min 20 sec) 
Heartbeat CPU 0 instructions: 189000000 cycles: 967876322 heartbeat IPC: 0.129579 cumulative IPC: 0.197017 (Simulation time: 0 hr 28 min 31 sec) 
Heartbeat CPU 0 instructions: 190000003 cycles: 973552716 heartbeat IPC: 0.176169 cumulative IPC: 0.196887 (Simulation time: 0 hr 28 min 40 sec) 
Heartbeat CPU 0 instructions: 191000000 cycles: 979219312 heartbeat IPC: 0.176472 cumulative IPC: 0.196762 (Simulation time: 0 hr 28 min 50 sec) 
Heartbeat CPU 0 instructions: 192000001 cycles: 985013454 heartbeat IPC: 0.172588 cumulative IPC: 0.19661 (Simulation time: 0 hr 28 min 59 sec) 
Heartbeat CPU 0 instructions: 193000000 cycles: 990243026 heartbeat IPC: 0.19122 cumulative IPC: 0.19658 (Simulation time: 0 hr 29 min 9 sec) 
Heartbeat CPU 0 instructions: 194000002 cycles: 995597161 heartbeat IPC: 0.186772 cumulative IPC: 0.196524 (Simulation time: 0 hr 29 min 18 sec) 
Heartbeat CPU 0 instructions: 195000000 cycles: 1000974640 heartbeat IPC: 0.18596 cumulative IPC: 0.196464 (Simulation time: 0 hr 29 min 27 sec) 
Heartbeat CPU 0 instructions: 196000001 cycles: 1005879721 heartbeat IPC: 0.20387 cumulative IPC: 0.196502 (Simulation time: 0 hr 29 min 36 sec) 
Heartbeat CPU 0 instructions: 197000001 cycles: 1013521073 heartbeat IPC: 0.130867 cumulative IPC: 0.195976 (Simulation time: 0 hr 29 min 46 sec) 
Heartbeat CPU 0 instructions: 198000000 cycles: 1018886536 heartbeat IPC: 0.186377 cumulative IPC: 0.195923 (Simulation time: 0 hr 29 min 56 sec) 
Heartbeat CPU 0 instructions: 199000000 cycles: 1024379675 heartbeat IPC: 0.182045 cumulative IPC: 0.195844 (Simulation time: 0 hr 30 min 5 sec) 
Heartbeat CPU 0 instructions: 200000002 cycles: 1029723786 heartbeat IPC: 0.187122 cumulative IPC: 0.195796 (Simulation time: 0 hr 30 min 14 sec) 
Heartbeat CPU 0 instructions: 201000000 cycles: 1035070562 heartbeat IPC: 0.187028 cumulative IPC: 0.195748 (Simulation time: 0 hr 30 min 24 sec) 
Heartbeat CPU 0 instructions: 202000001 cycles: 1040725301 heartbeat IPC: 0.176843 cumulative IPC: 0.195639 (Simulation time: 0 hr 30 min 33 sec) 
Heartbeat CPU 0 instructions: 203000001 cycles: 1046139788 heartbeat IPC: 0.18469 cumulative IPC: 0.195579 (Simulation time: 0 hr 30 min 42 sec) 
Heartbeat CPU 0 instructions: 204000000 cycles: 1051910603 heartbeat IPC: 0.173286 cumulative IPC: 0.195449 (Simulation time: 0 hr 30 min 52 sec) 
Heartbeat CPU 0 instructions: 205000001 cycles: 1057387290 heartbeat IPC: 0.182592 cumulative IPC: 0.195378 (Simulation time: 0 hr 31 min 1 sec) 
Heartbeat CPU 0 instructions: 206000001 cycles: 1062722282 heartbeat IPC: 0.187442 cumulative IPC: 0.195336 (Simulation time: 0 hr 31 min 10 sec) 
Heartbeat CPU 0 instructions: 207000001 cycles: 1067793561 heartbeat IPC: 0.197189 cumulative IPC: 0.195346 (Simulation time: 0 hr 31 min 19 sec) 
Heartbeat CPU 0 instructions: 208000000 cycles: 1073130876 heartbeat IPC: 0.18736 cumulative IPC: 0.195303 (Simulation time: 0 hr 31 min 28 sec) 
Heartbeat CPU 0 instructions: 209000000 cycles: 1078381173 heartbeat IPC: 0.190465 cumulative IPC: 0.195279 (Simulation time: 0 hr 31 min 37 sec) 
Heartbeat CPU 0 instructions: 210000003 cycles: 1084597024 heartbeat IPC: 0.160879 cumulative IPC: 0.19507 (Simulation time: 0 hr 31 min 47 sec) 
Heartbeat CPU 0 instructions: 211000000 cycles: 1090003361 heartbeat IPC: 0.184968 cumulative IPC: 0.195017 (Simulation time: 0 hr 31 min 56 sec) 
Heartbeat CPU 0 instructions: 212000000 cycles: 1095183418 heartbeat IPC: 0.193048 cumulative IPC: 0.195007 (Simulation time: 0 hr 32 min 5 sec) 
Heartbeat CPU 0 instructions: 213000001 cycles: 1100737470 heartbeat IPC: 0.180049 cumulative IPC: 0.194927 (Simulation time: 0 hr 32 min 14 sec) 
Heartbeat CPU 0 instructions: 214000002 cycles: 1106089157 heartbeat IPC: 0.186857 cumulative IPC: 0.194886 (Simulation time: 0 hr 32 min 23 sec) 
Heartbeat CPU 0 instructions: 215000001 cycles: 1111621405 heartbeat IPC: 0.180758 cumulative IPC: 0.194812 (Simulation time: 0 hr 32 min 33 sec) 
Heartbeat CPU 0 instructions: 216000000 cycles: 1116777042 heartbeat IPC: 0.193962 cumulative IPC: 0.194808 (Simulation time: 0 hr 32 min 41 sec) 
Heartbeat CPU 0 instructions: 217000000 cycles: 1122469040 heartbeat IPC: 0.175685 cumulative IPC: 0.194705 (Simulation time: 0 hr 32 min 51 sec) 
Heartbeat CPU 0 instructions: 218000000 cycles: 1127804010 heartbeat IPC: 0.187442 cumulative IPC: 0.194669 (Simulation time: 0 hr 33 min 0 sec) 
Heartbeat CPU 0 instructions: 219000000 cycles: 1133322774 heartbeat IPC: 0.1812 cumulative IPC: 0.1946 (Simulation time: 0 hr 33 min 9 sec) 
Heartbeat CPU 0 instructions: 220000000 cycles: 1138490409 heartbeat IPC: 0.193512 cumulative IPC: 0.194595 (Simulation time: 0 hr 33 min 18 sec) 
Heartbeat CPU 0 instructions: 221000002 cycles: 1143414860 heartbeat IPC: 0.203069 cumulative IPC: 0.194633 (Simulation time: 0 hr 33 min 27 sec) 
Heartbeat CPU 0 instructions: 222000000 cycles: 1148169289 heartbeat IPC: 0.21033 cumulative IPC: 0.194702 (Simulation time: 0 hr 33 min 35 sec) 
Heartbeat CPU 0 instructions: 223000001 cycles: 1153043845 heartbeat IPC: 0.205147 cumulative IPC: 0.194748 (Simulation time: 0 hr 33 min 44 sec) 
Heartbeat CPU 0 instructions: 224000001 cycles: 1158313640 heartbeat IPC: 0.189761 cumulative IPC: 0.194724 (Simulation time: 0 hr 33 min 53 sec) 
Heartbeat CPU 0 instructions: 225000001 cycles: 1163766239 heartbeat IPC: 0.183399 cumulative IPC: 0.194668 (Simulation time: 0 hr 34 min 2 sec) 
Heartbeat CPU 0 instructions: 226000003 cycles: 1169158177 heartbeat IPC: 0.185462 cumulative IPC: 0.194624 (Simulation time: 0 hr 34 min 12 sec) 
Heartbeat CPU 0 instructions: 227000003 cycles: 1174991856 heartbeat IPC: 0.171418 cumulative IPC: 0.194502 (Simulation time: 0 hr 34 min 21 sec) 
Heartbeat CPU 0 instructions: 228000000 cycles: 1180736523 heartbeat IPC: 0.174074 cumulative IPC: 0.194398 (Simulation time: 0 hr 34 min 31 sec) 
Heartbeat CPU 0 instructions: 229000000 cycles: 1186425091 heartbeat IPC: 0.175791 cumulative IPC: 0.194304 (Simulation time: 0 hr 34 min 40 sec) 
Heartbeat CPU 0 instructions: 230000001 cycles: 1192176766 heartbeat IPC: 0.173863 cumulative IPC: 0.1942 (Simulation time: 0 hr 34 min 50 sec) 
Heartbeat CPU 0 instructions: 231000000 cycles: 1197991793 heartbeat IPC: 0.171968 cumulative IPC: 0.194086 (Simulation time: 0 hr 34 min 59 sec) 
Heartbeat CPU 0 instructions: 232000000 cycles: 1203720166 heartbeat IPC: 0.17457 cumulative IPC: 0.193989 (Simulation time: 0 hr 35 min 9 sec) 
Heartbeat CPU 0 instructions: 233000000 cycles: 1208750760 heartbeat IPC: 0.198784 cumulative IPC: 0.19401 (Simulation time: 0 hr 35 min 17 sec) 
Heartbeat CPU 0 instructions: 234000000 cycles: 1213567266 heartbeat IPC: 0.207619 cumulative IPC: 0.194067 (Simulation time: 0 hr 35 min 26 sec) 
Heartbeat CPU 0 instructions: 235000001 cycles: 1218719356 heartbeat IPC: 0.194096 cumulative IPC: 0.194067 (Simulation time: 0 hr 35 min 35 sec) 
Heartbeat CPU 0 instructions: 236000003 cycles: 1224488673 heartbeat IPC: 0.173331 cumulative IPC: 0.193964 (Simulation time: 0 hr 35 min 45 sec) 
Heartbeat CPU 0 instructions: 237000000 cycles: 1230083736 heartbeat IPC: 0.178728 cumulative IPC: 0.193891 (Simulation time: 0 hr 35 min 54 sec) 
Heartbeat CPU 0 instructions: 238000000 cycles: 1234931819 heartbeat IPC: 0.206267 cumulative IPC: 0.193942 (Simulation time: 0 hr 36 min 3 sec) 
Heartbeat CPU 0 instructions: 239000000 cycles: 1239919590 heartbeat IPC: 0.20049 cumulative IPC: 0.19397 (Simulation time: 0 hr 36 min 11 sec) 
Heartbeat CPU 0 instructions: 240000003 cycles: 1244885041 heartbeat IPC: 0.201392 cumulative IPC: 0.194001 (Simulation time: 0 hr 36 min 20 sec) 
Heartbeat CPU 0 instructions: 241000001 cycles: 1249938402 heartbeat IPC: 0.197888 cumulative IPC: 0.194017 (Simulation time: 0 hr 36 min 29 sec) 
Heartbeat CPU 0 instructions: 242000000 cycles: 1254882048 heartbeat IPC: 0.20228 cumulative IPC: 0.194052 (Simulation time: 0 hr 36 min 38 sec) 
Heartbeat CPU 0 instructions: 243000000 cycles: 1259711361 heartbeat IPC: 0.207069 cumulative IPC: 0.194104 (Simulation time: 0 hr 36 min 46 sec) 
Heartbeat CPU 0 instructions: 244000000 cycles: 1264852300 heartbeat IPC: 0.194517 cumulative IPC: 0.194106 (Simulation time: 0 hr 36 min 55 sec) 
Heartbeat CPU 0 instructions: 245000002 cycles: 1269954079 heartbeat IPC: 0.19601 cumulative IPC: 0.194114 (Simulation time: 0 hr 37 min 5 sec) 
Heartbeat CPU 0 instructions: 246000000 cycles: 1275288313 heartbeat IPC: 0.187468 cumulative IPC: 0.194085 (Simulation time: 0 hr 37 min 13 sec) 
Heartbeat CPU 0 instructions: 247000002 cycles: 1280781266 heartbeat IPC: 0.182052 cumulative IPC: 0.194031 (Simulation time: 0 hr 37 min 23 sec) 
Heartbeat CPU 0 instructions: 248000000 cycles: 1286375142 heartbeat IPC: 0.178767 cumulative IPC: 0.193961 (Simulation time: 0 hr 37 min 32 sec) 
Heartbeat CPU 0 instructions: 249000003 cycles: 1291464131 heartbeat IPC: 0.196503 cumulative IPC: 0.193971 (Simulation time: 0 hr 37 min 41 sec) 
Heartbeat CPU 0 instructions: 250000003 cycles: 1296229349 heartbeat IPC: 0.209854 cumulative IPC: 0.194033 (Simulation time: 0 hr 37 min 50 sec) 
Heartbeat CPU 0 instructions: 251000002 cycles: 1301854909 heartbeat IPC: 0.17776 cumulative IPC: 0.193959 (Simulation time: 0 hr 37 min 59 sec) 
Heartbeat CPU 0 instructions: 252000000 cycles: 1306577782 heartbeat IPC: 0.211735 cumulative IPC: 0.194026 (Simulation time: 0 hr 38 min 8 sec) 
Heartbeat CPU 0 instructions: 253000000 cycles: 1311232984 heartbeat IPC: 0.214813 cumulative IPC: 0.194104 (Simulation time: 0 hr 38 min 17 sec) 
Heartbeat CPU 0 instructions: 254000002 cycles: 1315886172 heartbeat IPC: 0.214907 cumulative IPC: 0.194181 (Simulation time: 0 hr 38 min 25 sec) 
Heartbeat CPU 0 instructions: 255000003 cycles: 1320720921 heartbeat IPC: 0.206836 cumulative IPC: 0.194229 (Simulation time: 0 hr 38 min 34 sec) 
Heartbeat CPU 0 instructions: 256000001 cycles: 1326113016 heartbeat IPC: 0.185456 cumulative IPC: 0.194192 (Simulation time: 0 hr 38 min 44 sec) 
Heartbeat CPU 0 instructions: 257000002 cycles: 1331388782 heartbeat IPC: 0.189546 cumulative IPC: 0.194173 (Simulation time: 0 hr 38 min 53 sec) 
Heartbeat CPU 0 instructions: 258000002 cycles: 1336784264 heartbeat IPC: 0.18534 cumulative IPC: 0.194135 (Simulation time: 0 hr 39 min 2 sec) 
Heartbeat CPU 0 instructions: 259000001 cycles: 1341895833 heartbeat IPC: 0.195634 cumulative IPC: 0.194141 (Simulation time: 0 hr 39 min 12 sec) 
Heartbeat CPU 0 instructions: 260000002 cycles: 1346973155 heartbeat IPC: 0.196954 cumulative IPC: 0.194152 (Simulation time: 0 hr 39 min 21 sec) 
Heartbeat CPU 0 instructions: 261000003 cycles: 1352322716 heartbeat IPC: 0.186931 cumulative IPC: 0.194122 (Simulation time: 0 hr 39 min 30 sec) 
Heartbeat CPU 0 instructions: 262000002 cycles: 1357062820 heartbeat IPC: 0.210966 cumulative IPC: 0.194184 (Simulation time: 0 hr 39 min 39 sec) 
Heartbeat CPU 0 instructions: 263000001 cycles: 1362057433 heartbeat IPC: 0.200216 cumulative IPC: 0.194207 (Simulation time: 0 hr 39 min 48 sec) 
Heartbeat CPU 0 instructions: 264000000 cycles: 1367339037 heartbeat IPC: 0.189336 cumulative IPC: 0.194187 (Simulation time: 0 hr 39 min 57 sec) 
Heartbeat CPU 0 instructions: 265000001 cycles: 1372562611 heartbeat IPC: 0.19144 cumulative IPC: 0.194176 (Simulation time: 0 hr 40 min 7 sec) 
Heartbeat CPU 0 instructions: 266000002 cycles: 1377321990 heartbeat IPC: 0.210112 cumulative IPC: 0.194234 (Simulation time: 0 hr 40 min 16 sec) 
Heartbeat CPU 0 instructions: 267000003 cycles: 1382148235 heartbeat IPC: 0.207201 cumulative IPC: 0.194281 (Simulation time: 0 hr 40 min 25 sec) 
Heartbeat CPU 0 instructions: 268000002 cycles: 1387024340 heartbeat IPC: 0.205082 cumulative IPC: 0.194321 (Simulation time: 0 hr 40 min 33 sec) 
Heartbeat CPU 0 instructions: 269000002 cycles: 1391970143 heartbeat IPC: 0.202192 cumulative IPC: 0.19435 (Simulation time: 0 hr 40 min 42 sec) 
Heartbeat CPU 0 instructions: 270000002 cycles: 1396928223 heartbeat IPC: 0.201691 cumulative IPC: 0.194377 (Simulation time: 0 hr 40 min 51 sec) 
Heartbeat CPU 0 instructions: 271000000 cycles: 1401654192 heartbeat IPC: 0.211596 cumulative IPC: 0.194438 (Simulation time: 0 hr 41 min 0 sec) 
Heartbeat CPU 0 instructions: 272000002 cycles: 1406588117 heartbeat IPC: 0.202679 cumulative IPC: 0.194468 (Simulation time: 0 hr 41 min 9 sec) 
Heartbeat CPU 0 instructions: 273000000 cycles: 1411522133 heartbeat IPC: 0.202674 cumulative IPC: 0.194498 (Simulation time: 0 hr 41 min 18 sec) 
Heartbeat CPU 0 instructions: 274000000 cycles: 1416671825 heartbeat IPC: 0.194186 cumulative IPC: 0.194497 (Simulation time: 0 hr 41 min 28 sec) 
Heartbeat CPU 0 instructions: 275000000 cycles: 1421640501 heartbeat IPC: 0.201261 cumulative IPC: 0.194522 (Simulation time: 0 hr 41 min 37 sec) 
Heartbeat CPU 0 instructions: 276000000 cycles: 1426182244 heartbeat IPC: 0.22018 cumulative IPC: 0.194607 (Simulation time: 0 hr 41 min 47 sec) 
Heartbeat CPU 0 instructions: 277000000 cycles: 1433618124 heartbeat IPC: 0.134483 cumulative IPC: 0.194282 (Simulation time: 0 hr 41 min 58 sec) 
Heartbeat CPU 0 instructions: 278000000 cycles: 1438571912 heartbeat IPC: 0.201866 cumulative IPC: 0.194309 (Simulation time: 0 hr 42 min 7 sec) 
Heartbeat CPU 0 instructions: 279000002 cycles: 1443440894 heartbeat IPC: 0.205382 cumulative IPC: 0.194348 (Simulation time: 0 hr 42 min 16 sec) 
Heartbeat CPU 0 instructions: 280000001 cycles: 1448391260 heartbeat IPC: 0.202005 cumulative IPC: 0.194375 (Simulation time: 0 hr 42 min 25 sec) 
Heartbeat CPU 0 instructions: 281000001 cycles: 1453397165 heartbeat IPC: 0.199764 cumulative IPC: 0.194394 (Simulation time: 0 hr 42 min 34 sec) 
Heartbeat CPU 0 instructions: 282000001 cycles: 1458450635 heartbeat IPC: 0.197884 cumulative IPC: 0.194407 (Simulation time: 0 hr 42 min 43 sec) 
Heartbeat CPU 0 instructions: 283000000 cycles: 1463671144 heartbeat IPC: 0.191552 cumulative IPC: 0.194396 (Simulation time: 0 hr 42 min 53 sec) 
Heartbeat CPU 0 instructions: 284000003 cycles: 1468573085 heartbeat IPC: 0.204001 cumulative IPC: 0.19443 (Simulation time: 0 hr 43 min 2 sec) 
Heartbeat CPU 0 instructions: 285000001 cycles: 1473848980 heartbeat IPC: 0.189541 cumulative IPC: 0.194412 (Simulation time: 0 hr 43 min 12 sec) 
Heartbeat CPU 0 instructions: 286000000 cycles: 1479158966 heartbeat IPC: 0.188324 cumulative IPC: 0.194389 (Simulation time: 0 hr 43 min 21 sec) 
Heartbeat CPU 0 instructions: 287000000 cycles: 1483883120 heartbeat IPC: 0.211678 cumulative IPC: 0.194446 (Simulation time: 0 hr 43 min 31 sec) 
Heartbeat CPU 0 instructions: 288000001 cycles: 1488467155 heartbeat IPC: 0.218149 cumulative IPC: 0.194522 (Simulation time: 0 hr 43 min 40 sec) 
Heartbeat CPU 0 instructions: 289000001 cycles: 1493242657 heartbeat IPC: 0.209402 cumulative IPC: 0.194572 (Simulation time: 0 hr 43 min 49 sec) 
Heartbeat CPU 0 instructions: 290000002 cycles: 1498113776 heartbeat IPC: 0.205292 cumulative IPC: 0.194608 (Simulation time: 0 hr 43 min 59 sec) 
Heartbeat CPU 0 instructions: 291000001 cycles: 1503082900 heartbeat IPC: 0.201243 cumulative IPC: 0.194631 (Simulation time: 0 hr 44 min 9 sec) 
Heartbeat CPU 0 instructions: 292000000 cycles: 1507733919 heartbeat IPC: 0.215006 cumulative IPC: 0.194696 (Simulation time: 0 hr 44 min 18 sec) 
Heartbeat CPU 0 instructions: 293000001 cycles: 1512395867 heartbeat IPC: 0.214503 cumulative IPC: 0.19476 (Simulation time: 0 hr 44 min 27 sec) 
Heartbeat CPU 0 instructions: 294000000 cycles: 1517332760 heartbeat IPC: 0.202556 cumulative IPC: 0.194786 (Simulation time: 0 hr 44 min 37 sec) 
Heartbeat CPU 0 instructions: 295000002 cycles: 1522210366 heartbeat IPC: 0.205019 cumulative IPC: 0.19482 (Simulation time: 0 hr 44 min 46 sec) 
Heartbeat CPU 0 instructions: 296000003 cycles: 1526890095 heartbeat IPC: 0.213688 cumulative IPC: 0.194881 (Simulation time: 0 hr 44 min 55 sec) 
Heartbeat CPU 0 instructions: 297000000 cycles: 1531632019 heartbeat IPC: 0.210884 cumulative IPC: 0.194932 (Simulation time: 0 hr 45 min 5 sec) 
Heartbeat CPU 0 instructions: 298000000 cycles: 1536273908 heartbeat IPC: 0.21543 cumulative IPC: 0.194996 (Simulation time: 0 hr 45 min 14 sec) 
Heartbeat CPU 0 instructions: 299000002 cycles: 1541317041 heartbeat IPC: 0.19829 cumulative IPC: 0.195008 (Simulation time: 0 hr 45 min 24 sec) 
Heartbeat CPU 0 instructions: 300000001 cycles: 1547677619 heartbeat IPC: 0.157218 cumulative IPC: 0.194846 (Simulation time: 0 hr 45 min 34 sec) 
Heartbeat CPU 0 instructions: 301000001 cycles: 1553150281 heartbeat IPC: 0.182726 cumulative IPC: 0.194802 (Simulation time: 0 hr 45 min 44 sec) 
Heartbeat CPU 0 instructions: 302000001 cycles: 1557767358 heartbeat IPC: 0.216587 cumulative IPC: 0.194869 (Simulation time: 0 hr 45 min 53 sec) 
Heartbeat CPU 0 instructions: 303000000 cycles: 1562548066 heartbeat IPC: 0.209174 cumulative IPC: 0.194914 (Simulation time: 0 hr 46 min 2 sec) 
Heartbeat CPU 0 instructions: 304000000 cycles: 1567534701 heartbeat IPC: 0.200536 cumulative IPC: 0.194933 (Simulation time: 0 hr 46 min 11 sec) 
Heartbeat CPU 0 instructions: 305000000 cycles: 1572265956 heartbeat IPC: 0.21136 cumulative IPC: 0.194984 (Simulation time: 0 hr 46 min 21 sec) 
Heartbeat CPU 0 instructions: 306000002 cycles: 1577154597 heartbeat IPC: 0.204556 cumulative IPC: 0.195015 (Simulation time: 0 hr 46 min 30 sec) 
Heartbeat CPU 0 instructions: 307000001 cycles: 1581894218 heartbeat IPC: 0.210987 cumulative IPC: 0.195065 (Simulation time: 0 hr 46 min 40 sec) 
Heartbeat CPU 0 instructions: 308000000 cycles: 1586607713 heartbeat IPC: 0.212157 cumulative IPC: 0.195118 (Simulation time: 0 hr 46 min 49 sec) 
Heartbeat CPU 0 instructions: 309000000 cycles: 1592041122 heartbeat IPC: 0.184047 cumulative IPC: 0.195078 (Simulation time: 0 hr 46 min 59 sec) 
Heartbeat CPU 0 instructions: 310000000 cycles: 1596852010 heartbeat IPC: 0.207862 cumulative IPC: 0.195118 (Simulation time: 0 hr 47 min 8 sec) 
Heartbeat CPU 0 instructions: 311000001 cycles: 1601694480 heartbeat IPC: 0.206506 cumulative IPC: 0.195154 (Simulation time: 0 hr 47 min 17 sec) 
Heartbeat CPU 0 instructions: 312000001 cycles: 1606350837 heartbeat IPC: 0.21476 cumulative IPC: 0.195213 (Simulation time: 0 hr 47 min 26 sec) 
Heartbeat CPU 0 instructions: 313000002 cycles: 1610895115 heartbeat IPC: 0.220057 cumulative IPC: 0.195286 (Simulation time: 0 hr 47 min 36 sec) 
Heartbeat CPU 0 instructions: 314000002 cycles: 1615668160 heartbeat IPC: 0.20951 cumulative IPC: 0.19533 (Simulation time: 0 hr 47 min 45 sec) 
Heartbeat CPU 0 instructions: 315000001 cycles: 1620540142 heartbeat IPC: 0.205255 cumulative IPC: 0.195361 (Simulation time: 0 hr 47 min 54 sec) 
Heartbeat CPU 0 instructions: 316000000 cycles: 1625481295 heartbeat IPC: 0.202382 cumulative IPC: 0.195383 (Simulation time: 0 hr 48 min 4 sec) 
Heartbeat CPU 0 instructions: 317000003 cycles: 1630174050 heartbeat IPC: 0.213095 cumulative IPC: 0.195436 (Simulation time: 0 hr 48 min 13 sec) 
Heartbeat CPU 0 instructions: 318000002 cycles: 1635214584 heartbeat IPC: 0.198391 cumulative IPC: 0.195445 (Simulation time: 0 hr 48 min 23 sec) 
Heartbeat CPU 0 instructions: 319000000 cycles: 1640113536 heartbeat IPC: 0.204125 cumulative IPC: 0.195472 (Simulation time: 0 hr 48 min 32 sec) 
Heartbeat CPU 0 instructions: 320000002 cycles: 1645089366 heartbeat IPC: 0.200972 cumulative IPC: 0.195489 (Simulation time: 0 hr 48 min 42 sec) 
Heartbeat CPU 0 instructions: 321000002 cycles: 1649760941 heartbeat IPC: 0.214061 cumulative IPC: 0.195544 (Simulation time: 0 hr 48 min 51 sec) 
Heartbeat CPU 0 instructions: 322000000 cycles: 1654515620 heartbeat IPC: 0.210319 cumulative IPC: 0.195588 (Simulation time: 0 hr 49 min 0 sec) 
Heartbeat CPU 0 instructions: 323000000 cycles: 1659095493 heartbeat IPC: 0.218347 cumulative IPC: 0.195653 (Simulation time: 0 hr 49 min 9 sec) 
Heartbeat CPU 0 instructions: 324000000 cycles: 1663819454 heartbeat IPC: 0.211687 cumulative IPC: 0.1957 (Simulation time: 0 hr 49 min 18 sec) 
Heartbeat CPU 0 instructions: 325000002 cycles: 1668879738 heartbeat IPC: 0.197618 cumulative IPC: 0.195706 (Simulation time: 0 hr 49 min 28 sec) 
Heartbeat CPU 0 instructions: 326000001 cycles: 1673862943 heartbeat IPC: 0.200674 cumulative IPC: 0.195722 (Simulation time: 0 hr 49 min 37 sec) 
Heartbeat CPU 0 instructions: 327000001 cycles: 1678799066 heartbeat IPC: 0.202588 cumulative IPC: 0.195742 (Simulation time: 0 hr 49 min 47 sec) 
Heartbeat CPU 0 instructions: 328000000 cycles: 1683532232 heartbeat IPC: 0.211275 cumulative IPC: 0.195788 (Simulation time: 0 hr 49 min 56 sec) 
Heartbeat CPU 0 instructions: 329000000 cycles: 1688423495 heartbeat IPC: 0.204446 cumulative IPC: 0.195814 (Simulation time: 0 hr 50 min 6 sec) 
Heartbeat CPU 0 instructions: 330000000 cycles: 1693379829 heartbeat IPC: 0.201762 cumulative IPC: 0.195832 (Simulation time: 0 hr 50 min 15 sec) 
Heartbeat CPU 0 instructions: 331000003 cycles: 1698235377 heartbeat IPC: 0.205951 cumulative IPC: 0.195862 (Simulation time: 0 hr 50 min 24 sec) 
Heartbeat CPU 0 instructions: 332000001 cycles: 1703048176 heartbeat IPC: 0.207779 cumulative IPC: 0.195897 (Simulation time: 0 hr 50 min 34 sec) 
Heartbeat CPU 0 instructions: 333000002 cycles: 1707769968 heartbeat IPC: 0.211784 cumulative IPC: 0.195942 (Simulation time: 0 hr 50 min 43 sec) 
Heartbeat CPU 0 instructions: 334000000 cycles: 1715443305 heartbeat IPC: 0.130321 cumulative IPC: 0.195638 (Simulation time: 0 hr 50 min 54 sec) 
Heartbeat CPU 0 instructions: 335000002 cycles: 1720366742 heartbeat IPC: 0.203111 cumulative IPC: 0.19566 (Simulation time: 0 hr 51 min 4 sec) 
Heartbeat CPU 0 instructions: 336000002 cycles: 1725021971 heartbeat IPC: 0.214812 cumulative IPC: 0.195714 (Simulation time: 0 hr 51 min 13 sec) 
Heartbeat CPU 0 instructions: 337000000 cycles: 1729703838 heartbeat IPC: 0.21359 cumulative IPC: 0.195764 (Simulation time: 0 hr 51 min 23 sec) 
Heartbeat CPU 0 instructions: 338000001 cycles: 1734417171 heartbeat IPC: 0.212164 cumulative IPC: 0.19581 (Simulation time: 0 hr 51 min 32 sec) 
Heartbeat CPU 0 instructions: 339000000 cycles: 1739431258 heartbeat IPC: 0.199438 cumulative IPC: 0.195821 (Simulation time: 0 hr 51 min 42 sec) 
Heartbeat CPU 0 instructions: 340000000 cycles: 1744440548 heartbeat IPC: 0.199629 cumulative IPC: 0.195832 (Simulation time: 0 hr 51 min 51 sec) 
Heartbeat CPU 0 instructions: 341000000 cycles: 1748958118 heartbeat IPC: 0.221358 cumulative IPC: 0.1959 (Simulation time: 0 hr 52 min 1 sec) 
Heartbeat CPU 0 instructions: 342000003 cycles: 1753915597 heartbeat IPC: 0.201716 cumulative IPC: 0.195917 (Simulation time: 0 hr 52 min 10 sec) 
Heartbeat CPU 0 instructions: 343000002 cycles: 1758737097 heartbeat IPC: 0.207404 cumulative IPC: 0.19595 (Simulation time: 0 hr 52 min 20 sec) 
Heartbeat CPU 0 instructions: 344000002 cycles: 1763774002 heartbeat IPC: 0.198535 cumulative IPC: 0.195958 (Simulation time: 0 hr 52 min 29 sec) 
Heartbeat CPU 0 instructions: 345000000 cycles: 1768740951 heartbeat IPC: 0.20133 cumulative IPC: 0.195973 (Simulation time: 0 hr 52 min 39 sec) 
Heartbeat CPU 0 instructions: 346000000 cycles: 1773710473 heartbeat IPC: 0.201227 cumulative IPC: 0.195988 (Simulation time: 0 hr 52 min 48 sec) 
Heartbeat CPU 0 instructions: 347000003 cycles: 1778584903 heartbeat IPC: 0.205153 cumulative IPC: 0.196014 (Simulation time: 0 hr 52 min 58 sec) 
Heartbeat CPU 0 instructions: 348000002 cycles: 1783421345 heartbeat IPC: 0.206763 cumulative IPC: 0.196045 (Simulation time: 0 hr 53 min 7 sec) 
Heartbeat CPU 0 instructions: 349000001 cycles: 1788243804 heartbeat IPC: 0.207363 cumulative IPC: 0.196076 (Simulation time: 0 hr 53 min 17 sec) 
Heartbeat CPU 0 instructions: 350000001 cycles: 1793315397 heartbeat IPC: 0.197177 cumulative IPC: 0.196079 (Simulation time: 0 hr 53 min 27 sec) 
Heartbeat CPU 0 instructions: 351000002 cycles: 1798441513 heartbeat IPC: 0.19508 cumulative IPC: 0.196076 (Simulation time: 0 hr 53 min 37 sec) 
Heartbeat CPU 0 instructions: 352000000 cycles: 1803435998 heartbeat IPC: 0.20022 cumulative IPC: 0.196088 (Simulation time: 0 hr 53 min 46 sec) 
Heartbeat CPU 0 instructions: 353000000 cycles: 1808424738 heartbeat IPC: 0.200451 cumulative IPC: 0.196101 (Simulation time: 0 hr 53 min 56 sec) 
Heartbeat CPU 0 instructions: 354000002 cycles: 1813495804 heartbeat IPC: 0.197198 cumulative IPC: 0.196104 (Simulation time: 0 hr 54 min 6 sec) 
Heartbeat CPU 0 instructions: 355000001 cycles: 1818353903 heartbeat IPC: 0.205842 cumulative IPC: 0.196131 (Simulation time: 0 hr 54 min 15 sec) 
Heartbeat CPU 0 instructions: 356000000 cycles: 1823054099 heartbeat IPC: 0.212757 cumulative IPC: 0.196175 (Simulation time: 0 hr 54 min 24 sec) 
Heartbeat CPU 0 instructions: 357000002 cycles: 1827945838 heartbeat IPC: 0.204427 cumulative IPC: 0.196198 (Simulation time: 0 hr 54 min 34 sec) 
Heartbeat CPU 0 instructions: 358000001 cycles: 1832785168 heartbeat IPC: 0.20664 cumulative IPC: 0.196226 (Simulation time: 0 hr 54 min 43 sec) 
Heartbeat CPU 0 instructions: 359000001 cycles: 1837546617 heartbeat IPC: 0.21002 cumulative IPC: 0.196263 (Simulation time: 0 hr 54 min 52 sec) 
Heartbeat CPU 0 instructions: 360000001 cycles: 1842168254 heartbeat IPC: 0.216374 cumulative IPC: 0.196316 (Simulation time: 0 hr 55 min 1 sec) 
Heartbeat CPU 0 instructions: 361000002 cycles: 1846822672 heartbeat IPC: 0.21485 cumulative IPC: 0.196364 (Simulation time: 0 hr 55 min 10 sec) 
Heartbeat CPU 0 instructions: 362000002 cycles: 1851588513 heartbeat IPC: 0.209827 cumulative IPC: 0.1964 (Simulation time: 0 hr 55 min 19 sec) 
Heartbeat CPU 0 instructions: 363000000 cycles: 1856367474 heartbeat IPC: 0.20925 cumulative IPC: 0.196434 (Simulation time: 0 hr 55 min 28 sec) 
Heartbeat CPU 0 instructions: 364000001 cycles: 1861176704 heartbeat IPC: 0.207934 cumulative IPC: 0.196464 (Simulation time: 0 hr 55 min 37 sec) 
Heartbeat CPU 0 instructions: 365000002 cycles: 1865896171 heartbeat IPC: 0.211889 cumulative IPC: 0.196505 (Simulation time: 0 hr 55 min 46 sec) 
Heartbeat CPU 0 instructions: 366000001 cycles: 1870579102 heartbeat IPC: 0.213541 cumulative IPC: 0.196549 (Simulation time: 0 hr 55 min 56 sec) 
Heartbeat CPU 0 instructions: 367000000 cycles: 1875271472 heartbeat IPC: 0.213112 cumulative IPC: 0.196592 (Simulation time: 0 hr 56 min 5 sec) 
Heartbeat CPU 0 instructions: 368000000 cycles: 1880406754 heartbeat IPC: 0.194731 cumulative IPC: 0.196586 (Simulation time: 0 hr 56 min 14 sec) 
Heartbeat CPU 0 instructions: 369000002 cycles: 1885515401 heartbeat IPC: 0.195747 cumulative IPC: 0.196584 (Simulation time: 0 hr 56 min 23 sec) 
Heartbeat CPU 0 instructions: 370000002 cycles: 1890505162 heartbeat IPC: 0.20041 cumulative IPC: 0.196594 (Simulation time: 0 hr 56 min 32 sec) 
Heartbeat CPU 0 instructions: 371000000 cycles: 1895191011 heartbeat IPC: 0.213408 cumulative IPC: 0.196637 (Simulation time: 0 hr 56 min 41 sec) 
Heartbeat CPU 0 instructions: 372000000 cycles: 1900744618 heartbeat IPC: 0.180063 cumulative IPC: 0.196587 (Simulation time: 0 hr 56 min 50 sec) 
Heartbeat CPU 0 instructions: 373000001 cycles: 1905696382 heartbeat IPC: 0.201948 cumulative IPC: 0.196602 (Simulation time: 0 hr 56 min 58 sec) 
Heartbeat CPU 0 instructions: 374000000 cycles: 1910355007 heartbeat IPC: 0.214655 cumulative IPC: 0.196647 (Simulation time: 0 hr 57 min 6 sec) 
Heartbeat CPU 0 instructions: 375000000 cycles: 1915335149 heartbeat IPC: 0.200797 cumulative IPC: 0.196658 (Simulation time: 0 hr 57 min 14 sec) 
Heartbeat CPU 0 instructions: 376000001 cycles: 1920349685 heartbeat IPC: 0.19942 cumulative IPC: 0.196666 (Simulation time: 0 hr 57 min 22 sec) 
Heartbeat CPU 0 instructions: 377000002 cycles: 1927396469 heartbeat IPC: 0.141909 cumulative IPC: 0.196459 (Simulation time: 0 hr 57 min 31 sec) 
Heartbeat CPU 0 instructions: 378000002 cycles: 1932331906 heartbeat IPC: 0.202616 cumulative IPC: 0.196475 (Simulation time: 0 hr 57 min 39 sec) 
Heartbeat CPU 0 instructions: 379000000 cycles: 1937019640 heartbeat IPC: 0.213322 cumulative IPC: 0.196517 (Simulation time: 0 hr 57 min 47 sec) 
Heartbeat CPU 0 instructions: 380000000 cycles: 1941716208 heartbeat IPC: 0.212921 cumulative IPC: 0.196558 (Simulation time: 0 hr 57 min 54 sec) 
Heartbeat CPU 0 instructions: 381000001 cycles: 1946416421 heartbeat IPC: 0.212757 cumulative IPC: 0.196599 (Simulation time: 0 hr 58 min 2 sec) 
Heartbeat CPU 0 instructions: 382000001 cycles: 1951133635 heartbeat IPC: 0.21199 cumulative IPC: 0.196637 (Simulation time: 0 hr 58 min 9 sec) 
Heartbeat CPU 0 instructions: 383000001 cycles: 1956056299 heartbeat IPC: 0.203142 cumulative IPC: 0.196654 (Simulation time: 0 hr 58 min 17 sec) 
Heartbeat CPU 0 instructions: 384000003 cycles: 1961629738 heartbeat IPC: 0.179423 cumulative IPC: 0.196604 (Simulation time: 0 hr 58 min 25 sec) 
Heartbeat CPU 0 instructions: 385000000 cycles: 1966553440 heartbeat IPC: 0.203099 cumulative IPC: 0.19662 (Simulation time: 0 hr 58 min 33 sec) 
Heartbeat CPU 0 instructions: 386000000 cycles: 1971636156 heartbeat IPC: 0.196745 cumulative IPC: 0.196621 (Simulation time: 0 hr 58 min 40 sec) 
Heartbeat CPU 0 instructions: 387000003 cycles: 1976541786 heartbeat IPC: 0.203848 cumulative IPC: 0.196639 (Simulation time: 0 hr 58 min 48 sec) 
Heartbeat CPU 0 instructions: 388000002 cycles: 1981248544 heartbeat IPC: 0.21246 cumulative IPC: 0.196678 (Simulation time: 0 hr 58 min 55 sec) 
Heartbeat CPU 0 instructions: 389000003 cycles: 1986065498 heartbeat IPC: 0.2076 cumulative IPC: 0.196705 (Simulation time: 0 hr 59 min 3 sec) 
Heartbeat CPU 0 instructions: 390000002 cycles: 1991131559 heartbeat IPC: 0.197392 cumulative IPC: 0.196707 (Simulation time: 0 hr 59 min 10 sec) 
Heartbeat CPU 0 instructions: 391000001 cycles: 1995420509 heartbeat IPC: 0.233157 cumulative IPC: 0.196788 (Simulation time: 0 hr 59 min 17 sec) 
Heartbeat CPU 0 instructions: 392000000 cycles: 1999953199 heartbeat IPC: 0.220619 cumulative IPC: 0.196843 (Simulation time: 0 hr 59 min 25 sec) 
Heartbeat CPU 0 instructions: 393000001 cycles: 2004199112 heartbeat IPC: 0.235521 cumulative IPC: 0.196928 (Simulation time: 0 hr 59 min 32 sec) 
Heartbeat CPU 0 instructions: 394000001 cycles: 2008596753 heartbeat IPC: 0.227395 cumulative IPC: 0.196997 (Simulation time: 0 hr 59 min 39 sec) 
Heartbeat CPU 0 instructions: 395000000 cycles: 2013313545 heartbeat IPC: 0.212008 cumulative IPC: 0.197033 (Simulation time: 0 hr 59 min 47 sec) 
Heartbeat CPU 0 instructions: 396000000 cycles: 2017702235 heartbeat IPC: 0.227858 cumulative IPC: 0.197102 (Simulation time: 0 hr 59 min 54 sec) 
Heartbeat CPU 0 instructions: 397000000 cycles: 2022402042 heartbeat IPC: 0.212775 cumulative IPC: 0.197139 (Simulation time: 1 hr 0 min 2 sec) 
Heartbeat CPU 0 instructions: 398000002 cycles: 2027089983 heartbeat IPC: 0.213314 cumulative IPC: 0.197178 (Simulation time: 1 hr 0 min 9 sec) 
Heartbeat CPU 0 instructions: 399000000 cycles: 2031533532 heartbeat IPC: 0.225045 cumulative IPC: 0.197241 (Simulation time: 1 hr 0 min 17 sec) 
Heartbeat CPU 0 instructions: 400000001 cycles: 2036058258 heartbeat IPC: 0.221008 cumulative IPC: 0.197295 (Simulation time: 1 hr 0 min 24 sec) 
Heartbeat CPU 0 instructions: 401000002 cycles: 2040675904 heartbeat IPC: 0.216561 cumulative IPC: 0.19734 (Simulation time: 1 hr 0 min 32 sec) 
Heartbeat CPU 0 instructions: 402000000 cycles: 2045522283 heartbeat IPC: 0.206339 cumulative IPC: 0.197362 (Simulation time: 1 hr 0 min 39 sec) 
Heartbeat CPU 0 instructions: 403000001 cycles: 2050246632 heartbeat IPC: 0.21167 cumulative IPC: 0.197396 (Simulation time: 1 hr 0 min 47 sec) 
Heartbeat CPU 0 instructions: 404000002 cycles: 2055091460 heartbeat IPC: 0.206406 cumulative IPC: 0.197418 (Simulation time: 1 hr 0 min 55 sec) 
Heartbeat CPU 0 instructions: 405000001 cycles: 2059777551 heartbeat IPC: 0.213397 cumulative IPC: 0.197455 (Simulation time: 1 hr 1 min 2 sec) 
Heartbeat CPU 0 instructions: 406000002 cycles: 2064533600 heartbeat IPC: 0.210259 cumulative IPC: 0.197486 (Simulation time: 1 hr 1 min 10 sec) 
Heartbeat CPU 0 instructions: 407000000 cycles: 2069351992 heartbeat IPC: 0.207538 cumulative IPC: 0.19751 (Simulation time: 1 hr 1 min 18 sec) 
Heartbeat CPU 0 instructions: 408000000 cycles: 2074140141 heartbeat IPC: 0.208849 cumulative IPC: 0.197537 (Simulation time: 1 hr 1 min 26 sec) 
Heartbeat CPU 0 instructions: 409000001 cycles: 2079003828 heartbeat IPC: 0.205606 cumulative IPC: 0.197556 (Simulation time: 1 hr 1 min 34 sec) 
Heartbeat CPU 0 instructions: 410000003 cycles: 2083649890 heartbeat IPC: 0.215236 cumulative IPC: 0.197597 (Simulation time: 1 hr 1 min 42 sec) 
Heartbeat CPU 0 instructions: 411000000 cycles: 2088253993 heartbeat IPC: 0.217197 cumulative IPC: 0.197641 (Simulation time: 1 hr 1 min 49 sec) 
Heartbeat CPU 0 instructions: 412000000 cycles: 2093005027 heartbeat IPC: 0.21048 cumulative IPC: 0.197671 (Simulation time: 1 hr 1 min 57 sec) 
Heartbeat CPU 0 instructions: 413000000 cycles: 2097571792 heartbeat IPC: 0.218973 cumulative IPC: 0.197719 (Simulation time: 1 hr 2 min 5 sec) 
Heartbeat CPU 0 instructions: 414000000 cycles: 2102181537 heartbeat IPC: 0.216932 cumulative IPC: 0.197762 (Simulation time: 1 hr 2 min 13 sec) 
Heartbeat CPU 0 instructions: 415000003 cycles: 2107015407 heartbeat IPC: 0.206874 cumulative IPC: 0.197784 (Simulation time: 1 hr 2 min 21 sec) 
Heartbeat CPU 0 instructions: 416000000 cycles: 2111598699 heartbeat IPC: 0.218183 cumulative IPC: 0.197829 (Simulation time: 1 hr 2 min 28 sec) 
Heartbeat CPU 0 instructions: 417000000 cycles: 2116167009 heartbeat IPC: 0.218899 cumulative IPC: 0.197876 (Simulation time: 1 hr 2 min 36 sec) 
Heartbeat CPU 0 instructions: 418000000 cycles: 2120738480 heartbeat IPC: 0.218748 cumulative IPC: 0.197922 (Simulation time: 1 hr 2 min 44 sec) 
Heartbeat CPU 0 instructions: 419000000 cycles: 2125397849 heartbeat IPC: 0.214621 cumulative IPC: 0.19796 (Simulation time: 1 hr 2 min 52 sec) 
Heartbeat CPU 0 instructions: 420000000 cycles: 2130341096 heartbeat IPC: 0.202296 cumulative IPC: 0.19797 (Simulation time: 1 hr 3 min 0 sec) 
Heartbeat CPU 0 instructions: 421000002 cycles: 2135473853 heartbeat IPC: 0.194827 cumulative IPC: 0.197963 (Simulation time: 1 hr 3 min 8 sec) 
Heartbeat CPU 0 instructions: 422000001 cycles: 2140527143 heartbeat IPC: 0.197891 cumulative IPC: 0.197962 (Simulation time: 1 hr 3 min 16 sec) 
Heartbeat CPU 0 instructions: 423000002 cycles: 2145087115 heartbeat IPC: 0.2193 cumulative IPC: 0.198009 (Simulation time: 1 hr 3 min 24 sec) 
Heartbeat CPU 0 instructions: 424000002 cycles: 2149613863 heartbeat IPC: 0.220909 cumulative IPC: 0.198059 (Simulation time: 1 hr 3 min 32 sec) 
Heartbeat CPU 0 instructions: 425000000 cycles: 2154056707 heartbeat IPC: 0.225081 cumulative IPC: 0.198116 (Simulation time: 1 hr 3 min 39 sec) 
Heartbeat CPU 0 instructions: 426000001 cycles: 2158923877 heartbeat IPC: 0.205458 cumulative IPC: 0.198133 (Simulation time: 1 hr 3 min 47 sec) 
Heartbeat CPU 0 instructions: 427000001 cycles: 2163773044 heartbeat IPC: 0.206221 cumulative IPC: 0.198152 (Simulation time: 1 hr 3 min 55 sec) 
Heartbeat CPU 0 instructions: 428000002 cycles: 2168109612 heartbeat IPC: 0.230597 cumulative IPC: 0.198218 (Simulation time: 1 hr 4 min 2 sec) 
Heartbeat CPU 0 instructions: 429000000 cycles: 2172390862 heartbeat IPC: 0.233576 cumulative IPC: 0.19829 (Simulation time: 1 hr 4 min 9 sec) 
Heartbeat CPU 0 instructions: 430000001 cycles: 2176754918 heartbeat IPC: 0.229145 cumulative IPC: 0.198354 (Simulation time: 1 hr 4 min 17 sec) 
Heartbeat CPU 0 instructions: 431000003 cycles: 2181073815 heartbeat IPC: 0.231541 cumulative IPC: 0.198421 (Simulation time: 1 hr 4 min 24 sec) 
Heartbeat CPU 0 instructions: 432000001 cycles: 2186327514 heartbeat IPC: 0.190342 cumulative IPC: 0.198401 (Simulation time: 1 hr 4 min 32 sec) 
Heartbeat CPU 0 instructions: 433000000 cycles: 2191637813 heartbeat IPC: 0.188313 cumulative IPC: 0.198376 (Simulation time: 1 hr 4 min 40 sec) 
Heartbeat CPU 0 instructions: 434000000 cycles: 2196397942 heartbeat IPC: 0.210078 cumulative IPC: 0.198402 (Simulation time: 1 hr 4 min 48 sec) 
Heartbeat CPU 0 instructions: 435000002 cycles: 2200847284 heartbeat IPC: 0.224753 cumulative IPC: 0.198457 (Simulation time: 1 hr 4 min 56 sec) 
Heartbeat CPU 0 instructions: 436000000 cycles: 2205460954 heartbeat IPC: 0.216747 cumulative IPC: 0.198496 (Simulation time: 1 hr 5 min 3 sec) 
Heartbeat CPU 0 instructions: 437000000 cycles: 2210036873 heartbeat IPC: 0.218535 cumulative IPC: 0.198539 (Simulation time: 1 hr 5 min 11 sec) 
Heartbeat CPU 0 instructions: 438000000 cycles: 2217088659 heartbeat IPC: 0.141808 cumulative IPC: 0.198353 (Simulation time: 1 hr 5 min 20 sec) 
Heartbeat CPU 0 instructions: 439000002 cycles: 2221757424 heartbeat IPC: 0.21419 cumulative IPC: 0.198388 (Simulation time: 1 hr 5 min 28 sec) 
Heartbeat CPU 0 instructions: 440000000 cycles: 2226330010 heartbeat IPC: 0.218694 cumulative IPC: 0.19843 (Simulation time: 1 hr 5 min 36 sec) 
Heartbeat CPU 0 instructions: 441000001 cycles: 2230829723 heartbeat IPC: 0.222237 cumulative IPC: 0.19848 (Simulation time: 1 hr 5 min 44 sec) 
Heartbeat CPU 0 instructions: 442000000 cycles: 2235391142 heartbeat IPC: 0.21923 cumulative IPC: 0.198523 (Simulation time: 1 hr 5 min 52 sec) 
Heartbeat CPU 0 instructions: 443000001 cycles: 2239929289 heartbeat IPC: 0.220354 cumulative IPC: 0.198569 (Simulation time: 1 hr 6 min 0 sec) 
Heartbeat CPU 0 instructions: 444000003 cycles: 2244389622 heartbeat IPC: 0.224199 cumulative IPC: 0.198621 (Simulation time: 1 hr 6 min 7 sec) 
Heartbeat CPU 0 instructions: 445000000 cycles: 2248988216 heartbeat IPC: 0.217457 cumulative IPC: 0.198661 (Simulation time: 1 hr 6 min 15 sec) 
Heartbeat CPU 0 instructions: 446000001 cycles: 2254929792 heartbeat IPC: 0.168306 cumulative IPC: 0.198578 (Simulation time: 1 hr 6 min 24 sec) 
Heartbeat CPU 0 instructions: 447000000 cycles: 2259448038 heartbeat IPC: 0.221325 cumulative IPC: 0.198625 (Simulation time: 1 hr 6 min 31 sec) 
Heartbeat CPU 0 instructions: 448000002 cycles: 2264077574 heartbeat IPC: 0.216005 cumulative IPC: 0.198662 (Simulation time: 1 hr 6 min 39 sec) 
Heartbeat CPU 0 instructions: 449000002 cycles: 2269634491 heartbeat IPC: 0.179956 cumulative IPC: 0.198615 (Simulation time: 1 hr 6 min 48 sec) 
Heartbeat CPU 0 instructions: 450000000 cycles: 2274797184 heartbeat IPC: 0.193697 cumulative IPC: 0.198603 (Simulation time: 1 hr 6 min 56 sec) 
Heartbeat CPU 0 instructions: 451000000 cycles: 2279618598 heartbeat IPC: 0.207408 cumulative IPC: 0.198622 (Simulation time: 1 hr 7 min 4 sec) 
Heartbeat CPU 0 instructions: 452000000 cycles: 2284355319 heartbeat IPC: 0.211117 cumulative IPC: 0.198649 (Simulation time: 1 hr 7 min 12 sec) 
Heartbeat CPU 0 instructions: 453000001 cycles: 2288923064 heartbeat IPC: 0.218927 cumulative IPC: 0.19869 (Simulation time: 1 hr 7 min 20 sec) 
Heartbeat CPU 0 instructions: 454000000 cycles: 2293579909 heartbeat IPC: 0.214737 cumulative IPC: 0.198724 (Simulation time: 1 hr 7 min 28 sec) 
Heartbeat CPU 0 instructions: 455000001 cycles: 2298243983 heartbeat IPC: 0.214405 cumulative IPC: 0.198757 (Simulation time: 1 hr 7 min 36 sec) 
Heartbeat CPU 0 instructions: 456000001 cycles: 2302804393 heartbeat IPC: 0.219279 cumulative IPC: 0.198798 (Simulation time: 1 hr 7 min 43 sec) 
Heartbeat CPU 0 instructions: 457000000 cycles: 2308275739 heartbeat IPC: 0.18277 cumulative IPC: 0.198759 (Simulation time: 1 hr 7 min 51 sec) 
Heartbeat CPU 0 instructions: 458000000 cycles: 2313262533 heartbeat IPC: 0.20053 cumulative IPC: 0.198763 (Simulation time: 1 hr 8 min 0 sec) 
Heartbeat CPU 0 instructions: 459000001 cycles: 2318236555 heartbeat IPC: 0.201045 cumulative IPC: 0.198768 (Simulation time: 1 hr 8 min 8 sec) 
Heartbeat CPU 0 instructions: 460000001 cycles: 2323315578 heartbeat IPC: 0.196888 cumulative IPC: 0.198764 (Simulation time: 1 hr 8 min 16 sec) 
Heartbeat CPU 0 instructions: 461000000 cycles: 2328448165 heartbeat IPC: 0.194833 cumulative IPC: 0.198755 (Simulation time: 1 hr 8 min 24 sec) 
Heartbeat CPU 0 instructions: 462000000 cycles: 2333391631 heartbeat IPC: 0.202287 cumulative IPC: 0.198763 (Simulation time: 1 hr 8 min 32 sec) 
Heartbeat CPU 0 instructions: 463000001 cycles: 2339055502 heartbeat IPC: 0.176558 cumulative IPC: 0.198708 (Simulation time: 1 hr 8 min 41 sec) 
Heartbeat CPU 0 instructions: 464000001 cycles: 2344588280 heartbeat IPC: 0.180741 cumulative IPC: 0.198664 (Simulation time: 1 hr 8 min 50 sec) 
Heartbeat CPU 0 instructions: 465000002 cycles: 2350151356 heartbeat IPC: 0.179757 cumulative IPC: 0.198618 (Simulation time: 1 hr 8 min 58 sec) 
Heartbeat CPU 0 instructions: 466000002 cycles: 2355673611 heartbeat IPC: 0.181085 cumulative IPC: 0.198576 (Simulation time: 1 hr 9 min 7 sec) 
Heartbeat CPU 0 instructions: 467000001 cycles: 2361190054 heartbeat IPC: 0.181276 cumulative IPC: 0.198535 (Simulation time: 1 hr 9 min 16 sec) 
Heartbeat CPU 0 instructions: 468000002 cycles: 2366672170 heartbeat IPC: 0.182412 cumulative IPC: 0.198496 (Simulation time: 1 hr 9 min 25 sec) 
Heartbeat CPU 0 instructions: 469000002 cycles: 2372171661 heartbeat IPC: 0.181835 cumulative IPC: 0.198457 (Simulation time: 1 hr 9 min 33 sec) 
Heartbeat CPU 0 instructions: 470000000 cycles: 2377041403 heartbeat IPC: 0.205349 cumulative IPC: 0.198471 (Simulation time: 1 hr 9 min 42 sec) 
Heartbeat CPU 0 instructions: 471000002 cycles: 2381837681 heartbeat IPC: 0.208495 cumulative IPC: 0.198492 (Simulation time: 1 hr 9 min 50 sec) 
Heartbeat CPU 0 instructions: 472000000 cycles: 2387312858 heartbeat IPC: 0.182642 cumulative IPC: 0.198455 (Simulation time: 1 hr 9 min 58 sec) 
Heartbeat CPU 0 instructions: 473000000 cycles: 2391820415 heartbeat IPC: 0.22185 cumulative IPC: 0.1985 (Simulation time: 1 hr 10 min 6 sec) 
Heartbeat CPU 0 instructions: 474000001 cycles: 2396494952 heartbeat IPC: 0.213925 cumulative IPC: 0.198531 (Simulation time: 1 hr 10 min 14 sec) 
Heartbeat CPU 0 instructions: 475000000 cycles: 2401079864 heartbeat IPC: 0.218106 cumulative IPC: 0.198569 (Simulation time: 1 hr 10 min 22 sec) 
Heartbeat CPU 0 instructions: 476000003 cycles: 2405639990 heartbeat IPC: 0.219293 cumulative IPC: 0.198609 (Simulation time: 1 hr 10 min 29 sec) 
Heartbeat CPU 0 instructions: 477000001 cycles: 2410376889 heartbeat IPC: 0.211108 cumulative IPC: 0.198634 (Simulation time: 1 hr 10 min 37 sec) 
Heartbeat CPU 0 instructions: 478000000 cycles: 2415097440 heartbeat IPC: 0.211839 cumulative IPC: 0.198661 (Simulation time: 1 hr 10 min 45 sec) 
Heartbeat CPU 0 instructions: 479000000 cycles: 2419855756 heartbeat IPC: 0.210158 cumulative IPC: 0.198684 (Simulation time: 1 hr 10 min 53 sec) 
Heartbeat CPU 0 instructions: 480000002 cycles: 2424638248 heartbeat IPC: 0.209096 cumulative IPC: 0.198705 (Simulation time: 1 hr 11 min 1 sec) 
Heartbeat CPU 0 instructions: 481000003 cycles: 2429165294 heartbeat IPC: 0.220895 cumulative IPC: 0.198747 (Simulation time: 1 hr 11 min 9 sec) 
Heartbeat CPU 0 instructions: 482000001 cycles: 2433798536 heartbeat IPC: 0.215831 cumulative IPC: 0.198781 (Simulation time: 1 hr 11 min 17 sec) 
Heartbeat CPU 0 instructions: 483000001 cycles: 2438459020 heartbeat IPC: 0.21457 cumulative IPC: 0.198812 (Simulation time: 1 hr 11 min 24 sec) 
Heartbeat CPU 0 instructions: 484000000 cycles: 2443267881 heartbeat IPC: 0.207949 cumulative IPC: 0.19883 (Simulation time: 1 hr 11 min 32 sec) 
Heartbeat CPU 0 instructions: 485000000 cycles: 2448084163 heartbeat IPC: 0.207629 cumulative IPC: 0.198848 (Simulation time: 1 hr 11 min 40 sec) 
Heartbeat CPU 0 instructions: 486000002 cycles: 2452598936 heartbeat IPC: 0.221496 cumulative IPC: 0.198891 (Simulation time: 1 hr 11 min 48 sec) 
Heartbeat CPU 0 instructions: 487000000 cycles: 2457175784 heartbeat IPC: 0.218491 cumulative IPC: 0.198928 (Simulation time: 1 hr 11 min 55 sec) 
Heartbeat CPU 0 instructions: 488000000 cycles: 2461845206 heartbeat IPC: 0.214159 cumulative IPC: 0.198958 (Simulation time: 1 hr 12 min 4 sec) 
Heartbeat CPU 0 instructions: 489000002 cycles: 2466500848 heartbeat IPC: 0.214794 cumulative IPC: 0.198988 (Simulation time: 1 hr 12 min 13 sec) 
Heartbeat CPU 0 instructions: 490000000 cycles: 2471050322 heartbeat IPC: 0.219805 cumulative IPC: 0.199028 (Simulation time: 1 hr 12 min 22 sec) 
Heartbeat CPU 0 instructions: 491000002 cycles: 2475721657 heartbeat IPC: 0.214072 cumulative IPC: 0.199057 (Simulation time: 1 hr 12 min 31 sec) 
Heartbeat CPU 0 instructions: 492000000 cycles: 2480244608 heartbeat IPC: 0.221094 cumulative IPC: 0.199098 (Simulation time: 1 hr 12 min 39 sec) 
Heartbeat CPU 0 instructions: 493000001 cycles: 2486512475 heartbeat IPC: 0.159544 cumulative IPC: 0.198996 (Simulation time: 1 hr 12 min 49 sec) 
Heartbeat CPU 0 instructions: 494000003 cycles: 2491075997 heartbeat IPC: 0.219129 cumulative IPC: 0.199033 (Simulation time: 1 hr 12 min 58 sec) 
Heartbeat CPU 0 instructions: 495000000 cycles: 2495804561 heartbeat IPC: 0.21148 cumulative IPC: 0.199058 (Simulation time: 1 hr 13 min 7 sec) 
Heartbeat CPU 0 instructions: 496000000 cycles: 2500441404 heartbeat IPC: 0.215664 cumulative IPC: 0.199089 (Simulation time: 1 hr 13 min 16 sec) 
Heartbeat CPU 0 instructions: 497000000 cycles: 2505164142 heartbeat IPC: 0.211742 cumulative IPC: 0.199114 (Simulation time: 1 hr 13 min 25 sec) 
Heartbeat CPU 0 instructions: 498000000 cycles: 2509821212 heartbeat IPC: 0.214727 cumulative IPC: 0.199143 (Simulation time: 1 hr 13 min 34 sec) 
Heartbeat CPU 0 instructions: 499000002 cycles: 2514393319 heartbeat IPC: 0.218718 cumulative IPC: 0.19918 (Simulation time: 1 hr 13 min 43 sec) 
Heartbeat CPU 0 instructions: 500000001 cycles: 2518839391 heartbeat IPC: 0.224917 cumulative IPC: 0.199226 (Simulation time: 1 hr 13 min 51 sec) 
Heartbeat CPU 0 instructions: 501000002 cycles: 2524272690 heartbeat IPC: 0.18405 cumulative IPC: 0.199193 (Simulation time: 1 hr 14 min 1 sec) 
Heartbeat CPU 0 instructions: 502000001 cycles: 2529141783 heartbeat IPC: 0.205377 cumulative IPC: 0.199205 (Simulation time: 1 hr 14 min 10 sec) 
Heartbeat CPU 0 instructions: 503000001 cycles: 2534452359 heartbeat IPC: 0.188303 cumulative IPC: 0.199182 (Simulation time: 1 hr 14 min 20 sec) 
Heartbeat CPU 0 instructions: 504000000 cycles: 2539381619 heartbeat IPC: 0.20287 cumulative IPC: 0.199189 (Simulation time: 1 hr 14 min 30 sec) 
Heartbeat CPU 0 instructions: 505000002 cycles: 2544434767 heartbeat IPC: 0.197897 cumulative IPC: 0.199186 (Simulation time: 1 hr 14 min 39 sec) 
Heartbeat CPU 0 instructions: 506000000 cycles: 2549836089 heartbeat IPC: 0.185139 cumulative IPC: 0.199156 (Simulation time: 1 hr 14 min 48 sec) 
Heartbeat CPU 0 instructions: 507000000 cycles: 2554939493 heartbeat IPC: 0.195948 cumulative IPC: 0.199149 (Simulation time: 1 hr 14 min 58 sec) 
Heartbeat CPU 0 instructions: 508000000 cycles: 2559890389 heartbeat IPC: 0.201984 cumulative IPC: 0.199155 (Simulation time: 1 hr 15 min 7 sec) 
Heartbeat CPU 0 instructions: 509000000 cycles: 2564907885 heartbeat IPC: 0.199303 cumulative IPC: 0.199155 (Simulation time: 1 hr 15 min 16 sec) 
Heartbeat CPU 0 instructions: 510000000 cycles: 2569980388 heartbeat IPC: 0.197141 cumulative IPC: 0.199151 (Simulation time: 1 hr 15 min 25 sec) 
Finished CPU 0 instructions: 500000002 cycles: 2510656316 cumulative IPC: 0.199151 (Simulation time: 1 hr 15 min 25 sec) 

ChampSim completed all CPUs

Region of Interest Statistics

CPU 0 cumulative IPC: 0.199151 instructions: 500000002 cycles: 2510656316
L1D TOTAL     ACCESS:  112522825  HIT:   37343475  MISS:   75179350
L1D LOAD      ACCESS:  103062502  HIT:   28089800  MISS:   74972702
L1D RFO       ACCESS:    9460323  HIT:    9253675  MISS:     206648
L1D PREFETCH  ACCESS:          0  HIT:          0  MISS:          0
L1D WRITEBACK ACCESS:          0  HIT:          0  MISS:          0
L1D PREFETCH  REQUESTED:          0  ISSUED:          0  USEFUL:          0  USELESS:          0
L1D AVERAGE MISS LATENCY: 79.391 cycles
L1I TOTAL     ACCESS:   84339857  HIT:   84339857  MISS:          0
L1I LOAD      ACCESS:   84339857  HIT:   84339857  MISS:          0
L1I RFO       ACCESS:          0  HIT:          0  MISS:          0
L1I PREFETCH  ACCESS:          0  HIT:          0  MISS:          0
L1I WRITEBACK ACCESS:          0  HIT:          0  MISS:          0
L1I PREFETCH  REQUESTED:          0  ISSUED:          0  USEFUL:          0  USELESS:          0
L1I AVERAGE MISS LATENCY: -nan cycles
L2C TOTAL     ACCESS:   76605233  HIT:    9289572  MISS:   67315661
L2C LOAD      ACCESS:   74972588  HIT:    7826647  MISS:   67145941
L2C RFO       ACCESS:     206646  HIT:      37176  MISS:     169470
L2C PREFETCH  ACCESS:          0  HIT:          0  MISS:          0
L2C WRITEBACK ACCESS:    1425999  HIT:    1425749  MISS:        250
L2C PREFETCH  REQUESTED:          0  ISSUED:          0  USEFUL:          0  USELESS:          0
L2C AVERAGE MISS LATENCY: 72.34 cycles
LLC TOTAL     ACCESS:  130629716  HIT:   89584314  MISS:   41045402
LLC LOAD      ACCESS:   67145923  HIT:   53347804  MISS:   13798119
LLC RFO       ACCESS:     169467  HIT:     143504  MISS:      25963
LLC PREFETCH  ACCESS:   62000573  HIT:   34783884  MISS:   27216689
LLC WRITEBACK ACCESS:    1313753  HIT:    1309122  MISS:       4631
LLC PREFETCH  REQUESTED:   67131350  ISSUED:   63699118  USEFUL:   23868629  USELESS:    3345761
LLC AVERAGE MISS LATENCY: 166.457 cycles
Major fault: 0 Minor fault: 432523
performance stats:
mapping cache size: 27650801
divergence: 34995842

DRAM Statistics
 CHANNEL 0
 RQ ROW_BUFFER_HIT:   13900854  ROW_BUFFER_MISS:    6624230
 DBUS_CONGESTED:   18052520
 WQ ROW_BUFFER_HIT:     153425  ROW_BUFFER_MISS:     103743  FULL:          0

 CHANNEL 1
 RQ ROW_BUFFER_HIT:   13903081  ROW_BUFFER_MISS:    6612225
 DBUS_CONGESTED:   18052520
 WQ ROW_BUFFER_HIT:     156026  ROW_BUFFER_MISS:     105247  FULL:          0

 AVG_CONGESTED_CYCLE: 17

CPU 0 Branch Prediction Accuracy: 97.0534% MPKI: 8.9287 Average ROB Occupancy at Mispredict: 63.9249

Branch types
NOT_BRANCH: 348490963 69.6982%
BRANCH_DIRECT_JUMP: 18928210 3.78564%
BRANCH_INDIRECT: 0 0%
BRANCH_CONDITIONAL: 128474815 25.695%
BRANCH_DIRECT_CALL: 1899987 0.379997%
BRANCH_INDIRECT_CALL: 153150 0.03063%
BRANCH_RETURN: 2053137 0.410627%
BRANCH_OTHER: 0 0%

