
*** ChampSim Multicore Out-of-Order Simulator ***

Warmup Instructions: 1000000
Prefetch Warmup Instructions: 10000000
Simulation Instructions: 500000000
Stat Printing Period: 1000000
Number of CPUs: 1
LLC sets: 2048
LLC ways: 16
Off-chip DRAM Size: 32768 MB Channels: 2 Width: 64-bit Data Rate: 1024 MT/s

CPU 0 runs /scratch/cluster/cmolder/ML-DPC/ChampSimTraces/spec17/605.mcf-s8.trace.xz
Read seed: 232
Heartbeat CPU 0 instructions: 1000001 cycles: 405728 heartbeat IPC: 2.46471 cumulative IPC: 2.46471 (Simulation time: 0 hr 0 min 3 sec) 

Warmup complete CPU 0 instructions: 1000001 cycles: 405728 (Simulation time: 0 hr 0 min 3 sec) 

Heartbeat CPU 0 instructions: 2000001 cycles: 1693133 heartbeat IPC: 0.776756 cumulative IPC: 0.776756 (Simulation time: 0 hr 0 min 5 sec) 
Heartbeat CPU 0 instructions: 3000000 cycles: 2668974 heartbeat IPC: 1.02476 cumulative IPC: 0.883686 (Simulation time: 0 hr 0 min 7 sec) 
Heartbeat CPU 0 instructions: 4000001 cycles: 6421259 heartbeat IPC: 0.266505 cumulative IPC: 0.498709 (Simulation time: 0 hr 0 min 11 sec) 
Heartbeat CPU 0 instructions: 5000000 cycles: 8570229 heartbeat IPC: 0.465339 cumulative IPC: 0.489926 (Simulation time: 0 hr 0 min 13 sec) 
Heartbeat CPU 0 instructions: 6000000 cycles: 9575587 heartbeat IPC: 0.994671 cumulative IPC: 0.545265 (Simulation time: 0 hr 0 min 15 sec) 
Heartbeat CPU 0 instructions: 7000001 cycles: 11472632 heartbeat IPC: 0.527136 cumulative IPC: 0.542157 (Simulation time: 0 hr 0 min 17 sec) 
Heartbeat CPU 0 instructions: 8000000 cycles: 12513886 heartbeat IPC: 0.960379 cumulative IPC: 0.578123 (Simulation time: 0 hr 0 min 19 sec) 
Heartbeat CPU 0 instructions: 9000000 cycles: 13632109 heartbeat IPC: 0.894276 cumulative IPC: 0.604852 (Simulation time: 0 hr 0 min 21 sec) 
Heartbeat CPU 0 instructions: 10000000 cycles: 15160701 heartbeat IPC: 0.654197 cumulative IPC: 0.609964 (Simulation time: 0 hr 0 min 23 sec) 

Warmup complete CPU 0 instructions: 10000002 cycles: 15160705 (Simulation time: 0 hr 0 min 23 sec) 

Heartbeat CPU 0 instructions: 11000000 cycles: 16120668 heartbeat IPC: 1.0417 cumulative IPC: 1.0417 (Simulation time: 0 hr 0 min 25 sec) 
Heartbeat CPU 0 instructions: 12000003 cycles: 22612387 heartbeat IPC: 0.154043 cumulative IPC: 0.268396 (Simulation time: 0 hr 0 min 29 sec) 
Heartbeat CPU 0 instructions: 13000000 cycles: 26554620 heartbeat IPC: 0.253663 cumulative IPC: 0.263298 (Simulation time: 0 hr 0 min 32 sec) 
Heartbeat CPU 0 instructions: 14000002 cycles: 27524045 heartbeat IPC: 1.03154 cumulative IPC: 0.323537 (Simulation time: 0 hr 0 min 34 sec) 
Heartbeat CPU 0 instructions: 15000001 cycles: 28839909 heartbeat IPC: 0.759956 cumulative IPC: 0.365518 (Simulation time: 0 hr 0 min 36 sec) 
Heartbeat CPU 0 instructions: 16000002 cycles: 29854998 heartbeat IPC: 0.985136 cumulative IPC: 0.408322 (Simulation time: 0 hr 0 min 38 sec) 
Heartbeat CPU 0 instructions: 17000001 cycles: 31691179 heartbeat IPC: 0.544608 cumulative IPC: 0.42346 (Simulation time: 0 hr 0 min 40 sec) 
Heartbeat CPU 0 instructions: 18000000 cycles: 32894698 heartbeat IPC: 0.830896 cumulative IPC: 0.451111 (Simulation time: 0 hr 0 min 42 sec) 
Heartbeat CPU 0 instructions: 19000000 cycles: 34549461 heartbeat IPC: 0.604316 cumulative IPC: 0.464186 (Simulation time: 0 hr 0 min 45 sec) 
Heartbeat CPU 0 instructions: 20000000 cycles: 37870485 heartbeat IPC: 0.301112 cumulative IPC: 0.440339 (Simulation time: 0 hr 0 min 47 sec) 
Heartbeat CPU 0 instructions: 21000001 cycles: 38862826 heartbeat IPC: 1.00772 cumulative IPC: 0.464093 (Simulation time: 0 hr 0 min 49 sec) 
Heartbeat CPU 0 instructions: 22000000 cycles: 40297912 heartbeat IPC: 0.696822 cumulative IPC: 0.47738 (Simulation time: 0 hr 0 min 52 sec) 
Heartbeat CPU 0 instructions: 23000003 cycles: 41346015 heartbeat IPC: 0.954108 cumulative IPC: 0.496462 (Simulation time: 0 hr 0 min 54 sec) 
Heartbeat CPU 0 instructions: 24000000 cycles: 42784894 heartbeat IPC: 0.694983 cumulative IPC: 0.506802 (Simulation time: 0 hr 0 min 56 sec) 
Heartbeat CPU 0 instructions: 25000002 cycles: 47187341 heartbeat IPC: 0.227147 cumulative IPC: 0.46836 (Simulation time: 0 hr 0 min 59 sec) 
Heartbeat CPU 0 instructions: 26000001 cycles: 54583965 heartbeat IPC: 0.135197 cumulative IPC: 0.405852 (Simulation time: 0 hr 1 min 3 sec) 
Heartbeat CPU 0 instructions: 27000001 cycles: 56793123 heartbeat IPC: 0.452661 cumulative IPC: 0.408336 (Simulation time: 0 hr 1 min 5 sec) 
Heartbeat CPU 0 instructions: 28000001 cycles: 58073665 heartbeat IPC: 0.780919 cumulative IPC: 0.419454 (Simulation time: 0 hr 1 min 7 sec) 
Heartbeat CPU 0 instructions: 29000002 cycles: 59023914 heartbeat IPC: 1.05236 cumulative IPC: 0.433165 (Simulation time: 0 hr 1 min 9 sec) 
Heartbeat CPU 0 instructions: 30000003 cycles: 61822755 heartbeat IPC: 0.357291 cumulative IPC: 0.428614 (Simulation time: 0 hr 1 min 12 sec) 
Heartbeat CPU 0 instructions: 31000000 cycles: 62854749 heartbeat IPC: 0.968995 cumulative IPC: 0.440307 (Simulation time: 0 hr 1 min 14 sec) 
Heartbeat CPU 0 instructions: 32000000 cycles: 64236379 heartbeat IPC: 0.723783 cumulative IPC: 0.448287 (Simulation time: 0 hr 1 min 16 sec) 
Heartbeat CPU 0 instructions: 33000000 cycles: 65337528 heartbeat IPC: 0.908142 cumulative IPC: 0.458379 (Simulation time: 0 hr 1 min 18 sec) 
Heartbeat CPU 0 instructions: 34000000 cycles: 68279232 heartbeat IPC: 0.339939 cumulative IPC: 0.45182 (Simulation time: 0 hr 1 min 21 sec) 
Heartbeat CPU 0 instructions: 35000000 cycles: 73239403 heartbeat IPC: 0.201606 cumulative IPC: 0.43045 (Simulation time: 0 hr 1 min 24 sec) 
Heartbeat CPU 0 instructions: 36000000 cycles: 74357104 heartbeat IPC: 0.894694 cumulative IPC: 0.439216 (Simulation time: 0 hr 1 min 26 sec) 
Heartbeat CPU 0 instructions: 37000002 cycles: 75685348 heartbeat IPC: 0.752875 cumulative IPC: 0.446099 (Simulation time: 0 hr 1 min 28 sec) 
Heartbeat CPU 0 instructions: 38000001 cycles: 79179150 heartbeat IPC: 0.286221 cumulative IPC: 0.437374 (Simulation time: 0 hr 1 min 31 sec) 
Heartbeat CPU 0 instructions: 39000001 cycles: 80796218 heartbeat IPC: 0.618403 cumulative IPC: 0.441834 (Simulation time: 0 hr 1 min 33 sec) 
Heartbeat CPU 0 instructions: 40000001 cycles: 81946646 heartbeat IPC: 0.869242 cumulative IPC: 0.449196 (Simulation time: 0 hr 1 min 35 sec) 
Heartbeat CPU 0 instructions: 41000003 cycles: 82827271 heartbeat IPC: 1.13556 cumulative IPC: 0.458129 (Simulation time: 0 hr 1 min 37 sec) 
Heartbeat CPU 0 instructions: 42000001 cycles: 84824994 heartbeat IPC: 0.500569 cumulative IPC: 0.459346 (Simulation time: 0 hr 1 min 40 sec) 
Heartbeat CPU 0 instructions: 43000000 cycles: 85834693 heartbeat IPC: 0.990393 cumulative IPC: 0.466933 (Simulation time: 0 hr 1 min 42 sec) 
Heartbeat CPU 0 instructions: 44000000 cycles: 95358005 heartbeat IPC: 0.105005 cumulative IPC: 0.423954 (Simulation time: 0 hr 1 min 46 sec) 
Heartbeat CPU 0 instructions: 45000001 cycles: 104689094 heartbeat IPC: 0.107169 cumulative IPC: 0.390937 (Simulation time: 0 hr 1 min 51 sec) 
Heartbeat CPU 0 instructions: 46000001 cycles: 113988111 heartbeat IPC: 0.107538 cumulative IPC: 0.364271 (Simulation time: 0 hr 1 min 55 sec) 
Heartbeat CPU 0 instructions: 47000001 cycles: 123044062 heartbeat IPC: 0.110425 cumulative IPC: 0.342963 (Simulation time: 0 hr 2 min 0 sec) 
Heartbeat CPU 0 instructions: 48000000 cycles: 132944583 heartbeat IPC: 0.101005 cumulative IPC: 0.322625 (Simulation time: 0 hr 2 min 4 sec) 
Heartbeat CPU 0 instructions: 49000001 cycles: 143303473 heartbeat IPC: 0.0965355 cumulative IPC: 0.304348 (Simulation time: 0 hr 2 min 9 sec) 
Heartbeat CPU 0 instructions: 50000001 cycles: 152830752 heartbeat IPC: 0.104962 cumulative IPC: 0.29055 (Simulation time: 0 hr 2 min 13 sec) 
Heartbeat CPU 0 instructions: 51000002 cycles: 163345410 heartbeat IPC: 0.0951054 cumulative IPC: 0.276682 (Simulation time: 0 hr 2 min 18 sec) 
Heartbeat CPU 0 instructions: 52000001 cycles: 171925821 heartbeat IPC: 0.116544 cumulative IPC: 0.267917 (Simulation time: 0 hr 2 min 23 sec) 
Heartbeat CPU 0 instructions: 53000003 cycles: 174214960 heartbeat IPC: 0.436846 cumulative IPC: 0.270348 (Simulation time: 0 hr 2 min 26 sec) 
Heartbeat CPU 0 instructions: 54000000 cycles: 175349376 heartbeat IPC: 0.881508 cumulative IPC: 0.274676 (Simulation time: 0 hr 2 min 28 sec) 
Heartbeat CPU 0 instructions: 55000000 cycles: 176734500 heartbeat IPC: 0.721957 cumulative IPC: 0.278511 (Simulation time: 0 hr 2 min 30 sec) 
Heartbeat CPU 0 instructions: 56000001 cycles: 177674398 heartbeat IPC: 1.06395 cumulative IPC: 0.283053 (Simulation time: 0 hr 2 min 32 sec) 
Heartbeat CPU 0 instructions: 57000001 cycles: 180952352 heartbeat IPC: 0.305068 cumulative IPC: 0.283488 (Simulation time: 0 hr 2 min 35 sec) 
Heartbeat CPU 0 instructions: 58000002 cycles: 182194752 heartbeat IPC: 0.804895 cumulative IPC: 0.287367 (Simulation time: 0 hr 2 min 37 sec) 
Heartbeat CPU 0 instructions: 59000000 cycles: 183307856 heartbeat IPC: 0.898387 cumulative IPC: 0.291411 (Simulation time: 0 hr 2 min 39 sec) 
Heartbeat CPU 0 instructions: 60000000 cycles: 184776934 heartbeat IPC: 0.680699 cumulative IPC: 0.294783 (Simulation time: 0 hr 2 min 42 sec) 
Heartbeat CPU 0 instructions: 61000000 cycles: 185817958 heartbeat IPC: 0.960593 cumulative IPC: 0.298845 (Simulation time: 0 hr 2 min 44 sec) 
Heartbeat CPU 0 instructions: 62000001 cycles: 194616418 heartbeat IPC: 0.113656 cumulative IPC: 0.289765 (Simulation time: 0 hr 2 min 48 sec) 
Heartbeat CPU 0 instructions: 63000000 cycles: 204188557 heartbeat IPC: 0.10447 cumulative IPC: 0.280382 (Simulation time: 0 hr 2 min 53 sec) 
Heartbeat CPU 0 instructions: 64000000 cycles: 211251184 heartbeat IPC: 0.14159 cumulative IPC: 0.275383 (Simulation time: 0 hr 2 min 56 sec) 
Heartbeat CPU 0 instructions: 65000000 cycles: 213266667 heartbeat IPC: 0.496159 cumulative IPC: 0.277629 (Simulation time: 0 hr 2 min 59 sec) 
Heartbeat CPU 0 instructions: 66000000 cycles: 214560712 heartbeat IPC: 0.772771 cumulative IPC: 0.280843 (Simulation time: 0 hr 3 min 1 sec) 
Heartbeat CPU 0 instructions: 67000000 cycles: 216209876 heartbeat IPC: 0.606368 cumulative IPC: 0.283513 (Simulation time: 0 hr 3 min 3 sec) 
Heartbeat CPU 0 instructions: 68000000 cycles: 217495392 heartbeat IPC: 0.777898 cumulative IPC: 0.286654 (Simulation time: 0 hr 3 min 5 sec) 
Heartbeat CPU 0 instructions: 69000000 cycles: 222166606 heartbeat IPC: 0.214077 cumulative IPC: 0.285016 (Simulation time: 0 hr 3 min 8 sec) 
Heartbeat CPU 0 instructions: 70000000 cycles: 224556889 heartbeat IPC: 0.418361 cumulative IPC: 0.286538 (Simulation time: 0 hr 3 min 11 sec) 
Heartbeat CPU 0 instructions: 71000001 cycles: 227634232 heartbeat IPC: 0.324956 cumulative IPC: 0.287095 (Simulation time: 0 hr 3 min 14 sec) 
Heartbeat CPU 0 instructions: 72000000 cycles: 229306698 heartbeat IPC: 0.597919 cumulative IPC: 0.289522 (Simulation time: 0 hr 3 min 16 sec) 
Heartbeat CPU 0 instructions: 73000001 cycles: 230499404 heartbeat IPC: 0.83843 cumulative IPC: 0.292562 (Simulation time: 0 hr 3 min 18 sec) 
Heartbeat CPU 0 instructions: 74000002 cycles: 231841305 heartbeat IPC: 0.745212 cumulative IPC: 0.295366 (Simulation time: 0 hr 3 min 20 sec) 
Heartbeat CPU 0 instructions: 75000000 cycles: 233255811 heartbeat IPC: 0.706959 cumulative IPC: 0.298035 (Simulation time: 0 hr 3 min 22 sec) 
Heartbeat CPU 0 instructions: 76000003 cycles: 239418023 heartbeat IPC: 0.16228 cumulative IPC: 0.294305 (Simulation time: 0 hr 3 min 26 sec) 
Heartbeat CPU 0 instructions: 77000000 cycles: 240857709 heartbeat IPC: 0.694594 cumulative IPC: 0.296858 (Simulation time: 0 hr 3 min 29 sec) 
Heartbeat CPU 0 instructions: 78000000 cycles: 242459985 heartbeat IPC: 0.624112 cumulative IPC: 0.299165 (Simulation time: 0 hr 3 min 31 sec) 
Heartbeat CPU 0 instructions: 79000001 cycles: 243487943 heartbeat IPC: 0.972803 cumulative IPC: 0.302198 (Simulation time: 0 hr 3 min 33 sec) 
Heartbeat CPU 0 instructions: 80000003 cycles: 247609669 heartbeat IPC: 0.242617 cumulative IPC: 0.301141 (Simulation time: 0 hr 3 min 37 sec) 
Heartbeat CPU 0 instructions: 81000001 cycles: 248521984 heartbeat IPC: 1.09611 cumulative IPC: 0.304249 (Simulation time: 0 hr 3 min 39 sec) 
Heartbeat CPU 0 instructions: 82000002 cycles: 249663389 heartbeat IPC: 0.876114 cumulative IPC: 0.307033 (Simulation time: 0 hr 3 min 41 sec) 
Heartbeat CPU 0 instructions: 83000002 cycles: 251136433 heartbeat IPC: 0.678866 cumulative IPC: 0.309354 (Simulation time: 0 hr 3 min 43 sec) 
Heartbeat CPU 0 instructions: 84000001 cycles: 252074394 heartbeat IPC: 1.06614 cumulative IPC: 0.31235 (Simulation time: 0 hr 3 min 45 sec) 
Heartbeat CPU 0 instructions: 85000001 cycles: 255969827 heartbeat IPC: 0.256711 cumulative IPC: 0.31145 (Simulation time: 0 hr 3 min 49 sec) 
Heartbeat CPU 0 instructions: 86000003 cycles: 262912634 heartbeat IPC: 0.144034 cumulative IPC: 0.306758 (Simulation time: 0 hr 3 min 53 sec) 
Heartbeat CPU 0 instructions: 87000002 cycles: 266224819 heartbeat IPC: 0.301915 cumulative IPC: 0.306695 (Simulation time: 0 hr 3 min 57 sec) 
Heartbeat CPU 0 instructions: 88000000 cycles: 267203706 heartbeat IPC: 1.02157 cumulative IPC: 0.309471 (Simulation time: 0 hr 3 min 59 sec) 
Heartbeat CPU 0 instructions: 89000003 cycles: 268193930 heartbeat IPC: 1.00988 cumulative IPC: 0.312212 (Simulation time: 0 hr 4 min 1 sec) 
Heartbeat CPU 0 instructions: 90000001 cycles: 269394476 heartbeat IPC: 0.832953 cumulative IPC: 0.314671 (Simulation time: 0 hr 4 min 3 sec) 
Heartbeat CPU 0 instructions: 91000000 cycles: 272587945 heartbeat IPC: 0.313139 cumulative IPC: 0.314652 (Simulation time: 0 hr 4 min 6 sec) 
Heartbeat CPU 0 instructions: 92000002 cycles: 274570374 heartbeat IPC: 0.504433 cumulative IPC: 0.316102 (Simulation time: 0 hr 4 min 9 sec) 
Heartbeat CPU 0 instructions: 93000000 cycles: 276436616 heartbeat IPC: 0.535835 cumulative IPC: 0.317672 (Simulation time: 0 hr 4 min 11 sec) 
Heartbeat CPU 0 instructions: 94000001 cycles: 278620369 heartbeat IPC: 0.457928 cumulative IPC: 0.318834 (Simulation time: 0 hr 4 min 14 sec) 
Heartbeat CPU 0 instructions: 95000000 cycles: 279706412 heartbeat IPC: 0.920773 cumulative IPC: 0.321306 (Simulation time: 0 hr 4 min 16 sec) 
Heartbeat CPU 0 instructions: 96000001 cycles: 281623302 heartbeat IPC: 0.521679 cumulative IPC: 0.322747 (Simulation time: 0 hr 4 min 18 sec) 
Heartbeat CPU 0 instructions: 97000002 cycles: 282804454 heartbeat IPC: 0.846632 cumulative IPC: 0.325059 (Simulation time: 0 hr 4 min 20 sec) 
Heartbeat CPU 0 instructions: 98000001 cycles: 283938527 heartbeat IPC: 0.881777 cumulative IPC: 0.327408 (Simulation time: 0 hr 4 min 22 sec) 
Heartbeat CPU 0 instructions: 99000000 cycles: 286697616 heartbeat IPC: 0.362438 cumulative IPC: 0.327764 (Simulation time: 0 hr 4 min 25 sec) 
Heartbeat CPU 0 instructions: 100000001 cycles: 288659622 heartbeat IPC: 0.509683 cumulative IPC: 0.329069 (Simulation time: 0 hr 4 min 27 sec) 
Heartbeat CPU 0 instructions: 101000000 cycles: 299928723 heartbeat IPC: 0.0887381 cumulative IPC: 0.319558 (Simulation time: 0 hr 4 min 32 sec) 
Heartbeat CPU 0 instructions: 102000003 cycles: 309787147 heartbeat IPC: 0.101436 cumulative IPC: 0.31226 (Simulation time: 0 hr 4 min 37 sec) 
Heartbeat CPU 0 instructions: 103000000 cycles: 315983174 heartbeat IPC: 0.161393 cumulative IPC: 0.309152 (Simulation time: 0 hr 4 min 41 sec) 
Heartbeat CPU 0 instructions: 104000003 cycles: 317612657 heartbeat IPC: 0.613693 cumulative IPC: 0.310793 (Simulation time: 0 hr 4 min 44 sec) 
Heartbeat CPU 0 instructions: 105000001 cycles: 318881551 heartbeat IPC: 0.788086 cumulative IPC: 0.312787 (Simulation time: 0 hr 4 min 46 sec) 
Heartbeat CPU 0 instructions: 106000000 cycles: 320559074 heartbeat IPC: 0.596116 cumulative IPC: 0.314344 (Simulation time: 0 hr 4 min 48 sec) 
Heartbeat CPU 0 instructions: 107000000 cycles: 326349440 heartbeat IPC: 0.172701 cumulative IPC: 0.311708 (Simulation time: 0 hr 4 min 52 sec) 
Heartbeat CPU 0 instructions: 108000002 cycles: 327586907 heartbeat IPC: 0.808104 cumulative IPC: 0.313674 (Simulation time: 0 hr 4 min 54 sec) 
Heartbeat CPU 0 instructions: 109000001 cycles: 329320598 heartbeat IPC: 0.576804 cumulative IPC: 0.315126 (Simulation time: 0 hr 4 min 57 sec) 
Heartbeat CPU 0 instructions: 110000000 cycles: 333477725 heartbeat IPC: 0.240551 cumulative IPC: 0.314152 (Simulation time: 0 hr 5 min 0 sec) 
Heartbeat CPU 0 instructions: 111000002 cycles: 334565573 heartbeat IPC: 0.919248 cumulative IPC: 0.316213 (Simulation time: 0 hr 5 min 2 sec) 
Heartbeat CPU 0 instructions: 112000001 cycles: 338488699 heartbeat IPC: 0.254899 cumulative IPC: 0.315469 (Simulation time: 0 hr 5 min 5 sec) 
Heartbeat CPU 0 instructions: 113000001 cycles: 339951287 heartbeat IPC: 0.68372 cumulative IPC: 0.317127 (Simulation time: 0 hr 5 min 8 sec) 
Heartbeat CPU 0 instructions: 114000003 cycles: 340993040 heartbeat IPC: 0.959922 cumulative IPC: 0.319183 (Simulation time: 0 hr 5 min 10 sec) 
Heartbeat CPU 0 instructions: 115000003 cycles: 342760005 heartbeat IPC: 0.565942 cumulative IPC: 0.320514 (Simulation time: 0 hr 5 min 12 sec) 
Heartbeat CPU 0 instructions: 116000001 cycles: 344408544 heartbeat IPC: 0.606597 cumulative IPC: 0.321946 (Simulation time: 0 hr 5 min 14 sec) 
Heartbeat CPU 0 instructions: 117000002 cycles: 345556089 heartbeat IPC: 0.871426 cumulative IPC: 0.323854 (Simulation time: 0 hr 5 min 17 sec) 
Heartbeat CPU 0 instructions: 118000000 cycles: 353038555 heartbeat IPC: 0.133646 cumulative IPC: 0.319642 (Simulation time: 0 hr 5 min 21 sec) 
Heartbeat CPU 0 instructions: 119000003 cycles: 362421505 heartbeat IPC: 0.106577 cumulative IPC: 0.313885 (Simulation time: 0 hr 5 min 25 sec) 
Heartbeat CPU 0 instructions: 120000000 cycles: 364553144 heartbeat IPC: 0.469121 cumulative IPC: 0.314832 (Simulation time: 0 hr 5 min 28 sec) 
Heartbeat CPU 0 instructions: 121000000 cycles: 365907140 heartbeat IPC: 0.738555 cumulative IPC: 0.316468 (Simulation time: 0 hr 5 min 30 sec) 
Heartbeat CPU 0 instructions: 122000000 cycles: 368937618 heartbeat IPC: 0.329981 cumulative IPC: 0.316584 (Simulation time: 0 hr 5 min 33 sec) 
Heartbeat CPU 0 instructions: 123000001 cycles: 371501122 heartbeat IPC: 0.390091 cumulative IPC: 0.317113 (Simulation time: 0 hr 5 min 35 sec) 
Heartbeat CPU 0 instructions: 124000003 cycles: 372954776 heartbeat IPC: 0.687923 cumulative IPC: 0.318619 (Simulation time: 0 hr 5 min 37 sec) 
Heartbeat CPU 0 instructions: 125000001 cycles: 375457312 heartbeat IPC: 0.399594 cumulative IPC: 0.319181 (Simulation time: 0 hr 5 min 40 sec) 
Heartbeat CPU 0 instructions: 126000003 cycles: 376871906 heartbeat IPC: 0.706918 cumulative IPC: 0.320698 (Simulation time: 0 hr 5 min 42 sec) 
Heartbeat CPU 0 instructions: 127000001 cycles: 378128790 heartbeat IPC: 0.795617 cumulative IPC: 0.322342 (Simulation time: 0 hr 5 min 44 sec) 
Heartbeat CPU 0 instructions: 128000000 cycles: 384721735 heartbeat IPC: 0.151677 cumulative IPC: 0.319298 (Simulation time: 0 hr 5 min 49 sec) 
Heartbeat CPU 0 instructions: 129000003 cycles: 390479834 heartbeat IPC: 0.173669 cumulative IPC: 0.317064 (Simulation time: 0 hr 5 min 52 sec) 
Heartbeat CPU 0 instructions: 130000000 cycles: 391533386 heartbeat IPC: 0.949167 cumulative IPC: 0.318833 (Simulation time: 0 hr 5 min 54 sec) 
Heartbeat CPU 0 instructions: 131000000 cycles: 393092148 heartbeat IPC: 0.641535 cumulative IPC: 0.320164 (Simulation time: 0 hr 5 min 57 sec) 
Heartbeat CPU 0 instructions: 132000000 cycles: 394842110 heartbeat IPC: 0.571441 cumulative IPC: 0.321322 (Simulation time: 0 hr 5 min 59 sec) 
Heartbeat CPU 0 instructions: 133000001 cycles: 396031855 heartbeat IPC: 0.840517 cumulative IPC: 0.322944 (Simulation time: 0 hr 6 min 1 sec) 
Heartbeat CPU 0 instructions: 134000000 cycles: 398088482 heartbeat IPC: 0.486233 cumulative IPC: 0.323821 (Simulation time: 0 hr 6 min 4 sec) 
Heartbeat CPU 0 instructions: 135000003 cycles: 399216335 heartbeat IPC: 0.886643 cumulative IPC: 0.325474 (Simulation time: 0 hr 6 min 6 sec) 
Heartbeat CPU 0 instructions: 136000000 cycles: 401385014 heartbeat IPC: 0.461109 cumulative IPC: 0.326235 (Simulation time: 0 hr 6 min 8 sec) 
Heartbeat CPU 0 instructions: 137000001 cycles: 402690226 heartbeat IPC: 0.76616 cumulative IPC: 0.327717 (Simulation time: 0 hr 6 min 11 sec) 
Heartbeat CPU 0 instructions: 138000003 cycles: 404956237 heartbeat IPC: 0.441305 cumulative IPC: 0.328377 (Simulation time: 0 hr 6 min 13 sec) 
Heartbeat CPU 0 instructions: 139000000 cycles: 415035626 heartbeat IPC: 0.0992121 cumulative IPC: 0.322601 (Simulation time: 0 hr 6 min 18 sec) 
Heartbeat CPU 0 instructions: 140000000 cycles: 425932781 heartbeat IPC: 0.0917671 cumulative IPC: 0.316477 (Simulation time: 0 hr 6 min 23 sec) 
Heartbeat CPU 0 instructions: 141000000 cycles: 436714993 heartbeat IPC: 0.0927453 cumulative IPC: 0.310755 (Simulation time: 0 hr 6 min 28 sec) 
Heartbeat CPU 0 instructions: 142000003 cycles: 447265581 heartbeat IPC: 0.0947817 cumulative IPC: 0.305481 (Simulation time: 0 hr 6 min 32 sec) 
Heartbeat CPU 0 instructions: 143000000 cycles: 456848019 heartbeat IPC: 0.104357 cumulative IPC: 0.301118 (Simulation time: 0 hr 6 min 37 sec) 
Heartbeat CPU 0 instructions: 144000002 cycles: 463655817 heartbeat IPC: 0.146891 cumulative IPC: 0.298777 (Simulation time: 0 hr 6 min 42 sec) 
Heartbeat CPU 0 instructions: 145000001 cycles: 469745337 heartbeat IPC: 0.164216 cumulative IPC: 0.296974 (Simulation time: 0 hr 6 min 47 sec) 
Heartbeat CPU 0 instructions: 146000003 cycles: 476735359 heartbeat IPC: 0.143061 cumulative IPC: 0.294644 (Simulation time: 0 hr 6 min 51 sec) 
Heartbeat CPU 0 instructions: 147000001 cycles: 478121967 heartbeat IPC: 0.721183 cumulative IPC: 0.295921 (Simulation time: 0 hr 6 min 53 sec) 
Heartbeat CPU 0 instructions: 148000000 cycles: 479536309 heartbeat IPC: 0.707042 cumulative IPC: 0.297173 (Simulation time: 0 hr 6 min 56 sec) 
Heartbeat CPU 0 instructions: 149000000 cycles: 480958291 heartbeat IPC: 0.703244 cumulative IPC: 0.298413 (Simulation time: 0 hr 6 min 58 sec) 
Heartbeat CPU 0 instructions: 150000003 cycles: 482362152 heartbeat IPC: 0.712323 cumulative IPC: 0.299657 (Simulation time: 0 hr 7 min 0 sec) 
Heartbeat CPU 0 instructions: 151000000 cycles: 483388104 heartbeat IPC: 0.974702 cumulative IPC: 0.301136 (Simulation time: 0 hr 7 min 2 sec) 
Heartbeat CPU 0 instructions: 152000003 cycles: 491024862 heartbeat IPC: 0.130946 cumulative IPC: 0.298404 (Simulation time: 0 hr 7 min 7 sec) 
Heartbeat CPU 0 instructions: 153000003 cycles: 493907310 heartbeat IPC: 0.346927 cumulative IPC: 0.298697 (Simulation time: 0 hr 7 min 10 sec) 
Heartbeat CPU 0 instructions: 154000000 cycles: 494899064 heartbeat IPC: 1.00831 cumulative IPC: 0.300164 (Simulation time: 0 hr 7 min 12 sec) 
Heartbeat CPU 0 instructions: 155000000 cycles: 497405425 heartbeat IPC: 0.398985 cumulative IPC: 0.300677 (Simulation time: 0 hr 7 min 15 sec) 
Heartbeat CPU 0 instructions: 156000001 cycles: 498439201 heartbeat IPC: 0.967328 cumulative IPC: 0.302103 (Simulation time: 0 hr 7 min 17 sec) 
Heartbeat CPU 0 instructions: 157000001 cycles: 499696697 heartbeat IPC: 0.795231 cumulative IPC: 0.303383 (Simulation time: 0 hr 7 min 20 sec) 
Heartbeat CPU 0 instructions: 158000000 cycles: 500655839 heartbeat IPC: 1.0426 cumulative IPC: 0.304843 (Simulation time: 0 hr 7 min 22 sec) 
Heartbeat CPU 0 instructions: 159000003 cycles: 504783642 heartbeat IPC: 0.24226 cumulative IPC: 0.304316 (Simulation time: 0 hr 7 min 25 sec) 
Heartbeat CPU 0 instructions: 160000000 cycles: 505914861 heartbeat IPC: 0.883999 cumulative IPC: 0.305652 (Simulation time: 0 hr 7 min 28 sec) 
Heartbeat CPU 0 instructions: 161000000 cycles: 506939151 heartbeat IPC: 0.976286 cumulative IPC: 0.307049 (Simulation time: 0 hr 7 min 30 sec) 
Heartbeat CPU 0 instructions: 162000001 cycles: 508789839 heartbeat IPC: 0.54034 cumulative IPC: 0.307923 (Simulation time: 0 hr 7 min 32 sec) 
Heartbeat CPU 0 instructions: 163000000 cycles: 509786725 heartbeat IPC: 1.00312 cumulative IPC: 0.309325 (Simulation time: 0 hr 7 min 34 sec) 
Heartbeat CPU 0 instructions: 164000003 cycles: 510785501 heartbeat IPC: 1.00123 cumulative IPC: 0.310719 (Simulation time: 0 hr 7 min 37 sec) 
Heartbeat CPU 0 instructions: 165000000 cycles: 511914114 heartbeat IPC: 0.886041 cumulative IPC: 0.312026 (Simulation time: 0 hr 7 min 39 sec) 
Heartbeat CPU 0 instructions: 166000000 cycles: 515545202 heartbeat IPC: 0.2754 cumulative IPC: 0.31176 (Simulation time: 0 hr 7 min 43 sec) 
Heartbeat CPU 0 instructions: 167000001 cycles: 516459462 heartbeat IPC: 1.09378 cumulative IPC: 0.313186 (Simulation time: 0 hr 7 min 45 sec) 
Heartbeat CPU 0 instructions: 168000002 cycles: 518688190 heartbeat IPC: 0.448687 cumulative IPC: 0.313786 (Simulation time: 0 hr 7 min 48 sec) 
Heartbeat CPU 0 instructions: 169000003 cycles: 519548959 heartbeat IPC: 1.16175 cumulative IPC: 0.315233 (Simulation time: 0 hr 7 min 50 sec) 
Heartbeat CPU 0 instructions: 170000003 cycles: 520990502 heartbeat IPC: 0.693701 cumulative IPC: 0.316312 (Simulation time: 0 hr 7 min 52 sec) 
Heartbeat CPU 0 instructions: 171000000 cycles: 521921540 heartbeat IPC: 1.07407 cumulative IPC: 0.317704 (Simulation time: 0 hr 7 min 55 sec) 
Heartbeat CPU 0 instructions: 172000001 cycles: 523331144 heartbeat IPC: 0.70942 cumulative IPC: 0.318791 (Simulation time: 0 hr 7 min 57 sec) 
Heartbeat CPU 0 instructions: 173000000 cycles: 535040938 heartbeat IPC: 0.0853985 cumulative IPC: 0.313534 (Simulation time: 0 hr 8 min 2 sec) 
Heartbeat CPU 0 instructions: 174000001 cycles: 546978223 heartbeat IPC: 0.0837712 cumulative IPC: 0.308376 (Simulation time: 0 hr 8 min 7 sec) 
Heartbeat CPU 0 instructions: 175000003 cycles: 558655163 heartbeat IPC: 0.085639 cumulative IPC: 0.303591 (Simulation time: 0 hr 8 min 12 sec) 
Heartbeat CPU 0 instructions: 176000000 cycles: 567099922 heartbeat IPC: 0.118416 cumulative IPC: 0.300758 (Simulation time: 0 hr 8 min 17 sec) 
Heartbeat CPU 0 instructions: 177000001 cycles: 573181508 heartbeat IPC: 0.164431 cumulative IPC: 0.299272 (Simulation time: 0 hr 8 min 21 sec) 
Heartbeat CPU 0 instructions: 178000000 cycles: 580405212 heartbeat IPC: 0.138433 cumulative IPC: 0.297217 (Simulation time: 0 hr 8 min 26 sec) 
Heartbeat CPU 0 instructions: 179000001 cycles: 584965229 heartbeat IPC: 0.219298 cumulative IPC: 0.296593 (Simulation time: 0 hr 8 min 29 sec) 
Heartbeat CPU 0 instructions: 180000000 cycles: 586267077 heartbeat IPC: 0.768138 cumulative IPC: 0.297668 (Simulation time: 0 hr 8 min 31 sec) 
Heartbeat CPU 0 instructions: 181000000 cycles: 587173196 heartbeat IPC: 1.10361 cumulative IPC: 0.298945 (Simulation time: 0 hr 8 min 33 sec) 
Heartbeat CPU 0 instructions: 182000000 cycles: 588205592 heartbeat IPC: 0.968621 cumulative IPC: 0.300151 (Simulation time: 0 hr 8 min 35 sec) 
Heartbeat CPU 0 instructions: 183000000 cycles: 591739115 heartbeat IPC: 0.283004 cumulative IPC: 0.300046 (Simulation time: 0 hr 8 min 38 sec) 
Heartbeat CPU 0 instructions: 184000002 cycles: 592651649 heartbeat IPC: 1.09585 cumulative IPC: 0.301303 (Simulation time: 0 hr 8 min 40 sec) 
Heartbeat CPU 0 instructions: 185000001 cycles: 593751945 heartbeat IPC: 0.908845 cumulative IPC: 0.302459 (Simulation time: 0 hr 8 min 43 sec) 
Heartbeat CPU 0 instructions: 186000001 cycles: 595181215 heartbeat IPC: 0.699658 cumulative IPC: 0.303438 (Simulation time: 0 hr 8 min 45 sec) 
Heartbeat CPU 0 instructions: 187000000 cycles: 596086577 heartbeat IPC: 1.10453 cumulative IPC: 0.304686 (Simulation time: 0 hr 8 min 47 sec) 
Heartbeat CPU 0 instructions: 188000000 cycles: 597065272 heartbeat IPC: 1.02177 cumulative IPC: 0.305892 (Simulation time: 0 hr 8 min 49 sec) 
Heartbeat CPU 0 instructions: 189000002 cycles: 601104073 heartbeat IPC: 0.247599 cumulative IPC: 0.30549 (Simulation time: 0 hr 8 min 53 sec) 
Heartbeat CPU 0 instructions: 190000000 cycles: 601973924 heartbeat IPC: 1.14962 cumulative IPC: 0.306742 (Simulation time: 0 hr 8 min 55 sec) 
Heartbeat CPU 0 instructions: 191000000 cycles: 606733388 heartbeat IPC: 0.210108 cumulative IPC: 0.305964 (Simulation time: 0 hr 8 min 59 sec) 
Heartbeat CPU 0 instructions: 192000000 cycles: 607796257 heartbeat IPC: 0.94085 cumulative IPC: 0.307103 (Simulation time: 0 hr 9 min 2 sec) 
Heartbeat CPU 0 instructions: 193000000 cycles: 608850302 heartbeat IPC: 0.948726 cumulative IPC: 0.308242 (Simulation time: 0 hr 9 min 4 sec) 
Heartbeat CPU 0 instructions: 194000000 cycles: 610288112 heartbeat IPC: 0.695502 cumulative IPC: 0.309177 (Simulation time: 0 hr 9 min 6 sec) 
Heartbeat CPU 0 instructions: 195000000 cycles: 611186558 heartbeat IPC: 1.11303 cumulative IPC: 0.310389 (Simulation time: 0 hr 9 min 8 sec) 
Heartbeat CPU 0 instructions: 196000003 cycles: 612647816 heartbeat IPC: 0.684344 cumulative IPC: 0.311304 (Simulation time: 0 hr 9 min 10 sec) 
Heartbeat CPU 0 instructions: 197000000 cycles: 613535078 heartbeat IPC: 1.12706 cumulative IPC: 0.312513 (Simulation time: 0 hr 9 min 12 sec) 
Heartbeat CPU 0 instructions: 198000000 cycles: 617446014 heartbeat IPC: 0.255693 cumulative IPC: 0.312144 (Simulation time: 0 hr 9 min 15 sec) 
Heartbeat CPU 0 instructions: 199000001 cycles: 618860980 heartbeat IPC: 0.706731 cumulative IPC: 0.313069 (Simulation time: 0 hr 9 min 18 sec) 
Heartbeat CPU 0 instructions: 200000000 cycles: 625914096 heartbeat IPC: 0.141781 cumulative IPC: 0.311091 (Simulation time: 0 hr 9 min 22 sec) 
Heartbeat CPU 0 instructions: 201000003 cycles: 637329066 heartbeat IPC: 0.0876045 cumulative IPC: 0.306991 (Simulation time: 0 hr 9 min 27 sec) 
Heartbeat CPU 0 instructions: 202000001 cycles: 646996874 heartbeat IPC: 0.103436 cumulative IPC: 0.303876 (Simulation time: 0 hr 9 min 32 sec) 
Heartbeat CPU 0 instructions: 203000000 cycles: 653350721 heartbeat IPC: 0.157385 cumulative IPC: 0.302418 (Simulation time: 0 hr 9 min 36 sec) 
Heartbeat CPU 0 instructions: 204000001 cycles: 654874975 heartbeat IPC: 0.656059 cumulative IPC: 0.30326 (Simulation time: 0 hr 9 min 39 sec) 
Heartbeat CPU 0 instructions: 205000002 cycles: 655866869 heartbeat IPC: 1.00817 cumulative IPC: 0.304352 (Simulation time: 0 hr 9 min 41 sec) 
Heartbeat CPU 0 instructions: 206000000 cycles: 660579584 heartbeat IPC: 0.212191 cumulative IPC: 0.303679 (Simulation time: 0 hr 9 min 44 sec) 
Heartbeat CPU 0 instructions: 207000002 cycles: 661628520 heartbeat IPC: 0.953349 cumulative IPC: 0.304733 (Simulation time: 0 hr 9 min 46 sec) 
Heartbeat CPU 0 instructions: 208000000 cycles: 663539095 heartbeat IPC: 0.523402 cumulative IPC: 0.305377 (Simulation time: 0 hr 9 min 48 sec) 
Heartbeat CPU 0 instructions: 209000000 cycles: 664962865 heartbeat IPC: 0.702361 cumulative IPC: 0.306247 (Simulation time: 0 hr 9 min 51 sec) 
Heartbeat CPU 0 instructions: 210000002 cycles: 666323078 heartbeat IPC: 0.73518 cumulative IPC: 0.307143 (Simulation time: 0 hr 9 min 53 sec) 
Heartbeat CPU 0 instructions: 211000000 cycles: 668466531 heartbeat IPC: 0.466536 cumulative IPC: 0.307666 (Simulation time: 0 hr 9 min 55 sec) 
Heartbeat CPU 0 instructions: 212000000 cycles: 669535197 heartbeat IPC: 0.935746 cumulative IPC: 0.308692 (Simulation time: 0 hr 9 min 58 sec) 
Heartbeat CPU 0 instructions: 213000000 cycles: 677329072 heartbeat IPC: 0.128306 cumulative IPC: 0.306569 (Simulation time: 0 hr 10 min 2 sec) 
Heartbeat CPU 0 instructions: 214000000 cycles: 687869983 heartbeat IPC: 0.0948685 cumulative IPC: 0.303251 (Simulation time: 0 hr 10 min 7 sec) 
Heartbeat CPU 0 instructions: 215000001 cycles: 697126890 heartbeat IPC: 0.108028 cumulative IPC: 0.300601 (Simulation time: 0 hr 10 min 11 sec) 
Heartbeat CPU 0 instructions: 216000002 cycles: 707446942 heartbeat IPC: 0.0968988 cumulative IPC: 0.297565 (Simulation time: 0 hr 10 min 16 sec) 
Heartbeat CPU 0 instructions: 217000003 cycles: 710348983 heartbeat IPC: 0.344585 cumulative IPC: 0.297761 (Simulation time: 0 hr 10 min 19 sec) 
Heartbeat CPU 0 instructions: 218000000 cycles: 711961905 heartbeat IPC: 0.619991 cumulative IPC: 0.298507 (Simulation time: 0 hr 10 min 21 sec) 
Heartbeat CPU 0 instructions: 219000002 cycles: 719098530 heartbeat IPC: 0.140123 cumulative IPC: 0.296901 (Simulation time: 0 hr 10 min 25 sec) 
Heartbeat CPU 0 instructions: 220000000 cycles: 720178298 heartbeat IPC: 0.926123 cumulative IPC: 0.297865 (Simulation time: 0 hr 10 min 27 sec) 
Heartbeat CPU 0 instructions: 221000000 cycles: 721980038 heartbeat IPC: 0.555019 cumulative IPC: 0.29852 (Simulation time: 0 hr 10 min 29 sec) 
Heartbeat CPU 0 instructions: 222000000 cycles: 723337476 heartbeat IPC: 0.736682 cumulative IPC: 0.29936 (Simulation time: 0 hr 10 min 31 sec) 
Heartbeat CPU 0 instructions: 223000000 cycles: 725335137 heartbeat IPC: 0.500585 cumulative IPC: 0.299926 (Simulation time: 0 hr 10 min 34 sec) 
Heartbeat CPU 0 instructions: 224000001 cycles: 726522352 heartbeat IPC: 0.842308 cumulative IPC: 0.300831 (Simulation time: 0 hr 10 min 36 sec) 
Heartbeat CPU 0 instructions: 225000002 cycles: 730454525 heartbeat IPC: 0.254313 cumulative IPC: 0.300576 (Simulation time: 0 hr 10 min 39 sec) 
Heartbeat CPU 0 instructions: 226000001 cycles: 738806596 heartbeat IPC: 0.119731 cumulative IPC: 0.298489 (Simulation time: 0 hr 10 min 43 sec) 
Heartbeat CPU 0 instructions: 227000002 cycles: 740264227 heartbeat IPC: 0.686045 cumulative IPC: 0.299268 (Simulation time: 0 hr 10 min 45 sec) 
Heartbeat CPU 0 instructions: 228000003 cycles: 741602523 heartbeat IPC: 0.74722 cumulative IPC: 0.300093 (Simulation time: 0 hr 10 min 48 sec) 
Heartbeat CPU 0 instructions: 229000003 cycles: 743621796 heartbeat IPC: 0.495228 cumulative IPC: 0.300634 (Simulation time: 0 hr 10 min 50 sec) 
Heartbeat CPU 0 instructions: 230000000 cycles: 744937877 heartbeat IPC: 0.759829 cumulative IPC: 0.301462 (Simulation time: 0 hr 10 min 52 sec) 
Heartbeat CPU 0 instructions: 231000000 cycles: 749058285 heartbeat IPC: 0.242694 cumulative IPC: 0.301132 (Simulation time: 0 hr 10 min 55 sec) 
Heartbeat CPU 0 instructions: 232000003 cycles: 753718580 heartbeat IPC: 0.214579 cumulative IPC: 0.300586 (Simulation time: 0 hr 10 min 59 sec) 
Heartbeat CPU 0 instructions: 233000001 cycles: 755157242 heartbeat IPC: 0.695089 cumulative IPC: 0.301353 (Simulation time: 0 hr 11 min 1 sec) 
Heartbeat CPU 0 instructions: 234000001 cycles: 756259523 heartbeat IPC: 0.90721 cumulative IPC: 0.302254 (Simulation time: 0 hr 11 min 3 sec) 
Heartbeat CPU 0 instructions: 235000000 cycles: 757923762 heartbeat IPC: 0.600875 cumulative IPC: 0.302923 (Simulation time: 0 hr 11 min 5 sec) 
Heartbeat CPU 0 instructions: 236000003 cycles: 760605713 heartbeat IPC: 0.372864 cumulative IPC: 0.303175 (Simulation time: 0 hr 11 min 8 sec) 
Heartbeat CPU 0 instructions: 237000000 cycles: 761894387 heartbeat IPC: 0.775989 cumulative IPC: 0.303991 (Simulation time: 0 hr 11 min 10 sec) 
Heartbeat CPU 0 instructions: 238000000 cycles: 763287913 heartbeat IPC: 0.717604 cumulative IPC: 0.304761 (Simulation time: 0 hr 11 min 12 sec) 
Heartbeat CPU 0 instructions: 239000000 cycles: 764802213 heartbeat IPC: 0.660371 cumulative IPC: 0.305479 (Simulation time: 0 hr 11 min 15 sec) 
Heartbeat CPU 0 instructions: 240000001 cycles: 772121232 heartbeat IPC: 0.13663 cumulative IPC: 0.303847 (Simulation time: 0 hr 11 min 19 sec) 
Heartbeat CPU 0 instructions: 241000001 cycles: 775739028 heartbeat IPC: 0.276411 cumulative IPC: 0.303716 (Simulation time: 0 hr 11 min 22 sec) 
Heartbeat CPU 0 instructions: 242000000 cycles: 777292923 heartbeat IPC: 0.643543 cumulative IPC: 0.304409 (Simulation time: 0 hr 11 min 25 sec) 
Heartbeat CPU 0 instructions: 243000000 cycles: 778419972 heartbeat IPC: 0.887273 cumulative IPC: 0.30527 (Simulation time: 0 hr 11 min 27 sec) 
Heartbeat CPU 0 instructions: 244000001 cycles: 779333511 heartbeat IPC: 1.09465 cumulative IPC: 0.306213 (Simulation time: 0 hr 11 min 29 sec) 
Heartbeat CPU 0 instructions: 245000000 cycles: 781667968 heartbeat IPC: 0.428365 cumulative IPC: 0.306585 (Simulation time: 0 hr 11 min 32 sec) 
Heartbeat CPU 0 instructions: 246000000 cycles: 782793746 heartbeat IPC: 0.888275 cumulative IPC: 0.307439 (Simulation time: 0 hr 11 min 34 sec) 
Heartbeat CPU 0 instructions: 247000000 cycles: 783689655 heartbeat IPC: 1.11618 cumulative IPC: 0.308381 (Simulation time: 0 hr 11 min 36 sec) 
Heartbeat CPU 0 instructions: 248000002 cycles: 785534299 heartbeat IPC: 0.542111 cumulative IPC: 0.308941 (Simulation time: 0 hr 11 min 39 sec) 
Heartbeat CPU 0 instructions: 249000001 cycles: 786999782 heartbeat IPC: 0.682368 cumulative IPC: 0.30965 (Simulation time: 0 hr 11 min 41 sec) 
Heartbeat CPU 0 instructions: 250000003 cycles: 788566011 heartbeat IPC: 0.638478 cumulative IPC: 0.310316 (Simulation time: 0 hr 11 min 43 sec) 
Heartbeat CPU 0 instructions: 251000001 cycles: 789573352 heartbeat IPC: 0.992711 cumulative IPC: 0.311204 (Simulation time: 0 hr 11 min 46 sec) 
Heartbeat CPU 0 instructions: 252000000 cycles: 790477246 heartbeat IPC: 1.10632 cumulative IPC: 0.312131 (Simulation time: 0 hr 11 min 48 sec) 
Heartbeat CPU 0 instructions: 253000000 cycles: 798667412 heartbeat IPC: 0.122098 cumulative IPC: 0.310144 (Simulation time: 0 hr 11 min 52 sec) 
Heartbeat CPU 0 instructions: 254000001 cycles: 808227539 heartbeat IPC: 0.104601 cumulative IPC: 0.307666 (Simulation time: 0 hr 11 min 57 sec) 
Heartbeat CPU 0 instructions: 255000001 cycles: 818392668 heartbeat IPC: 0.0983755 cumulative IPC: 0.305018 (Simulation time: 0 hr 12 min 2 sec) 
Heartbeat CPU 0 instructions: 256000000 cycles: 828217865 heartbeat IPC: 0.101779 cumulative IPC: 0.302562 (Simulation time: 0 hr 12 min 7 sec) 
Heartbeat CPU 0 instructions: 257000001 cycles: 837831386 heartbeat IPC: 0.10402 cumulative IPC: 0.300242 (Simulation time: 0 hr 12 min 12 sec) 
Heartbeat CPU 0 instructions: 258000000 cycles: 847459358 heartbeat IPC: 0.103864 cumulative IPC: 0.29797 (Simulation time: 0 hr 12 min 17 sec) 
Heartbeat CPU 0 instructions: 259000002 cycles: 857052829 heartbeat IPC: 0.104238 cumulative IPC: 0.295762 (Simulation time: 0 hr 12 min 22 sec) 
Heartbeat CPU 0 instructions: 260000001 cycles: 866593656 heartbeat IPC: 0.104813 cumulative IPC: 0.293623 (Simulation time: 0 hr 12 min 27 sec) 
Heartbeat CPU 0 instructions: 261000002 cycles: 875784078 heartbeat IPC: 0.108809 cumulative IPC: 0.291649 (Simulation time: 0 hr 12 min 32 sec) 
Heartbeat CPU 0 instructions: 262000000 cycles: 885671009 heartbeat IPC: 0.101143 cumulative IPC: 0.289485 (Simulation time: 0 hr 12 min 36 sec) 
Heartbeat CPU 0 instructions: 263000001 cycles: 895508593 heartbeat IPC: 0.101651 cumulative IPC: 0.287386 (Simulation time: 0 hr 12 min 41 sec) 
Heartbeat CPU 0 instructions: 264000000 cycles: 905399259 heartbeat IPC: 0.101105 cumulative IPC: 0.285317 (Simulation time: 0 hr 12 min 46 sec) 
Heartbeat CPU 0 instructions: 265000001 cycles: 915764957 heartbeat IPC: 0.0964721 cumulative IPC: 0.283143 (Simulation time: 0 hr 12 min 51 sec) 
Heartbeat CPU 0 instructions: 266000000 cycles: 926952294 heartbeat IPC: 0.0893867 cumulative IPC: 0.280766 (Simulation time: 0 hr 12 min 55 sec) 
Heartbeat CPU 0 instructions: 267000000 cycles: 938680824 heartbeat IPC: 0.0852622 cumulative IPC: 0.278283 (Simulation time: 0 hr 13 min 0 sec) 
Heartbeat CPU 0 instructions: 268000001 cycles: 949381546 heartbeat IPC: 0.0934517 cumulative IPC: 0.276166 (Simulation time: 0 hr 13 min 5 sec) 
Heartbeat CPU 0 instructions: 269000001 cycles: 960794012 heartbeat IPC: 0.0876235 cumulative IPC: 0.273891 (Simulation time: 0 hr 13 min 10 sec) 
Heartbeat CPU 0 instructions: 270000001 cycles: 970899276 heartbeat IPC: 0.0989583 cumulative IPC: 0.272041 (Simulation time: 0 hr 13 min 15 sec) 
Heartbeat CPU 0 instructions: 271000001 cycles: 980594610 heartbeat IPC: 0.103142 cumulative IPC: 0.270345 (Simulation time: 0 hr 13 min 21 sec) 
Heartbeat CPU 0 instructions: 272000000 cycles: 990026138 heartbeat IPC: 0.106027 cumulative IPC: 0.268755 (Simulation time: 0 hr 13 min 26 sec) 
Heartbeat CPU 0 instructions: 273000002 cycles: 995961361 heartbeat IPC: 0.168486 cumulative IPC: 0.268148 (Simulation time: 0 hr 13 min 31 sec) 
Heartbeat CPU 0 instructions: 274000000 cycles: 996861791 heartbeat IPC: 1.11058 cumulative IPC: 0.268921 (Simulation time: 0 hr 13 min 33 sec) 
Heartbeat CPU 0 instructions: 275000000 cycles: 997902943 heartbeat IPC: 0.960475 cumulative IPC: 0.269654 (Simulation time: 0 hr 13 min 35 sec) 
Heartbeat CPU 0 instructions: 276000001 cycles: 1000049463 heartbeat IPC: 0.465871 cumulative IPC: 0.270081 (Simulation time: 0 hr 13 min 38 sec) 
Heartbeat CPU 0 instructions: 277000001 cycles: 1005176544 heartbeat IPC: 0.195043 cumulative IPC: 0.269693 (Simulation time: 0 hr 13 min 43 sec) 
Heartbeat CPU 0 instructions: 278000002 cycles: 1006553699 heartbeat IPC: 0.726135 cumulative IPC: 0.270327 (Simulation time: 0 hr 13 min 45 sec) 
Heartbeat CPU 0 instructions: 279000000 cycles: 1007673724 heartbeat IPC: 0.892835 cumulative IPC: 0.271029 (Simulation time: 0 hr 13 min 47 sec) 
Heartbeat CPU 0 instructions: 280000001 cycles: 1008566819 heartbeat IPC: 1.1197 cumulative IPC: 0.271792 (Simulation time: 0 hr 13 min 50 sec) 
Heartbeat CPU 0 instructions: 281000002 cycles: 1009794580 heartbeat IPC: 0.814492 cumulative IPC: 0.272462 (Simulation time: 0 hr 13 min 52 sec) 
Heartbeat CPU 0 instructions: 282000001 cycles: 1011096762 heartbeat IPC: 0.767941 cumulative IPC: 0.27311 (Simulation time: 0 hr 13 min 55 sec) 
Heartbeat CPU 0 instructions: 283000002 cycles: 1013175723 heartbeat IPC: 0.48101 cumulative IPC: 0.273543 (Simulation time: 0 hr 13 min 58 sec) 
Heartbeat CPU 0 instructions: 284000000 cycles: 1014283849 heartbeat IPC: 0.902423 cumulative IPC: 0.27424 (Simulation time: 0 hr 14 min 0 sec) 
Heartbeat CPU 0 instructions: 285000002 cycles: 1019691605 heartbeat IPC: 0.18492 cumulative IPC: 0.27376 (Simulation time: 0 hr 14 min 4 sec) 
Heartbeat CPU 0 instructions: 286000000 cycles: 1032016458 heartbeat IPC: 0.0811367 cumulative IPC: 0.271425 (Simulation time: 0 hr 14 min 9 sec) 
Heartbeat CPU 0 instructions: 287000001 cycles: 1042575469 heartbeat IPC: 0.0947059 cumulative IPC: 0.269609 (Simulation time: 0 hr 14 min 16 sec) 
Heartbeat CPU 0 instructions: 288000003 cycles: 1044932608 heartbeat IPC: 0.424244 cumulative IPC: 0.269963 (Simulation time: 0 hr 14 min 18 sec) 
Heartbeat CPU 0 instructions: 289000001 cycles: 1046784244 heartbeat IPC: 0.540062 cumulative IPC: 0.270447 (Simulation time: 0 hr 14 min 21 sec) 
Heartbeat CPU 0 instructions: 290000001 cycles: 1050741149 heartbeat IPC: 0.252723 cumulative IPC: 0.27038 (Simulation time: 0 hr 14 min 26 sec) 
Heartbeat CPU 0 instructions: 291000001 cycles: 1051852907 heartbeat IPC: 0.899476 cumulative IPC: 0.271054 (Simulation time: 0 hr 14 min 29 sec) 
Heartbeat CPU 0 instructions: 292000002 cycles: 1052855833 heartbeat IPC: 0.997084 cumulative IPC: 0.271756 (Simulation time: 0 hr 14 min 32 sec) 
Heartbeat CPU 0 instructions: 293000002 cycles: 1054492463 heartbeat IPC: 0.611012 cumulative IPC: 0.27229 (Simulation time: 0 hr 14 min 34 sec) 
Heartbeat CPU 0 instructions: 294000002 cycles: 1056053234 heartbeat IPC: 0.640709 cumulative IPC: 0.272843 (Simulation time: 0 hr 14 min 37 sec) 
Heartbeat CPU 0 instructions: 295000001 cycles: 1064714171 heartbeat IPC: 0.115461 cumulative IPC: 0.271544 (Simulation time: 0 hr 14 min 41 sec) 
Heartbeat CPU 0 instructions: 296000003 cycles: 1076559118 heartbeat IPC: 0.0844244 cumulative IPC: 0.269456 (Simulation time: 0 hr 14 min 46 sec) 
Heartbeat CPU 0 instructions: 297000000 cycles: 1086679469 heartbeat IPC: 0.0988105 cumulative IPC: 0.267844 (Simulation time: 0 hr 14 min 51 sec) 
Heartbeat CPU 0 instructions: 298000002 cycles: 1091751931 heartbeat IPC: 0.197143 cumulative IPC: 0.267511 (Simulation time: 0 hr 14 min 54 sec) 
Heartbeat CPU 0 instructions: 299000001 cycles: 1092845986 heartbeat IPC: 0.91403 cumulative IPC: 0.268167 (Simulation time: 0 hr 14 min 57 sec) 
Heartbeat CPU 0 instructions: 300000002 cycles: 1094338061 heartbeat IPC: 0.670208 cumulative IPC: 0.268723 (Simulation time: 0 hr 14 min 59 sec) 
Heartbeat CPU 0 instructions: 301000002 cycles: 1095600918 heartbeat IPC: 0.791855 cumulative IPC: 0.269335 (Simulation time: 0 hr 15 min 1 sec) 
Heartbeat CPU 0 instructions: 302000000 cycles: 1097791724 heartbeat IPC: 0.456452 cumulative IPC: 0.269713 (Simulation time: 0 hr 15 min 4 sec) 
Heartbeat CPU 0 instructions: 303000000 cycles: 1099067166 heartbeat IPC: 0.784042 cumulative IPC: 0.270319 (Simulation time: 0 hr 15 min 6 sec) 
Heartbeat CPU 0 instructions: 304000001 cycles: 1100081943 heartbeat IPC: 0.985439 cumulative IPC: 0.270987 (Simulation time: 0 hr 15 min 8 sec) 
Heartbeat CPU 0 instructions: 305000001 cycles: 1107354226 heartbeat IPC: 0.137508 cumulative IPC: 0.270099 (Simulation time: 0 hr 15 min 12 sec) 
Heartbeat CPU 0 instructions: 306000000 cycles: 1110220867 heartbeat IPC: 0.34884 cumulative IPC: 0.270305 (Simulation time: 0 hr 15 min 15 sec) 
Heartbeat CPU 0 instructions: 307000002 cycles: 1111621638 heartbeat IPC: 0.713894 cumulative IPC: 0.270871 (Simulation time: 0 hr 15 min 17 sec) 
Heartbeat CPU 0 instructions: 308000000 cycles: 1113143242 heartbeat IPC: 0.6572 cumulative IPC: 0.271407 (Simulation time: 0 hr 15 min 19 sec) 
Heartbeat CPU 0 instructions: 309000001 cycles: 1114336832 heartbeat IPC: 0.837809 cumulative IPC: 0.272022 (Simulation time: 0 hr 15 min 21 sec) 
Heartbeat CPU 0 instructions: 310000003 cycles: 1118973978 heartbeat IPC: 0.21565 cumulative IPC: 0.271785 (Simulation time: 0 hr 15 min 24 sec) 
Heartbeat CPU 0 instructions: 311000000 cycles: 1120100234 heartbeat IPC: 0.887895 cumulative IPC: 0.272413 (Simulation time: 0 hr 15 min 26 sec) 
Heartbeat CPU 0 instructions: 312000000 cycles: 1122653909 heartbeat IPC: 0.391593 cumulative IPC: 0.272688 (Simulation time: 0 hr 15 min 29 sec) 
Heartbeat CPU 0 instructions: 313000002 cycles: 1124478150 heartbeat IPC: 0.548174 cumulative IPC: 0.273141 (Simulation time: 0 hr 15 min 31 sec) 
Heartbeat CPU 0 instructions: 314000001 cycles: 1125862730 heartbeat IPC: 0.72224 cumulative IPC: 0.273701 (Simulation time: 0 hr 15 min 33 sec) 
Heartbeat CPU 0 instructions: 315000000 cycles: 1132511058 heartbeat IPC: 0.150414 cumulative IPC: 0.272967 (Simulation time: 0 hr 15 min 37 sec) 
Heartbeat CPU 0 instructions: 316000001 cycles: 1136535663 heartbeat IPC: 0.248472 cumulative IPC: 0.272879 (Simulation time: 0 hr 15 min 40 sec) 
Heartbeat CPU 0 instructions: 317000000 cycles: 1137984174 heartbeat IPC: 0.690363 cumulative IPC: 0.273418 (Simulation time: 0 hr 15 min 43 sec) 
Heartbeat CPU 0 instructions: 318000002 cycles: 1139756834 heartbeat IPC: 0.564125 cumulative IPC: 0.273876 (Simulation time: 0 hr 15 min 45 sec) 
Heartbeat CPU 0 instructions: 319000000 cycles: 1140993332 heartbeat IPC: 0.808734 cumulative IPC: 0.274464 (Simulation time: 0 hr 15 min 47 sec) 
Heartbeat CPU 0 instructions: 320000002 cycles: 1144927754 heartbeat IPC: 0.254167 cumulative IPC: 0.274393 (Simulation time: 0 hr 15 min 50 sec) 
Heartbeat CPU 0 instructions: 321000001 cycles: 1146501249 heartbeat IPC: 0.635527 cumulative IPC: 0.274895 (Simulation time: 0 hr 15 min 53 sec) 
Heartbeat CPU 0 instructions: 322000001 cycles: 1148390061 heartbeat IPC: 0.529433 cumulative IPC: 0.275319 (Simulation time: 0 hr 15 min 55 sec) 
Heartbeat CPU 0 instructions: 323000001 cycles: 1149801679 heartbeat IPC: 0.708407 cumulative IPC: 0.275858 (Simulation time: 0 hr 15 min 57 sec) 
Heartbeat CPU 0 instructions: 324000003 cycles: 1150963864 heartbeat IPC: 0.86045 cumulative IPC: 0.276456 (Simulation time: 0 hr 15 min 59 sec) 
Heartbeat CPU 0 instructions: 325000000 cycles: 1157602669 heartbeat IPC: 0.150629 cumulative IPC: 0.275725 (Simulation time: 0 hr 16 min 3 sec) 
Heartbeat CPU 0 instructions: 326000000 cycles: 1168163396 heartbeat IPC: 0.0946904 cumulative IPC: 0.274067 (Simulation time: 0 hr 16 min 8 sec) 
Heartbeat CPU 0 instructions: 327000002 cycles: 1179145359 heartbeat IPC: 0.0910586 cumulative IPC: 0.27234 (Simulation time: 0 hr 16 min 13 sec) 
Heartbeat CPU 0 instructions: 328000000 cycles: 1186850551 heartbeat IPC: 0.129782 cumulative IPC: 0.271403 (Simulation time: 0 hr 16 min 18 sec) 
Heartbeat CPU 0 instructions: 329000001 cycles: 1194053529 heartbeat IPC: 0.138832 cumulative IPC: 0.270593 (Simulation time: 0 hr 16 min 22 sec) 
Heartbeat CPU 0 instructions: 330000000 cycles: 1197159205 heartbeat IPC: 0.321991 cumulative IPC: 0.270728 (Simulation time: 0 hr 16 min 26 sec) 
Heartbeat CPU 0 instructions: 331000000 cycles: 1198288747 heartbeat IPC: 0.885315 cumulative IPC: 0.271315 (Simulation time: 0 hr 16 min 28 sec) 
Heartbeat CPU 0 instructions: 332000003 cycles: 1202623859 heartbeat IPC: 0.230675 cumulative IPC: 0.271166 (Simulation time: 0 hr 16 min 31 sec) 
Heartbeat CPU 0 instructions: 333000002 cycles: 1203498263 heartbeat IPC: 1.14364 cumulative IPC: 0.271808 (Simulation time: 0 hr 16 min 33 sec) 
Heartbeat CPU 0 instructions: 334000000 cycles: 1204628025 heartbeat IPC: 0.88514 cumulative IPC: 0.272391 (Simulation time: 0 hr 16 min 36 sec) 
Heartbeat CPU 0 instructions: 335000000 cycles: 1205540115 heartbeat IPC: 1.09638 cumulative IPC: 0.273022 (Simulation time: 0 hr 16 min 38 sec) 
Heartbeat CPU 0 instructions: 336000000 cycles: 1207487834 heartbeat IPC: 0.513421 cumulative IPC: 0.273415 (Simulation time: 0 hr 16 min 40 sec) 
Heartbeat CPU 0 instructions: 337000000 cycles: 1208812696 heartbeat IPC: 0.754796 cumulative IPC: 0.273949 (Simulation time: 0 hr 16 min 43 sec) 
Heartbeat CPU 0 instructions: 338000001 cycles: 1209815412 heartbeat IPC: 0.997292 cumulative IPC: 0.274556 (Simulation time: 0 hr 16 min 45 sec) 
Heartbeat CPU 0 instructions: 339000000 cycles: 1214479683 heartbeat IPC: 0.214396 cumulative IPC: 0.274322 (Simulation time: 0 hr 16 min 48 sec) 
Heartbeat CPU 0 instructions: 340000001 cycles: 1219696291 heartbeat IPC: 0.191696 cumulative IPC: 0.273964 (Simulation time: 0 hr 16 min 52 sec) 
Heartbeat CPU 0 instructions: 341000000 cycles: 1220703901 heartbeat IPC: 0.992446 cumulative IPC: 0.274565 (Simulation time: 0 hr 16 min 54 sec) 
Heartbeat CPU 0 instructions: 342000001 cycles: 1222106808 heartbeat IPC: 0.712806 cumulative IPC: 0.275074 (Simulation time: 0 hr 16 min 56 sec) 
Heartbeat CPU 0 instructions: 343000001 cycles: 1223196373 heartbeat IPC: 0.917797 cumulative IPC: 0.275654 (Simulation time: 0 hr 16 min 58 sec) 
Heartbeat CPU 0 instructions: 344000000 cycles: 1224161955 heartbeat IPC: 1.03564 cumulative IPC: 0.276261 (Simulation time: 0 hr 17 min 1 sec) 
Heartbeat CPU 0 instructions: 345000000 cycles: 1226520434 heartbeat IPC: 0.424002 cumulative IPC: 0.276549 (Simulation time: 0 hr 17 min 3 sec) 
Heartbeat CPU 0 instructions: 346000001 cycles: 1230108441 heartbeat IPC: 0.278707 cumulative IPC: 0.276555 (Simulation time: 0 hr 17 min 7 sec) 
Heartbeat CPU 0 instructions: 347000000 cycles: 1231126179 heartbeat IPC: 0.98257 cumulative IPC: 0.277146 (Simulation time: 0 hr 17 min 9 sec) 
Heartbeat CPU 0 instructions: 348000000 cycles: 1232042286 heartbeat IPC: 1.09158 cumulative IPC: 0.277759 (Simulation time: 0 hr 17 min 11 sec) 
Heartbeat CPU 0 instructions: 349000000 cycles: 1233272940 heartbeat IPC: 0.812576 cumulative IPC: 0.278299 (Simulation time: 0 hr 17 min 13 sec) 
Heartbeat CPU 0 instructions: 350000002 cycles: 1234182713 heartbeat IPC: 1.09918 cumulative IPC: 0.278912 (Simulation time: 0 hr 17 min 15 sec) 
Heartbeat CPU 0 instructions: 351000000 cycles: 1235615886 heartbeat IPC: 0.697751 cumulative IPC: 0.279404 (Simulation time: 0 hr 17 min 17 sec) 
Heartbeat CPU 0 instructions: 352000000 cycles: 1236533835 heartbeat IPC: 1.08939 cumulative IPC: 0.280013 (Simulation time: 0 hr 17 min 19 sec) 
Heartbeat CPU 0 instructions: 353000000 cycles: 1245951144 heartbeat IPC: 0.106187 cumulative IPC: 0.278683 (Simulation time: 0 hr 17 min 24 sec) 
Heartbeat CPU 0 instructions: 354000002 cycles: 1258216634 heartbeat IPC: 0.0815297 cumulative IPC: 0.276737 (Simulation time: 0 hr 17 min 29 sec) 
Heartbeat CPU 0 instructions: 355000002 cycles: 1268885503 heartbeat IPC: 0.0937307 cumulative IPC: 0.27518 (Simulation time: 0 hr 17 min 33 sec) 
Heartbeat CPU 0 instructions: 356000000 cycles: 1275011986 heartbeat IPC: 0.163225 cumulative IPC: 0.274636 (Simulation time: 0 hr 17 min 37 sec) 
Heartbeat CPU 0 instructions: 357000000 cycles: 1276274619 heartbeat IPC: 0.791996 cumulative IPC: 0.275154 (Simulation time: 0 hr 17 min 39 sec) 
Heartbeat CPU 0 instructions: 358000000 cycles: 1277290051 heartbeat IPC: 0.984803 cumulative IPC: 0.275725 (Simulation time: 0 hr 17 min 41 sec) 
Heartbeat CPU 0 instructions: 359000002 cycles: 1278184466 heartbeat IPC: 1.11805 cumulative IPC: 0.276321 (Simulation time: 0 hr 17 min 43 sec) 
Heartbeat CPU 0 instructions: 360000001 cycles: 1281267951 heartbeat IPC: 0.324308 cumulative IPC: 0.276438 (Simulation time: 0 hr 17 min 46 sec) 
Heartbeat CPU 0 instructions: 361000003 cycles: 1282160194 heartbeat IPC: 1.12077 cumulative IPC: 0.277032 (Simulation time: 0 hr 17 min 49 sec) 
Heartbeat CPU 0 instructions: 362000003 cycles: 1283278729 heartbeat IPC: 0.894027 cumulative IPC: 0.277577 (Simulation time: 0 hr 17 min 51 sec) 
Heartbeat CPU 0 instructions: 363000000 cycles: 1284461765 heartbeat IPC: 0.84528 cumulative IPC: 0.278106 (Simulation time: 0 hr 17 min 53 sec) 
Heartbeat CPU 0 instructions: 364000001 cycles: 1285378716 heartbeat IPC: 1.09057 cumulative IPC: 0.278692 (Simulation time: 0 hr 17 min 55 sec) 
Heartbeat CPU 0 instructions: 365000003 cycles: 1294119662 heartbeat IPC: 0.114404 cumulative IPC: 0.27757 (Simulation time: 0 hr 18 min 0 sec) 
Heartbeat CPU 0 instructions: 366000000 cycles: 1295994392 heartbeat IPC: 0.533409 cumulative IPC: 0.277944 (Simulation time: 0 hr 18 min 2 sec) 
Heartbeat CPU 0 instructions: 367000000 cycles: 1297150426 heartbeat IPC: 0.865026 cumulative IPC: 0.278473 (Simulation time: 0 hr 18 min 4 sec) 
Heartbeat CPU 0 instructions: 368000003 cycles: 1298460409 heartbeat IPC: 0.763371 cumulative IPC: 0.278968 (Simulation time: 0 hr 18 min 7 sec) 
Heartbeat CPU 0 instructions: 369000002 cycles: 1302525742 heartbeat IPC: 0.245982 cumulative IPC: 0.278864 (Simulation time: 0 hr 18 min 10 sec) 
Heartbeat CPU 0 instructions: 370000003 cycles: 1307876509 heartbeat IPC: 0.186889 cumulative IPC: 0.278483 (Simulation time: 0 hr 18 min 13 sec) 
Heartbeat CPU 0 instructions: 371000003 cycles: 1309261275 heartbeat IPC: 0.722144 cumulative IPC: 0.278958 (Simulation time: 0 hr 18 min 16 sec) 
Heartbeat CPU 0 instructions: 372000002 cycles: 1310453074 heartbeat IPC: 0.839067 cumulative IPC: 0.279474 (Simulation time: 0 hr 18 min 18 sec) 
Heartbeat CPU 0 instructions: 373000000 cycles: 1312981352 heartbeat IPC: 0.395525 cumulative IPC: 0.2797 (Simulation time: 0 hr 18 min 20 sec) 
Heartbeat CPU 0 instructions: 374000000 cycles: 1315736447 heartbeat IPC: 0.362964 cumulative IPC: 0.279876 (Simulation time: 0 hr 18 min 23 sec) 
Heartbeat CPU 0 instructions: 375000000 cycles: 1317417599 heartbeat IPC: 0.59483 cumulative IPC: 0.280283 (Simulation time: 0 hr 18 min 26 sec) 
Heartbeat CPU 0 instructions: 376000000 cycles: 1318631600 heartbeat IPC: 0.823723 cumulative IPC: 0.280789 (Simulation time: 0 hr 18 min 28 sec) 
Heartbeat CPU 0 instructions: 377000000 cycles: 1320545563 heartbeat IPC: 0.522476 cumulative IPC: 0.281143 (Simulation time: 0 hr 18 min 30 sec) 
Heartbeat CPU 0 instructions: 378000000 cycles: 1321714870 heartbeat IPC: 0.855207 cumulative IPC: 0.281657 (Simulation time: 0 hr 18 min 32 sec) 
Heartbeat CPU 0 instructions: 379000002 cycles: 1324756669 heartbeat IPC: 0.328753 cumulative IPC: 0.281766 (Simulation time: 0 hr 18 min 35 sec) 
Heartbeat CPU 0 instructions: 380000001 cycles: 1328274253 heartbeat IPC: 0.284286 cumulative IPC: 0.281773 (Simulation time: 0 hr 18 min 38 sec) 
Heartbeat CPU 0 instructions: 381000000 cycles: 1329385093 heartbeat IPC: 0.900219 cumulative IPC: 0.282296 (Simulation time: 0 hr 18 min 40 sec) 
Heartbeat CPU 0 instructions: 382000000 cycles: 1332323372 heartbeat IPC: 0.340335 cumulative IPC: 0.282425 (Simulation time: 0 hr 18 min 43 sec) 
Heartbeat CPU 0 instructions: 383000002 cycles: 1333577816 heartbeat IPC: 0.797168 cumulative IPC: 0.282915 (Simulation time: 0 hr 18 min 45 sec) 
Heartbeat CPU 0 instructions: 384000003 cycles: 1336005854 heartbeat IPC: 0.411856 cumulative IPC: 0.283152 (Simulation time: 0 hr 18 min 47 sec) 
Heartbeat CPU 0 instructions: 385000000 cycles: 1337275301 heartbeat IPC: 0.787742 cumulative IPC: 0.283637 (Simulation time: 0 hr 18 min 49 sec) 
Heartbeat CPU 0 instructions: 386000002 cycles: 1343039544 heartbeat IPC: 0.173484 cumulative IPC: 0.283158 (Simulation time: 0 hr 18 min 53 sec) 
Heartbeat CPU 0 instructions: 387000002 cycles: 1353761217 heartbeat IPC: 0.093269 cumulative IPC: 0.281637 (Simulation time: 0 hr 18 min 58 sec) 
Heartbeat CPU 0 instructions: 388000002 cycles: 1364542149 heartbeat IPC: 0.0927564 cumulative IPC: 0.280128 (Simulation time: 0 hr 19 min 3 sec) 
Heartbeat CPU 0 instructions: 389000003 cycles: 1374359192 heartbeat IPC: 0.101864 cumulative IPC: 0.278841 (Simulation time: 0 hr 19 min 7 sec) 
Heartbeat CPU 0 instructions: 390000000 cycles: 1384997503 heartbeat IPC: 0.0939996 cumulative IPC: 0.277405 (Simulation time: 0 hr 19 min 12 sec) 
Heartbeat CPU 0 instructions: 391000001 cycles: 1395646119 heartbeat IPC: 0.093909 cumulative IPC: 0.27599 (Simulation time: 0 hr 19 min 17 sec) 
Heartbeat CPU 0 instructions: 392000000 cycles: 1405751688 heartbeat IPC: 0.0989552 cumulative IPC: 0.274703 (Simulation time: 0 hr 19 min 22 sec) 
Heartbeat CPU 0 instructions: 393000003 cycles: 1412981011 heartbeat IPC: 0.138326 cumulative IPC: 0.273998 (Simulation time: 0 hr 19 min 27 sec) 
Heartbeat CPU 0 instructions: 394000000 cycles: 1419987929 heartbeat IPC: 0.142716 cumulative IPC: 0.273343 (Simulation time: 0 hr 19 min 32 sec) 
Heartbeat CPU 0 instructions: 395000001 cycles: 1427470059 heartbeat IPC: 0.133652 cumulative IPC: 0.272603 (Simulation time: 0 hr 19 min 37 sec) 
Heartbeat CPU 0 instructions: 396000000 cycles: 1435668587 heartbeat IPC: 0.121973 cumulative IPC: 0.271734 (Simulation time: 0 hr 19 min 41 sec) 
Heartbeat CPU 0 instructions: 397000000 cycles: 1440400729 heartbeat IPC: 0.211321 cumulative IPC: 0.271533 (Simulation time: 0 hr 19 min 44 sec) 
Heartbeat CPU 0 instructions: 398000001 cycles: 1441586591 heartbeat IPC: 0.843269 cumulative IPC: 0.272009 (Simulation time: 0 hr 19 min 46 sec) 
Heartbeat CPU 0 instructions: 399000000 cycles: 1442980293 heartbeat IPC: 0.717513 cumulative IPC: 0.272443 (Simulation time: 0 hr 19 min 49 sec) 
Heartbeat CPU 0 instructions: 400000000 cycles: 1445541428 heartbeat IPC: 0.390452 cumulative IPC: 0.272655 (Simulation time: 0 hr 19 min 51 sec) 
Heartbeat CPU 0 instructions: 401000001 cycles: 1446791810 heartbeat IPC: 0.799756 cumulative IPC: 0.273115 (Simulation time: 0 hr 19 min 53 sec) 
Heartbeat CPU 0 instructions: 402000000 cycles: 1449872487 heartbeat IPC: 0.324604 cumulative IPC: 0.273226 (Simulation time: 0 hr 19 min 56 sec) 
Heartbeat CPU 0 instructions: 403000002 cycles: 1451449731 heartbeat IPC: 0.634019 cumulative IPC: 0.273622 (Simulation time: 0 hr 19 min 58 sec) 
Heartbeat CPU 0 instructions: 404000000 cycles: 1452692210 heartbeat IPC: 0.804841 cumulative IPC: 0.274081 (Simulation time: 0 hr 20 min 0 sec) 
Heartbeat CPU 0 instructions: 405000003 cycles: 1457703768 heartbeat IPC: 0.199539 cumulative IPC: 0.273822 (Simulation time: 0 hr 20 min 4 sec) 
Heartbeat CPU 0 instructions: 406000000 cycles: 1464159320 heartbeat IPC: 0.154905 cumulative IPC: 0.273292 (Simulation time: 0 hr 20 min 8 sec) 
Heartbeat CPU 0 instructions: 407000000 cycles: 1465341800 heartbeat IPC: 0.84568 cumulative IPC: 0.273759 (Simulation time: 0 hr 20 min 11 sec) 
Heartbeat CPU 0 instructions: 408000001 cycles: 1466635158 heartbeat IPC: 0.773182 cumulative IPC: 0.274204 (Simulation time: 0 hr 20 min 13 sec) 
Heartbeat CPU 0 instructions: 409000003 cycles: 1467580859 heartbeat IPC: 1.05742 cumulative IPC: 0.274714 (Simulation time: 0 hr 20 min 15 sec) 
Heartbeat CPU 0 instructions: 410000002 cycles: 1469121501 heartbeat IPC: 0.649079 cumulative IPC: 0.275111 (Simulation time: 0 hr 20 min 18 sec) 
Heartbeat CPU 0 instructions: 411000002 cycles: 1470148777 heartbeat IPC: 0.973448 cumulative IPC: 0.275604 (Simulation time: 0 hr 20 min 20 sec) 
Heartbeat CPU 0 instructions: 412000000 cycles: 1471073031 heartbeat IPC: 1.08195 cumulative IPC: 0.276116 (Simulation time: 0 hr 20 min 23 sec) 
Heartbeat CPU 0 instructions: 413000003 cycles: 1475812405 heartbeat IPC: 0.210999 cumulative IPC: 0.275904 (Simulation time: 0 hr 20 min 27 sec) 
Heartbeat CPU 0 instructions: 414000001 cycles: 1476866411 heartbeat IPC: 0.948759 cumulative IPC: 0.276389 (Simulation time: 0 hr 20 min 29 sec) 
Heartbeat CPU 0 instructions: 415000001 cycles: 1477820777 heartbeat IPC: 1.04782 cumulative IPC: 0.276893 (Simulation time: 0 hr 20 min 31 sec) 
Heartbeat CPU 0 instructions: 416000001 cycles: 1478944944 heartbeat IPC: 0.889548 cumulative IPC: 0.277363 (Simulation time: 0 hr 20 min 34 sec) 
Heartbeat CPU 0 instructions: 417000003 cycles: 1480677218 heartbeat IPC: 0.577277 cumulative IPC: 0.277718 (Simulation time: 0 hr 20 min 36 sec) 
Heartbeat CPU 0 instructions: 418000000 cycles: 1481635965 heartbeat IPC: 1.04302 cumulative IPC: 0.278218 (Simulation time: 0 hr 20 min 39 sec) 
Heartbeat CPU 0 instructions: 419000001 cycles: 1482666298 heartbeat IPC: 0.970561 cumulative IPC: 0.278704 (Simulation time: 0 hr 20 min 41 sec) 
Heartbeat CPU 0 instructions: 420000002 cycles: 1485671141 heartbeat IPC: 0.332796 cumulative IPC: 0.278815 (Simulation time: 0 hr 20 min 44 sec) 
Heartbeat CPU 0 instructions: 421000003 cycles: 1489007478 heartbeat IPC: 0.29973 cumulative IPC: 0.278862 (Simulation time: 0 hr 20 min 48 sec) 
Heartbeat CPU 0 instructions: 422000002 cycles: 1489952419 heartbeat IPC: 1.05827 cumulative IPC: 0.279361 (Simulation time: 0 hr 20 min 50 sec) 
Heartbeat CPU 0 instructions: 423000000 cycles: 1490970063 heartbeat IPC: 0.98266 cumulative IPC: 0.279846 (Simulation time: 0 hr 20 min 53 sec) 
Heartbeat CPU 0 instructions: 424000003 cycles: 1493394038 heartbeat IPC: 0.412547 cumulative IPC: 0.280064 (Simulation time: 0 hr 20 min 56 sec) 
Heartbeat CPU 0 instructions: 425000002 cycles: 1494663561 heartbeat IPC: 0.787697 cumulative IPC: 0.2805 (Simulation time: 0 hr 20 min 58 sec) 
Heartbeat CPU 0 instructions: 426000002 cycles: 1495626678 heartbeat IPC: 1.0383 cumulative IPC: 0.280993 (Simulation time: 0 hr 21 min 0 sec) 
Heartbeat CPU 0 instructions: 427000000 cycles: 1496890315 heartbeat IPC: 0.791365 cumulative IPC: 0.281428 (Simulation time: 0 hr 21 min 3 sec) 
Heartbeat CPU 0 instructions: 428000000 cycles: 1497837943 heartbeat IPC: 1.05527 cumulative IPC: 0.281922 (Simulation time: 0 hr 21 min 5 sec) 
Heartbeat CPU 0 instructions: 429000000 cycles: 1502038451 heartbeat IPC: 0.238066 cumulative IPC: 0.281799 (Simulation time: 0 hr 21 min 8 sec) 
Heartbeat CPU 0 instructions: 430000001 cycles: 1512452324 heartbeat IPC: 0.0960258 cumulative IPC: 0.280506 (Simulation time: 0 hr 21 min 14 sec) 
Heartbeat CPU 0 instructions: 431000001 cycles: 1522890008 heartbeat IPC: 0.0958067 cumulative IPC: 0.279228 (Simulation time: 0 hr 21 min 19 sec) 
Heartbeat CPU 0 instructions: 432000003 cycles: 1533117938 heartbeat IPC: 0.0977717 cumulative IPC: 0.278005 (Simulation time: 0 hr 21 min 24 sec) 
Heartbeat CPU 0 instructions: 433000002 cycles: 1542673048 heartbeat IPC: 0.104656 cumulative IPC: 0.276921 (Simulation time: 0 hr 21 min 30 sec) 
Heartbeat CPU 0 instructions: 434000001 cycles: 1550340864 heartbeat IPC: 0.130415 cumulative IPC: 0.276189 (Simulation time: 0 hr 21 min 34 sec) 
Heartbeat CPU 0 instructions: 435000001 cycles: 1558155117 heartbeat IPC: 0.127971 cumulative IPC: 0.275438 (Simulation time: 0 hr 21 min 40 sec) 
Heartbeat CPU 0 instructions: 436000001 cycles: 1566176066 heartbeat IPC: 0.124674 cumulative IPC: 0.274659 (Simulation time: 0 hr 21 min 45 sec) 
Heartbeat CPU 0 instructions: 437000001 cycles: 1573140541 heartbeat IPC: 0.143586 cumulative IPC: 0.274073 (Simulation time: 0 hr 21 min 50 sec) 
Heartbeat CPU 0 instructions: 438000000 cycles: 1579748464 heartbeat IPC: 0.151333 cumulative IPC: 0.273554 (Simulation time: 0 hr 21 min 55 sec) 
Heartbeat CPU 0 instructions: 439000001 cycles: 1582392319 heartbeat IPC: 0.378236 cumulative IPC: 0.273731 (Simulation time: 0 hr 21 min 58 sec) 
Heartbeat CPU 0 instructions: 440000000 cycles: 1583298428 heartbeat IPC: 1.10362 cumulative IPC: 0.274211 (Simulation time: 0 hr 22 min 0 sec) 
Heartbeat CPU 0 instructions: 441000003 cycles: 1584625921 heartbeat IPC: 0.753302 cumulative IPC: 0.274616 (Simulation time: 0 hr 22 min 2 sec) 
Heartbeat CPU 0 instructions: 442000003 cycles: 1585585018 heartbeat IPC: 1.04265 cumulative IPC: 0.275085 (Simulation time: 0 hr 22 min 5 sec) 
Heartbeat CPU 0 instructions: 443000000 cycles: 1586849731 heartbeat IPC: 0.790691 cumulative IPC: 0.2755 (Simulation time: 0 hr 22 min 7 sec) 
Heartbeat CPU 0 instructions: 444000000 cycles: 1587732089 heartbeat IPC: 1.13333 cumulative IPC: 0.275981 (Simulation time: 0 hr 22 min 9 sec) 
Heartbeat CPU 0 instructions: 445000002 cycles: 1590522408 heartbeat IPC: 0.358383 cumulative IPC: 0.276127 (Simulation time: 0 hr 22 min 12 sec) 
Heartbeat CPU 0 instructions: 446000003 cycles: 1591773290 heartbeat IPC: 0.799437 cumulative IPC: 0.276542 (Simulation time: 0 hr 22 min 15 sec) 
Heartbeat CPU 0 instructions: 447000003 cycles: 1592806237 heartbeat IPC: 0.968104 cumulative IPC: 0.276995 (Simulation time: 0 hr 22 min 17 sec) 
Heartbeat CPU 0 instructions: 448000001 cycles: 1593720498 heartbeat IPC: 1.09378 cumulative IPC: 0.277468 (Simulation time: 0 hr 22 min 19 sec) 
Heartbeat CPU 0 instructions: 449000000 cycles: 1596568660 heartbeat IPC: 0.351103 cumulative IPC: 0.277601 (Simulation time: 0 hr 22 min 23 sec) 
Heartbeat CPU 0 instructions: 450000003 cycles: 1598277615 heartbeat IPC: 0.585155 cumulative IPC: 0.277933 (Simulation time: 0 hr 22 min 25 sec) 
Heartbeat CPU 0 instructions: 451000000 cycles: 1599274769 heartbeat IPC: 1.00285 cumulative IPC: 0.278389 (Simulation time: 0 hr 22 min 28 sec) 
Heartbeat CPU 0 instructions: 452000001 cycles: 1601332753 heartbeat IPC: 0.485913 cumulative IPC: 0.278658 (Simulation time: 0 hr 22 min 31 sec) 
Heartbeat CPU 0 instructions: 453000000 cycles: 1602323329 heartbeat IPC: 1.00951 cumulative IPC: 0.279114 (Simulation time: 0 hr 22 min 33 sec) 
Heartbeat CPU 0 instructions: 454000000 cycles: 1603407542 heartbeat IPC: 0.922328 cumulative IPC: 0.279554 (Simulation time: 0 hr 22 min 35 sec) 
Heartbeat CPU 0 instructions: 455000001 cycles: 1604326592 heartbeat IPC: 1.08808 cumulative IPC: 0.280021 (Simulation time: 0 hr 22 min 38 sec) 
Heartbeat CPU 0 instructions: 456000000 cycles: 1610491474 heartbeat IPC: 0.162209 cumulative IPC: 0.279566 (Simulation time: 0 hr 22 min 42 sec) 
Heartbeat CPU 0 instructions: 457000001 cycles: 1618425910 heartbeat IPC: 0.126033 cumulative IPC: 0.278806 (Simulation time: 0 hr 22 min 47 sec) 
Heartbeat CPU 0 instructions: 458000001 cycles: 1624867657 heartbeat IPC: 0.155237 cumulative IPC: 0.278312 (Simulation time: 0 hr 22 min 52 sec) 
Heartbeat CPU 0 instructions: 459000000 cycles: 1626961826 heartbeat IPC: 0.477516 cumulative IPC: 0.27857 (Simulation time: 0 hr 22 min 55 sec) 
Heartbeat CPU 0 instructions: 460000001 cycles: 1627982977 heartbeat IPC: 0.979288 cumulative IPC: 0.279014 (Simulation time: 0 hr 22 min 57 sec) 
Heartbeat CPU 0 instructions: 461000000 cycles: 1629133221 heartbeat IPC: 0.86938 cumulative IPC: 0.279435 (Simulation time: 0 hr 22 min 59 sec) 
Heartbeat CPU 0 instructions: 462000000 cycles: 1631509967 heartbeat IPC: 0.420743 cumulative IPC: 0.279643 (Simulation time: 0 hr 23 min 2 sec) 
Heartbeat CPU 0 instructions: 463000002 cycles: 1632568483 heartbeat IPC: 0.944721 cumulative IPC: 0.280078 (Simulation time: 0 hr 23 min 5 sec) 
Heartbeat CPU 0 instructions: 464000003 cycles: 1633468921 heartbeat IPC: 1.11057 cumulative IPC: 0.28054 (Simulation time: 0 hr 23 min 7 sec) 
Heartbeat CPU 0 instructions: 465000003 cycles: 1634650469 heartbeat IPC: 0.846347 cumulative IPC: 0.280953 (Simulation time: 0 hr 23 min 9 sec) 
Heartbeat CPU 0 instructions: 466000000 cycles: 1635718337 heartbeat IPC: 0.936442 cumulative IPC: 0.281385 (Simulation time: 0 hr 23 min 11 sec) 
Heartbeat CPU 0 instructions: 467000003 cycles: 1638287087 heartbeat IPC: 0.389296 cumulative IPC: 0.281555 (Simulation time: 0 hr 23 min 14 sec) 
Heartbeat CPU 0 instructions: 468000001 cycles: 1639594856 heartbeat IPC: 0.76466 cumulative IPC: 0.281944 (Simulation time: 0 hr 23 min 17 sec) 
Heartbeat CPU 0 instructions: 469000002 cycles: 1640603550 heartbeat IPC: 0.991382 cumulative IPC: 0.282385 (Simulation time: 0 hr 23 min 19 sec) 
Heartbeat CPU 0 instructions: 470000000 cycles: 1644983044 heartbeat IPC: 0.228336 cumulative IPC: 0.282239 (Simulation time: 0 hr 23 min 23 sec) 
Heartbeat CPU 0 instructions: 471000002 cycles: 1648882325 heartbeat IPC: 0.256458 cumulative IPC: 0.282178 (Simulation time: 0 hr 23 min 26 sec) 
Heartbeat CPU 0 instructions: 472000003 cycles: 1650104508 heartbeat IPC: 0.818209 cumulative IPC: 0.282579 (Simulation time: 0 hr 23 min 29 sec) 
Heartbeat CPU 0 instructions: 473000000 cycles: 1651188525 heartbeat IPC: 0.922492 cumulative IPC: 0.283003 (Simulation time: 0 hr 23 min 31 sec) 
Heartbeat CPU 0 instructions: 474000000 cycles: 1652089799 heartbeat IPC: 1.10954 cumulative IPC: 0.283458 (Simulation time: 0 hr 23 min 33 sec) 
Heartbeat CPU 0 instructions: 475000002 cycles: 1658449960 heartbeat IPC: 0.157229 cumulative IPC: 0.282969 (Simulation time: 0 hr 23 min 38 sec) 
Heartbeat CPU 0 instructions: 476000001 cycles: 1659862708 heartbeat IPC: 0.70784 cumulative IPC: 0.283334 (Simulation time: 0 hr 23 min 40 sec) 
Heartbeat CPU 0 instructions: 477000000 cycles: 1660926154 heartbeat IPC: 0.940338 cumulative IPC: 0.283759 (Simulation time: 0 hr 23 min 42 sec) 
Heartbeat CPU 0 instructions: 478000000 cycles: 1662025087 heartbeat IPC: 0.909974 cumulative IPC: 0.284176 (Simulation time: 0 hr 23 min 45 sec) 
Heartbeat CPU 0 instructions: 479000003 cycles: 1663648812 heartbeat IPC: 0.61587 cumulative IPC: 0.284503 (Simulation time: 0 hr 23 min 47 sec) 
Heartbeat CPU 0 instructions: 480000000 cycles: 1666184665 heartbeat IPC: 0.394343 cumulative IPC: 0.284672 (Simulation time: 0 hr 23 min 50 sec) 
Heartbeat CPU 0 instructions: 481000000 cycles: 1667410662 heartbeat IPC: 0.815663 cumulative IPC: 0.285066 (Simulation time: 0 hr 23 min 52 sec) 
Heartbeat CPU 0 instructions: 482000001 cycles: 1668737481 heartbeat IPC: 0.753683 cumulative IPC: 0.285442 (Simulation time: 0 hr 23 min 55 sec) 
Heartbeat CPU 0 instructions: 483000000 cycles: 1669698317 heartbeat IPC: 1.04076 cumulative IPC: 0.28588 (Simulation time: 0 hr 23 min 57 sec) 
Heartbeat CPU 0 instructions: 484000000 cycles: 1676793431 heartbeat IPC: 0.140942 cumulative IPC: 0.285262 (Simulation time: 0 hr 24 min 1 sec) 
Heartbeat CPU 0 instructions: 485000001 cycles: 1686686800 heartbeat IPC: 0.101078 cumulative IPC: 0.284171 (Simulation time: 0 hr 24 min 6 sec) 
Heartbeat CPU 0 instructions: 486000000 cycles: 1695627537 heartbeat IPC: 0.111847 cumulative IPC: 0.283255 (Simulation time: 0 hr 24 min 11 sec) 
Heartbeat CPU 0 instructions: 487000000 cycles: 1705789809 heartbeat IPC: 0.0984032 cumulative IPC: 0.282144 (Simulation time: 0 hr 24 min 16 sec) 
Heartbeat CPU 0 instructions: 488000001 cycles: 1715524604 heartbeat IPC: 0.102724 cumulative IPC: 0.281116 (Simulation time: 0 hr 24 min 21 sec) 
Heartbeat CPU 0 instructions: 489000000 cycles: 1725657297 heartbeat IPC: 0.0986903 cumulative IPC: 0.280036 (Simulation time: 0 hr 24 min 26 sec) 
Heartbeat CPU 0 instructions: 490000002 cycles: 1728216785 heartbeat IPC: 0.390704 cumulative IPC: 0.280201 (Simulation time: 0 hr 24 min 29 sec) 
Heartbeat CPU 0 instructions: 491000000 cycles: 1729252687 heartbeat IPC: 0.96534 cumulative IPC: 0.280615 (Simulation time: 0 hr 24 min 31 sec) 
Heartbeat CPU 0 instructions: 492000000 cycles: 1731177525 heartbeat IPC: 0.519524 cumulative IPC: 0.280883 (Simulation time: 0 hr 24 min 34 sec) 
Heartbeat CPU 0 instructions: 493000001 cycles: 1732899832 heartbeat IPC: 0.580617 cumulative IPC: 0.281184 (Simulation time: 0 hr 24 min 36 sec) 
Heartbeat CPU 0 instructions: 494000002 cycles: 1734247654 heartbeat IPC: 0.741938 cumulative IPC: 0.281545 (Simulation time: 0 hr 24 min 38 sec) 
Heartbeat CPU 0 instructions: 495000000 cycles: 1736431041 heartbeat IPC: 0.458003 cumulative IPC: 0.281769 (Simulation time: 0 hr 24 min 41 sec) 
Heartbeat CPU 0 instructions: 496000000 cycles: 1739427408 heartbeat IPC: 0.333737 cumulative IPC: 0.281859 (Simulation time: 0 hr 24 min 43 sec) 
Heartbeat CPU 0 instructions: 497000001 cycles: 1746769186 heartbeat IPC: 0.136207 cumulative IPC: 0.281241 (Simulation time: 0 hr 24 min 48 sec) 
Heartbeat CPU 0 instructions: 498000000 cycles: 1749114231 heartbeat IPC: 0.426431 cumulative IPC: 0.281438 (Simulation time: 0 hr 24 min 51 sec) 
Heartbeat CPU 0 instructions: 499000001 cycles: 1750179209 heartbeat IPC: 0.938987 cumulative IPC: 0.281841 (Simulation time: 0 hr 24 min 53 sec) 
Heartbeat CPU 0 instructions: 500000003 cycles: 1751205367 heartbeat IPC: 0.974511 cumulative IPC: 0.282251 (Simulation time: 0 hr 24 min 55 sec) 
Heartbeat CPU 0 instructions: 501000000 cycles: 1752688865 heartbeat IPC: 0.67408 cumulative IPC: 0.282585 (Simulation time: 0 hr 24 min 57 sec) 
Heartbeat CPU 0 instructions: 502000000 cycles: 1754945931 heartbeat IPC: 0.443053 cumulative IPC: 0.282794 (Simulation time: 0 hr 25 min 0 sec) 
Heartbeat CPU 0 instructions: 503000002 cycles: 1757245490 heartbeat IPC: 0.434867 cumulative IPC: 0.282994 (Simulation time: 0 hr 25 min 2 sec) 
Heartbeat CPU 0 instructions: 504000001 cycles: 1759177704 heartbeat IPC: 0.517541 cumulative IPC: 0.283254 (Simulation time: 0 hr 25 min 5 sec) 
Heartbeat CPU 0 instructions: 505000001 cycles: 1760339663 heartbeat IPC: 0.860616 cumulative IPC: 0.283639 (Simulation time: 0 hr 25 min 7 sec) 
Heartbeat CPU 0 instructions: 506000000 cycles: 1761310173 heartbeat IPC: 1.03039 cumulative IPC: 0.284054 (Simulation time: 0 hr 25 min 9 sec) 
Heartbeat CPU 0 instructions: 507000002 cycles: 1769655807 heartbeat IPC: 0.119823 cumulative IPC: 0.283272 (Simulation time: 0 hr 25 min 14 sec) 
Heartbeat CPU 0 instructions: 508000000 cycles: 1775566087 heartbeat IPC: 0.169196 cumulative IPC: 0.282889 (Simulation time: 0 hr 25 min 18 sec) 
Heartbeat CPU 0 instructions: 509000001 cycles: 1776599763 heartbeat IPC: 0.967422 cumulative IPC: 0.283291 (Simulation time: 0 hr 25 min 20 sec) 
Heartbeat CPU 0 instructions: 510000000 cycles: 1777668154 heartbeat IPC: 0.935986 cumulative IPC: 0.283687 (Simulation time: 0 hr 25 min 22 sec) 
Finished CPU 0 instructions: 500000002 cycles: 1762507450 cumulative IPC: 0.283687 (Simulation time: 0 hr 25 min 22 sec) 

ChampSim completed all CPUs

Region of Interest Statistics

CPU 0 cumulative IPC: 0.283687 instructions: 500000002 cycles: 1762507450
L1D TOTAL     ACCESS:  191743870  HIT:  174466354  MISS:   17277516
L1D LOAD      ACCESS:  141649482  HIT:  124480631  MISS:   17168851
L1D RFO       ACCESS:   50094388  HIT:   49985723  MISS:     108665
L1D PREFETCH  ACCESS:          0  HIT:          0  MISS:          0
L1D WRITEBACK ACCESS:          0  HIT:          0  MISS:          0
L1D PREFETCH  REQUESTED:          0  ISSUED:          0  USEFUL:          0  USELESS:          0
L1D AVERAGE MISS LATENCY: 153.325 cycles
L1I TOTAL     ACCESS:   92375479  HIT:   92375479  MISS:          0
L1I LOAD      ACCESS:   92375479  HIT:   92375479  MISS:          0
L1I RFO       ACCESS:          0  HIT:          0  MISS:          0
L1I PREFETCH  ACCESS:          0  HIT:          0  MISS:          0
L1I WRITEBACK ACCESS:          0  HIT:          0  MISS:          0
L1I PREFETCH  REQUESTED:          0  ISSUED:          0  USEFUL:          0  USELESS:          0
L1I AVERAGE MISS LATENCY: -nan cycles
L2C TOTAL     ACCESS:   18481451  HIT:    6940192  MISS:   11541259
L2C LOAD      ACCESS:   17168784  HIT:    5646691  MISS:   11522093
L2C RFO       ACCESS:     108664  HIT:      90998  MISS:      17666
L2C PREFETCH  ACCESS:          0  HIT:          0  MISS:          0
L2C WRITEBACK ACCESS:    1204003  HIT:    1202503  MISS:       1500
L2C PREFETCH  REQUESTED:          0  ISSUED:          0  USEFUL:          0  USELESS:          0
L2C AVERAGE MISS LATENCY: 195.636 cycles
LLC TOTAL     ACCESS:   13429449  HIT:    4565034  MISS:    8864415
LLC LOAD      ACCESS:   11522089  HIT:    3485034  MISS:    8037055
LLC RFO       ACCESS:      17666  HIT:      11554  MISS:       6112
LLC PREFETCH  ACCESS:    1107783  HIT:     287012  MISS:     820771
LLC WRITEBACK ACCESS:     781911  HIT:     781434  MISS:        477
LLC PREFETCH  REQUESTED:    2491498  ISSUED:    1500181  USEFUL:     164862  USELESS:     650158
LLC AVERAGE MISS LATENCY: 228.753 cycles
Major fault: 0 Minor fault: 219932

DRAM Statistics
 CHANNEL 0
 RQ ROW_BUFFER_HIT:     992223  ROW_BUFFER_MISS:    3450123
 DBUS_CONGESTED:    1648553
 WQ ROW_BUFFER_HIT:     137679  ROW_BUFFER_MISS:     147136  FULL:          0

 CHANNEL 1
 RQ ROW_BUFFER_HIT:     985549  ROW_BUFFER_MISS:    3436025
 DBUS_CONGESTED:    1648553
 WQ ROW_BUFFER_HIT:     137117  ROW_BUFFER_MISS:     147560  FULL:          0

 AVG_CONGESTED_CYCLE: 15

CPU 0 Branch Prediction Accuracy: 94.6591% MPKI: 13.3587 Average ROB Occupancy at Mispredict: 38.0173

Branch types
NOT_BRANCH: 374939859 74.988%
BRANCH_DIRECT_JUMP: 11443979 2.2888%
BRANCH_INDIRECT: 0 0%
BRANCH_CONDITIONAL: 81942754 16.3886%
BRANCH_DIRECT_CALL: 15344825 3.06896%
BRANCH_INDIRECT_CALL: 491898 0.0983796%
BRANCH_RETURN: 15836723 3.16734%
BRANCH_OTHER: 0 0%

