
*** ChampSim Multicore Out-of-Order Simulator ***

Warmup Instructions: 1000000
Prefetch Warmup Instructions: 10000000
Simulation Instructions: 500000000
Stat Printing Period: 1000000
Number of CPUs: 1
LLC sets: 2048
LLC ways: 16
Off-chip DRAM Size: 32768 MB Channels: 2 Width: 64-bit Data Rate: 1024 MT/s

CPU 0 runs /scratch/cluster/cmolder/ML-DPC/ChampSimTraces/spec17/605.mcf-s3.trace.xz
Read seed: 273
Heartbeat CPU 0 instructions: 1000000 cycles: 713393 heartbeat IPC: 1.40175 cumulative IPC: 1.40175 (Simulation time: 0 hr 0 min 4 sec) 

Warmup complete CPU 0 instructions: 1000001 cycles: 713394 (Simulation time: 0 hr 0 min 4 sec) 

Heartbeat CPU 0 instructions: 2000002 cycles: 6947993 heartbeat IPC: 0.160396 cumulative IPC: 0.160395 (Simulation time: 0 hr 0 min 10 sec) 
Heartbeat CPU 0 instructions: 3000000 cycles: 13268484 heartbeat IPC: 0.158215 cumulative IPC: 0.159298 (Simulation time: 0 hr 0 min 17 sec) 
Heartbeat CPU 0 instructions: 4000001 cycles: 19526317 heartbeat IPC: 0.1598 cumulative IPC: 0.159465 (Simulation time: 0 hr 0 min 24 sec) 
Heartbeat CPU 0 instructions: 5000000 cycles: 25971615 heartbeat IPC: 0.155152 cumulative IPC: 0.158364 (Simulation time: 0 hr 0 min 30 sec) 
Heartbeat CPU 0 instructions: 6000003 cycles: 32391522 heartbeat IPC: 0.155766 cumulative IPC: 0.157838 (Simulation time: 0 hr 0 min 36 sec) 
Heartbeat CPU 0 instructions: 7000001 cycles: 38713759 heartbeat IPC: 0.158172 cumulative IPC: 0.157893 (Simulation time: 0 hr 0 min 42 sec) 
Heartbeat CPU 0 instructions: 8000003 cycles: 45061094 heartbeat IPC: 0.157547 cumulative IPC: 0.157844 (Simulation time: 0 hr 0 min 49 sec) 
Heartbeat CPU 0 instructions: 9000002 cycles: 51358483 heartbeat IPC: 0.158796 cumulative IPC: 0.157962 (Simulation time: 0 hr 0 min 55 sec) 
Heartbeat CPU 0 instructions: 10000003 cycles: 57449931 heartbeat IPC: 0.164165 cumulative IPC: 0.158628 (Simulation time: 0 hr 1 min 1 sec) 

Warmup complete CPU 0 instructions: 10000003 cycles: 57449931 (Simulation time: 0 hr 1 min 1 sec) 

Heartbeat CPU 0 instructions: 11000000 cycles: 63448472 heartbeat IPC: 0.166707 cumulative IPC: 0.166707 (Simulation time: 0 hr 1 min 7 sec) 
Heartbeat CPU 0 instructions: 12000001 cycles: 69597498 heartbeat IPC: 0.162628 cumulative IPC: 0.164642 (Simulation time: 0 hr 1 min 14 sec) 
Heartbeat CPU 0 instructions: 13000003 cycles: 75678223 heartbeat IPC: 0.164454 cumulative IPC: 0.164579 (Simulation time: 0 hr 1 min 20 sec) 
Heartbeat CPU 0 instructions: 14000000 cycles: 81916135 heartbeat IPC: 0.16031 cumulative IPC: 0.163491 (Simulation time: 0 hr 1 min 27 sec) 
Heartbeat CPU 0 instructions: 15000002 cycles: 87932579 heartbeat IPC: 0.166211 cumulative IPC: 0.164028 (Simulation time: 0 hr 1 min 33 sec) 
Heartbeat CPU 0 instructions: 16000000 cycles: 93812212 heartbeat IPC: 0.170078 cumulative IPC: 0.165006 (Simulation time: 0 hr 1 min 40 sec) 
Heartbeat CPU 0 instructions: 17000000 cycles: 100008812 heartbeat IPC: 0.161379 cumulative IPC: 0.164478 (Simulation time: 0 hr 1 min 46 sec) 
Heartbeat CPU 0 instructions: 18000002 cycles: 106294425 heartbeat IPC: 0.159094 cumulative IPC: 0.163785 (Simulation time: 0 hr 1 min 52 sec) 
Heartbeat CPU 0 instructions: 19000001 cycles: 112700640 heartbeat IPC: 0.156098 cumulative IPC: 0.162894 (Simulation time: 0 hr 1 min 59 sec) 
Heartbeat CPU 0 instructions: 20000002 cycles: 118896799 heartbeat IPC: 0.16139 cumulative IPC: 0.162742 (Simulation time: 0 hr 2 min 8 sec) 
Heartbeat CPU 0 instructions: 21000000 cycles: 125044971 heartbeat IPC: 0.16265 cumulative IPC: 0.162734 (Simulation time: 0 hr 2 min 15 sec) 
Heartbeat CPU 0 instructions: 22000000 cycles: 131521651 heartbeat IPC: 0.1544 cumulative IPC: 0.162005 (Simulation time: 0 hr 2 min 21 sec) 
Heartbeat CPU 0 instructions: 23000002 cycles: 137953551 heartbeat IPC: 0.155475 cumulative IPC: 0.161483 (Simulation time: 0 hr 2 min 28 sec) 
Heartbeat CPU 0 instructions: 24000001 cycles: 144438900 heartbeat IPC: 0.154194 cumulative IPC: 0.16094 (Simulation time: 0 hr 2 min 35 sec) 
Heartbeat CPU 0 instructions: 25000003 cycles: 150964904 heartbeat IPC: 0.153233 cumulative IPC: 0.160402 (Simulation time: 0 hr 2 min 42 sec) 
Heartbeat CPU 0 instructions: 26000000 cycles: 157252985 heartbeat IPC: 0.159031 cumulative IPC: 0.160316 (Simulation time: 0 hr 2 min 50 sec) 
Heartbeat CPU 0 instructions: 27000000 cycles: 163424425 heartbeat IPC: 0.162037 cumulative IPC: 0.160416 (Simulation time: 0 hr 2 min 58 sec) 
Heartbeat CPU 0 instructions: 28000003 cycles: 169761000 heartbeat IPC: 0.157814 cumulative IPC: 0.160269 (Simulation time: 0 hr 3 min 6 sec) 
Heartbeat CPU 0 instructions: 29000001 cycles: 176201157 heartbeat IPC: 0.155275 cumulative IPC: 0.159998 (Simulation time: 0 hr 3 min 13 sec) 
Heartbeat CPU 0 instructions: 30000000 cycles: 182769140 heartbeat IPC: 0.152254 cumulative IPC: 0.159592 (Simulation time: 0 hr 3 min 20 sec) 
Heartbeat CPU 0 instructions: 31000003 cycles: 189180376 heartbeat IPC: 0.155977 cumulative IPC: 0.159416 (Simulation time: 0 hr 3 min 27 sec) 
Heartbeat CPU 0 instructions: 32000001 cycles: 195554387 heartbeat IPC: 0.156887 cumulative IPC: 0.1593 (Simulation time: 0 hr 3 min 34 sec) 
Heartbeat CPU 0 instructions: 33000000 cycles: 202121667 heartbeat IPC: 0.15227 cumulative IPC: 0.158981 (Simulation time: 0 hr 3 min 40 sec) 
Heartbeat CPU 0 instructions: 34000001 cycles: 208590527 heartbeat IPC: 0.154587 cumulative IPC: 0.158793 (Simulation time: 0 hr 3 min 47 sec) 
Heartbeat CPU 0 instructions: 35000001 cycles: 215034370 heartbeat IPC: 0.155187 cumulative IPC: 0.158645 (Simulation time: 0 hr 3 min 54 sec) 
Heartbeat CPU 0 instructions: 36000002 cycles: 221498590 heartbeat IPC: 0.154698 cumulative IPC: 0.15849 (Simulation time: 0 hr 4 min 1 sec) 
Heartbeat CPU 0 instructions: 37000002 cycles: 227921742 heartbeat IPC: 0.155687 cumulative IPC: 0.158384 (Simulation time: 0 hr 4 min 8 sec) 
Heartbeat CPU 0 instructions: 38000003 cycles: 234147669 heartbeat IPC: 0.160619 cumulative IPC: 0.158463 (Simulation time: 0 hr 4 min 15 sec) 
Heartbeat CPU 0 instructions: 39000000 cycles: 240564945 heartbeat IPC: 0.155829 cumulative IPC: 0.15837 (Simulation time: 0 hr 4 min 21 sec) 
Heartbeat CPU 0 instructions: 40000000 cycles: 247110764 heartbeat IPC: 0.152769 cumulative IPC: 0.158177 (Simulation time: 0 hr 4 min 28 sec) 
Heartbeat CPU 0 instructions: 41000003 cycles: 253242449 heartbeat IPC: 0.163088 cumulative IPC: 0.158331 (Simulation time: 0 hr 4 min 35 sec) 
Heartbeat CPU 0 instructions: 42000000 cycles: 259732868 heartbeat IPC: 0.154073 cumulative IPC: 0.158194 (Simulation time: 0 hr 4 min 42 sec) 
Heartbeat CPU 0 instructions: 43000003 cycles: 266161149 heartbeat IPC: 0.155563 cumulative IPC: 0.158113 (Simulation time: 0 hr 4 min 48 sec) 
Heartbeat CPU 0 instructions: 44000000 cycles: 272423459 heartbeat IPC: 0.159685 cumulative IPC: 0.158159 (Simulation time: 0 hr 4 min 55 sec) 
Heartbeat CPU 0 instructions: 45000001 cycles: 278943408 heartbeat IPC: 0.153376 cumulative IPC: 0.158018 (Simulation time: 0 hr 5 min 2 sec) 
Heartbeat CPU 0 instructions: 46000001 cycles: 285717268 heartbeat IPC: 0.147626 cumulative IPC: 0.15771 (Simulation time: 0 hr 5 min 8 sec) 
Heartbeat CPU 0 instructions: 47000002 cycles: 292224834 heartbeat IPC: 0.153667 cumulative IPC: 0.157598 (Simulation time: 0 hr 5 min 15 sec) 
Heartbeat CPU 0 instructions: 48000000 cycles: 298676514 heartbeat IPC: 0.154998 cumulative IPC: 0.157528 (Simulation time: 0 hr 5 min 21 sec) 
Heartbeat CPU 0 instructions: 49000000 cycles: 305056964 heartbeat IPC: 0.156729 cumulative IPC: 0.157508 (Simulation time: 0 hr 5 min 27 sec) 
Heartbeat CPU 0 instructions: 50000001 cycles: 311518192 heartbeat IPC: 0.154769 cumulative IPC: 0.157438 (Simulation time: 0 hr 5 min 34 sec) 
Heartbeat CPU 0 instructions: 51000001 cycles: 317974984 heartbeat IPC: 0.154876 cumulative IPC: 0.157374 (Simulation time: 0 hr 5 min 40 sec) 
Heartbeat CPU 0 instructions: 52000003 cycles: 324326911 heartbeat IPC: 0.157433 cumulative IPC: 0.157376 (Simulation time: 0 hr 5 min 46 sec) 
Heartbeat CPU 0 instructions: 53000001 cycles: 330679270 heartbeat IPC: 0.157422 cumulative IPC: 0.157377 (Simulation time: 0 hr 5 min 53 sec) 
Heartbeat CPU 0 instructions: 54000001 cycles: 337014626 heartbeat IPC: 0.157844 cumulative IPC: 0.157388 (Simulation time: 0 hr 5 min 59 sec) 
Heartbeat CPU 0 instructions: 55000000 cycles: 343309513 heartbeat IPC: 0.158859 cumulative IPC: 0.15742 (Simulation time: 0 hr 6 min 5 sec) 
Heartbeat CPU 0 instructions: 56000001 cycles: 349821905 heartbeat IPC: 0.153554 cumulative IPC: 0.157334 (Simulation time: 0 hr 6 min 12 sec) 
Heartbeat CPU 0 instructions: 57000003 cycles: 356241074 heartbeat IPC: 0.155784 cumulative IPC: 0.157301 (Simulation time: 0 hr 6 min 18 sec) 
Heartbeat CPU 0 instructions: 58000001 cycles: 362784461 heartbeat IPC: 0.152826 cumulative IPC: 0.157205 (Simulation time: 0 hr 6 min 25 sec) 
Heartbeat CPU 0 instructions: 59000000 cycles: 369386954 heartbeat IPC: 0.151458 cumulative IPC: 0.157083 (Simulation time: 0 hr 6 min 31 sec) 
Heartbeat CPU 0 instructions: 60000001 cycles: 375609909 heartbeat IPC: 0.160696 cumulative IPC: 0.157154 (Simulation time: 0 hr 6 min 38 sec) 
Heartbeat CPU 0 instructions: 61000003 cycles: 381971011 heartbeat IPC: 0.157206 cumulative IPC: 0.157155 (Simulation time: 0 hr 6 min 45 sec) 
Heartbeat CPU 0 instructions: 62000001 cycles: 388131806 heartbeat IPC: 0.162316 cumulative IPC: 0.157251 (Simulation time: 0 hr 6 min 51 sec) 
Heartbeat CPU 0 instructions: 63000001 cycles: 394929151 heartbeat IPC: 0.147116 cumulative IPC: 0.157047 (Simulation time: 0 hr 6 min 58 sec) 
Heartbeat CPU 0 instructions: 64000001 cycles: 401229334 heartbeat IPC: 0.158726 cumulative IPC: 0.157077 (Simulation time: 0 hr 7 min 4 sec) 
Heartbeat CPU 0 instructions: 65000000 cycles: 407867200 heartbeat IPC: 0.150651 cumulative IPC: 0.156956 (Simulation time: 0 hr 7 min 11 sec) 
Heartbeat CPU 0 instructions: 66000000 cycles: 413988769 heartbeat IPC: 0.163357 cumulative IPC: 0.157066 (Simulation time: 0 hr 7 min 18 sec) 
Heartbeat CPU 0 instructions: 67000003 cycles: 420388160 heartbeat IPC: 0.156265 cumulative IPC: 0.157052 (Simulation time: 0 hr 7 min 24 sec) 
Heartbeat CPU 0 instructions: 68000002 cycles: 426961779 heartbeat IPC: 0.152123 cumulative IPC: 0.156964 (Simulation time: 0 hr 7 min 30 sec) 
Heartbeat CPU 0 instructions: 69000000 cycles: 433318118 heartbeat IPC: 0.157323 cumulative IPC: 0.15697 (Simulation time: 0 hr 7 min 37 sec) 
Heartbeat CPU 0 instructions: 70000003 cycles: 439674129 heartbeat IPC: 0.157332 cumulative IPC: 0.156976 (Simulation time: 0 hr 7 min 44 sec) 
Heartbeat CPU 0 instructions: 71000001 cycles: 446113498 heartbeat IPC: 0.155294 cumulative IPC: 0.156948 (Simulation time: 0 hr 7 min 50 sec) 
Heartbeat CPU 0 instructions: 72000002 cycles: 452656794 heartbeat IPC: 0.152828 cumulative IPC: 0.15688 (Simulation time: 0 hr 7 min 57 sec) 
Heartbeat CPU 0 instructions: 73000000 cycles: 458866866 heartbeat IPC: 0.161028 cumulative IPC: 0.156944 (Simulation time: 0 hr 8 min 4 sec) 
Heartbeat CPU 0 instructions: 74000001 cycles: 465254135 heartbeat IPC: 0.156562 cumulative IPC: 0.156938 (Simulation time: 0 hr 8 min 11 sec) 
Heartbeat CPU 0 instructions: 75000001 cycles: 471764127 heartbeat IPC: 0.15361 cumulative IPC: 0.156886 (Simulation time: 0 hr 8 min 17 sec) 
Heartbeat CPU 0 instructions: 76000000 cycles: 478166637 heartbeat IPC: 0.156189 cumulative IPC: 0.156875 (Simulation time: 0 hr 8 min 24 sec) 
Heartbeat CPU 0 instructions: 77000000 cycles: 484431675 heartbeat IPC: 0.159616 cumulative IPC: 0.156915 (Simulation time: 0 hr 8 min 30 sec) 
Heartbeat CPU 0 instructions: 78000001 cycles: 490692690 heartbeat IPC: 0.159719 cumulative IPC: 0.156956 (Simulation time: 0 hr 8 min 37 sec) 
Heartbeat CPU 0 instructions: 79000002 cycles: 497390739 heartbeat IPC: 0.149297 cumulative IPC: 0.156839 (Simulation time: 0 hr 8 min 44 sec) 
Heartbeat CPU 0 instructions: 80000000 cycles: 503782348 heartbeat IPC: 0.156455 cumulative IPC: 0.156834 (Simulation time: 0 hr 8 min 51 sec) 
Heartbeat CPU 0 instructions: 81000003 cycles: 510117892 heartbeat IPC: 0.15784 cumulative IPC: 0.156848 (Simulation time: 0 hr 8 min 57 sec) 
Heartbeat CPU 0 instructions: 82000001 cycles: 516384414 heartbeat IPC: 0.159578 cumulative IPC: 0.156885 (Simulation time: 0 hr 9 min 4 sec) 
Heartbeat CPU 0 instructions: 83000002 cycles: 522818827 heartbeat IPC: 0.155414 cumulative IPC: 0.156865 (Simulation time: 0 hr 9 min 11 sec) 
Heartbeat CPU 0 instructions: 84000000 cycles: 529257349 heartbeat IPC: 0.155315 cumulative IPC: 0.156844 (Simulation time: 0 hr 9 min 17 sec) 
Heartbeat CPU 0 instructions: 85000002 cycles: 535667139 heartbeat IPC: 0.156012 cumulative IPC: 0.156833 (Simulation time: 0 hr 9 min 24 sec) 
Heartbeat CPU 0 instructions: 86000002 cycles: 542179858 heartbeat IPC: 0.153546 cumulative IPC: 0.156788 (Simulation time: 0 hr 9 min 31 sec) 
Heartbeat CPU 0 instructions: 87000002 cycles: 548452565 heartbeat IPC: 0.159421 cumulative IPC: 0.156822 (Simulation time: 0 hr 9 min 38 sec) 
Heartbeat CPU 0 instructions: 88000000 cycles: 554912250 heartbeat IPC: 0.154806 cumulative IPC: 0.156796 (Simulation time: 0 hr 9 min 44 sec) 
Heartbeat CPU 0 instructions: 89000000 cycles: 561198743 heartbeat IPC: 0.159071 cumulative IPC: 0.156824 (Simulation time: 0 hr 9 min 51 sec) 
Heartbeat CPU 0 instructions: 90000000 cycles: 567571585 heartbeat IPC: 0.156916 cumulative IPC: 0.156825 (Simulation time: 0 hr 9 min 58 sec) 
Heartbeat CPU 0 instructions: 91000003 cycles: 574148883 heartbeat IPC: 0.152039 cumulative IPC: 0.156764 (Simulation time: 0 hr 10 min 5 sec) 
Heartbeat CPU 0 instructions: 92000003 cycles: 580574097 heartbeat IPC: 0.155637 cumulative IPC: 0.156751 (Simulation time: 0 hr 10 min 11 sec) 
Heartbeat CPU 0 instructions: 93000002 cycles: 587049693 heartbeat IPC: 0.154426 cumulative IPC: 0.156722 (Simulation time: 0 hr 10 min 18 sec) 
Heartbeat CPU 0 instructions: 94000002 cycles: 593568114 heartbeat IPC: 0.153411 cumulative IPC: 0.156682 (Simulation time: 0 hr 10 min 25 sec) 
Heartbeat CPU 0 instructions: 95000000 cycles: 599946779 heartbeat IPC: 0.156772 cumulative IPC: 0.156683 (Simulation time: 0 hr 10 min 31 sec) 
Heartbeat CPU 0 instructions: 96000001 cycles: 606368501 heartbeat IPC: 0.155722 cumulative IPC: 0.156672 (Simulation time: 0 hr 10 min 38 sec) 
Heartbeat CPU 0 instructions: 97000001 cycles: 612815263 heartbeat IPC: 0.155117 cumulative IPC: 0.156654 (Simulation time: 0 hr 10 min 45 sec) 
Heartbeat CPU 0 instructions: 98000000 cycles: 619298717 heartbeat IPC: 0.154239 cumulative IPC: 0.156626 (Simulation time: 0 hr 10 min 52 sec) 
Heartbeat CPU 0 instructions: 99000000 cycles: 625931579 heartbeat IPC: 0.150764 cumulative IPC: 0.156557 (Simulation time: 0 hr 10 min 59 sec) 
Heartbeat CPU 0 instructions: 100000001 cycles: 632401637 heartbeat IPC: 0.154558 cumulative IPC: 0.156535 (Simulation time: 0 hr 11 min 7 sec) 
Heartbeat CPU 0 instructions: 101000000 cycles: 638873029 heartbeat IPC: 0.154526 cumulative IPC: 0.156513 (Simulation time: 0 hr 11 min 14 sec) 
Heartbeat CPU 0 instructions: 102000000 cycles: 645534872 heartbeat IPC: 0.150109 cumulative IPC: 0.15644 (Simulation time: 0 hr 11 min 21 sec) 
Heartbeat CPU 0 instructions: 103000001 cycles: 651955479 heartbeat IPC: 0.155749 cumulative IPC: 0.156433 (Simulation time: 0 hr 11 min 27 sec) 
Heartbeat CPU 0 instructions: 104000000 cycles: 658297711 heartbeat IPC: 0.157673 cumulative IPC: 0.156446 (Simulation time: 0 hr 11 min 34 sec) 
Heartbeat CPU 0 instructions: 105000000 cycles: 664826828 heartbeat IPC: 0.15316 cumulative IPC: 0.15641 (Simulation time: 0 hr 11 min 41 sec) 
Heartbeat CPU 0 instructions: 106000003 cycles: 671374263 heartbeat IPC: 0.152732 cumulative IPC: 0.156371 (Simulation time: 0 hr 11 min 48 sec) 
Heartbeat CPU 0 instructions: 107000000 cycles: 678162646 heartbeat IPC: 0.14731 cumulative IPC: 0.156272 (Simulation time: 0 hr 11 min 54 sec) 
Heartbeat CPU 0 instructions: 108000000 cycles: 684661008 heartbeat IPC: 0.153885 cumulative IPC: 0.156247 (Simulation time: 0 hr 12 min 1 sec) 
Heartbeat CPU 0 instructions: 109000001 cycles: 691273462 heartbeat IPC: 0.15123 cumulative IPC: 0.156195 (Simulation time: 0 hr 12 min 7 sec) 
Heartbeat CPU 0 instructions: 110000000 cycles: 697837660 heartbeat IPC: 0.152341 cumulative IPC: 0.156155 (Simulation time: 0 hr 12 min 14 sec) 
Heartbeat CPU 0 instructions: 111000000 cycles: 704450521 heartbeat IPC: 0.15122 cumulative IPC: 0.156105 (Simulation time: 0 hr 12 min 20 sec) 
Heartbeat CPU 0 instructions: 112000000 cycles: 711168327 heartbeat IPC: 0.148858 cumulative IPC: 0.15603 (Simulation time: 0 hr 12 min 27 sec) 
Heartbeat CPU 0 instructions: 113000003 cycles: 717920804 heartbeat IPC: 0.148094 cumulative IPC: 0.155949 (Simulation time: 0 hr 12 min 33 sec) 
Heartbeat CPU 0 instructions: 114000003 cycles: 724809077 heartbeat IPC: 0.145174 cumulative IPC: 0.155838 (Simulation time: 0 hr 12 min 39 sec) 
Heartbeat CPU 0 instructions: 115000000 cycles: 731185437 heartbeat IPC: 0.156829 cumulative IPC: 0.155848 (Simulation time: 0 hr 12 min 46 sec) 
Heartbeat CPU 0 instructions: 116000000 cycles: 737828164 heartbeat IPC: 0.150541 cumulative IPC: 0.155796 (Simulation time: 0 hr 12 min 52 sec) 
Heartbeat CPU 0 instructions: 117000000 cycles: 744239540 heartbeat IPC: 0.155973 cumulative IPC: 0.155797 (Simulation time: 0 hr 12 min 59 sec) 
Heartbeat CPU 0 instructions: 118000000 cycles: 750629024 heartbeat IPC: 0.156507 cumulative IPC: 0.155804 (Simulation time: 0 hr 13 min 5 sec) 
Heartbeat CPU 0 instructions: 119000000 cycles: 757227727 heartbeat IPC: 0.151545 cumulative IPC: 0.155764 (Simulation time: 0 hr 13 min 12 sec) 
Heartbeat CPU 0 instructions: 120000000 cycles: 763605714 heartbeat IPC: 0.156789 cumulative IPC: 0.155773 (Simulation time: 0 hr 13 min 18 sec) 
Heartbeat CPU 0 instructions: 121000000 cycles: 770136986 heartbeat IPC: 0.15311 cumulative IPC: 0.155749 (Simulation time: 0 hr 13 min 25 sec) 
Heartbeat CPU 0 instructions: 122000000 cycles: 776853232 heartbeat IPC: 0.148893 cumulative IPC: 0.155685 (Simulation time: 0 hr 13 min 31 sec) 
Heartbeat CPU 0 instructions: 123000002 cycles: 783229335 heartbeat IPC: 0.156836 cumulative IPC: 0.155695 (Simulation time: 0 hr 13 min 38 sec) 
Heartbeat CPU 0 instructions: 124000000 cycles: 789834841 heartbeat IPC: 0.151389 cumulative IPC: 0.155656 (Simulation time: 0 hr 13 min 44 sec) 
Heartbeat CPU 0 instructions: 125000000 cycles: 796376064 heartbeat IPC: 0.152877 cumulative IPC: 0.155631 (Simulation time: 0 hr 13 min 51 sec) 
Heartbeat CPU 0 instructions: 126000000 cycles: 802917548 heartbeat IPC: 0.152871 cumulative IPC: 0.155607 (Simulation time: 0 hr 13 min 58 sec) 
Heartbeat CPU 0 instructions: 127000000 cycles: 809492745 heartbeat IPC: 0.152087 cumulative IPC: 0.155576 (Simulation time: 0 hr 14 min 5 sec) 
Heartbeat CPU 0 instructions: 128000001 cycles: 816177371 heartbeat IPC: 0.149597 cumulative IPC: 0.155524 (Simulation time: 0 hr 14 min 12 sec) 
Heartbeat CPU 0 instructions: 129000003 cycles: 822705463 heartbeat IPC: 0.153184 cumulative IPC: 0.155504 (Simulation time: 0 hr 14 min 18 sec) 
Heartbeat CPU 0 instructions: 130000000 cycles: 829289735 heartbeat IPC: 0.151877 cumulative IPC: 0.155473 (Simulation time: 0 hr 14 min 25 sec) 
Heartbeat CPU 0 instructions: 131000002 cycles: 835704408 heartbeat IPC: 0.155893 cumulative IPC: 0.155476 (Simulation time: 0 hr 14 min 32 sec) 
Heartbeat CPU 0 instructions: 132000000 cycles: 842368600 heartbeat IPC: 0.150055 cumulative IPC: 0.15543 (Simulation time: 0 hr 14 min 39 sec) 
Heartbeat CPU 0 instructions: 133000002 cycles: 849031822 heartbeat IPC: 0.150078 cumulative IPC: 0.155385 (Simulation time: 0 hr 14 min 45 sec) 
Heartbeat CPU 0 instructions: 134000000 cycles: 855281779 heartbeat IPC: 0.160001 cumulative IPC: 0.155421 (Simulation time: 0 hr 14 min 52 sec) 
Heartbeat CPU 0 instructions: 135000000 cycles: 861759125 heartbeat IPC: 0.154384 cumulative IPC: 0.155413 (Simulation time: 0 hr 14 min 59 sec) 
Heartbeat CPU 0 instructions: 136000001 cycles: 868201397 heartbeat IPC: 0.155225 cumulative IPC: 0.155411 (Simulation time: 0 hr 15 min 6 sec) 
Heartbeat CPU 0 instructions: 137000002 cycles: 874696267 heartbeat IPC: 0.153968 cumulative IPC: 0.1554 (Simulation time: 0 hr 15 min 12 sec) 
Heartbeat CPU 0 instructions: 138000003 cycles: 881165942 heartbeat IPC: 0.154567 cumulative IPC: 0.155393 (Simulation time: 0 hr 15 min 19 sec) 
Heartbeat CPU 0 instructions: 139000002 cycles: 887530927 heartbeat IPC: 0.157109 cumulative IPC: 0.155407 (Simulation time: 0 hr 15 min 26 sec) 
Heartbeat CPU 0 instructions: 140000003 cycles: 893910113 heartbeat IPC: 0.15676 cumulative IPC: 0.155417 (Simulation time: 0 hr 15 min 32 sec) 
Heartbeat CPU 0 instructions: 141000000 cycles: 900331285 heartbeat IPC: 0.155734 cumulative IPC: 0.155419 (Simulation time: 0 hr 15 min 39 sec) 
Heartbeat CPU 0 instructions: 142000002 cycles: 906835154 heartbeat IPC: 0.153755 cumulative IPC: 0.155407 (Simulation time: 0 hr 15 min 45 sec) 
Heartbeat CPU 0 instructions: 143000000 cycles: 913196273 heartbeat IPC: 0.157205 cumulative IPC: 0.15542 (Simulation time: 0 hr 15 min 52 sec) 
Heartbeat CPU 0 instructions: 144000000 cycles: 919362213 heartbeat IPC: 0.162181 cumulative IPC: 0.155468 (Simulation time: 0 hr 15 min 58 sec) 
Heartbeat CPU 0 instructions: 145000000 cycles: 925485784 heartbeat IPC: 0.163303 cumulative IPC: 0.155524 (Simulation time: 0 hr 16 min 5 sec) 
Heartbeat CPU 0 instructions: 146000002 cycles: 931563671 heartbeat IPC: 0.164531 cumulative IPC: 0.155586 (Simulation time: 0 hr 16 min 12 sec) 
Heartbeat CPU 0 instructions: 147000001 cycles: 937518591 heartbeat IPC: 0.167928 cumulative IPC: 0.15567 (Simulation time: 0 hr 16 min 19 sec) 
Heartbeat CPU 0 instructions: 148000001 cycles: 943699242 heartbeat IPC: 0.161795 cumulative IPC: 0.155712 (Simulation time: 0 hr 16 min 25 sec) 
Heartbeat CPU 0 instructions: 149000000 cycles: 949859678 heartbeat IPC: 0.162326 cumulative IPC: 0.155758 (Simulation time: 0 hr 16 min 32 sec) 
Heartbeat CPU 0 instructions: 150000000 cycles: 955852005 heartbeat IPC: 0.16688 cumulative IPC: 0.155832 (Simulation time: 0 hr 16 min 39 sec) 
Heartbeat CPU 0 instructions: 151000002 cycles: 962020081 heartbeat IPC: 0.162125 cumulative IPC: 0.155875 (Simulation time: 0 hr 16 min 45 sec) 
Heartbeat CPU 0 instructions: 152000003 cycles: 968138278 heartbeat IPC: 0.163447 cumulative IPC: 0.155926 (Simulation time: 0 hr 16 min 52 sec) 
Heartbeat CPU 0 instructions: 153000000 cycles: 974091811 heartbeat IPC: 0.167967 cumulative IPC: 0.156004 (Simulation time: 0 hr 16 min 59 sec) 
Heartbeat CPU 0 instructions: 154000000 cycles: 979919826 heartbeat IPC: 0.171585 cumulative IPC: 0.156103 (Simulation time: 0 hr 17 min 5 sec) 
Heartbeat CPU 0 instructions: 155000001 cycles: 985837553 heartbeat IPC: 0.168984 cumulative IPC: 0.156185 (Simulation time: 0 hr 17 min 12 sec) 
Heartbeat CPU 0 instructions: 156000002 cycles: 991578332 heartbeat IPC: 0.174193 cumulative IPC: 0.156295 (Simulation time: 0 hr 17 min 19 sec) 
Heartbeat CPU 0 instructions: 157000000 cycles: 997525999 heartbeat IPC: 0.168133 cumulative IPC: 0.15637 (Simulation time: 0 hr 17 min 26 sec) 
Heartbeat CPU 0 instructions: 158000002 cycles: 1003090625 heartbeat IPC: 0.179707 cumulative IPC: 0.156508 (Simulation time: 0 hr 17 min 33 sec) 
Heartbeat CPU 0 instructions: 159000000 cycles: 1009335137 heartbeat IPC: 0.16014 cumulative IPC: 0.156531 (Simulation time: 0 hr 17 min 40 sec) 
Heartbeat CPU 0 instructions: 160000002 cycles: 1015535016 heartbeat IPC: 0.161294 cumulative IPC: 0.156562 (Simulation time: 0 hr 17 min 46 sec) 
Heartbeat CPU 0 instructions: 161000000 cycles: 1021749657 heartbeat IPC: 0.16091 cumulative IPC: 0.15659 (Simulation time: 0 hr 17 min 53 sec) 
Heartbeat CPU 0 instructions: 162000001 cycles: 1027912674 heartbeat IPC: 0.162258 cumulative IPC: 0.156626 (Simulation time: 0 hr 17 min 59 sec) 
Heartbeat CPU 0 instructions: 163000000 cycles: 1034268924 heartbeat IPC: 0.157325 cumulative IPC: 0.156631 (Simulation time: 0 hr 18 min 5 sec) 
Heartbeat CPU 0 instructions: 164000000 cycles: 1040602749 heartbeat IPC: 0.157882 cumulative IPC: 0.156639 (Simulation time: 0 hr 18 min 12 sec) 
Heartbeat CPU 0 instructions: 165000000 cycles: 1046902842 heartbeat IPC: 0.158728 cumulative IPC: 0.156652 (Simulation time: 0 hr 18 min 18 sec) 
Heartbeat CPU 0 instructions: 166000001 cycles: 1053285325 heartbeat IPC: 0.156679 cumulative IPC: 0.156652 (Simulation time: 0 hr 18 min 25 sec) 
Heartbeat CPU 0 instructions: 167000001 cycles: 1059690381 heartbeat IPC: 0.156127 cumulative IPC: 0.156649 (Simulation time: 0 hr 18 min 31 sec) 
Heartbeat CPU 0 instructions: 168000000 cycles: 1065839605 heartbeat IPC: 0.162622 cumulative IPC: 0.156685 (Simulation time: 0 hr 18 min 38 sec) 
Heartbeat CPU 0 instructions: 169000000 cycles: 1071980048 heartbeat IPC: 0.162855 cumulative IPC: 0.156723 (Simulation time: 0 hr 18 min 44 sec) 
Heartbeat CPU 0 instructions: 170000000 cycles: 1078102090 heartbeat IPC: 0.163344 cumulative IPC: 0.156763 (Simulation time: 0 hr 18 min 51 sec) 
Heartbeat CPU 0 instructions: 171000000 cycles: 1084264306 heartbeat IPC: 0.162279 cumulative IPC: 0.156796 (Simulation time: 0 hr 18 min 57 sec) 
Heartbeat CPU 0 instructions: 172000003 cycles: 1090648045 heartbeat IPC: 0.156648 cumulative IPC: 0.156795 (Simulation time: 0 hr 19 min 4 sec) 
Heartbeat CPU 0 instructions: 173000000 cycles: 1096902999 heartbeat IPC: 0.159873 cumulative IPC: 0.156813 (Simulation time: 0 hr 19 min 10 sec) 
Heartbeat CPU 0 instructions: 174000000 cycles: 1103156288 heartbeat IPC: 0.159916 cumulative IPC: 0.156832 (Simulation time: 0 hr 19 min 17 sec) 
Heartbeat CPU 0 instructions: 175000001 cycles: 1109473434 heartbeat IPC: 0.158299 cumulative IPC: 0.156841 (Simulation time: 0 hr 19 min 23 sec) 
Heartbeat CPU 0 instructions: 176000000 cycles: 1115923145 heartbeat IPC: 0.155046 cumulative IPC: 0.15683 (Simulation time: 0 hr 19 min 30 sec) 
Heartbeat CPU 0 instructions: 177000000 cycles: 1122158462 heartbeat IPC: 0.160377 cumulative IPC: 0.15685 (Simulation time: 0 hr 19 min 36 sec) 
Heartbeat CPU 0 instructions: 178000000 cycles: 1128266202 heartbeat IPC: 0.163727 cumulative IPC: 0.15689 (Simulation time: 0 hr 19 min 43 sec) 
Heartbeat CPU 0 instructions: 179000000 cycles: 1134334147 heartbeat IPC: 0.1648 cumulative IPC: 0.156934 (Simulation time: 0 hr 19 min 50 sec) 
Heartbeat CPU 0 instructions: 180000000 cycles: 1140241393 heartbeat IPC: 0.169284 cumulative IPC: 0.157002 (Simulation time: 0 hr 19 min 56 sec) 
Heartbeat CPU 0 instructions: 181000003 cycles: 1146437934 heartbeat IPC: 0.161381 cumulative IPC: 0.157027 (Simulation time: 0 hr 20 min 3 sec) 
Heartbeat CPU 0 instructions: 182000000 cycles: 1152304339 heartbeat IPC: 0.170462 cumulative IPC: 0.157099 (Simulation time: 0 hr 20 min 9 sec) 
Heartbeat CPU 0 instructions: 183000000 cycles: 1158453075 heartbeat IPC: 0.162635 cumulative IPC: 0.157129 (Simulation time: 0 hr 20 min 16 sec) 
Heartbeat CPU 0 instructions: 184000000 cycles: 1164626427 heartbeat IPC: 0.161987 cumulative IPC: 0.157157 (Simulation time: 0 hr 20 min 22 sec) 
Heartbeat CPU 0 instructions: 185000003 cycles: 1170817866 heartbeat IPC: 0.161514 cumulative IPC: 0.157181 (Simulation time: 0 hr 20 min 29 sec) 
Heartbeat CPU 0 instructions: 186000002 cycles: 1177300867 heartbeat IPC: 0.154249 cumulative IPC: 0.157164 (Simulation time: 0 hr 20 min 35 sec) 
Heartbeat CPU 0 instructions: 187000000 cycles: 1183560368 heartbeat IPC: 0.159757 cumulative IPC: 0.157178 (Simulation time: 0 hr 20 min 41 sec) 
Heartbeat CPU 0 instructions: 188000002 cycles: 1189629581 heartbeat IPC: 0.164766 cumulative IPC: 0.157219 (Simulation time: 0 hr 20 min 48 sec) 
Heartbeat CPU 0 instructions: 189000003 cycles: 1195912161 heartbeat IPC: 0.15917 cumulative IPC: 0.15723 (Simulation time: 0 hr 20 min 54 sec) 
Heartbeat CPU 0 instructions: 190000000 cycles: 1202071816 heartbeat IPC: 0.162346 cumulative IPC: 0.157257 (Simulation time: 0 hr 21 min 1 sec) 
Heartbeat CPU 0 instructions: 191000000 cycles: 1208419892 heartbeat IPC: 0.157528 cumulative IPC: 0.157259 (Simulation time: 0 hr 21 min 7 sec) 
Heartbeat CPU 0 instructions: 192000003 cycles: 1214922400 heartbeat IPC: 0.153787 cumulative IPC: 0.157239 (Simulation time: 0 hr 21 min 13 sec) 
Heartbeat CPU 0 instructions: 193000000 cycles: 1221098551 heartbeat IPC: 0.161913 cumulative IPC: 0.157264 (Simulation time: 0 hr 21 min 19 sec) 
Heartbeat CPU 0 instructions: 194000003 cycles: 1227341093 heartbeat IPC: 0.160192 cumulative IPC: 0.15728 (Simulation time: 0 hr 21 min 26 sec) 
Heartbeat CPU 0 instructions: 195000003 cycles: 1233752644 heartbeat IPC: 0.155969 cumulative IPC: 0.157272 (Simulation time: 0 hr 21 min 32 sec) 
Heartbeat CPU 0 instructions: 196000002 cycles: 1239976565 heartbeat IPC: 0.16067 cumulative IPC: 0.15729 (Simulation time: 0 hr 21 min 39 sec) 
Heartbeat CPU 0 instructions: 197000000 cycles: 1246308549 heartbeat IPC: 0.157928 cumulative IPC: 0.157294 (Simulation time: 0 hr 21 min 45 sec) 
Heartbeat CPU 0 instructions: 198000000 cycles: 1252583891 heartbeat IPC: 0.159354 cumulative IPC: 0.157305 (Simulation time: 0 hr 21 min 51 sec) 
Heartbeat CPU 0 instructions: 199000001 cycles: 1258672548 heartbeat IPC: 0.16424 cumulative IPC: 0.15734 (Simulation time: 0 hr 21 min 58 sec) 
Heartbeat CPU 0 instructions: 200000001 cycles: 1264816295 heartbeat IPC: 0.162767 cumulative IPC: 0.157367 (Simulation time: 0 hr 22 min 5 sec) 
Heartbeat CPU 0 instructions: 201000002 cycles: 1270906343 heartbeat IPC: 0.164202 cumulative IPC: 0.157402 (Simulation time: 0 hr 22 min 11 sec) 
Heartbeat CPU 0 instructions: 202000001 cycles: 1277140577 heartbeat IPC: 0.160404 cumulative IPC: 0.157417 (Simulation time: 0 hr 22 min 18 sec) 
Heartbeat CPU 0 instructions: 203000002 cycles: 1283251341 heartbeat IPC: 0.163646 cumulative IPC: 0.157448 (Simulation time: 0 hr 22 min 25 sec) 
Heartbeat CPU 0 instructions: 204000001 cycles: 1289428577 heartbeat IPC: 0.161885 cumulative IPC: 0.15747 (Simulation time: 0 hr 22 min 32 sec) 
Heartbeat CPU 0 instructions: 205000000 cycles: 1295743773 heartbeat IPC: 0.158348 cumulative IPC: 0.157475 (Simulation time: 0 hr 22 min 38 sec) 
Heartbeat CPU 0 instructions: 206000000 cycles: 1302194502 heartbeat IPC: 0.155021 cumulative IPC: 0.157462 (Simulation time: 0 hr 22 min 45 sec) 
Heartbeat CPU 0 instructions: 207000002 cycles: 1308324776 heartbeat IPC: 0.163125 cumulative IPC: 0.15749 (Simulation time: 0 hr 22 min 51 sec) 
Heartbeat CPU 0 instructions: 208000002 cycles: 1314570989 heartbeat IPC: 0.160097 cumulative IPC: 0.157503 (Simulation time: 0 hr 22 min 58 sec) 
Heartbeat CPU 0 instructions: 209000000 cycles: 1320913075 heartbeat IPC: 0.157677 cumulative IPC: 0.157504 (Simulation time: 0 hr 23 min 5 sec) 
Heartbeat CPU 0 instructions: 210000000 cycles: 1327221216 heartbeat IPC: 0.158525 cumulative IPC: 0.157509 (Simulation time: 0 hr 23 min 11 sec) 
Heartbeat CPU 0 instructions: 211000001 cycles: 1333585057 heartbeat IPC: 0.157138 cumulative IPC: 0.157507 (Simulation time: 0 hr 23 min 18 sec) 
Heartbeat CPU 0 instructions: 212000003 cycles: 1339859974 heartbeat IPC: 0.159365 cumulative IPC: 0.157516 (Simulation time: 0 hr 23 min 25 sec) 
Heartbeat CPU 0 instructions: 213000003 cycles: 1346118492 heartbeat IPC: 0.159782 cumulative IPC: 0.157527 (Simulation time: 0 hr 23 min 31 sec) 
Heartbeat CPU 0 instructions: 214000001 cycles: 1352194097 heartbeat IPC: 0.164592 cumulative IPC: 0.15756 (Simulation time: 0 hr 23 min 38 sec) 
Heartbeat CPU 0 instructions: 215000000 cycles: 1358158299 heartbeat IPC: 0.167667 cumulative IPC: 0.157606 (Simulation time: 0 hr 23 min 45 sec) 
Heartbeat CPU 0 instructions: 216000001 cycles: 1364545144 heartbeat IPC: 0.156572 cumulative IPC: 0.157601 (Simulation time: 0 hr 23 min 51 sec) 
Heartbeat CPU 0 instructions: 217000003 cycles: 1370817853 heartbeat IPC: 0.159421 cumulative IPC: 0.15761 (Simulation time: 0 hr 23 min 58 sec) 
Heartbeat CPU 0 instructions: 218000001 cycles: 1377195809 heartbeat IPC: 0.15679 cumulative IPC: 0.157606 (Simulation time: 0 hr 24 min 5 sec) 
Heartbeat CPU 0 instructions: 219000001 cycles: 1383549661 heartbeat IPC: 0.157385 cumulative IPC: 0.157605 (Simulation time: 0 hr 24 min 11 sec) 
Heartbeat CPU 0 instructions: 220000000 cycles: 1389957391 heartbeat IPC: 0.156061 cumulative IPC: 0.157598 (Simulation time: 0 hr 24 min 18 sec) 
Heartbeat CPU 0 instructions: 221000002 cycles: 1396139968 heartbeat IPC: 0.161745 cumulative IPC: 0.157617 (Simulation time: 0 hr 24 min 24 sec) 
Heartbeat CPU 0 instructions: 222000002 cycles: 1402331612 heartbeat IPC: 0.161508 cumulative IPC: 0.157635 (Simulation time: 0 hr 24 min 31 sec) 
Heartbeat CPU 0 instructions: 223000000 cycles: 1408279497 heartbeat IPC: 0.168127 cumulative IPC: 0.157681 (Simulation time: 0 hr 24 min 38 sec) 
Heartbeat CPU 0 instructions: 224000001 cycles: 1414300606 heartbeat IPC: 0.166083 cumulative IPC: 0.157718 (Simulation time: 0 hr 24 min 44 sec) 
Heartbeat CPU 0 instructions: 225000003 cycles: 1420667529 heartbeat IPC: 0.157062 cumulative IPC: 0.157715 (Simulation time: 0 hr 24 min 51 sec) 
Heartbeat CPU 0 instructions: 226000000 cycles: 1427027923 heartbeat IPC: 0.157222 cumulative IPC: 0.157713 (Simulation time: 0 hr 24 min 57 sec) 
Heartbeat CPU 0 instructions: 227000000 cycles: 1433378697 heartbeat IPC: 0.157461 cumulative IPC: 0.157712 (Simulation time: 0 hr 25 min 4 sec) 
Heartbeat CPU 0 instructions: 228000001 cycles: 1439854517 heartbeat IPC: 0.154421 cumulative IPC: 0.157696 (Simulation time: 0 hr 25 min 11 sec) 
Heartbeat CPU 0 instructions: 229000000 cycles: 1446061157 heartbeat IPC: 0.161118 cumulative IPC: 0.157712 (Simulation time: 0 hr 25 min 17 sec) 
Heartbeat CPU 0 instructions: 230000000 cycles: 1452069408 heartbeat IPC: 0.166438 cumulative IPC: 0.157749 (Simulation time: 0 hr 25 min 24 sec) 
Heartbeat CPU 0 instructions: 231000000 cycles: 1458365737 heartbeat IPC: 0.158823 cumulative IPC: 0.157754 (Simulation time: 0 hr 25 min 30 sec) 
Heartbeat CPU 0 instructions: 232000000 cycles: 1464762423 heartbeat IPC: 0.156331 cumulative IPC: 0.157747 (Simulation time: 0 hr 25 min 37 sec) 
Heartbeat CPU 0 instructions: 233000000 cycles: 1471097341 heartbeat IPC: 0.157855 cumulative IPC: 0.157748 (Simulation time: 0 hr 25 min 43 sec) 
Heartbeat CPU 0 instructions: 234000000 cycles: 1477325288 heartbeat IPC: 0.160567 cumulative IPC: 0.15776 (Simulation time: 0 hr 25 min 50 sec) 
Heartbeat CPU 0 instructions: 235000002 cycles: 1483518460 heartbeat IPC: 0.161468 cumulative IPC: 0.157776 (Simulation time: 0 hr 25 min 57 sec) 
Heartbeat CPU 0 instructions: 236000002 cycles: 1489718065 heartbeat IPC: 0.161301 cumulative IPC: 0.157792 (Simulation time: 0 hr 26 min 3 sec) 
Heartbeat CPU 0 instructions: 237000001 cycles: 1495928841 heartbeat IPC: 0.16101 cumulative IPC: 0.157806 (Simulation time: 0 hr 26 min 10 sec) 
Heartbeat CPU 0 instructions: 238000003 cycles: 1502256202 heartbeat IPC: 0.158044 cumulative IPC: 0.157807 (Simulation time: 0 hr 26 min 17 sec) 
Heartbeat CPU 0 instructions: 239000000 cycles: 1508631061 heartbeat IPC: 0.156866 cumulative IPC: 0.157802 (Simulation time: 0 hr 26 min 23 sec) 
Heartbeat CPU 0 instructions: 240000003 cycles: 1514866144 heartbeat IPC: 0.160383 cumulative IPC: 0.157814 (Simulation time: 0 hr 26 min 30 sec) 
Heartbeat CPU 0 instructions: 241000001 cycles: 1521175845 heartbeat IPC: 0.158486 cumulative IPC: 0.157816 (Simulation time: 0 hr 26 min 37 sec) 
Heartbeat CPU 0 instructions: 242000000 cycles: 1527386777 heartbeat IPC: 0.161006 cumulative IPC: 0.15783 (Simulation time: 0 hr 26 min 43 sec) 
Heartbeat CPU 0 instructions: 243000001 cycles: 1533885200 heartbeat IPC: 0.153884 cumulative IPC: 0.157813 (Simulation time: 0 hr 26 min 50 sec) 
Heartbeat CPU 0 instructions: 244000000 cycles: 1540325722 heartbeat IPC: 0.155267 cumulative IPC: 0.157801 (Simulation time: 0 hr 26 min 56 sec) 
Heartbeat CPU 0 instructions: 245000003 cycles: 1546576006 heartbeat IPC: 0.159993 cumulative IPC: 0.157811 (Simulation time: 0 hr 27 min 3 sec) 
Heartbeat CPU 0 instructions: 246000000 cycles: 1552942406 heartbeat IPC: 0.157074 cumulative IPC: 0.157808 (Simulation time: 0 hr 27 min 9 sec) 
Heartbeat CPU 0 instructions: 247000002 cycles: 1559249313 heartbeat IPC: 0.158557 cumulative IPC: 0.157811 (Simulation time: 0 hr 27 min 16 sec) 
Heartbeat CPU 0 instructions: 248000000 cycles: 1565438598 heartbeat IPC: 0.161569 cumulative IPC: 0.157826 (Simulation time: 0 hr 27 min 23 sec) 
Heartbeat CPU 0 instructions: 249000000 cycles: 1571514829 heartbeat IPC: 0.164576 cumulative IPC: 0.157853 (Simulation time: 0 hr 27 min 29 sec) 
Heartbeat CPU 0 instructions: 250000001 cycles: 1577860856 heartbeat IPC: 0.157579 cumulative IPC: 0.157852 (Simulation time: 0 hr 27 min 36 sec) 
Heartbeat CPU 0 instructions: 251000000 cycles: 1584242154 heartbeat IPC: 0.156708 cumulative IPC: 0.157847 (Simulation time: 0 hr 27 min 43 sec) 
Heartbeat CPU 0 instructions: 252000003 cycles: 1590546446 heartbeat IPC: 0.158623 cumulative IPC: 0.15785 (Simulation time: 0 hr 27 min 49 sec) 
Heartbeat CPU 0 instructions: 253000000 cycles: 1596755140 heartbeat IPC: 0.161064 cumulative IPC: 0.157863 (Simulation time: 0 hr 27 min 56 sec) 
Heartbeat CPU 0 instructions: 254000000 cycles: 1602979720 heartbeat IPC: 0.160653 cumulative IPC: 0.157875 (Simulation time: 0 hr 28 min 3 sec) 
Heartbeat CPU 0 instructions: 255000002 cycles: 1609419129 heartbeat IPC: 0.155294 cumulative IPC: 0.157864 (Simulation time: 0 hr 28 min 9 sec) 
Heartbeat CPU 0 instructions: 256000002 cycles: 1615683970 heartbeat IPC: 0.159621 cumulative IPC: 0.157871 (Simulation time: 0 hr 28 min 15 sec) 
Heartbeat CPU 0 instructions: 257000000 cycles: 1621893324 heartbeat IPC: 0.161047 cumulative IPC: 0.157884 (Simulation time: 0 hr 28 min 22 sec) 
Heartbeat CPU 0 instructions: 258000001 cycles: 1627925966 heartbeat IPC: 0.165765 cumulative IPC: 0.157914 (Simulation time: 0 hr 28 min 28 sec) 
Heartbeat CPU 0 instructions: 259000001 cycles: 1633965841 heartbeat IPC: 0.165566 cumulative IPC: 0.157943 (Simulation time: 0 hr 28 min 35 sec) 
Heartbeat CPU 0 instructions: 260000000 cycles: 1640270874 heartbeat IPC: 0.158603 cumulative IPC: 0.157946 (Simulation time: 0 hr 28 min 41 sec) 
Heartbeat CPU 0 instructions: 261000002 cycles: 1646497919 heartbeat IPC: 0.16059 cumulative IPC: 0.157956 (Simulation time: 0 hr 28 min 47 sec) 
Heartbeat CPU 0 instructions: 262000002 cycles: 1653024636 heartbeat IPC: 0.153216 cumulative IPC: 0.157937 (Simulation time: 0 hr 28 min 54 sec) 
Heartbeat CPU 0 instructions: 263000000 cycles: 1659367865 heartbeat IPC: 0.157648 cumulative IPC: 0.157936 (Simulation time: 0 hr 29 min 1 sec) 
Heartbeat CPU 0 instructions: 264000000 cycles: 1665535739 heartbeat IPC: 0.16213 cumulative IPC: 0.157952 (Simulation time: 0 hr 29 min 7 sec) 
Heartbeat CPU 0 instructions: 265000000 cycles: 1671805146 heartbeat IPC: 0.159505 cumulative IPC: 0.157958 (Simulation time: 0 hr 29 min 13 sec) 
Heartbeat CPU 0 instructions: 266000002 cycles: 1678245097 heartbeat IPC: 0.155281 cumulative IPC: 0.157947 (Simulation time: 0 hr 29 min 20 sec) 
Heartbeat CPU 0 instructions: 267000002 cycles: 1684842617 heartbeat IPC: 0.151572 cumulative IPC: 0.157921 (Simulation time: 0 hr 29 min 26 sec) 
Heartbeat CPU 0 instructions: 268000002 cycles: 1691278400 heartbeat IPC: 0.155381 cumulative IPC: 0.157911 (Simulation time: 0 hr 29 min 32 sec) 
Heartbeat CPU 0 instructions: 269000001 cycles: 1697433672 heartbeat IPC: 0.162462 cumulative IPC: 0.157928 (Simulation time: 0 hr 29 min 38 sec) 
Heartbeat CPU 0 instructions: 270000001 cycles: 1703758779 heartbeat IPC: 0.1581 cumulative IPC: 0.157929 (Simulation time: 0 hr 29 min 44 sec) 
Heartbeat CPU 0 instructions: 271000001 cycles: 1709965415 heartbeat IPC: 0.161118 cumulative IPC: 0.157941 (Simulation time: 0 hr 29 min 51 sec) 
Heartbeat CPU 0 instructions: 272000000 cycles: 1716026390 heartbeat IPC: 0.16499 cumulative IPC: 0.157967 (Simulation time: 0 hr 29 min 57 sec) 
Heartbeat CPU 0 instructions: 273000000 cycles: 1722190868 heartbeat IPC: 0.16222 cumulative IPC: 0.157983 (Simulation time: 0 hr 30 min 4 sec) 
Heartbeat CPU 0 instructions: 274000002 cycles: 1728542034 heartbeat IPC: 0.157452 cumulative IPC: 0.157981 (Simulation time: 0 hr 30 min 11 sec) 
Heartbeat CPU 0 instructions: 275000000 cycles: 1735107078 heartbeat IPC: 0.152322 cumulative IPC: 0.157958 (Simulation time: 0 hr 30 min 17 sec) 
Heartbeat CPU 0 instructions: 276000002 cycles: 1741513351 heartbeat IPC: 0.156097 cumulative IPC: 0.157951 (Simulation time: 0 hr 30 min 23 sec) 
Heartbeat CPU 0 instructions: 277000000 cycles: 1747782786 heartbeat IPC: 0.159504 cumulative IPC: 0.157957 (Simulation time: 0 hr 30 min 30 sec) 
Heartbeat CPU 0 instructions: 278000003 cycles: 1753971518 heartbeat IPC: 0.161584 cumulative IPC: 0.15797 (Simulation time: 0 hr 30 min 36 sec) 
Heartbeat CPU 0 instructions: 279000003 cycles: 1760194481 heartbeat IPC: 0.160695 cumulative IPC: 0.15798 (Simulation time: 0 hr 30 min 43 sec) 
Heartbeat CPU 0 instructions: 280000001 cycles: 1766434139 heartbeat IPC: 0.160265 cumulative IPC: 0.157989 (Simulation time: 0 hr 30 min 49 sec) 
Heartbeat CPU 0 instructions: 281000001 cycles: 1772557163 heartbeat IPC: 0.163318 cumulative IPC: 0.158008 (Simulation time: 0 hr 30 min 55 sec) 
Heartbeat CPU 0 instructions: 282000000 cycles: 1778775938 heartbeat IPC: 0.160803 cumulative IPC: 0.158018 (Simulation time: 0 hr 31 min 2 sec) 
Heartbeat CPU 0 instructions: 283000000 cycles: 1785089191 heartbeat IPC: 0.158397 cumulative IPC: 0.158019 (Simulation time: 0 hr 31 min 8 sec) 
Heartbeat CPU 0 instructions: 284000000 cycles: 1791468678 heartbeat IPC: 0.156752 cumulative IPC: 0.158014 (Simulation time: 0 hr 31 min 14 sec) 
Heartbeat CPU 0 instructions: 285000000 cycles: 1797694373 heartbeat IPC: 0.160625 cumulative IPC: 0.158024 (Simulation time: 0 hr 31 min 21 sec) 
Heartbeat CPU 0 instructions: 286000000 cycles: 1803640084 heartbeat IPC: 0.168188 cumulative IPC: 0.158058 (Simulation time: 0 hr 31 min 27 sec) 
Heartbeat CPU 0 instructions: 287000002 cycles: 1809868485 heartbeat IPC: 0.160555 cumulative IPC: 0.158067 (Simulation time: 0 hr 31 min 33 sec) 
Heartbeat CPU 0 instructions: 288000003 cycles: 1816112662 heartbeat IPC: 0.160149 cumulative IPC: 0.158075 (Simulation time: 0 hr 31 min 40 sec) 
Heartbeat CPU 0 instructions: 289000000 cycles: 1822124495 heartbeat IPC: 0.166338 cumulative IPC: 0.158103 (Simulation time: 0 hr 31 min 46 sec) 
Heartbeat CPU 0 instructions: 290000000 cycles: 1828283060 heartbeat IPC: 0.162375 cumulative IPC: 0.158118 (Simulation time: 0 hr 31 min 53 sec) 
Heartbeat CPU 0 instructions: 291000000 cycles: 1834458485 heartbeat IPC: 0.161932 cumulative IPC: 0.158131 (Simulation time: 0 hr 31 min 59 sec) 
Heartbeat CPU 0 instructions: 292000002 cycles: 1840851039 heartbeat IPC: 0.156432 cumulative IPC: 0.158125 (Simulation time: 0 hr 32 min 5 sec) 
Heartbeat CPU 0 instructions: 293000000 cycles: 1846901053 heartbeat IPC: 0.165289 cumulative IPC: 0.158149 (Simulation time: 0 hr 32 min 12 sec) 
Heartbeat CPU 0 instructions: 294000003 cycles: 1853422002 heartbeat IPC: 0.153352 cumulative IPC: 0.158132 (Simulation time: 0 hr 32 min 19 sec) 
Heartbeat CPU 0 instructions: 295000000 cycles: 1859621191 heartbeat IPC: 0.161311 cumulative IPC: 0.158143 (Simulation time: 0 hr 32 min 25 sec) 
Heartbeat CPU 0 instructions: 296000002 cycles: 1865849399 heartbeat IPC: 0.16056 cumulative IPC: 0.158151 (Simulation time: 0 hr 32 min 32 sec) 
Heartbeat CPU 0 instructions: 297000000 cycles: 1871902057 heartbeat IPC: 0.165216 cumulative IPC: 0.158174 (Simulation time: 0 hr 32 min 39 sec) 
Heartbeat CPU 0 instructions: 298000003 cycles: 1878264790 heartbeat IPC: 0.157166 cumulative IPC: 0.158171 (Simulation time: 0 hr 32 min 45 sec) 
Heartbeat CPU 0 instructions: 299000000 cycles: 1884752116 heartbeat IPC: 0.154146 cumulative IPC: 0.158157 (Simulation time: 0 hr 32 min 52 sec) 
Heartbeat CPU 0 instructions: 300000002 cycles: 1891004354 heartbeat IPC: 0.159943 cumulative IPC: 0.158163 (Simulation time: 0 hr 32 min 58 sec) 
Heartbeat CPU 0 instructions: 301000000 cycles: 1897353670 heartbeat IPC: 0.157497 cumulative IPC: 0.15816 (Simulation time: 0 hr 33 min 5 sec) 
Heartbeat CPU 0 instructions: 302000000 cycles: 1903893316 heartbeat IPC: 0.152913 cumulative IPC: 0.158142 (Simulation time: 0 hr 33 min 11 sec) 
Heartbeat CPU 0 instructions: 303000002 cycles: 1910506292 heartbeat IPC: 0.151218 cumulative IPC: 0.158117 (Simulation time: 0 hr 33 min 18 sec) 
Heartbeat CPU 0 instructions: 304000000 cycles: 1916945465 heartbeat IPC: 0.155299 cumulative IPC: 0.158107 (Simulation time: 0 hr 33 min 25 sec) 
Heartbeat CPU 0 instructions: 305000003 cycles: 1923493555 heartbeat IPC: 0.152717 cumulative IPC: 0.158088 (Simulation time: 0 hr 33 min 31 sec) 
Heartbeat CPU 0 instructions: 306000001 cycles: 1929977805 heartbeat IPC: 0.15422 cumulative IPC: 0.158075 (Simulation time: 0 hr 33 min 38 sec) 
Heartbeat CPU 0 instructions: 307000000 cycles: 1936480321 heartbeat IPC: 0.153786 cumulative IPC: 0.15806 (Simulation time: 0 hr 33 min 44 sec) 
Heartbeat CPU 0 instructions: 308000000 cycles: 1942920082 heartbeat IPC: 0.155285 cumulative IPC: 0.158051 (Simulation time: 0 hr 33 min 51 sec) 
Heartbeat CPU 0 instructions: 309000000 cycles: 1949277502 heartbeat IPC: 0.157297 cumulative IPC: 0.158048 (Simulation time: 0 hr 33 min 58 sec) 
Heartbeat CPU 0 instructions: 310000003 cycles: 1955573182 heartbeat IPC: 0.15884 cumulative IPC: 0.158051 (Simulation time: 0 hr 34 min 4 sec) 
Heartbeat CPU 0 instructions: 311000003 cycles: 1961809969 heartbeat IPC: 0.160339 cumulative IPC: 0.158058 (Simulation time: 0 hr 34 min 11 sec) 
Heartbeat CPU 0 instructions: 312000000 cycles: 1968254853 heartbeat IPC: 0.155161 cumulative IPC: 0.158049 (Simulation time: 0 hr 34 min 18 sec) 
Heartbeat CPU 0 instructions: 313000003 cycles: 1974680706 heartbeat IPC: 0.155622 cumulative IPC: 0.15804 (Simulation time: 0 hr 34 min 25 sec) 
Heartbeat CPU 0 instructions: 314000001 cycles: 1981101242 heartbeat IPC: 0.15575 cumulative IPC: 0.158033 (Simulation time: 0 hr 34 min 31 sec) 
Heartbeat CPU 0 instructions: 315000000 cycles: 1987298554 heartbeat IPC: 0.16136 cumulative IPC: 0.158043 (Simulation time: 0 hr 34 min 38 sec) 
Heartbeat CPU 0 instructions: 316000000 cycles: 1993598529 heartbeat IPC: 0.158731 cumulative IPC: 0.158046 (Simulation time: 0 hr 34 min 45 sec) 
Heartbeat CPU 0 instructions: 317000000 cycles: 1999845150 heartbeat IPC: 0.160087 cumulative IPC: 0.158052 (Simulation time: 0 hr 34 min 52 sec) 
Heartbeat CPU 0 instructions: 318000003 cycles: 2006162539 heartbeat IPC: 0.158294 cumulative IPC: 0.158053 (Simulation time: 0 hr 34 min 59 sec) 
Heartbeat CPU 0 instructions: 319000000 cycles: 2012481355 heartbeat IPC: 0.158257 cumulative IPC: 0.158054 (Simulation time: 0 hr 35 min 5 sec) 
Heartbeat CPU 0 instructions: 320000000 cycles: 2019015860 heartbeat IPC: 0.153034 cumulative IPC: 0.158037 (Simulation time: 0 hr 35 min 12 sec) 
Heartbeat CPU 0 instructions: 321000000 cycles: 2025476899 heartbeat IPC: 0.154774 cumulative IPC: 0.158026 (Simulation time: 0 hr 35 min 19 sec) 
Heartbeat CPU 0 instructions: 322000000 cycles: 2031857326 heartbeat IPC: 0.156729 cumulative IPC: 0.158022 (Simulation time: 0 hr 35 min 26 sec) 
Heartbeat CPU 0 instructions: 323000003 cycles: 2038249045 heartbeat IPC: 0.156453 cumulative IPC: 0.158017 (Simulation time: 0 hr 35 min 32 sec) 
Heartbeat CPU 0 instructions: 324000003 cycles: 2044763546 heartbeat IPC: 0.153504 cumulative IPC: 0.158002 (Simulation time: 0 hr 35 min 39 sec) 
Heartbeat CPU 0 instructions: 325000002 cycles: 2051205416 heartbeat IPC: 0.155234 cumulative IPC: 0.157993 (Simulation time: 0 hr 35 min 45 sec) 
Heartbeat CPU 0 instructions: 326000002 cycles: 2057549109 heartbeat IPC: 0.157637 cumulative IPC: 0.157992 (Simulation time: 0 hr 35 min 52 sec) 
Heartbeat CPU 0 instructions: 327000001 cycles: 2063909021 heartbeat IPC: 0.157235 cumulative IPC: 0.15799 (Simulation time: 0 hr 35 min 59 sec) 
Heartbeat CPU 0 instructions: 328000002 cycles: 2070469935 heartbeat IPC: 0.152418 cumulative IPC: 0.157972 (Simulation time: 0 hr 36 min 6 sec) 
Heartbeat CPU 0 instructions: 329000000 cycles: 2076879823 heartbeat IPC: 0.156009 cumulative IPC: 0.157965 (Simulation time: 0 hr 36 min 13 sec) 
Heartbeat CPU 0 instructions: 330000000 cycles: 2083370193 heartbeat IPC: 0.154074 cumulative IPC: 0.157953 (Simulation time: 0 hr 36 min 20 sec) 
Heartbeat CPU 0 instructions: 331000000 cycles: 2089978465 heartbeat IPC: 0.151325 cumulative IPC: 0.157931 (Simulation time: 0 hr 36 min 26 sec) 
Heartbeat CPU 0 instructions: 332000001 cycles: 2096352396 heartbeat IPC: 0.156889 cumulative IPC: 0.157928 (Simulation time: 0 hr 36 min 33 sec) 
Heartbeat CPU 0 instructions: 333000001 cycles: 2102953015 heartbeat IPC: 0.151501 cumulative IPC: 0.157907 (Simulation time: 0 hr 36 min 40 sec) 
Heartbeat CPU 0 instructions: 334000002 cycles: 2109330797 heartbeat IPC: 0.156794 cumulative IPC: 0.157904 (Simulation time: 0 hr 36 min 47 sec) 
Heartbeat CPU 0 instructions: 335000000 cycles: 2115494267 heartbeat IPC: 0.162246 cumulative IPC: 0.157917 (Simulation time: 0 hr 36 min 54 sec) 
Heartbeat CPU 0 instructions: 336000000 cycles: 2121916814 heartbeat IPC: 0.155701 cumulative IPC: 0.15791 (Simulation time: 0 hr 37 min 1 sec) 
Heartbeat CPU 0 instructions: 337000000 cycles: 2128251229 heartbeat IPC: 0.157868 cumulative IPC: 0.15791 (Simulation time: 0 hr 37 min 8 sec) 
Heartbeat CPU 0 instructions: 338000003 cycles: 2134723741 heartbeat IPC: 0.1545 cumulative IPC: 0.157899 (Simulation time: 0 hr 37 min 15 sec) 
Heartbeat CPU 0 instructions: 339000003 cycles: 2141517137 heartbeat IPC: 0.147202 cumulative IPC: 0.157864 (Simulation time: 0 hr 37 min 22 sec) 
Heartbeat CPU 0 instructions: 340000001 cycles: 2148150896 heartbeat IPC: 0.150744 cumulative IPC: 0.157842 (Simulation time: 0 hr 37 min 28 sec) 
Heartbeat CPU 0 instructions: 341000000 cycles: 2154539054 heartbeat IPC: 0.156539 cumulative IPC: 0.157838 (Simulation time: 0 hr 37 min 35 sec) 
Heartbeat CPU 0 instructions: 342000002 cycles: 2160935935 heartbeat IPC: 0.156327 cumulative IPC: 0.157833 (Simulation time: 0 hr 37 min 42 sec) 
Heartbeat CPU 0 instructions: 343000000 cycles: 2167462821 heartbeat IPC: 0.153212 cumulative IPC: 0.157819 (Simulation time: 0 hr 37 min 48 sec) 
Heartbeat CPU 0 instructions: 344000001 cycles: 2174110109 heartbeat IPC: 0.150437 cumulative IPC: 0.157796 (Simulation time: 0 hr 37 min 55 sec) 
Heartbeat CPU 0 instructions: 345000000 cycles: 2180546322 heartbeat IPC: 0.155371 cumulative IPC: 0.157788 (Simulation time: 0 hr 38 min 2 sec) 
Heartbeat CPU 0 instructions: 346000000 cycles: 2186907384 heartbeat IPC: 0.157206 cumulative IPC: 0.157787 (Simulation time: 0 hr 38 min 9 sec) 
Heartbeat CPU 0 instructions: 347000000 cycles: 2193219171 heartbeat IPC: 0.158434 cumulative IPC: 0.157789 (Simulation time: 0 hr 38 min 16 sec) 
Heartbeat CPU 0 instructions: 348000000 cycles: 2199563939 heartbeat IPC: 0.15761 cumulative IPC: 0.157788 (Simulation time: 0 hr 38 min 23 sec) 
Heartbeat CPU 0 instructions: 349000003 cycles: 2205931585 heartbeat IPC: 0.157044 cumulative IPC: 0.157786 (Simulation time: 0 hr 38 min 30 sec) 
Heartbeat CPU 0 instructions: 350000003 cycles: 2212539182 heartbeat IPC: 0.151341 cumulative IPC: 0.157766 (Simulation time: 0 hr 38 min 37 sec) 
Heartbeat CPU 0 instructions: 351000001 cycles: 2219043419 heartbeat IPC: 0.153746 cumulative IPC: 0.157754 (Simulation time: 0 hr 38 min 44 sec) 
Heartbeat CPU 0 instructions: 352000000 cycles: 2225427503 heartbeat IPC: 0.156639 cumulative IPC: 0.157751 (Simulation time: 0 hr 38 min 51 sec) 
Heartbeat CPU 0 instructions: 353000000 cycles: 2232162858 heartbeat IPC: 0.14847 cumulative IPC: 0.157722 (Simulation time: 0 hr 38 min 58 sec) 
Heartbeat CPU 0 instructions: 354000003 cycles: 2238727572 heartbeat IPC: 0.15233 cumulative IPC: 0.157706 (Simulation time: 0 hr 39 min 7 sec) 
Heartbeat CPU 0 instructions: 355000003 cycles: 2245177351 heartbeat IPC: 0.155044 cumulative IPC: 0.157698 (Simulation time: 0 hr 39 min 16 sec) 
Heartbeat CPU 0 instructions: 356000003 cycles: 2251733231 heartbeat IPC: 0.152535 cumulative IPC: 0.157682 (Simulation time: 0 hr 39 min 23 sec) 
Heartbeat CPU 0 instructions: 357000000 cycles: 2258233614 heartbeat IPC: 0.153837 cumulative IPC: 0.157671 (Simulation time: 0 hr 39 min 31 sec) 
Heartbeat CPU 0 instructions: 358000003 cycles: 2264766839 heartbeat IPC: 0.153064 cumulative IPC: 0.157657 (Simulation time: 0 hr 39 min 38 sec) 
Heartbeat CPU 0 instructions: 359000001 cycles: 2271148458 heartbeat IPC: 0.1567 cumulative IPC: 0.157655 (Simulation time: 0 hr 39 min 45 sec) 
Heartbeat CPU 0 instructions: 360000001 cycles: 2277564687 heartbeat IPC: 0.155855 cumulative IPC: 0.15765 (Simulation time: 0 hr 39 min 51 sec) 
Heartbeat CPU 0 instructions: 361000002 cycles: 2284019898 heartbeat IPC: 0.154914 cumulative IPC: 0.157642 (Simulation time: 0 hr 39 min 58 sec) 
Heartbeat CPU 0 instructions: 362000000 cycles: 2290527994 heartbeat IPC: 0.153654 cumulative IPC: 0.15763 (Simulation time: 0 hr 40 min 5 sec) 
Heartbeat CPU 0 instructions: 363000000 cycles: 2296915191 heartbeat IPC: 0.156563 cumulative IPC: 0.157627 (Simulation time: 0 hr 40 min 13 sec) 
Heartbeat CPU 0 instructions: 364000002 cycles: 2303671858 heartbeat IPC: 0.148002 cumulative IPC: 0.157598 (Simulation time: 0 hr 40 min 20 sec) 
Heartbeat CPU 0 instructions: 365000000 cycles: 2310212203 heartbeat IPC: 0.152897 cumulative IPC: 0.157584 (Simulation time: 0 hr 40 min 27 sec) 
Heartbeat CPU 0 instructions: 366000003 cycles: 2317015136 heartbeat IPC: 0.146996 cumulative IPC: 0.157552 (Simulation time: 0 hr 40 min 34 sec) 
Heartbeat CPU 0 instructions: 367000000 cycles: 2323457749 heartbeat IPC: 0.155216 cumulative IPC: 0.157546 (Simulation time: 0 hr 40 min 41 sec) 
Heartbeat CPU 0 instructions: 368000000 cycles: 2330197223 heartbeat IPC: 0.14838 cumulative IPC: 0.157519 (Simulation time: 0 hr 40 min 47 sec) 
Heartbeat CPU 0 instructions: 369000003 cycles: 2336712834 heartbeat IPC: 0.153478 cumulative IPC: 0.157507 (Simulation time: 0 hr 40 min 54 sec) 
Heartbeat CPU 0 instructions: 370000001 cycles: 2343258148 heartbeat IPC: 0.152781 cumulative IPC: 0.157494 (Simulation time: 0 hr 41 min 1 sec) 
Heartbeat CPU 0 instructions: 371000000 cycles: 2349803879 heartbeat IPC: 0.152771 cumulative IPC: 0.15748 (Simulation time: 0 hr 41 min 7 sec) 
Heartbeat CPU 0 instructions: 372000000 cycles: 2356178432 heartbeat IPC: 0.156874 cumulative IPC: 0.157478 (Simulation time: 0 hr 41 min 14 sec) 
Heartbeat CPU 0 instructions: 373000002 cycles: 2362619774 heartbeat IPC: 0.155247 cumulative IPC: 0.157472 (Simulation time: 0 hr 41 min 21 sec) 
Heartbeat CPU 0 instructions: 374000000 cycles: 2369130369 heartbeat IPC: 0.153595 cumulative IPC: 0.157461 (Simulation time: 0 hr 41 min 28 sec) 
Heartbeat CPU 0 instructions: 375000002 cycles: 2375643613 heartbeat IPC: 0.153534 cumulative IPC: 0.15745 (Simulation time: 0 hr 41 min 35 sec) 
Heartbeat CPU 0 instructions: 376000003 cycles: 2382512314 heartbeat IPC: 0.145588 cumulative IPC: 0.157415 (Simulation time: 0 hr 41 min 42 sec) 
Heartbeat CPU 0 instructions: 377000003 cycles: 2388992498 heartbeat IPC: 0.154317 cumulative IPC: 0.157407 (Simulation time: 0 hr 41 min 49 sec) 
Heartbeat CPU 0 instructions: 378000003 cycles: 2395776298 heartbeat IPC: 0.14741 cumulative IPC: 0.157378 (Simulation time: 0 hr 41 min 56 sec) 
Heartbeat CPU 0 instructions: 379000001 cycles: 2402230530 heartbeat IPC: 0.154937 cumulative IPC: 0.157371 (Simulation time: 0 hr 42 min 3 sec) 
Heartbeat CPU 0 instructions: 380000000 cycles: 2408821059 heartbeat IPC: 0.151733 cumulative IPC: 0.157355 (Simulation time: 0 hr 42 min 10 sec) 
Heartbeat CPU 0 instructions: 381000002 cycles: 2415334105 heartbeat IPC: 0.153538 cumulative IPC: 0.157344 (Simulation time: 0 hr 42 min 16 sec) 
Heartbeat CPU 0 instructions: 382000001 cycles: 2421881123 heartbeat IPC: 0.152741 cumulative IPC: 0.157332 (Simulation time: 0 hr 42 min 23 sec) 
Heartbeat CPU 0 instructions: 383000001 cycles: 2428509453 heartbeat IPC: 0.150868 cumulative IPC: 0.157314 (Simulation time: 0 hr 42 min 29 sec) 
Heartbeat CPU 0 instructions: 384000000 cycles: 2434991271 heartbeat IPC: 0.154278 cumulative IPC: 0.157305 (Simulation time: 0 hr 42 min 36 sec) 
Heartbeat CPU 0 instructions: 385000000 cycles: 2441539479 heartbeat IPC: 0.152714 cumulative IPC: 0.157293 (Simulation time: 0 hr 42 min 43 sec) 
Heartbeat CPU 0 instructions: 386000000 cycles: 2448021434 heartbeat IPC: 0.154274 cumulative IPC: 0.157285 (Simulation time: 0 hr 42 min 50 sec) 
Heartbeat CPU 0 instructions: 387000002 cycles: 2454386008 heartbeat IPC: 0.15712 cumulative IPC: 0.157284 (Simulation time: 0 hr 42 min 57 sec) 
Heartbeat CPU 0 instructions: 388000000 cycles: 2460764902 heartbeat IPC: 0.156767 cumulative IPC: 0.157283 (Simulation time: 0 hr 43 min 4 sec) 
Heartbeat CPU 0 instructions: 389000001 cycles: 2467268609 heartbeat IPC: 0.153759 cumulative IPC: 0.157273 (Simulation time: 0 hr 43 min 11 sec) 
Heartbeat CPU 0 instructions: 390000003 cycles: 2473896981 heartbeat IPC: 0.150867 cumulative IPC: 0.157256 (Simulation time: 0 hr 43 min 17 sec) 
Heartbeat CPU 0 instructions: 391000000 cycles: 2480757927 heartbeat IPC: 0.145752 cumulative IPC: 0.157223 (Simulation time: 0 hr 43 min 24 sec) 
Heartbeat CPU 0 instructions: 392000001 cycles: 2487217110 heartbeat IPC: 0.154818 cumulative IPC: 0.157217 (Simulation time: 0 hr 43 min 31 sec) 
Heartbeat CPU 0 instructions: 393000002 cycles: 2493588402 heartbeat IPC: 0.156954 cumulative IPC: 0.157216 (Simulation time: 0 hr 43 min 37 sec) 
Heartbeat CPU 0 instructions: 394000003 cycles: 2499801757 heartbeat IPC: 0.160944 cumulative IPC: 0.157226 (Simulation time: 0 hr 43 min 44 sec) 
Heartbeat CPU 0 instructions: 395000001 cycles: 2506164041 heartbeat IPC: 0.157176 cumulative IPC: 0.157225 (Simulation time: 0 hr 43 min 50 sec) 
Heartbeat CPU 0 instructions: 396000000 cycles: 2512396161 heartbeat IPC: 0.160459 cumulative IPC: 0.157234 (Simulation time: 0 hr 43 min 57 sec) 
Heartbeat CPU 0 instructions: 397000000 cycles: 2519012440 heartbeat IPC: 0.151142 cumulative IPC: 0.157217 (Simulation time: 0 hr 44 min 3 sec) 
Heartbeat CPU 0 instructions: 398000000 cycles: 2525355511 heartbeat IPC: 0.157652 cumulative IPC: 0.157218 (Simulation time: 0 hr 44 min 10 sec) 
Heartbeat CPU 0 instructions: 399000000 cycles: 2531715306 heartbeat IPC: 0.157238 cumulative IPC: 0.157218 (Simulation time: 0 hr 44 min 17 sec) 
Heartbeat CPU 0 instructions: 400000000 cycles: 2537882127 heartbeat IPC: 0.162158 cumulative IPC: 0.157231 (Simulation time: 0 hr 44 min 24 sec) 
Heartbeat CPU 0 instructions: 401000003 cycles: 2544073525 heartbeat IPC: 0.161515 cumulative IPC: 0.157241 (Simulation time: 0 hr 44 min 31 sec) 
Heartbeat CPU 0 instructions: 402000000 cycles: 2550617338 heartbeat IPC: 0.152816 cumulative IPC: 0.15723 (Simulation time: 0 hr 44 min 38 sec) 
Heartbeat CPU 0 instructions: 403000001 cycles: 2556846428 heartbeat IPC: 0.160537 cumulative IPC: 0.157238 (Simulation time: 0 hr 44 min 45 sec) 
Heartbeat CPU 0 instructions: 404000000 cycles: 2563176617 heartbeat IPC: 0.157973 cumulative IPC: 0.15724 (Simulation time: 0 hr 44 min 52 sec) 
Heartbeat CPU 0 instructions: 405000000 cycles: 2569819780 heartbeat IPC: 0.150531 cumulative IPC: 0.157222 (Simulation time: 0 hr 44 min 59 sec) 
Heartbeat CPU 0 instructions: 406000001 cycles: 2575997628 heartbeat IPC: 0.161869 cumulative IPC: 0.157233 (Simulation time: 0 hr 45 min 6 sec) 
Heartbeat CPU 0 instructions: 407000000 cycles: 2582368125 heartbeat IPC: 0.156973 cumulative IPC: 0.157233 (Simulation time: 0 hr 45 min 12 sec) 
Heartbeat CPU 0 instructions: 408000000 cycles: 2588875711 heartbeat IPC: 0.153667 cumulative IPC: 0.157224 (Simulation time: 0 hr 45 min 19 sec) 
Heartbeat CPU 0 instructions: 409000000 cycles: 2595320148 heartbeat IPC: 0.155173 cumulative IPC: 0.157218 (Simulation time: 0 hr 45 min 26 sec) 
Heartbeat CPU 0 instructions: 410000000 cycles: 2601846827 heartbeat IPC: 0.153217 cumulative IPC: 0.157208 (Simulation time: 0 hr 45 min 32 sec) 
Heartbeat CPU 0 instructions: 411000000 cycles: 2608057800 heartbeat IPC: 0.161005 cumulative IPC: 0.157217 (Simulation time: 0 hr 45 min 39 sec) 
Heartbeat CPU 0 instructions: 412000000 cycles: 2614448074 heartbeat IPC: 0.156488 cumulative IPC: 0.157216 (Simulation time: 0 hr 45 min 46 sec) 
Heartbeat CPU 0 instructions: 413000003 cycles: 2620722441 heartbeat IPC: 0.159379 cumulative IPC: 0.157221 (Simulation time: 0 hr 45 min 53 sec) 
Heartbeat CPU 0 instructions: 414000002 cycles: 2627059418 heartbeat IPC: 0.157804 cumulative IPC: 0.157222 (Simulation time: 0 hr 45 min 59 sec) 
Heartbeat CPU 0 instructions: 415000000 cycles: 2633544230 heartbeat IPC: 0.154206 cumulative IPC: 0.157215 (Simulation time: 0 hr 46 min 6 sec) 
Heartbeat CPU 0 instructions: 416000000 cycles: 2639848365 heartbeat IPC: 0.158626 cumulative IPC: 0.157218 (Simulation time: 0 hr 46 min 13 sec) 
Heartbeat CPU 0 instructions: 417000002 cycles: 2646239997 heartbeat IPC: 0.156455 cumulative IPC: 0.157216 (Simulation time: 0 hr 46 min 19 sec) 
Heartbeat CPU 0 instructions: 418000000 cycles: 2652733729 heartbeat IPC: 0.153994 cumulative IPC: 0.157208 (Simulation time: 0 hr 46 min 26 sec) 
Heartbeat CPU 0 instructions: 419000000 cycles: 2658872059 heartbeat IPC: 0.162911 cumulative IPC: 0.157222 (Simulation time: 0 hr 46 min 32 sec) 
Heartbeat CPU 0 instructions: 420000000 cycles: 2665017645 heartbeat IPC: 0.162718 cumulative IPC: 0.157235 (Simulation time: 0 hr 46 min 39 sec) 
Heartbeat CPU 0 instructions: 421000003 cycles: 2671290197 heartbeat IPC: 0.159425 cumulative IPC: 0.15724 (Simulation time: 0 hr 46 min 46 sec) 
Heartbeat CPU 0 instructions: 422000003 cycles: 2677779399 heartbeat IPC: 0.154102 cumulative IPC: 0.157232 (Simulation time: 0 hr 46 min 52 sec) 
Heartbeat CPU 0 instructions: 423000000 cycles: 2683799507 heartbeat IPC: 0.166109 cumulative IPC: 0.157252 (Simulation time: 0 hr 46 min 59 sec) 
Heartbeat CPU 0 instructions: 424000001 cycles: 2689952750 heartbeat IPC: 0.162516 cumulative IPC: 0.157265 (Simulation time: 0 hr 47 min 6 sec) 
Heartbeat CPU 0 instructions: 425000001 cycles: 2696257625 heartbeat IPC: 0.158607 cumulative IPC: 0.157268 (Simulation time: 0 hr 47 min 12 sec) 
Heartbeat CPU 0 instructions: 426000002 cycles: 2702473615 heartbeat IPC: 0.160876 cumulative IPC: 0.157276 (Simulation time: 0 hr 47 min 19 sec) 
Heartbeat CPU 0 instructions: 427000001 cycles: 2708734682 heartbeat IPC: 0.159717 cumulative IPC: 0.157282 (Simulation time: 0 hr 47 min 26 sec) 
Heartbeat CPU 0 instructions: 428000002 cycles: 2715161409 heartbeat IPC: 0.1556 cumulative IPC: 0.157278 (Simulation time: 0 hr 47 min 32 sec) 
Heartbeat CPU 0 instructions: 429000000 cycles: 2721369733 heartbeat IPC: 0.161074 cumulative IPC: 0.157287 (Simulation time: 0 hr 47 min 39 sec) 
Heartbeat CPU 0 instructions: 430000002 cycles: 2727864544 heartbeat IPC: 0.153969 cumulative IPC: 0.157279 (Simulation time: 0 hr 47 min 46 sec) 
Heartbeat CPU 0 instructions: 431000003 cycles: 2734138964 heartbeat IPC: 0.159377 cumulative IPC: 0.157284 (Simulation time: 0 hr 47 min 52 sec) 
Heartbeat CPU 0 instructions: 432000000 cycles: 2740301285 heartbeat IPC: 0.162276 cumulative IPC: 0.157295 (Simulation time: 0 hr 47 min 59 sec) 
Heartbeat CPU 0 instructions: 433000003 cycles: 2746807780 heartbeat IPC: 0.153693 cumulative IPC: 0.157287 (Simulation time: 0 hr 48 min 6 sec) 
Heartbeat CPU 0 instructions: 434000002 cycles: 2752987441 heartbeat IPC: 0.161821 cumulative IPC: 0.157297 (Simulation time: 0 hr 48 min 13 sec) 
Heartbeat CPU 0 instructions: 435000000 cycles: 2759103490 heartbeat IPC: 0.163504 cumulative IPC: 0.157311 (Simulation time: 0 hr 48 min 20 sec) 
Heartbeat CPU 0 instructions: 436000003 cycles: 2765142734 heartbeat IPC: 0.165584 cumulative IPC: 0.15733 (Simulation time: 0 hr 48 min 26 sec) 
Heartbeat CPU 0 instructions: 437000003 cycles: 2771501860 heartbeat IPC: 0.157254 cumulative IPC: 0.157329 (Simulation time: 0 hr 48 min 33 sec) 
Heartbeat CPU 0 instructions: 438000002 cycles: 2777521334 heartbeat IPC: 0.166127 cumulative IPC: 0.157349 (Simulation time: 0 hr 48 min 40 sec) 
Heartbeat CPU 0 instructions: 439000002 cycles: 2783775143 heartbeat IPC: 0.159903 cumulative IPC: 0.157355 (Simulation time: 0 hr 48 min 47 sec) 
Heartbeat CPU 0 instructions: 440000000 cycles: 2790094086 heartbeat IPC: 0.158254 cumulative IPC: 0.157357 (Simulation time: 0 hr 48 min 54 sec) 
Heartbeat CPU 0 instructions: 441000002 cycles: 2796404246 heartbeat IPC: 0.158475 cumulative IPC: 0.157359 (Simulation time: 0 hr 49 min 1 sec) 
Heartbeat CPU 0 instructions: 442000001 cycles: 2802575283 heartbeat IPC: 0.162047 cumulative IPC: 0.15737 (Simulation time: 0 hr 49 min 8 sec) 
Heartbeat CPU 0 instructions: 443000000 cycles: 2808824307 heartbeat IPC: 0.160025 cumulative IPC: 0.157376 (Simulation time: 0 hr 49 min 15 sec) 
Heartbeat CPU 0 instructions: 444000002 cycles: 2818185067 heartbeat IPC: 0.106829 cumulative IPC: 0.157205 (Simulation time: 0 hr 49 min 22 sec) 
Heartbeat CPU 0 instructions: 445000000 cycles: 2829056790 heartbeat IPC: 0.0919816 cumulative IPC: 0.156949 (Simulation time: 0 hr 49 min 28 sec) 
Heartbeat CPU 0 instructions: 446000001 cycles: 2836946851 heartbeat IPC: 0.126742 cumulative IPC: 0.156863 (Simulation time: 0 hr 49 min 34 sec) 
Heartbeat CPU 0 instructions: 447000001 cycles: 2846481385 heartbeat IPC: 0.104882 cumulative IPC: 0.156685 (Simulation time: 0 hr 49 min 40 sec) 
Heartbeat CPU 0 instructions: 448000001 cycles: 2853146663 heartbeat IPC: 0.150031 cumulative IPC: 0.156669 (Simulation time: 0 hr 49 min 47 sec) 
Heartbeat CPU 0 instructions: 449000002 cycles: 2858875612 heartbeat IPC: 0.174552 cumulative IPC: 0.156706 (Simulation time: 0 hr 49 min 53 sec) 
Heartbeat CPU 0 instructions: 450000000 cycles: 2864605889 heartbeat IPC: 0.174511 cumulative IPC: 0.156742 (Simulation time: 0 hr 49 min 59 sec) 
Heartbeat CPU 0 instructions: 451000000 cycles: 2870406749 heartbeat IPC: 0.172388 cumulative IPC: 0.156775 (Simulation time: 0 hr 50 min 5 sec) 
Heartbeat CPU 0 instructions: 452000001 cycles: 2876207475 heartbeat IPC: 0.172392 cumulative IPC: 0.156807 (Simulation time: 0 hr 50 min 12 sec) 
Heartbeat CPU 0 instructions: 453000000 cycles: 2882000735 heartbeat IPC: 0.172614 cumulative IPC: 0.156839 (Simulation time: 0 hr 50 min 18 sec) 
Heartbeat CPU 0 instructions: 454000001 cycles: 2887788988 heartbeat IPC: 0.172764 cumulative IPC: 0.156872 (Simulation time: 0 hr 50 min 24 sec) 
Heartbeat CPU 0 instructions: 455000003 cycles: 2893601939 heartbeat IPC: 0.17203 cumulative IPC: 0.156903 (Simulation time: 0 hr 50 min 31 sec) 
Heartbeat CPU 0 instructions: 456000002 cycles: 2899384584 heartbeat IPC: 0.172931 cumulative IPC: 0.156935 (Simulation time: 0 hr 50 min 37 sec) 
Heartbeat CPU 0 instructions: 457000003 cycles: 2905200706 heartbeat IPC: 0.171936 cumulative IPC: 0.156966 (Simulation time: 0 hr 50 min 43 sec) 
Heartbeat CPU 0 instructions: 458000000 cycles: 2911010255 heartbeat IPC: 0.17213 cumulative IPC: 0.156997 (Simulation time: 0 hr 50 min 50 sec) 
Heartbeat CPU 0 instructions: 459000001 cycles: 2916854050 heartbeat IPC: 0.171122 cumulative IPC: 0.157026 (Simulation time: 0 hr 50 min 56 sec) 
Heartbeat CPU 0 instructions: 460000003 cycles: 2919072144 heartbeat IPC: 0.450838 cumulative IPC: 0.157253 (Simulation time: 0 hr 51 min 0 sec) 
Heartbeat CPU 0 instructions: 461000003 cycles: 2921733251 heartbeat IPC: 0.375783 cumulative IPC: 0.157456 (Simulation time: 0 hr 51 min 5 sec) 
Heartbeat CPU 0 instructions: 462000000 cycles: 2923754165 heartbeat IPC: 0.494824 cumulative IPC: 0.157694 (Simulation time: 0 hr 51 min 9 sec) 
Heartbeat CPU 0 instructions: 463000003 cycles: 2925688099 heartbeat IPC: 0.517082 cumulative IPC: 0.157937 (Simulation time: 0 hr 51 min 14 sec) 
Heartbeat CPU 0 instructions: 464000000 cycles: 2927840442 heartbeat IPC: 0.464609 cumulative IPC: 0.158167 (Simulation time: 0 hr 51 min 18 sec) 
Heartbeat CPU 0 instructions: 465000002 cycles: 2929839704 heartbeat IPC: 0.500186 cumulative IPC: 0.158405 (Simulation time: 0 hr 51 min 22 sec) 
Heartbeat CPU 0 instructions: 466000003 cycles: 2931801383 heartbeat IPC: 0.509768 cumulative IPC: 0.158644 (Simulation time: 0 hr 51 min 27 sec) 
Heartbeat CPU 0 instructions: 467000002 cycles: 2933751434 heartbeat IPC: 0.512807 cumulative IPC: 0.158885 (Simulation time: 0 hr 51 min 31 sec) 
Heartbeat CPU 0 instructions: 468000003 cycles: 2935929908 heartbeat IPC: 0.459037 cumulative IPC: 0.159112 (Simulation time: 0 hr 51 min 36 sec) 
Heartbeat CPU 0 instructions: 469000001 cycles: 2937869864 heartbeat IPC: 0.515475 cumulative IPC: 0.159352 (Simulation time: 0 hr 51 min 40 sec) 
Heartbeat CPU 0 instructions: 470000003 cycles: 2939816758 heartbeat IPC: 0.51364 cumulative IPC: 0.159591 (Simulation time: 0 hr 51 min 44 sec) 
Heartbeat CPU 0 instructions: 471000002 cycles: 2941866144 heartbeat IPC: 0.487951 cumulative IPC: 0.159824 (Simulation time: 0 hr 51 min 49 sec) 
Heartbeat CPU 0 instructions: 472000000 cycles: 2944026680 heartbeat IPC: 0.462847 cumulative IPC: 0.160051 (Simulation time: 0 hr 51 min 53 sec) 
Heartbeat CPU 0 instructions: 473000000 cycles: 2945991742 heartbeat IPC: 0.50889 cumulative IPC: 0.160288 (Simulation time: 0 hr 51 min 58 sec) 
Heartbeat CPU 0 instructions: 474000002 cycles: 2947921686 heartbeat IPC: 0.518151 cumulative IPC: 0.160527 (Simulation time: 0 hr 52 min 2 sec) 
Heartbeat CPU 0 instructions: 475000001 cycles: 2950034773 heartbeat IPC: 0.473241 cumulative IPC: 0.160756 (Simulation time: 0 hr 52 min 7 sec) 
Heartbeat CPU 0 instructions: 476000000 cycles: 2952084315 heartbeat IPC: 0.487913 cumulative IPC: 0.160988 (Simulation time: 0 hr 52 min 11 sec) 
Heartbeat CPU 0 instructions: 477000003 cycles: 2954018392 heartbeat IPC: 0.517044 cumulative IPC: 0.161225 (Simulation time: 0 hr 52 min 16 sec) 
Heartbeat CPU 0 instructions: 478000003 cycles: 2955914030 heartbeat IPC: 0.527527 cumulative IPC: 0.161465 (Simulation time: 0 hr 52 min 20 sec) 
Heartbeat CPU 0 instructions: 479000001 cycles: 2957820732 heartbeat IPC: 0.524465 cumulative IPC: 0.161703 (Simulation time: 0 hr 52 min 24 sec) 
Heartbeat CPU 0 instructions: 480000001 cycles: 2959826195 heartbeat IPC: 0.498638 cumulative IPC: 0.161936 (Simulation time: 0 hr 52 min 28 sec) 
Heartbeat CPU 0 instructions: 481000002 cycles: 2962005567 heartbeat IPC: 0.458848 cumulative IPC: 0.162159 (Simulation time: 0 hr 52 min 33 sec) 
Heartbeat CPU 0 instructions: 482000002 cycles: 2963906231 heartbeat IPC: 0.526132 cumulative IPC: 0.162397 (Simulation time: 0 hr 52 min 37 sec) 
Heartbeat CPU 0 instructions: 483000002 cycles: 2965081967 heartbeat IPC: 0.850531 cumulative IPC: 0.162675 (Simulation time: 0 hr 52 min 40 sec) 
Heartbeat CPU 0 instructions: 484000000 cycles: 2965903482 heartbeat IPC: 1.21726 cumulative IPC: 0.162973 (Simulation time: 0 hr 52 min 43 sec) 
Heartbeat CPU 0 instructions: 485000000 cycles: 2967626617 heartbeat IPC: 0.580338 cumulative IPC: 0.16322 (Simulation time: 0 hr 52 min 47 sec) 
Heartbeat CPU 0 instructions: 486000003 cycles: 2968969564 heartbeat IPC: 0.744633 cumulative IPC: 0.163489 (Simulation time: 0 hr 52 min 50 sec) 
Heartbeat CPU 0 instructions: 487000001 cycles: 2970211970 heartbeat IPC: 0.804888 cumulative IPC: 0.163762 (Simulation time: 0 hr 52 min 54 sec) 
Heartbeat CPU 0 instructions: 488000001 cycles: 2970970830 heartbeat IPC: 1.31777 cumulative IPC: 0.164063 (Simulation time: 0 hr 52 min 56 sec) 
Heartbeat CPU 0 instructions: 489000000 cycles: 2972708462 heartbeat IPC: 0.575495 cumulative IPC: 0.164308 (Simulation time: 0 hr 53 min 0 sec) 
Heartbeat CPU 0 instructions: 490000000 cycles: 2974041943 heartbeat IPC: 0.749917 cumulative IPC: 0.164576 (Simulation time: 0 hr 53 min 4 sec) 
Heartbeat CPU 0 instructions: 491000000 cycles: 2975236197 heartbeat IPC: 0.837343 cumulative IPC: 0.164851 (Simulation time: 0 hr 53 min 7 sec) 
Heartbeat CPU 0 instructions: 492000000 cycles: 2976464517 heartbeat IPC: 0.81412 cumulative IPC: 0.165124 (Simulation time: 0 hr 53 min 10 sec) 
Heartbeat CPU 0 instructions: 493000001 cycles: 2977691051 heartbeat IPC: 0.815306 cumulative IPC: 0.165397 (Simulation time: 0 hr 53 min 14 sec) 
Heartbeat CPU 0 instructions: 494000000 cycles: 2978976208 heartbeat IPC: 0.778114 cumulative IPC: 0.165667 (Simulation time: 0 hr 53 min 17 sec) 
Heartbeat CPU 0 instructions: 495000000 cycles: 2980216269 heartbeat IPC: 0.806412 cumulative IPC: 0.165939 (Simulation time: 0 hr 53 min 20 sec) 
Heartbeat CPU 0 instructions: 496000001 cycles: 2981478197 heartbeat IPC: 0.792439 cumulative IPC: 0.166209 (Simulation time: 0 hr 53 min 24 sec) 
Heartbeat CPU 0 instructions: 497000002 cycles: 2982730762 heartbeat IPC: 0.798363 cumulative IPC: 0.16648 (Simulation time: 0 hr 53 min 27 sec) 
Heartbeat CPU 0 instructions: 498000003 cycles: 2983829816 heartbeat IPC: 0.909874 cumulative IPC: 0.166759 (Simulation time: 0 hr 53 min 30 sec) 
Heartbeat CPU 0 instructions: 499000000 cycles: 2985293960 heartbeat IPC: 0.682991 cumulative IPC: 0.167017 (Simulation time: 0 hr 53 min 34 sec) 
Heartbeat CPU 0 instructions: 500000003 cycles: 2986693141 heartbeat IPC: 0.714706 cumulative IPC: 0.167279 (Simulation time: 0 hr 53 min 37 sec) 
Heartbeat CPU 0 instructions: 501000003 cycles: 2988553277 heartbeat IPC: 0.537595 cumulative IPC: 0.167514 (Simulation time: 0 hr 53 min 41 sec) 
Heartbeat CPU 0 instructions: 502000001 cycles: 2989769263 heartbeat IPC: 0.822376 cumulative IPC: 0.167785 (Simulation time: 0 hr 53 min 44 sec) 
Heartbeat CPU 0 instructions: 503000002 cycles: 2991031755 heartbeat IPC: 0.792085 cumulative IPC: 0.168054 (Simulation time: 0 hr 53 min 48 sec) 
Heartbeat CPU 0 instructions: 504000001 cycles: 2992823851 heartbeat IPC: 0.558005 cumulative IPC: 0.168292 (Simulation time: 0 hr 53 min 51 sec) 
Heartbeat CPU 0 instructions: 505000000 cycles: 2994729801 heartbeat IPC: 0.524672 cumulative IPC: 0.168523 (Simulation time: 0 hr 53 min 55 sec) 
Heartbeat CPU 0 instructions: 506000000 cycles: 2996122678 heartbeat IPC: 0.717938 cumulative IPC: 0.168784 (Simulation time: 0 hr 53 min 59 sec) 
Heartbeat CPU 0 instructions: 507000000 cycles: 2997633813 heartbeat IPC: 0.661754 cumulative IPC: 0.169037 (Simulation time: 0 hr 54 min 3 sec) 
Heartbeat CPU 0 instructions: 508000001 cycles: 2999200958 heartbeat IPC: 0.638104 cumulative IPC: 0.169287 (Simulation time: 0 hr 54 min 6 sec) 
Heartbeat CPU 0 instructions: 509000002 cycles: 3000505660 heartbeat IPC: 0.766459 cumulative IPC: 0.169552 (Simulation time: 0 hr 54 min 9 sec) 
Heartbeat CPU 0 instructions: 510000001 cycles: 3001800349 heartbeat IPC: 0.772385 cumulative IPC: 0.169817 (Simulation time: 0 hr 54 min 13 sec) 
Finished CPU 0 instructions: 500000002 cycles: 2944350419 cumulative IPC: 0.169817 (Simulation time: 0 hr 54 min 13 sec) 

ChampSim completed all CPUs

Region of Interest Statistics

CPU 0 cumulative IPC: 0.169817 instructions: 500000002 cycles: 2944350419
L1D TOTAL     ACCESS:  240428011  HIT:  198403273  MISS:   42024738
L1D LOAD      ACCESS:  148620085  HIT:  126322665  MISS:   22297420
L1D RFO       ACCESS:   91807926  HIT:   72080608  MISS:   19727318
L1D PREFETCH  ACCESS:          0  HIT:          0  MISS:          0
L1D WRITEBACK ACCESS:          0  HIT:          0  MISS:          0
L1D PREFETCH  REQUESTED:          0  ISSUED:          0  USEFUL:          0  USELESS:          0
L1D AVERAGE MISS LATENCY: 259.824 cycles
L1I TOTAL     ACCESS:   94147099  HIT:   94146873  MISS:        226
L1I LOAD      ACCESS:   94147099  HIT:   94146873  MISS:        226
L1I RFO       ACCESS:          0  HIT:          0  MISS:          0
L1I PREFETCH  ACCESS:          0  HIT:          0  MISS:          0
L1I WRITEBACK ACCESS:          0  HIT:          0  MISS:          0
L1I PREFETCH  REQUESTED:          0  ISSUED:          0  USEFUL:          0  USELESS:          0
L1I AVERAGE MISS LATENCY: 226.726 cycles
L2C TOTAL     ACCESS:   81710101  HIT:   43222549  MISS:   38487552
L2C LOAD      ACCESS:   22297145  HIT:    3422018  MISS:   18875127
L2C RFO       ACCESS:   19727317  HIT:     124642  MISS:   19602675
L2C PREFETCH  ACCESS:          0  HIT:          0  MISS:          0
L2C WRITEBACK ACCESS:   39685639  HIT:   39675889  MISS:       9750
L2C PREFETCH  REQUESTED:          0  ISSUED:          0  USEFUL:          0  USELESS:          0
L2C AVERAGE MISS LATENCY: 258.796 cycles
LLC TOTAL     ACCESS:   75303265  HIT:   42346344  MISS:   32956921
LLC LOAD      ACCESS:   18874735  HIT:    5169511  MISS:   13705224
LLC RFO       ACCESS:   19602657  HIT:     393545  MISS:   19209112
LLC PREFETCH  ACCESS:          0  HIT:          0  MISS:          0
LLC WRITEBACK ACCESS:   36825873  HIT:   36783288  MISS:      42585
LLC PREFETCH  REQUESTED:          0  ISSUED:          0  USEFUL:          0  USELESS:          0
LLC AVERAGE MISS LATENCY: 248.767 cycles
Major fault: 0 Minor fault: 401450

DRAM Statistics
 CHANNEL 0
 RQ ROW_BUFFER_HIT:    2460990  ROW_BUFFER_MISS:   13992529
 DBUS_CONGESTED:   37021599
 WQ ROW_BUFFER_HIT:   15098743  ROW_BUFFER_MISS:     917225  FULL:          0

 CHANNEL 1
 RQ ROW_BUFFER_HIT:    2455883  ROW_BUFFER_MISS:   13998373
 DBUS_CONGESTED:   37021599
 WQ ROW_BUFFER_HIT:   15111549  ROW_BUFFER_MISS:     905680  FULL:          0

 AVG_CONGESTED_CYCLE: 21

CPU 0 Branch Prediction Accuracy: 96.0973% MPKI: 5.38443 Average ROB Occupancy at Mispredict: 108.97

Branch types
NOT_BRANCH: 431016038 86.2032%
BRANCH_DIRECT_JUMP: 7725890 1.54518%
BRANCH_INDIRECT: 4 8e-07%
BRANCH_CONDITIONAL: 38390182 7.67804%
BRANCH_DIRECT_CALL: 11400957 2.28019%
BRANCH_INDIRECT_CALL: 32988 0.0065976%
BRANCH_RETURN: 11433940 2.28679%
BRANCH_OTHER: 0 0%

