
*** ChampSim Multicore Out-of-Order Simulator ***

Warmup Instructions: 1000000
Prefetch Warmup Instructions: 10000000
Simulation Instructions: 500000000
Stat Printing Period: 1000000
Number of CPUs: 1
LLC sets: 2048
LLC ways: 16
Off-chip DRAM Size: 32768 MB Channels: 2 Width: 64-bit Data Rate: 1024 MT/s

CPU 0 runs /scratch/cluster/cmolder/ML-DPC/ChampSimTraces/spec17/605.mcf-s4.trace.xz
Read seed: 223
Heartbeat CPU 0 instructions: 1000002 cycles: 415473 heartbeat IPC: 2.4069 cumulative IPC: 2.4069 (Simulation time: 0 hr 0 min 6 sec) 

Warmup complete CPU 0 instructions: 1000002 cycles: 415473 (Simulation time: 0 hr 0 min 6 sec) 

Heartbeat CPU 0 instructions: 2000000 cycles: 4209893 heartbeat IPC: 0.263544 cumulative IPC: 0.263544 (Simulation time: 0 hr 0 min 16 sec) 
Heartbeat CPU 0 instructions: 3000000 cycles: 6109865 heartbeat IPC: 0.526324 cumulative IPC: 0.351222 (Simulation time: 0 hr 0 min 24 sec) 
Heartbeat CPU 0 instructions: 4000000 cycles: 8521478 heartbeat IPC: 0.41466 cumulative IPC: 0.370096 (Simulation time: 0 hr 0 min 32 sec) 
Heartbeat CPU 0 instructions: 5000000 cycles: 12370585 heartbeat IPC: 0.259801 cumulative IPC: 0.334585 (Simulation time: 0 hr 0 min 43 sec) 
Heartbeat CPU 0 instructions: 6000001 cycles: 14141270 heartbeat IPC: 0.564754 cumulative IPC: 0.364278 (Simulation time: 0 hr 0 min 51 sec) 
Heartbeat CPU 0 instructions: 7000002 cycles: 17180131 heartbeat IPC: 0.329071 cumulative IPC: 0.357896 (Simulation time: 0 hr 1 min 0 sec) 
Heartbeat CPU 0 instructions: 8000000 cycles: 19783201 heartbeat IPC: 0.384161 cumulative IPC: 0.361426 (Simulation time: 0 hr 1 min 9 sec) 
Heartbeat CPU 0 instructions: 9000001 cycles: 22034946 heartbeat IPC: 0.4441 cumulative IPC: 0.370037 (Simulation time: 0 hr 1 min 17 sec) 
Heartbeat CPU 0 instructions: 10000001 cycles: 25324400 heartbeat IPC: 0.304002 cumulative IPC: 0.361316 (Simulation time: 0 hr 1 min 27 sec) 

Warmup complete CPU 0 instructions: 10000001 cycles: 25324400 (Simulation time: 0 hr 1 min 27 sec) 

Heartbeat CPU 0 instructions: 11000000 cycles: 26857991 heartbeat IPC: 0.652064 cumulative IPC: 0.652064 (Simulation time: 0 hr 1 min 34 sec) 
Heartbeat CPU 0 instructions: 12000000 cycles: 30796859 heartbeat IPC: 0.25388 cumulative IPC: 0.365466 (Simulation time: 0 hr 1 min 46 sec) 
Heartbeat CPU 0 instructions: 13000000 cycles: 32246525 heartbeat IPC: 0.689814 cumulative IPC: 0.433393 (Simulation time: 0 hr 1 min 53 sec) 
Heartbeat CPU 0 instructions: 14000002 cycles: 35035454 heartbeat IPC: 0.358561 cumulative IPC: 0.411902 (Simulation time: 0 hr 2 min 3 sec) 
Heartbeat CPU 0 instructions: 15000000 cycles: 38153002 heartbeat IPC: 0.320764 cumulative IPC: 0.389754 (Simulation time: 0 hr 2 min 13 sec) 
Heartbeat CPU 0 instructions: 16000000 cycles: 40131593 heartbeat IPC: 0.50541 cumulative IPC: 0.405208 (Simulation time: 0 hr 2 min 21 sec) 
Heartbeat CPU 0 instructions: 17000001 cycles: 43643613 heartbeat IPC: 0.284737 cumulative IPC: 0.382112 (Simulation time: 0 hr 2 min 32 sec) 
Heartbeat CPU 0 instructions: 18000000 cycles: 47782106 heartbeat IPC: 0.241634 cumulative IPC: 0.356225 (Simulation time: 0 hr 2 min 45 sec) 
Heartbeat CPU 0 instructions: 19000000 cycles: 51638939 heartbeat IPC: 0.25928 cumulative IPC: 0.342016 (Simulation time: 0 hr 2 min 58 sec) 
Heartbeat CPU 0 instructions: 20000000 cycles: 53088596 heartbeat IPC: 0.689818 cumulative IPC: 0.360176 (Simulation time: 0 hr 3 min 5 sec) 
Heartbeat CPU 0 instructions: 21000000 cycles: 55383124 heartbeat IPC: 0.435819 cumulative IPC: 0.36595 (Simulation time: 0 hr 3 min 14 sec) 
Heartbeat CPU 0 instructions: 22000000 cycles: 58942011 heartbeat IPC: 0.280987 cumulative IPC: 0.356956 (Simulation time: 0 hr 3 min 25 sec) 
Heartbeat CPU 0 instructions: 23000001 cycles: 62858085 heartbeat IPC: 0.255358 cumulative IPC: 0.346356 (Simulation time: 0 hr 3 min 38 sec) 
Heartbeat CPU 0 instructions: 24000000 cycles: 66808279 heartbeat IPC: 0.253152 cumulative IPC: 0.33748 (Simulation time: 0 hr 3 min 50 sec) 
Heartbeat CPU 0 instructions: 25000000 cycles: 70881499 heartbeat IPC: 0.245506 cumulative IPC: 0.329257 (Simulation time: 0 hr 4 min 3 sec) 
Heartbeat CPU 0 instructions: 26000003 cycles: 74890579 heartbeat IPC: 0.249435 cumulative IPC: 0.322801 (Simulation time: 0 hr 4 min 16 sec) 
Heartbeat CPU 0 instructions: 27000000 cycles: 78901925 heartbeat IPC: 0.249292 cumulative IPC: 0.317297 (Simulation time: 0 hr 4 min 29 sec) 
Heartbeat CPU 0 instructions: 28000001 cycles: 80655168 heartbeat IPC: 0.570372 cumulative IPC: 0.325316 (Simulation time: 0 hr 4 min 36 sec) 
Heartbeat CPU 0 instructions: 29000001 cycles: 82143108 heartbeat IPC: 0.67207 cumulative IPC: 0.334397 (Simulation time: 0 hr 4 min 44 sec) 
Heartbeat CPU 0 instructions: 30000001 cycles: 84543229 heartbeat IPC: 0.416646 cumulative IPC: 0.33773 (Simulation time: 0 hr 4 min 53 sec) 
Heartbeat CPU 0 instructions: 31000003 cycles: 86373232 heartbeat IPC: 0.546448 cumulative IPC: 0.343987 (Simulation time: 0 hr 5 min 2 sec) 
Heartbeat CPU 0 instructions: 32000000 cycles: 87931936 heartbeat IPC: 0.641557 cumulative IPC: 0.351395 (Simulation time: 0 hr 5 min 9 sec) 
Heartbeat CPU 0 instructions: 33000000 cycles: 90850810 heartbeat IPC: 0.342598 cumulative IPC: 0.351003 (Simulation time: 0 hr 5 min 19 sec) 
Heartbeat CPU 0 instructions: 34000000 cycles: 93051228 heartbeat IPC: 0.454459 cumulative IPC: 0.354365 (Simulation time: 0 hr 5 min 27 sec) 
Heartbeat CPU 0 instructions: 35000000 cycles: 95059375 heartbeat IPC: 0.497972 cumulative IPC: 0.3585 (Simulation time: 0 hr 5 min 35 sec) 
Heartbeat CPU 0 instructions: 36000000 cycles: 97815683 heartbeat IPC: 0.362804 cumulative IPC: 0.358664 (Simulation time: 0 hr 5 min 45 sec) 
Heartbeat CPU 0 instructions: 37000001 cycles: 99028732 heartbeat IPC: 0.82437 cumulative IPC: 0.366329 (Simulation time: 0 hr 5 min 52 sec) 
Heartbeat CPU 0 instructions: 38000000 cycles: 101123500 heartbeat IPC: 0.477379 cumulative IPC: 0.369398 (Simulation time: 0 hr 6 min 0 sec) 
Heartbeat CPU 0 instructions: 39000000 cycles: 104047518 heartbeat IPC: 0.341995 cumulative IPC: 0.36838 (Simulation time: 0 hr 6 min 11 sec) 
Heartbeat CPU 0 instructions: 40000000 cycles: 105982064 heartbeat IPC: 0.516917 cumulative IPC: 0.371942 (Simulation time: 0 hr 6 min 19 sec) 
Heartbeat CPU 0 instructions: 41000002 cycles: 108206097 heartbeat IPC: 0.449635 cumulative IPC: 0.374027 (Simulation time: 0 hr 6 min 27 sec) 
Heartbeat CPU 0 instructions: 42000003 cycles: 110971951 heartbeat IPC: 0.361552 cumulative IPC: 0.373624 (Simulation time: 0 hr 6 min 37 sec) 
Heartbeat CPU 0 instructions: 43000000 cycles: 112159312 heartbeat IPC: 0.842201 cumulative IPC: 0.380031 (Simulation time: 0 hr 6 min 44 sec) 
Heartbeat CPU 0 instructions: 44000000 cycles: 114617437 heartbeat IPC: 0.406814 cumulative IPC: 0.380769 (Simulation time: 0 hr 6 min 54 sec) 
Heartbeat CPU 0 instructions: 45000002 cycles: 115784763 heartbeat IPC: 0.85666 cumulative IPC: 0.38691 (Simulation time: 0 hr 7 min 1 sec) 
Heartbeat CPU 0 instructions: 46000001 cycles: 118305299 heartbeat IPC: 0.396741 cumulative IPC: 0.387176 (Simulation time: 0 hr 7 min 9 sec) 
Heartbeat CPU 0 instructions: 47000000 cycles: 120229439 heartbeat IPC: 0.519712 cumulative IPC: 0.389863 (Simulation time: 0 hr 7 min 17 sec) 
Heartbeat CPU 0 instructions: 48000003 cycles: 121506880 heartbeat IPC: 0.782817 cumulative IPC: 0.395082 (Simulation time: 0 hr 7 min 24 sec) 
Heartbeat CPU 0 instructions: 49000001 cycles: 124093514 heartbeat IPC: 0.386602 cumulative IPC: 0.39486 (Simulation time: 0 hr 7 min 34 sec) 
Heartbeat CPU 0 instructions: 50000001 cycles: 127889673 heartbeat IPC: 0.263424 cumulative IPC: 0.389996 (Simulation time: 0 hr 7 min 46 sec) 
Heartbeat CPU 0 instructions: 51000002 cycles: 129238362 heartbeat IPC: 0.741462 cumulative IPC: 0.394557 (Simulation time: 0 hr 7 min 53 sec) 
Heartbeat CPU 0 instructions: 52000000 cycles: 130506830 heartbeat IPC: 0.788351 cumulative IPC: 0.399306 (Simulation time: 0 hr 8 min 0 sec) 
Heartbeat CPU 0 instructions: 53000000 cycles: 133026697 heartbeat IPC: 0.396846 cumulative IPC: 0.399249 (Simulation time: 0 hr 8 min 9 sec) 
Heartbeat CPU 0 instructions: 54000000 cycles: 134283657 heartbeat IPC: 0.79557 cumulative IPC: 0.403821 (Simulation time: 0 hr 8 min 17 sec) 
Heartbeat CPU 0 instructions: 55000000 cycles: 135545092 heartbeat IPC: 0.792748 cumulative IPC: 0.408272 (Simulation time: 0 hr 8 min 23 sec) 
Heartbeat CPU 0 instructions: 56000001 cycles: 138991679 heartbeat IPC: 0.290142 cumulative IPC: 0.40469 (Simulation time: 0 hr 8 min 35 sec) 
Heartbeat CPU 0 instructions: 57000003 cycles: 141937435 heartbeat IPC: 0.339472 cumulative IPC: 0.403042 (Simulation time: 0 hr 8 min 45 sec) 
Heartbeat CPU 0 instructions: 58000000 cycles: 143217085 heartbeat IPC: 0.781461 cumulative IPC: 0.40715 (Simulation time: 0 hr 8 min 52 sec) 
Heartbeat CPU 0 instructions: 59000000 cycles: 146061469 heartbeat IPC: 0.35157 cumulative IPC: 0.405841 (Simulation time: 0 hr 9 min 2 sec) 
Heartbeat CPU 0 instructions: 60000001 cycles: 149103486 heartbeat IPC: 0.32873 cumulative IPC: 0.403945 (Simulation time: 0 hr 9 min 12 sec) 
Heartbeat CPU 0 instructions: 61000002 cycles: 150640846 heartbeat IPC: 0.650466 cumulative IPC: 0.40697 (Simulation time: 0 hr 9 min 19 sec) 
Heartbeat CPU 0 instructions: 62000000 cycles: 153353922 heartbeat IPC: 0.368585 cumulative IPC: 0.406156 (Simulation time: 0 hr 9 min 29 sec) 
Heartbeat CPU 0 instructions: 63000003 cycles: 154707162 heartbeat IPC: 0.738969 cumulative IPC: 0.409637 (Simulation time: 0 hr 9 min 36 sec) 
Heartbeat CPU 0 instructions: 64000001 cycles: 157378197 heartbeat IPC: 0.374386 cumulative IPC: 0.408924 (Simulation time: 0 hr 9 min 45 sec) 
Heartbeat CPU 0 instructions: 65000001 cycles: 158801875 heartbeat IPC: 0.702406 cumulative IPC: 0.412055 (Simulation time: 0 hr 9 min 52 sec) 
Heartbeat CPU 0 instructions: 66000000 cycles: 161367628 heartbeat IPC: 0.389749 cumulative IPC: 0.411634 (Simulation time: 0 hr 10 min 1 sec) 
Heartbeat CPU 0 instructions: 67000000 cycles: 162577946 heartbeat IPC: 0.826229 cumulative IPC: 0.41529 (Simulation time: 0 hr 10 min 8 sec) 
Heartbeat CPU 0 instructions: 68000000 cycles: 165683743 heartbeat IPC: 0.321979 cumulative IPC: 0.413225 (Simulation time: 0 hr 10 min 18 sec) 
Heartbeat CPU 0 instructions: 69000000 cycles: 167671564 heartbeat IPC: 0.503063 cumulative IPC: 0.41448 (Simulation time: 0 hr 10 min 27 sec) 
Heartbeat CPU 0 instructions: 70000002 cycles: 169032455 heartbeat IPC: 0.734814 cumulative IPC: 0.417513 (Simulation time: 0 hr 10 min 34 sec) 
Heartbeat CPU 0 instructions: 71000000 cycles: 171573155 heartbeat IPC: 0.393592 cumulative IPC: 0.417098 (Simulation time: 0 hr 10 min 44 sec) 
Heartbeat CPU 0 instructions: 72000000 cycles: 173456187 heartbeat IPC: 0.531058 cumulative IPC: 0.418546 (Simulation time: 0 hr 10 min 52 sec) 
Heartbeat CPU 0 instructions: 73000000 cycles: 175591374 heartbeat IPC: 0.468343 cumulative IPC: 0.419254 (Simulation time: 0 hr 11 min 0 sec) 
Heartbeat CPU 0 instructions: 74000001 cycles: 179444370 heartbeat IPC: 0.259539 cumulative IPC: 0.415261 (Simulation time: 0 hr 11 min 12 sec) 
Heartbeat CPU 0 instructions: 75000001 cycles: 181625045 heartbeat IPC: 0.458574 cumulative IPC: 0.415865 (Simulation time: 0 hr 11 min 21 sec) 
Heartbeat CPU 0 instructions: 76000000 cycles: 183778126 heartbeat IPC: 0.46445 cumulative IPC: 0.416525 (Simulation time: 0 hr 11 min 30 sec) 
Heartbeat CPU 0 instructions: 77000000 cycles: 187288883 heartbeat IPC: 0.284839 cumulative IPC: 0.413671 (Simulation time: 0 hr 11 min 41 sec) 
Heartbeat CPU 0 instructions: 78000003 cycles: 188613499 heartbeat IPC: 0.754938 cumulative IPC: 0.416439 (Simulation time: 0 hr 11 min 48 sec) 
Heartbeat CPU 0 instructions: 79000003 cycles: 191465470 heartbeat IPC: 0.350635 cumulative IPC: 0.41531 (Simulation time: 0 hr 11 min 58 sec) 
Heartbeat CPU 0 instructions: 80000002 cycles: 195156776 heartbeat IPC: 0.270907 cumulative IPC: 0.412171 (Simulation time: 0 hr 12 min 11 sec) 
Heartbeat CPU 0 instructions: 81000000 cycles: 196380364 heartbeat IPC: 0.817267 cumulative IPC: 0.415069 (Simulation time: 0 hr 12 min 18 sec) 
Heartbeat CPU 0 instructions: 82000000 cycles: 197532343 heartbeat IPC: 0.868071 cumulative IPC: 0.418099 (Simulation time: 0 hr 12 min 24 sec) 
Heartbeat CPU 0 instructions: 83000001 cycles: 200904287 heartbeat IPC: 0.296565 cumulative IPC: 0.415765 (Simulation time: 0 hr 12 min 36 sec) 
Heartbeat CPU 0 instructions: 84000002 cycles: 202374757 heartbeat IPC: 0.680055 cumulative IPC: 0.41796 (Simulation time: 0 hr 12 min 43 sec) 
Heartbeat CPU 0 instructions: 85000000 cycles: 204386845 heartbeat IPC: 0.496995 cumulative IPC: 0.418848 (Simulation time: 0 hr 12 min 51 sec) 
Heartbeat CPU 0 instructions: 86000000 cycles: 206039531 heartbeat IPC: 0.605076 cumulative IPC: 0.420551 (Simulation time: 0 hr 12 min 59 sec) 
Heartbeat CPU 0 instructions: 87000000 cycles: 207866931 heartbeat IPC: 0.547226 cumulative IPC: 0.42182 (Simulation time: 0 hr 13 min 6 sec) 
Heartbeat CPU 0 instructions: 88000000 cycles: 211559195 heartbeat IPC: 0.270837 cumulative IPC: 0.418826 (Simulation time: 0 hr 13 min 18 sec) 
Heartbeat CPU 0 instructions: 89000000 cycles: 213179173 heartbeat IPC: 0.617292 cumulative IPC: 0.420538 (Simulation time: 0 hr 13 min 26 sec) 
Heartbeat CPU 0 instructions: 90000000 cycles: 214439263 heartbeat IPC: 0.793594 cumulative IPC: 0.423023 (Simulation time: 0 hr 13 min 32 sec) 
Heartbeat CPU 0 instructions: 91000000 cycles: 216871242 heartbeat IPC: 0.411188 cumulative IPC: 0.422873 (Simulation time: 0 hr 13 min 42 sec) 
Heartbeat CPU 0 instructions: 92000002 cycles: 218031141 heartbeat IPC: 0.862146 cumulative IPC: 0.425517 (Simulation time: 0 hr 13 min 49 sec) 
Heartbeat CPU 0 instructions: 93000000 cycles: 221194348 heartbeat IPC: 0.316134 cumulative IPC: 0.423751 (Simulation time: 0 hr 14 min 0 sec) 
Heartbeat CPU 0 instructions: 94000001 cycles: 224470152 heartbeat IPC: 0.305269 cumulative IPC: 0.421802 (Simulation time: 0 hr 14 min 11 sec) 
Heartbeat CPU 0 instructions: 95000001 cycles: 225762163 heartbeat IPC: 0.773987 cumulative IPC: 0.424072 (Simulation time: 0 hr 14 min 18 sec) 
Heartbeat CPU 0 instructions: 96000003 cycles: 228681739 heartbeat IPC: 0.342516 cumulative IPC: 0.422901 (Simulation time: 0 hr 14 min 28 sec) 
Heartbeat CPU 0 instructions: 97000000 cycles: 232431202 heartbeat IPC: 0.266704 cumulative IPC: 0.420073 (Simulation time: 0 hr 14 min 40 sec) 
Heartbeat CPU 0 instructions: 98000003 cycles: 234123353 heartbeat IPC: 0.590966 cumulative IPC: 0.421458 (Simulation time: 0 hr 14 min 48 sec) 
Heartbeat CPU 0 instructions: 99000000 cycles: 235958829 heartbeat IPC: 0.544816 cumulative IPC: 0.422533 (Simulation time: 0 hr 14 min 56 sec) 
Heartbeat CPU 0 instructions: 100000002 cycles: 238661855 heartbeat IPC: 0.369956 cumulative IPC: 0.421867 (Simulation time: 0 hr 15 min 5 sec) 
Heartbeat CPU 0 instructions: 101000003 cycles: 240777270 heartbeat IPC: 0.472721 cumulative IPC: 0.422366 (Simulation time: 0 hr 15 min 13 sec) 
Heartbeat CPU 0 instructions: 102000000 cycles: 242548668 heartbeat IPC: 0.564524 cumulative IPC: 0.423525 (Simulation time: 0 hr 15 min 21 sec) 
Heartbeat CPU 0 instructions: 103000000 cycles: 245359925 heartbeat IPC: 0.355713 cumulative IPC: 0.422659 (Simulation time: 0 hr 15 min 31 sec) 
Heartbeat CPU 0 instructions: 104000001 cycles: 246807459 heartbeat IPC: 0.690831 cumulative IPC: 0.424412 (Simulation time: 0 hr 15 min 38 sec) 
Heartbeat CPU 0 instructions: 105000000 cycles: 249422179 heartbeat IPC: 0.38245 cumulative IPC: 0.423922 (Simulation time: 0 hr 15 min 48 sec) 
Heartbeat CPU 0 instructions: 106000000 cycles: 250775596 heartbeat IPC: 0.738871 cumulative IPC: 0.425813 (Simulation time: 0 hr 15 min 55 sec) 
Heartbeat CPU 0 instructions: 107000003 cycles: 251997716 heartbeat IPC: 0.818253 cumulative IPC: 0.427929 (Simulation time: 0 hr 16 min 2 sec) 
Heartbeat CPU 0 instructions: 108000001 cycles: 254503729 heartbeat IPC: 0.399039 cumulative IPC: 0.427613 (Simulation time: 0 hr 16 min 12 sec) 
Heartbeat CPU 0 instructions: 109000003 cycles: 257119850 heartbeat IPC: 0.382246 cumulative IPC: 0.427101 (Simulation time: 0 hr 16 min 22 sec) 
Heartbeat CPU 0 instructions: 110000000 cycles: 258810770 heartbeat IPC: 0.591392 cumulative IPC: 0.428291 (Simulation time: 0 hr 16 min 29 sec) 
Heartbeat CPU 0 instructions: 111000002 cycles: 261944507 heartbeat IPC: 0.319108 cumulative IPC: 0.426845 (Simulation time: 0 hr 16 min 40 sec) 
Heartbeat CPU 0 instructions: 112000002 cycles: 264065683 heartbeat IPC: 0.471437 cumulative IPC: 0.427241 (Simulation time: 0 hr 16 min 49 sec) 
Heartbeat CPU 0 instructions: 113000002 cycles: 265404706 heartbeat IPC: 0.746813 cumulative IPC: 0.429023 (Simulation time: 0 hr 16 min 56 sec) 
Heartbeat CPU 0 instructions: 114000000 cycles: 267896334 heartbeat IPC: 0.401343 cumulative IPC: 0.428739 (Simulation time: 0 hr 17 min 5 sec) 
Heartbeat CPU 0 instructions: 115000001 cycles: 269177426 heartbeat IPC: 0.780585 cumulative IPC: 0.430587 (Simulation time: 0 hr 17 min 12 sec) 
Heartbeat CPU 0 instructions: 116000003 cycles: 272338840 heartbeat IPC: 0.316315 cumulative IPC: 0.429125 (Simulation time: 0 hr 17 min 21 sec) 
Heartbeat CPU 0 instructions: 117000000 cycles: 273640668 heartbeat IPC: 0.768148 cumulative IPC: 0.430902 (Simulation time: 0 hr 17 min 28 sec) 
Heartbeat CPU 0 instructions: 118000002 cycles: 276300913 heartbeat IPC: 0.375906 cumulative IPC: 0.430319 (Simulation time: 0 hr 17 min 37 sec) 
Heartbeat CPU 0 instructions: 119000000 cycles: 279777856 heartbeat IPC: 0.287608 cumulative IPC: 0.428369 (Simulation time: 0 hr 17 min 47 sec) 
Heartbeat CPU 0 instructions: 120000002 cycles: 281450443 heartbeat IPC: 0.597877 cumulative IPC: 0.429476 (Simulation time: 0 hr 17 min 54 sec) 
Heartbeat CPU 0 instructions: 121000000 cycles: 283483481 heartbeat IPC: 0.491874 cumulative IPC: 0.429967 (Simulation time: 0 hr 18 min 2 sec) 
Heartbeat CPU 0 instructions: 122000001 cycles: 286812691 heartbeat IPC: 0.300372 cumulative IPC: 0.428317 (Simulation time: 0 hr 18 min 13 sec) 
Heartbeat CPU 0 instructions: 123000000 cycles: 287964002 heartbeat IPC: 0.868574 cumulative IPC: 0.430247 (Simulation time: 0 hr 18 min 19 sec) 
Heartbeat CPU 0 instructions: 124000000 cycles: 289132930 heartbeat IPC: 0.855485 cumulative IPC: 0.432132 (Simulation time: 0 hr 18 min 26 sec) 
Heartbeat CPU 0 instructions: 125000002 cycles: 292688842 heartbeat IPC: 0.281222 cumulative IPC: 0.430125 (Simulation time: 0 hr 18 min 36 sec) 
Heartbeat CPU 0 instructions: 126000001 cycles: 295752044 heartbeat IPC: 0.326455 cumulative IPC: 0.42895 (Simulation time: 0 hr 18 min 46 sec) 
Heartbeat CPU 0 instructions: 127000001 cycles: 297545261 heartbeat IPC: 0.557657 cumulative IPC: 0.429798 (Simulation time: 0 hr 18 min 54 sec) 
Heartbeat CPU 0 instructions: 128000000 cycles: 299774212 heartbeat IPC: 0.448641 cumulative IPC: 0.429951 (Simulation time: 0 hr 19 min 2 sec) 
Heartbeat CPU 0 instructions: 129000003 cycles: 303459923 heartbeat IPC: 0.271319 cumulative IPC: 0.427849 (Simulation time: 0 hr 19 min 13 sec) 
Heartbeat CPU 0 instructions: 130000003 cycles: 305540859 heartbeat IPC: 0.480553 cumulative IPC: 0.42824 (Simulation time: 0 hr 19 min 21 sec) 
Heartbeat CPU 0 instructions: 131000000 cycles: 307729979 heartbeat IPC: 0.456803 cumulative IPC: 0.428462 (Simulation time: 0 hr 19 min 29 sec) 
Heartbeat CPU 0 instructions: 132000000 cycles: 310485453 heartbeat IPC: 0.362914 cumulative IPC: 0.427828 (Simulation time: 0 hr 19 min 39 sec) 
Heartbeat CPU 0 instructions: 133000001 cycles: 311789871 heartbeat IPC: 0.766626 cumulative IPC: 0.429371 (Simulation time: 0 hr 19 min 46 sec) 
Heartbeat CPU 0 instructions: 134000002 cycles: 315217345 heartbeat IPC: 0.29176 cumulative IPC: 0.427744 (Simulation time: 0 hr 19 min 57 sec) 
Heartbeat CPU 0 instructions: 135000000 cycles: 318258055 heartbeat IPC: 0.32887 cumulative IPC: 0.426718 (Simulation time: 0 hr 20 min 8 sec) 
Heartbeat CPU 0 instructions: 136000003 cycles: 319449953 heartbeat IPC: 0.839 cumulative IPC: 0.428389 (Simulation time: 0 hr 20 min 14 sec) 
Heartbeat CPU 0 instructions: 137000000 cycles: 321791250 heartbeat IPC: 0.427112 cumulative IPC: 0.428378 (Simulation time: 0 hr 20 min 24 sec) 
Heartbeat CPU 0 instructions: 138000002 cycles: 325584436 heartbeat IPC: 0.263631 cumulative IPC: 0.426297 (Simulation time: 0 hr 20 min 36 sec) 
Heartbeat CPU 0 instructions: 139000001 cycles: 327727383 heartbeat IPC: 0.466647 cumulative IPC: 0.426583 (Simulation time: 0 hr 20 min 45 sec) 
Heartbeat CPU 0 instructions: 140000003 cycles: 329507826 heartbeat IPC: 0.561659 cumulative IPC: 0.427374 (Simulation time: 0 hr 20 min 53 sec) 
Heartbeat CPU 0 instructions: 141000000 cycles: 331614452 heartbeat IPC: 0.474691 cumulative IPC: 0.427699 (Simulation time: 0 hr 21 min 1 sec) 
Heartbeat CPU 0 instructions: 142000003 cycles: 332936731 heartbeat IPC: 0.756272 cumulative IPC: 0.429112 (Simulation time: 0 hr 21 min 8 sec) 
Heartbeat CPU 0 instructions: 143000000 cycles: 336568741 heartbeat IPC: 0.275329 cumulative IPC: 0.427317 (Simulation time: 0 hr 21 min 20 sec) 
Heartbeat CPU 0 instructions: 144000001 cycles: 339243383 heartbeat IPC: 0.373882 cumulative IPC: 0.426862 (Simulation time: 0 hr 21 min 30 sec) 
Heartbeat CPU 0 instructions: 145000001 cycles: 340568333 heartbeat IPC: 0.754745 cumulative IPC: 0.42824 (Simulation time: 0 hr 21 min 37 sec) 
Heartbeat CPU 0 instructions: 146000000 cycles: 343796603 heartbeat IPC: 0.309763 cumulative IPC: 0.427039 (Simulation time: 0 hr 21 min 48 sec) 
Heartbeat CPU 0 instructions: 147000000 cycles: 345676779 heartbeat IPC: 0.531865 cumulative IPC: 0.427654 (Simulation time: 0 hr 21 min 56 sec) 
Heartbeat CPU 0 instructions: 148000003 cycles: 347783077 heartbeat IPC: 0.474768 cumulative IPC: 0.427962 (Simulation time: 0 hr 22 min 4 sec) 
Heartbeat CPU 0 instructions: 149000003 cycles: 351638198 heartbeat IPC: 0.259395 cumulative IPC: 0.42597 (Simulation time: 0 hr 22 min 17 sec) 
Heartbeat CPU 0 instructions: 150000001 cycles: 353338148 heartbeat IPC: 0.588251 cumulative IPC: 0.426811 (Simulation time: 0 hr 22 min 25 sec) 
Heartbeat CPU 0 instructions: 151000001 cycles: 355138579 heartbeat IPC: 0.555423 cumulative IPC: 0.427513 (Simulation time: 0 hr 22 min 33 sec) 
Heartbeat CPU 0 instructions: 152000000 cycles: 358050471 heartbeat IPC: 0.343419 cumulative IPC: 0.426777 (Simulation time: 0 hr 22 min 43 sec) 
Heartbeat CPU 0 instructions: 153000002 cycles: 360643746 heartbeat IPC: 0.385614 cumulative IPC: 0.426459 (Simulation time: 0 hr 22 min 53 sec) 
Heartbeat CPU 0 instructions: 154000000 cycles: 361998962 heartbeat IPC: 0.737888 cumulative IPC: 0.427713 (Simulation time: 0 hr 23 min 0 sec) 
Heartbeat CPU 0 instructions: 155000001 cycles: 365333041 heartbeat IPC: 0.299933 cumulative IPC: 0.42646 (Simulation time: 0 hr 23 min 12 sec) 
Heartbeat CPU 0 instructions: 156000001 cycles: 367184218 heartbeat IPC: 0.540197 cumulative IPC: 0.427076 (Simulation time: 0 hr 23 min 20 sec) 
Heartbeat CPU 0 instructions: 157000000 cycles: 369182770 heartbeat IPC: 0.500362 cumulative IPC: 0.427502 (Simulation time: 0 hr 23 min 27 sec) 
Heartbeat CPU 0 instructions: 158000002 cycles: 371157196 heartbeat IPC: 0.506477 cumulative IPC: 0.427952 (Simulation time: 0 hr 23 min 36 sec) 
Heartbeat CPU 0 instructions: 159000000 cycles: 373774735 heartbeat IPC: 0.382037 cumulative IPC: 0.427608 (Simulation time: 0 hr 23 min 44 sec) 
Heartbeat CPU 0 instructions: 160000002 cycles: 376243435 heartbeat IPC: 0.405072 cumulative IPC: 0.427449 (Simulation time: 0 hr 23 min 53 sec) 
Heartbeat CPU 0 instructions: 161000002 cycles: 379403896 heartbeat IPC: 0.31641 cumulative IPC: 0.426458 (Simulation time: 0 hr 24 min 3 sec) 
Heartbeat CPU 0 instructions: 162000001 cycles: 380583573 heartbeat IPC: 0.847689 cumulative IPC: 0.427857 (Simulation time: 0 hr 24 min 10 sec) 
Heartbeat CPU 0 instructions: 163000001 cycles: 382887801 heartbeat IPC: 0.433985 cumulative IPC: 0.427896 (Simulation time: 0 hr 24 min 18 sec) 
Heartbeat CPU 0 instructions: 164000000 cycles: 385143418 heartbeat IPC: 0.443337 cumulative IPC: 0.427993 (Simulation time: 0 hr 24 min 26 sec) 
Heartbeat CPU 0 instructions: 165000000 cycles: 387050429 heartbeat IPC: 0.524381 cumulative IPC: 0.428501 (Simulation time: 0 hr 24 min 34 sec) 
Heartbeat CPU 0 instructions: 166000002 cycles: 389315211 heartbeat IPC: 0.441544 cumulative IPC: 0.428582 (Simulation time: 0 hr 24 min 42 sec) 
Heartbeat CPU 0 instructions: 167000000 cycles: 390995203 heartbeat IPC: 0.59524 cumulative IPC: 0.429348 (Simulation time: 0 hr 24 min 49 sec) 
Heartbeat CPU 0 instructions: 168000000 cycles: 393817172 heartbeat IPC: 0.354363 cumulative IPC: 0.428774 (Simulation time: 0 hr 24 min 58 sec) 
Heartbeat CPU 0 instructions: 169000003 cycles: 395556729 heartbeat IPC: 0.574861 cumulative IPC: 0.42946 (Simulation time: 0 hr 25 min 6 sec) 
Heartbeat CPU 0 instructions: 170000001 cycles: 397439317 heartbeat IPC: 0.531183 cumulative IPC: 0.429975 (Simulation time: 0 hr 25 min 13 sec) 
Heartbeat CPU 0 instructions: 171000000 cycles: 399877578 heartbeat IPC: 0.410128 cumulative IPC: 0.429846 (Simulation time: 0 hr 25 min 23 sec) 
Heartbeat CPU 0 instructions: 172000000 cycles: 401289310 heartbeat IPC: 0.70835 cumulative IPC: 0.430891 (Simulation time: 0 hr 25 min 30 sec) 
Heartbeat CPU 0 instructions: 173000002 cycles: 403697307 heartbeat IPC: 0.415284 cumulative IPC: 0.430792 (Simulation time: 0 hr 25 min 40 sec) 
Heartbeat CPU 0 instructions: 174000001 cycles: 404969080 heartbeat IPC: 0.786303 cumulative IPC: 0.431983 (Simulation time: 0 hr 25 min 47 sec) 
Heartbeat CPU 0 instructions: 175000002 cycles: 407448372 heartbeat IPC: 0.403341 cumulative IPC: 0.431797 (Simulation time: 0 hr 25 min 57 sec) 
Heartbeat CPU 0 instructions: 176000000 cycles: 408691522 heartbeat IPC: 0.804407 cumulative IPC: 0.433005 (Simulation time: 0 hr 26 min 4 sec) 
Heartbeat CPU 0 instructions: 177000003 cycles: 411120318 heartbeat IPC: 0.411728 cumulative IPC: 0.432871 (Simulation time: 0 hr 26 min 14 sec) 
Heartbeat CPU 0 instructions: 178000001 cycles: 412387937 heartbeat IPC: 0.788879 cumulative IPC: 0.434037 (Simulation time: 0 hr 26 min 21 sec) 
Heartbeat CPU 0 instructions: 179000000 cycles: 414856951 heartbeat IPC: 0.40502 cumulative IPC: 0.433853 (Simulation time: 0 hr 26 min 31 sec) 
Heartbeat CPU 0 instructions: 180000000 cycles: 416115532 heartbeat IPC: 0.794546 cumulative IPC: 0.435015 (Simulation time: 0 hr 26 min 38 sec) 
Heartbeat CPU 0 instructions: 181000003 cycles: 418348963 heartbeat IPC: 0.447743 cumulative IPC: 0.435087 (Simulation time: 0 hr 26 min 47 sec) 
Heartbeat CPU 0 instructions: 182000003 cycles: 422151951 heartbeat IPC: 0.262951 cumulative IPC: 0.433438 (Simulation time: 0 hr 26 min 59 sec) 
Heartbeat CPU 0 instructions: 183000003 cycles: 425965465 heartbeat IPC: 0.262225 cumulative IPC: 0.431808 (Simulation time: 0 hr 27 min 10 sec) 
Heartbeat CPU 0 instructions: 184000000 cycles: 428058847 heartbeat IPC: 0.477694 cumulative IPC: 0.432046 (Simulation time: 0 hr 27 min 19 sec) 
Heartbeat CPU 0 instructions: 185000001 cycles: 429457973 heartbeat IPC: 0.714733 cumulative IPC: 0.433025 (Simulation time: 0 hr 27 min 26 sec) 
Heartbeat CPU 0 instructions: 186000000 cycles: 432375473 heartbeat IPC: 0.342759 cumulative IPC: 0.432378 (Simulation time: 0 hr 27 min 36 sec) 
Heartbeat CPU 0 instructions: 187000000 cycles: 434491797 heartbeat IPC: 0.472517 cumulative IPC: 0.432586 (Simulation time: 0 hr 27 min 44 sec) 
Heartbeat CPU 0 instructions: 188000000 cycles: 435860052 heartbeat IPC: 0.730858 cumulative IPC: 0.43358 (Simulation time: 0 hr 27 min 51 sec) 
Heartbeat CPU 0 instructions: 189000003 cycles: 439677059 heartbeat IPC: 0.261986 cumulative IPC: 0.431999 (Simulation time: 0 hr 28 min 4 sec) 
Heartbeat CPU 0 instructions: 190000001 cycles: 443426442 heartbeat IPC: 0.26671 cumulative IPC: 0.430517 (Simulation time: 0 hr 28 min 16 sec) 
Heartbeat CPU 0 instructions: 191000000 cycles: 444861520 heartbeat IPC: 0.696826 cumulative IPC: 0.431428 (Simulation time: 0 hr 28 min 23 sec) 
Heartbeat CPU 0 instructions: 192000001 cycles: 446768258 heartbeat IPC: 0.524456 cumulative IPC: 0.431849 (Simulation time: 0 hr 28 min 31 sec) 
Heartbeat CPU 0 instructions: 193000000 cycles: 448553644 heartbeat IPC: 0.560102 cumulative IPC: 0.43239 (Simulation time: 0 hr 28 min 39 sec) 
Heartbeat CPU 0 instructions: 194000003 cycles: 450588731 heartbeat IPC: 0.491381 cumulative IPC: 0.432672 (Simulation time: 0 hr 28 min 47 sec) 
Heartbeat CPU 0 instructions: 195000001 cycles: 454365759 heartbeat IPC: 0.264758 cumulative IPC: 0.431194 (Simulation time: 0 hr 28 min 59 sec) 
Heartbeat CPU 0 instructions: 196000000 cycles: 455689416 heartbeat IPC: 0.755482 cumulative IPC: 0.432191 (Simulation time: 0 hr 29 min 6 sec) 
Heartbeat CPU 0 instructions: 197000001 cycles: 456903257 heartbeat IPC: 0.823832 cumulative IPC: 0.433293 (Simulation time: 0 hr 29 min 13 sec) 
Heartbeat CPU 0 instructions: 198000000 cycles: 460237275 heartbeat IPC: 0.299938 cumulative IPC: 0.43227 (Simulation time: 0 hr 29 min 24 sec) 
Heartbeat CPU 0 instructions: 199000003 cycles: 463468155 heartbeat IPC: 0.309514 cumulative IPC: 0.431365 (Simulation time: 0 hr 29 min 34 sec) 
Heartbeat CPU 0 instructions: 200000001 cycles: 464793895 heartbeat IPC: 0.754294 cumulative IPC: 0.432339 (Simulation time: 0 hr 29 min 41 sec) 
Heartbeat CPU 0 instructions: 201000001 cycles: 467622573 heartbeat IPC: 0.353522 cumulative IPC: 0.431835 (Simulation time: 0 hr 29 min 51 sec) 
Heartbeat CPU 0 instructions: 202000002 cycles: 470269384 heartbeat IPC: 0.377814 cumulative IPC: 0.431514 (Simulation time: 0 hr 30 min 0 sec) 
Heartbeat CPU 0 instructions: 203000000 cycles: 472319621 heartbeat IPC: 0.487748 cumulative IPC: 0.431772 (Simulation time: 0 hr 30 min 8 sec) 
Heartbeat CPU 0 instructions: 204000000 cycles: 474233703 heartbeat IPC: 0.522444 cumulative IPC: 0.432159 (Simulation time: 0 hr 30 min 16 sec) 
Heartbeat CPU 0 instructions: 205000000 cycles: 476461955 heartbeat IPC: 0.448782 cumulative IPC: 0.432241 (Simulation time: 0 hr 30 min 24 sec) 
Heartbeat CPU 0 instructions: 206000003 cycles: 478088561 heartbeat IPC: 0.614779 cumulative IPC: 0.432896 (Simulation time: 0 hr 30 min 32 sec) 
Heartbeat CPU 0 instructions: 207000000 cycles: 480038729 heartbeat IPC: 0.512775 cumulative IPC: 0.433239 (Simulation time: 0 hr 30 min 40 sec) 
Heartbeat CPU 0 instructions: 208000000 cycles: 482127606 heartbeat IPC: 0.478726 cumulative IPC: 0.433447 (Simulation time: 0 hr 30 min 48 sec) 
Heartbeat CPU 0 instructions: 209000000 cycles: 483723962 heartbeat IPC: 0.626427 cumulative IPC: 0.434119 (Simulation time: 0 hr 30 min 55 sec) 
Heartbeat CPU 0 instructions: 210000001 cycles: 486540842 heartbeat IPC: 0.355003 cumulative IPC: 0.433636 (Simulation time: 0 hr 31 min 5 sec) 
Heartbeat CPU 0 instructions: 211000001 cycles: 488413442 heartbeat IPC: 0.534017 cumulative IPC: 0.434042 (Simulation time: 0 hr 31 min 13 sec) 
Heartbeat CPU 0 instructions: 212000000 cycles: 491297621 heartbeat IPC: 0.346719 cumulative IPC: 0.433501 (Simulation time: 0 hr 31 min 23 sec) 
Heartbeat CPU 0 instructions: 213000002 cycles: 495379013 heartbeat IPC: 0.245015 cumulative IPC: 0.431865 (Simulation time: 0 hr 31 min 36 sec) 
Heartbeat CPU 0 instructions: 214000002 cycles: 499018761 heartbeat IPC: 0.274744 cumulative IPC: 0.430657 (Simulation time: 0 hr 31 min 47 sec) 
Heartbeat CPU 0 instructions: 215000003 cycles: 500330858 heartbeat IPC: 0.76214 cumulative IPC: 0.431573 (Simulation time: 0 hr 31 min 54 sec) 
Heartbeat CPU 0 instructions: 216000002 cycles: 502751026 heartbeat IPC: 0.413194 cumulative IPC: 0.43148 (Simulation time: 0 hr 32 min 3 sec) 
Heartbeat CPU 0 instructions: 217000000 cycles: 504659308 heartbeat IPC: 0.524031 cumulative IPC: 0.431848 (Simulation time: 0 hr 32 min 11 sec) 
Heartbeat CPU 0 instructions: 218000002 cycles: 506099717 heartbeat IPC: 0.694249 cumulative IPC: 0.432635 (Simulation time: 0 hr 32 min 18 sec) 
Heartbeat CPU 0 instructions: 219000001 cycles: 508502726 heartbeat IPC: 0.416145 cumulative IPC: 0.432553 (Simulation time: 0 hr 32 min 28 sec) 
Heartbeat CPU 0 instructions: 220000000 cycles: 509721999 heartbeat IPC: 0.82016 cumulative IPC: 0.433528 (Simulation time: 0 hr 32 min 34 sec) 
Heartbeat CPU 0 instructions: 221000000 cycles: 512678263 heartbeat IPC: 0.338265 cumulative IPC: 0.43295 (Simulation time: 0 hr 32 min 45 sec) 
Heartbeat CPU 0 instructions: 222000001 cycles: 514736557 heartbeat IPC: 0.48584 cumulative IPC: 0.433173 (Simulation time: 0 hr 32 min 53 sec) 
Heartbeat CPU 0 instructions: 223000000 cycles: 516019615 heartbeat IPC: 0.779387 cumulative IPC: 0.434078 (Simulation time: 0 hr 33 min 0 sec) 
Heartbeat CPU 0 instructions: 224000000 cycles: 518248633 heartbeat IPC: 0.448628 cumulative IPC: 0.434144 (Simulation time: 0 hr 33 min 9 sec) 
Heartbeat CPU 0 instructions: 225000001 cycles: 521037248 heartbeat IPC: 0.358601 cumulative IPC: 0.433719 (Simulation time: 0 hr 33 min 19 sec) 
Heartbeat CPU 0 instructions: 226000000 cycles: 522280073 heartbeat IPC: 0.804618 cumulative IPC: 0.434646 (Simulation time: 0 hr 33 min 25 sec) 
Heartbeat CPU 0 instructions: 227000003 cycles: 524746552 heartbeat IPC: 0.405437 cumulative IPC: 0.434502 (Simulation time: 0 hr 33 min 34 sec) 
Heartbeat CPU 0 instructions: 228000001 cycles: 526834122 heartbeat IPC: 0.479025 cumulative IPC: 0.434687 (Simulation time: 0 hr 33 min 42 sec) 
Heartbeat CPU 0 instructions: 229000003 cycles: 528856019 heartbeat IPC: 0.494586 cumulative IPC: 0.434928 (Simulation time: 0 hr 33 min 50 sec) 
Heartbeat CPU 0 instructions: 230000002 cycles: 532409101 heartbeat IPC: 0.281446 cumulative IPC: 0.433853 (Simulation time: 0 hr 34 min 2 sec) 
Heartbeat CPU 0 instructions: 231000000 cycles: 536356863 heartbeat IPC: 0.253308 cumulative IPC: 0.432458 (Simulation time: 0 hr 34 min 14 sec) 
Heartbeat CPU 0 instructions: 232000000 cycles: 538019993 heartbeat IPC: 0.601276 cumulative IPC: 0.433005 (Simulation time: 0 hr 34 min 21 sec) 
Heartbeat CPU 0 instructions: 233000002 cycles: 539911955 heartbeat IPC: 0.528553 cumulative IPC: 0.433357 (Simulation time: 0 hr 34 min 29 sec) 
Heartbeat CPU 0 instructions: 234000001 cycles: 543035185 heartbeat IPC: 0.320181 cumulative IPC: 0.432674 (Simulation time: 0 hr 34 min 39 sec) 
Heartbeat CPU 0 instructions: 235000000 cycles: 545130985 heartbeat IPC: 0.477144 cumulative IPC: 0.432853 (Simulation time: 0 hr 34 min 47 sec) 
Heartbeat CPU 0 instructions: 236000003 cycles: 547677762 heartbeat IPC: 0.392654 cumulative IPC: 0.432657 (Simulation time: 0 hr 34 min 56 sec) 
Heartbeat CPU 0 instructions: 237000001 cycles: 550738230 heartbeat IPC: 0.326747 cumulative IPC: 0.43204 (Simulation time: 0 hr 35 min 6 sec) 
Heartbeat CPU 0 instructions: 238000003 cycles: 552566935 heartbeat IPC: 0.546836 cumulative IPC: 0.432439 (Simulation time: 0 hr 35 min 15 sec) 
Heartbeat CPU 0 instructions: 239000001 cycles: 554400580 heartbeat IPC: 0.545361 cumulative IPC: 0.43283 (Simulation time: 0 hr 35 min 23 sec) 
Heartbeat CPU 0 instructions: 240000002 cycles: 556232823 heartbeat IPC: 0.54578 cumulative IPC: 0.43322 (Simulation time: 0 hr 35 min 32 sec) 
Heartbeat CPU 0 instructions: 241000002 cycles: 558074852 heartbeat IPC: 0.54288 cumulative IPC: 0.433599 (Simulation time: 0 hr 35 min 40 sec) 
Heartbeat CPU 0 instructions: 242000000 cycles: 559903930 heartbeat IPC: 0.546722 cumulative IPC: 0.433986 (Simulation time: 0 hr 35 min 48 sec) 
Heartbeat CPU 0 instructions: 243000003 cycles: 561735130 heartbeat IPC: 0.546092 cumulative IPC: 0.434369 (Simulation time: 0 hr 35 min 57 sec) 
Heartbeat CPU 0 instructions: 244000000 cycles: 563573107 heartbeat IPC: 0.544075 cumulative IPC: 0.434743 (Simulation time: 0 hr 36 min 6 sec) 
Heartbeat CPU 0 instructions: 245000000 cycles: 565405427 heartbeat IPC: 0.545756 cumulative IPC: 0.43512 (Simulation time: 0 hr 36 min 14 sec) 
Heartbeat CPU 0 instructions: 246000000 cycles: 567261915 heartbeat IPC: 0.538651 cumulative IPC: 0.435475 (Simulation time: 0 hr 36 min 22 sec) 
Heartbeat CPU 0 instructions: 247000000 cycles: 569158132 heartbeat IPC: 0.527366 cumulative IPC: 0.435795 (Simulation time: 0 hr 36 min 30 sec) 
Heartbeat CPU 0 instructions: 248000001 cycles: 570984849 heartbeat IPC: 0.547431 cumulative IPC: 0.436169 (Simulation time: 0 hr 36 min 39 sec) 
Heartbeat CPU 0 instructions: 249000000 cycles: 572902888 heartbeat IPC: 0.521365 cumulative IPC: 0.436467 (Simulation time: 0 hr 36 min 47 sec) 
Heartbeat CPU 0 instructions: 250000000 cycles: 574758331 heartbeat IPC: 0.538955 cumulative IPC: 0.436813 (Simulation time: 0 hr 36 min 55 sec) 
Heartbeat CPU 0 instructions: 251000000 cycles: 576697842 heartbeat IPC: 0.515594 cumulative IPC: 0.43709 (Simulation time: 0 hr 37 min 3 sec) 
Heartbeat CPU 0 instructions: 252000003 cycles: 578545661 heartbeat IPC: 0.54118 cumulative IPC: 0.437438 (Simulation time: 0 hr 37 min 12 sec) 
Heartbeat CPU 0 instructions: 253000000 cycles: 580403454 heartbeat IPC: 0.538271 cumulative IPC: 0.437775 (Simulation time: 0 hr 37 min 20 sec) 
Heartbeat CPU 0 instructions: 254000000 cycles: 582271053 heartbeat IPC: 0.535447 cumulative IPC: 0.438103 (Simulation time: 0 hr 37 min 28 sec) 
Heartbeat CPU 0 instructions: 255000002 cycles: 584120150 heartbeat IPC: 0.540806 cumulative IPC: 0.438443 (Simulation time: 0 hr 37 min 36 sec) 
Heartbeat CPU 0 instructions: 256000003 cycles: 586332452 heartbeat IPC: 0.452018 cumulative IPC: 0.438496 (Simulation time: 0 hr 37 min 44 sec) 
Heartbeat CPU 0 instructions: 257000001 cycles: 588209198 heartbeat IPC: 0.532836 cumulative IPC: 0.438811 (Simulation time: 0 hr 37 min 53 sec) 
Heartbeat CPU 0 instructions: 258000000 cycles: 590099686 heartbeat IPC: 0.528963 cumulative IPC: 0.439113 (Simulation time: 0 hr 38 min 1 sec) 
Heartbeat CPU 0 instructions: 259000000 cycles: 592015117 heartbeat IPC: 0.522076 cumulative IPC: 0.439393 (Simulation time: 0 hr 38 min 10 sec) 
Heartbeat CPU 0 instructions: 260000000 cycles: 594210659 heartbeat IPC: 0.455468 cumulative IPC: 0.439455 (Simulation time: 0 hr 38 min 17 sec) 
Heartbeat CPU 0 instructions: 261000001 cycles: 596140523 heartbeat IPC: 0.518172 cumulative IPC: 0.439721 (Simulation time: 0 hr 38 min 26 sec) 
Heartbeat CPU 0 instructions: 262000002 cycles: 598088567 heartbeat IPC: 0.513336 cumulative IPC: 0.439972 (Simulation time: 0 hr 38 min 34 sec) 
Heartbeat CPU 0 instructions: 263000000 cycles: 600083043 heartbeat IPC: 0.501384 cumulative IPC: 0.440185 (Simulation time: 0 hr 38 min 42 sec) 
Heartbeat CPU 0 instructions: 264000000 cycles: 603085619 heartbeat IPC: 0.333047 cumulative IPC: 0.439628 (Simulation time: 0 hr 38 min 49 sec) 
Heartbeat CPU 0 instructions: 265000001 cycles: 605895013 heartbeat IPC: 0.355949 cumulative IPC: 0.439223 (Simulation time: 0 hr 38 min 56 sec) 
Heartbeat CPU 0 instructions: 266000001 cycles: 608916907 heartbeat IPC: 0.330918 cumulative IPC: 0.438662 (Simulation time: 0 hr 39 min 3 sec) 
Heartbeat CPU 0 instructions: 267000002 cycles: 611602128 heartbeat IPC: 0.372409 cumulative IPC: 0.438359 (Simulation time: 0 hr 39 min 11 sec) 
Heartbeat CPU 0 instructions: 268000001 cycles: 614473072 heartbeat IPC: 0.348317 cumulative IPC: 0.43792 (Simulation time: 0 hr 39 min 18 sec) 
Heartbeat CPU 0 instructions: 269000001 cycles: 617212906 heartbeat IPC: 0.364986 cumulative IPC: 0.437582 (Simulation time: 0 hr 39 min 26 sec) 
Heartbeat CPU 0 instructions: 270000001 cycles: 619681094 heartbeat IPC: 0.405156 cumulative IPC: 0.437448 (Simulation time: 0 hr 39 min 33 sec) 
Heartbeat CPU 0 instructions: 271000001 cycles: 622416578 heartbeat IPC: 0.365566 cumulative IPC: 0.437118 (Simulation time: 0 hr 39 min 41 sec) 
Heartbeat CPU 0 instructions: 272000002 cycles: 625079907 heartbeat IPC: 0.37547 cumulative IPC: 0.436845 (Simulation time: 0 hr 39 min 48 sec) 
Heartbeat CPU 0 instructions: 273000000 cycles: 627808831 heartbeat IPC: 0.366444 cumulative IPC: 0.436526 (Simulation time: 0 hr 39 min 56 sec) 
Heartbeat CPU 0 instructions: 274000000 cycles: 631101821 heartbeat IPC: 0.303675 cumulative IPC: 0.435804 (Simulation time: 0 hr 40 min 4 sec) 
Heartbeat CPU 0 instructions: 275000000 cycles: 633718741 heartbeat IPC: 0.382129 cumulative IPC: 0.435573 (Simulation time: 0 hr 40 min 11 sec) 
Heartbeat CPU 0 instructions: 276000000 cycles: 637060555 heartbeat IPC: 0.299239 cumulative IPC: 0.434828 (Simulation time: 0 hr 40 min 19 sec) 
Heartbeat CPU 0 instructions: 277000000 cycles: 639923774 heartbeat IPC: 0.349257 cumulative IPC: 0.434429 (Simulation time: 0 hr 40 min 26 sec) 
Heartbeat CPU 0 instructions: 278000000 cycles: 642500929 heartbeat IPC: 0.388025 cumulative IPC: 0.434236 (Simulation time: 0 hr 40 min 34 sec) 
Heartbeat CPU 0 instructions: 279000002 cycles: 645578477 heartbeat IPC: 0.324935 cumulative IPC: 0.433693 (Simulation time: 0 hr 40 min 41 sec) 
Heartbeat CPU 0 instructions: 280000000 cycles: 648272736 heartbeat IPC: 0.371159 cumulative IPC: 0.433423 (Simulation time: 0 hr 40 min 49 sec) 
Heartbeat CPU 0 instructions: 281000000 cycles: 651103113 heartbeat IPC: 0.35331 cumulative IPC: 0.43306 (Simulation time: 0 hr 40 min 57 sec) 
Heartbeat CPU 0 instructions: 282000002 cycles: 654094165 heartbeat IPC: 0.334331 cumulative IPC: 0.432591 (Simulation time: 0 hr 41 min 5 sec) 
Heartbeat CPU 0 instructions: 283000001 cycles: 656743212 heartbeat IPC: 0.377494 cumulative IPC: 0.43236 (Simulation time: 0 hr 41 min 12 sec) 
Heartbeat CPU 0 instructions: 284000001 cycles: 660199632 heartbeat IPC: 0.289317 cumulative IPC: 0.431581 (Simulation time: 0 hr 41 min 19 sec) 
Heartbeat CPU 0 instructions: 285000001 cycles: 662893577 heartbeat IPC: 0.371203 cumulative IPC: 0.431326 (Simulation time: 0 hr 41 min 27 sec) 
Heartbeat CPU 0 instructions: 286000000 cycles: 665611058 heartbeat IPC: 0.367987 cumulative IPC: 0.431057 (Simulation time: 0 hr 41 min 34 sec) 
Heartbeat CPU 0 instructions: 287000000 cycles: 667240944 heartbeat IPC: 0.61354 cumulative IPC: 0.43152 (Simulation time: 0 hr 41 min 41 sec) 
Heartbeat CPU 0 instructions: 288000001 cycles: 669767293 heartbeat IPC: 0.395829 cumulative IPC: 0.43138 (Simulation time: 0 hr 41 min 50 sec) 
Heartbeat CPU 0 instructions: 289000002 cycles: 672074079 heartbeat IPC: 0.433504 cumulative IPC: 0.431388 (Simulation time: 0 hr 41 min 59 sec) 
Heartbeat CPU 0 instructions: 290000000 cycles: 674068494 heartbeat IPC: 0.501399 cumulative IPC: 0.431603 (Simulation time: 0 hr 42 min 7 sec) 
Heartbeat CPU 0 instructions: 291000000 cycles: 676721780 heartbeat IPC: 0.376891 cumulative IPC: 0.43138 (Simulation time: 0 hr 42 min 16 sec) 
Heartbeat CPU 0 instructions: 292000001 cycles: 679762552 heartbeat IPC: 0.328864 cumulative IPC: 0.430904 (Simulation time: 0 hr 42 min 26 sec) 
Heartbeat CPU 0 instructions: 293000000 cycles: 681234838 heartbeat IPC: 0.679215 cumulative IPC: 0.431461 (Simulation time: 0 hr 42 min 33 sec) 
Heartbeat CPU 0 instructions: 294000000 cycles: 683854021 heartbeat IPC: 0.381798 cumulative IPC: 0.431264 (Simulation time: 0 hr 42 min 42 sec) 
Heartbeat CPU 0 instructions: 295000003 cycles: 685138607 heartbeat IPC: 0.778463 cumulative IPC: 0.43194 (Simulation time: 0 hr 42 min 49 sec) 
Heartbeat CPU 0 instructions: 296000002 cycles: 687633700 heartbeat IPC: 0.400786 cumulative IPC: 0.431822 (Simulation time: 0 hr 42 min 58 sec) 
Heartbeat CPU 0 instructions: 297000000 cycles: 690323736 heartbeat IPC: 0.371742 cumulative IPC: 0.431579 (Simulation time: 0 hr 43 min 7 sec) 
Heartbeat CPU 0 instructions: 298000000 cycles: 691773068 heartbeat IPC: 0.689973 cumulative IPC: 0.432141 (Simulation time: 0 hr 43 min 14 sec) 
Heartbeat CPU 0 instructions: 299000001 cycles: 694252565 heartbeat IPC: 0.403308 cumulative IPC: 0.432034 (Simulation time: 0 hr 43 min 24 sec) 
Heartbeat CPU 0 instructions: 300000002 cycles: 695539562 heartbeat IPC: 0.777003 cumulative IPC: 0.432697 (Simulation time: 0 hr 43 min 31 sec) 
Heartbeat CPU 0 instructions: 301000003 cycles: 698065638 heartbeat IPC: 0.395871 cumulative IPC: 0.432559 (Simulation time: 0 hr 43 min 41 sec) 
Heartbeat CPU 0 instructions: 302000002 cycles: 699483568 heartbeat IPC: 0.705253 cumulative IPC: 0.433132 (Simulation time: 0 hr 43 min 48 sec) 
Heartbeat CPU 0 instructions: 303000002 cycles: 701816314 heartbeat IPC: 0.428679 cumulative IPC: 0.433117 (Simulation time: 0 hr 43 min 57 sec) 
Heartbeat CPU 0 instructions: 304000002 cycles: 705863019 heartbeat IPC: 0.247115 cumulative IPC: 0.432011 (Simulation time: 0 hr 44 min 10 sec) 
Heartbeat CPU 0 instructions: 305000000 cycles: 707225220 heartbeat IPC: 0.734105 cumulative IPC: 0.432614 (Simulation time: 0 hr 44 min 16 sec) 
Heartbeat CPU 0 instructions: 306000002 cycles: 709246773 heartbeat IPC: 0.49467 cumulative IPC: 0.432798 (Simulation time: 0 hr 44 min 25 sec) 
Heartbeat CPU 0 instructions: 307000002 cycles: 713022906 heartbeat IPC: 0.264821 cumulative IPC: 0.431875 (Simulation time: 0 hr 44 min 36 sec) 
Heartbeat CPU 0 instructions: 308000000 cycles: 716310276 heartbeat IPC: 0.304194 cumulative IPC: 0.431268 (Simulation time: 0 hr 44 min 47 sec) 
Heartbeat CPU 0 instructions: 309000001 cycles: 718030484 heartbeat IPC: 0.581326 cumulative IPC: 0.431641 (Simulation time: 0 hr 44 min 55 sec) 
Heartbeat CPU 0 instructions: 310000002 cycles: 720630836 heartbeat IPC: 0.384564 cumulative IPC: 0.431464 (Simulation time: 0 hr 45 min 5 sec) 
Heartbeat CPU 0 instructions: 311000002 cycles: 722118631 heartbeat IPC: 0.672136 cumulative IPC: 0.431978 (Simulation time: 0 hr 45 min 13 sec) 
Heartbeat CPU 0 instructions: 312000002 cycles: 723617746 heartbeat IPC: 0.66706 cumulative IPC: 0.432483 (Simulation time: 0 hr 45 min 20 sec) 
Heartbeat CPU 0 instructions: 313000002 cycles: 726346918 heartbeat IPC: 0.366412 cumulative IPC: 0.432226 (Simulation time: 0 hr 45 min 31 sec) 
Heartbeat CPU 0 instructions: 314000002 cycles: 730196458 heartbeat IPC: 0.259771 cumulative IPC: 0.431284 (Simulation time: 0 hr 45 min 43 sec) 
Heartbeat CPU 0 instructions: 315000001 cycles: 734027629 heartbeat IPC: 0.261017 cumulative IPC: 0.430364 (Simulation time: 0 hr 45 min 56 sec) 
Heartbeat CPU 0 instructions: 316000000 cycles: 737195396 heartbeat IPC: 0.315679 cumulative IPC: 0.429853 (Simulation time: 0 hr 46 min 7 sec) 
Heartbeat CPU 0 instructions: 317000002 cycles: 738639976 heartbeat IPC: 0.692244 cumulative IPC: 0.430385 (Simulation time: 0 hr 46 min 14 sec) 
Heartbeat CPU 0 instructions: 318000000 cycles: 741648870 heartbeat IPC: 0.332347 cumulative IPC: 0.429973 (Simulation time: 0 hr 46 min 24 sec) 
Heartbeat CPU 0 instructions: 319000000 cycles: 745539106 heartbeat IPC: 0.257054 cumulative IPC: 0.429039 (Simulation time: 0 hr 46 min 36 sec) 
Heartbeat CPU 0 instructions: 320000002 cycles: 748087583 heartbeat IPC: 0.392392 cumulative IPC: 0.42891 (Simulation time: 0 hr 46 min 46 sec) 
Heartbeat CPU 0 instructions: 321000002 cycles: 749463933 heartbeat IPC: 0.726559 cumulative IPC: 0.429475 (Simulation time: 0 hr 46 min 53 sec) 
Heartbeat CPU 0 instructions: 322000002 cycles: 753188207 heartbeat IPC: 0.268509 cumulative IPC: 0.428652 (Simulation time: 0 hr 47 min 5 sec) 
Heartbeat CPU 0 instructions: 323000000 cycles: 754460707 heartbeat IPC: 0.785853 cumulative IPC: 0.429275 (Simulation time: 0 hr 47 min 12 sec) 
Heartbeat CPU 0 instructions: 324000001 cycles: 756274652 heartbeat IPC: 0.551285 cumulative IPC: 0.429578 (Simulation time: 0 hr 47 min 20 sec) 
Heartbeat CPU 0 instructions: 325000001 cycles: 758501097 heartbeat IPC: 0.449147 cumulative IPC: 0.429637 (Simulation time: 0 hr 47 min 28 sec) 
Heartbeat CPU 0 instructions: 326000000 cycles: 760271958 heartbeat IPC: 0.564696 cumulative IPC: 0.429963 (Simulation time: 0 hr 47 min 36 sec) 
Heartbeat CPU 0 instructions: 327000002 cycles: 763995694 heartbeat IPC: 0.268548 cumulative IPC: 0.429149 (Simulation time: 0 hr 47 min 47 sec) 
Heartbeat CPU 0 instructions: 328000001 cycles: 766559444 heartbeat IPC: 0.390053 cumulative IPC: 0.429014 (Simulation time: 0 hr 47 min 57 sec) 
Heartbeat CPU 0 instructions: 329000003 cycles: 768595111 heartbeat IPC: 0.49124 cumulative IPC: 0.429184 (Simulation time: 0 hr 48 min 5 sec) 
Heartbeat CPU 0 instructions: 330000000 cycles: 771921024 heartbeat IPC: 0.300668 cumulative IPC: 0.428612 (Simulation time: 0 hr 48 min 15 sec) 
Heartbeat CPU 0 instructions: 331000001 cycles: 773783049 heartbeat IPC: 0.53705 cumulative IPC: 0.428881 (Simulation time: 0 hr 48 min 23 sec) 
Heartbeat CPU 0 instructions: 332000001 cycles: 775264812 heartbeat IPC: 0.674872 cumulative IPC: 0.429367 (Simulation time: 0 hr 48 min 30 sec) 
Heartbeat CPU 0 instructions: 333000000 cycles: 778092461 heartbeat IPC: 0.35365 cumulative IPC: 0.429083 (Simulation time: 0 hr 48 min 40 sec) 
Heartbeat CPU 0 instructions: 334000000 cycles: 779528603 heartbeat IPC: 0.69631 cumulative IPC: 0.429592 (Simulation time: 0 hr 48 min 47 sec) 
Heartbeat CPU 0 instructions: 335000000 cycles: 780854480 heartbeat IPC: 0.754218 cumulative IPC: 0.430162 (Simulation time: 0 hr 48 min 55 sec) 
Heartbeat CPU 0 instructions: 336000002 cycles: 783390151 heartbeat IPC: 0.394374 cumulative IPC: 0.430042 (Simulation time: 0 hr 49 min 4 sec) 
Heartbeat CPU 0 instructions: 337000000 cycles: 785270362 heartbeat IPC: 0.531854 cumulative IPC: 0.430294 (Simulation time: 0 hr 49 min 12 sec) 
Heartbeat CPU 0 instructions: 338000003 cycles: 788571684 heartbeat IPC: 0.30291 cumulative IPC: 0.429743 (Simulation time: 0 hr 49 min 22 sec) 
Heartbeat CPU 0 instructions: 339000000 cycles: 790354272 heartbeat IPC: 0.56098 cumulative IPC: 0.430049 (Simulation time: 0 hr 49 min 30 sec) 
Heartbeat CPU 0 instructions: 340000001 cycles: 792004492 heartbeat IPC: 0.60598 cumulative IPC: 0.430427 (Simulation time: 0 hr 49 min 37 sec) 
Heartbeat CPU 0 instructions: 341000000 cycles: 795734122 heartbeat IPC: 0.268123 cumulative IPC: 0.429642 (Simulation time: 0 hr 49 min 50 sec) 
Heartbeat CPU 0 instructions: 342000001 cycles: 799705427 heartbeat IPC: 0.251807 cumulative IPC: 0.42873 (Simulation time: 0 hr 50 min 2 sec) 
Heartbeat CPU 0 instructions: 343000000 cycles: 803502435 heartbeat IPC: 0.263365 cumulative IPC: 0.427923 (Simulation time: 0 hr 50 min 14 sec) 
Heartbeat CPU 0 instructions: 344000003 cycles: 807271963 heartbeat IPC: 0.265286 cumulative IPC: 0.427139 (Simulation time: 0 hr 50 min 26 sec) 
Heartbeat CPU 0 instructions: 345000000 cycles: 808715696 heartbeat IPC: 0.692647 cumulative IPC: 0.427628 (Simulation time: 0 hr 50 min 35 sec) 
Heartbeat CPU 0 instructions: 346000000 cycles: 809947894 heartbeat IPC: 0.811558 cumulative IPC: 0.428231 (Simulation time: 0 hr 50 min 42 sec) 
Heartbeat CPU 0 instructions: 347000001 cycles: 812255977 heartbeat IPC: 0.43326 cumulative IPC: 0.428246 (Simulation time: 0 hr 50 min 52 sec) 
Heartbeat CPU 0 instructions: 348000001 cycles: 815420392 heartbeat IPC: 0.316014 cumulative IPC: 0.427796 (Simulation time: 0 hr 51 min 2 sec) 
Heartbeat CPU 0 instructions: 349000002 cycles: 816814546 heartbeat IPC: 0.717282 cumulative IPC: 0.428306 (Simulation time: 0 hr 51 min 10 sec) 
Heartbeat CPU 0 instructions: 350000000 cycles: 819690719 heartbeat IPC: 0.347684 cumulative IPC: 0.428014 (Simulation time: 0 hr 51 min 20 sec) 
Heartbeat CPU 0 instructions: 351000002 cycles: 823661326 heartbeat IPC: 0.251851 cumulative IPC: 0.427138 (Simulation time: 0 hr 51 min 33 sec) 
Heartbeat CPU 0 instructions: 352000000 cycles: 827467615 heartbeat IPC: 0.262723 cumulative IPC: 0.426358 (Simulation time: 0 hr 51 min 46 sec) 
Heartbeat CPU 0 instructions: 353000002 cycles: 829475037 heartbeat IPC: 0.498152 cumulative IPC: 0.426537 (Simulation time: 0 hr 51 min 54 sec) 
Heartbeat CPU 0 instructions: 354000002 cycles: 831243188 heartbeat IPC: 0.565563 cumulative IPC: 0.426842 (Simulation time: 0 hr 52 min 2 sec) 
Heartbeat CPU 0 instructions: 355000001 cycles: 833519882 heartbeat IPC: 0.439233 cumulative IPC: 0.426877 (Simulation time: 0 hr 52 min 12 sec) 
Heartbeat CPU 0 instructions: 356000000 cycles: 835028477 heartbeat IPC: 0.662868 cumulative IPC: 0.427317 (Simulation time: 0 hr 52 min 20 sec) 
Heartbeat CPU 0 instructions: 357000000 cycles: 836333771 heartbeat IPC: 0.766111 cumulative IPC: 0.427862 (Simulation time: 0 hr 52 min 27 sec) 
Heartbeat CPU 0 instructions: 358000000 cycles: 840087862 heartbeat IPC: 0.266376 cumulative IPC: 0.427118 (Simulation time: 0 hr 52 min 40 sec) 
Heartbeat CPU 0 instructions: 359000002 cycles: 843874854 heartbeat IPC: 0.264062 cumulative IPC: 0.426363 (Simulation time: 0 hr 52 min 52 sec) 
Heartbeat CPU 0 instructions: 360000000 cycles: 846605230 heartbeat IPC: 0.366249 cumulative IPC: 0.426164 (Simulation time: 0 hr 53 min 2 sec) 
Heartbeat CPU 0 instructions: 361000000 cycles: 847866940 heartbeat IPC: 0.792575 cumulative IPC: 0.426726 (Simulation time: 0 hr 53 min 10 sec) 
Heartbeat CPU 0 instructions: 362000001 cycles: 850432473 heartbeat IPC: 0.389783 cumulative IPC: 0.426611 (Simulation time: 0 hr 53 min 19 sec) 
Heartbeat CPU 0 instructions: 363000000 cycles: 851822837 heartbeat IPC: 0.719235 cumulative IPC: 0.427103 (Simulation time: 0 hr 53 min 26 sec) 
Heartbeat CPU 0 instructions: 364000001 cycles: 854315600 heartbeat IPC: 0.401162 cumulative IPC: 0.427025 (Simulation time: 0 hr 53 min 36 sec) 
Heartbeat CPU 0 instructions: 365000000 cycles: 858108553 heartbeat IPC: 0.263647 cumulative IPC: 0.426281 (Simulation time: 0 hr 53 min 49 sec) 
Heartbeat CPU 0 instructions: 366000001 cycles: 859691263 heartbeat IPC: 0.631828 cumulative IPC: 0.426671 (Simulation time: 0 hr 53 min 57 sec) 
Heartbeat CPU 0 instructions: 367000002 cycles: 861255513 heartbeat IPC: 0.639285 cumulative IPC: 0.427069 (Simulation time: 0 hr 54 min 4 sec) 
Heartbeat CPU 0 instructions: 368000001 cycles: 865152398 heartbeat IPC: 0.256615 cumulative IPC: 0.426278 (Simulation time: 0 hr 54 min 17 sec) 
Heartbeat CPU 0 instructions: 369000000 cycles: 866708024 heartbeat IPC: 0.642827 cumulative IPC: 0.426678 (Simulation time: 0 hr 54 min 24 sec) 
Heartbeat CPU 0 instructions: 370000001 cycles: 868911304 heartbeat IPC: 0.453869 cumulative IPC: 0.426749 (Simulation time: 0 hr 54 min 33 sec) 
Heartbeat CPU 0 instructions: 371000003 cycles: 870362263 heartbeat IPC: 0.689201 cumulative IPC: 0.4272 (Simulation time: 0 hr 54 min 41 sec) 
Heartbeat CPU 0 instructions: 372000003 cycles: 871870161 heartbeat IPC: 0.663175 cumulative IPC: 0.42762 (Simulation time: 0 hr 54 min 48 sec) 
Heartbeat CPU 0 instructions: 373000000 cycles: 874935262 heartbeat IPC: 0.326253 cumulative IPC: 0.427254 (Simulation time: 0 hr 54 min 58 sec) 
Heartbeat CPU 0 instructions: 374000000 cycles: 876500029 heartbeat IPC: 0.639073 cumulative IPC: 0.427644 (Simulation time: 0 hr 55 min 5 sec) 
Heartbeat CPU 0 instructions: 375000003 cycles: 878603386 heartbeat IPC: 0.475432 cumulative IPC: 0.427762 (Simulation time: 0 hr 55 min 13 sec) 
Heartbeat CPU 0 instructions: 376000000 cycles: 882650696 heartbeat IPC: 0.247077 cumulative IPC: 0.426909 (Simulation time: 0 hr 55 min 26 sec) 
Heartbeat CPU 0 instructions: 377000000 cycles: 884894644 heartbeat IPC: 0.445643 cumulative IPC: 0.426958 (Simulation time: 0 hr 55 min 35 sec) 
Heartbeat CPU 0 instructions: 378000001 cycles: 886158409 heartbeat IPC: 0.791287 cumulative IPC: 0.427492 (Simulation time: 0 hr 55 min 42 sec) 
Heartbeat CPU 0 instructions: 379000002 cycles: 887792226 heartbeat IPC: 0.612064 cumulative IPC: 0.427842 (Simulation time: 0 hr 55 min 50 sec) 
Heartbeat CPU 0 instructions: 380000002 cycles: 891464404 heartbeat IPC: 0.272318 cumulative IPC: 0.427183 (Simulation time: 0 hr 56 min 2 sec) 
Heartbeat CPU 0 instructions: 381000001 cycles: 893865566 heartbeat IPC: 0.416465 cumulative IPC: 0.427153 (Simulation time: 0 hr 56 min 11 sec) 
Heartbeat CPU 0 instructions: 382000000 cycles: 895074177 heartbeat IPC: 0.827395 cumulative IPC: 0.427709 (Simulation time: 0 hr 56 min 17 sec) 
Heartbeat CPU 0 instructions: 383000001 cycles: 898434631 heartbeat IPC: 0.297579 cumulative IPC: 0.427208 (Simulation time: 0 hr 56 min 29 sec) 
Heartbeat CPU 0 instructions: 384000002 cycles: 900159869 heartbeat IPC: 0.579631 cumulative IPC: 0.427509 (Simulation time: 0 hr 56 min 36 sec) 
Heartbeat CPU 0 instructions: 385000000 cycles: 901817775 heartbeat IPC: 0.603169 cumulative IPC: 0.427841 (Simulation time: 0 hr 56 min 43 sec) 
Heartbeat CPU 0 instructions: 386000001 cycles: 904121166 heartbeat IPC: 0.434143 cumulative IPC: 0.427858 (Simulation time: 0 hr 56 min 52 sec) 
Heartbeat CPU 0 instructions: 387000000 cycles: 905522498 heartbeat IPC: 0.713606 cumulative IPC: 0.428313 (Simulation time: 0 hr 56 min 59 sec) 
Heartbeat CPU 0 instructions: 388000000 cycles: 908395769 heartbeat IPC: 0.348035 cumulative IPC: 0.428051 (Simulation time: 0 hr 57 min 9 sec) 
Heartbeat CPU 0 instructions: 389000000 cycles: 912232775 heartbeat IPC: 0.26062 cumulative IPC: 0.427327 (Simulation time: 0 hr 57 min 21 sec) 
Heartbeat CPU 0 instructions: 390000002 cycles: 914722812 heartbeat IPC: 0.401601 cumulative IPC: 0.427255 (Simulation time: 0 hr 57 min 31 sec) 
Heartbeat CPU 0 instructions: 391000000 cycles: 916257188 heartbeat IPC: 0.651729 cumulative IPC: 0.427642 (Simulation time: 0 hr 57 min 38 sec) 
Heartbeat CPU 0 instructions: 392000000 cycles: 918134552 heartbeat IPC: 0.532662 cumulative IPC: 0.427863 (Simulation time: 0 hr 57 min 46 sec) 
Heartbeat CPU 0 instructions: 393000002 cycles: 920554743 heartbeat IPC: 0.413191 cumulative IPC: 0.427823 (Simulation time: 0 hr 57 min 55 sec) 
Heartbeat CPU 0 instructions: 394000001 cycles: 922023611 heartbeat IPC: 0.680796 cumulative IPC: 0.428237 (Simulation time: 0 hr 58 min 2 sec) 
Heartbeat CPU 0 instructions: 395000000 cycles: 925254713 heartbeat IPC: 0.309492 cumulative IPC: 0.427811 (Simulation time: 0 hr 58 min 13 sec) 
Heartbeat CPU 0 instructions: 396000000 cycles: 927835197 heartbeat IPC: 0.387524 cumulative IPC: 0.427696 (Simulation time: 0 hr 58 min 22 sec) 
Heartbeat CPU 0 instructions: 397000001 cycles: 929367857 heartbeat IPC: 0.652461 cumulative IPC: 0.428077 (Simulation time: 0 hr 58 min 29 sec) 
Heartbeat CPU 0 instructions: 398000000 cycles: 932419380 heartbeat IPC: 0.327705 cumulative IPC: 0.427739 (Simulation time: 0 hr 58 min 40 sec) 
Heartbeat CPU 0 instructions: 399000000 cycles: 936140707 heartbeat IPC: 0.268721 cumulative IPC: 0.427089 (Simulation time: 0 hr 58 min 52 sec) 
Heartbeat CPU 0 instructions: 400000002 cycles: 939912293 heartbeat IPC: 0.265141 cumulative IPC: 0.426422 (Simulation time: 0 hr 59 min 4 sec) 
Heartbeat CPU 0 instructions: 401000002 cycles: 941118922 heartbeat IPC: 0.828755 cumulative IPC: 0.426952 (Simulation time: 0 hr 59 min 11 sec) 
Heartbeat CPU 0 instructions: 402000000 cycles: 942684378 heartbeat IPC: 0.63879 cumulative IPC: 0.427313 (Simulation time: 0 hr 59 min 18 sec) 
Heartbeat CPU 0 instructions: 403000000 cycles: 944809804 heartbeat IPC: 0.470494 cumulative IPC: 0.427413 (Simulation time: 0 hr 59 min 27 sec) 
Heartbeat CPU 0 instructions: 404000001 cycles: 946017183 heartbeat IPC: 0.828241 cumulative IPC: 0.427939 (Simulation time: 0 hr 59 min 34 sec) 
Heartbeat CPU 0 instructions: 405000000 cycles: 948407428 heartbeat IPC: 0.418367 cumulative IPC: 0.427914 (Simulation time: 0 hr 59 min 43 sec) 
Heartbeat CPU 0 instructions: 406000000 cycles: 949563031 heartbeat IPC: 0.865349 cumulative IPC: 0.428461 (Simulation time: 0 hr 59 min 50 sec) 
Heartbeat CPU 0 instructions: 407000000 cycles: 951842275 heartbeat IPC: 0.438742 cumulative IPC: 0.428486 (Simulation time: 0 hr 59 min 59 sec) 
Heartbeat CPU 0 instructions: 408000001 cycles: 953175117 heartbeat IPC: 0.750277 cumulative IPC: 0.428948 (Simulation time: 1 hr 0 min 6 sec) 
Heartbeat CPU 0 instructions: 409000001 cycles: 955503569 heartbeat IPC: 0.42947 cumulative IPC: 0.42895 (Simulation time: 1 hr 0 min 14 sec) 
Heartbeat CPU 0 instructions: 410000000 cycles: 958838250 heartbeat IPC: 0.299878 cumulative IPC: 0.428489 (Simulation time: 1 hr 0 min 25 sec) 
Heartbeat CPU 0 instructions: 411000001 cycles: 960425435 heartbeat IPC: 0.630047 cumulative IPC: 0.428831 (Simulation time: 1 hr 0 min 33 sec) 
Heartbeat CPU 0 instructions: 412000001 cycles: 961889259 heartbeat IPC: 0.683142 cumulative IPC: 0.429228 (Simulation time: 1 hr 0 min 40 sec) 
Heartbeat CPU 0 instructions: 413000001 cycles: 964630512 heartbeat IPC: 0.364797 cumulative IPC: 0.42904 (Simulation time: 1 hr 0 min 50 sec) 
Heartbeat CPU 0 instructions: 414000002 cycles: 965960321 heartbeat IPC: 0.751988 cumulative IPC: 0.429497 (Simulation time: 1 hr 0 min 57 sec) 
Heartbeat CPU 0 instructions: 415000003 cycles: 968626632 heartbeat IPC: 0.37505 cumulative IPC: 0.429343 (Simulation time: 1 hr 1 min 6 sec) 
Heartbeat CPU 0 instructions: 416000001 cycles: 969864460 heartbeat IPC: 0.807865 cumulative IPC: 0.429839 (Simulation time: 1 hr 1 min 13 sec) 
Heartbeat CPU 0 instructions: 417000000 cycles: 971613494 heartbeat IPC: 0.571744 cumulative IPC: 0.430101 (Simulation time: 1 hr 1 min 21 sec) 
Heartbeat CPU 0 instructions: 418000000 cycles: 974953579 heartbeat IPC: 0.299394 cumulative IPC: 0.429641 (Simulation time: 1 hr 1 min 32 sec) 
Heartbeat CPU 0 instructions: 419000003 cycles: 976118641 heartbeat IPC: 0.858326 cumulative IPC: 0.430167 (Simulation time: 1 hr 1 min 39 sec) 
Heartbeat CPU 0 instructions: 420000002 cycles: 978424136 heartbeat IPC: 0.433746 cumulative IPC: 0.430175 (Simulation time: 1 hr 1 min 48 sec) 
Heartbeat CPU 0 instructions: 421000001 cycles: 982359421 heartbeat IPC: 0.254111 cumulative IPC: 0.429451 (Simulation time: 1 hr 2 min 1 sec) 
Heartbeat CPU 0 instructions: 422000003 cycles: 984093986 heartbeat IPC: 0.576515 cumulative IPC: 0.429717 (Simulation time: 1 hr 2 min 8 sec) 
Heartbeat CPU 0 instructions: 423000002 cycles: 986046036 heartbeat IPC: 0.512281 cumulative IPC: 0.429885 (Simulation time: 1 hr 2 min 16 sec) 
Heartbeat CPU 0 instructions: 424000001 cycles: 988738500 heartbeat IPC: 0.371407 cumulative IPC: 0.429722 (Simulation time: 1 hr 2 min 26 sec) 
Heartbeat CPU 0 instructions: 425000001 cycles: 989943343 heartbeat IPC: 0.829984 cumulative IPC: 0.430222 (Simulation time: 1 hr 2 min 33 sec) 
Heartbeat CPU 0 instructions: 426000003 cycles: 991728654 heartbeat IPC: 0.560128 cumulative IPC: 0.430462 (Simulation time: 1 hr 2 min 41 sec) 
Heartbeat CPU 0 instructions: 427000001 cycles: 995355126 heartbeat IPC: 0.27575 cumulative IPC: 0.429883 (Simulation time: 1 hr 2 min 53 sec) 
Heartbeat CPU 0 instructions: 428000003 cycles: 999299318 heartbeat IPC: 0.253538 cumulative IPC: 0.429169 (Simulation time: 1 hr 3 min 6 sec) 
Heartbeat CPU 0 instructions: 429000000 cycles: 1002074119 heartbeat IPC: 0.360385 cumulative IPC: 0.428974 (Simulation time: 1 hr 3 min 15 sec) 
Heartbeat CPU 0 instructions: 430000003 cycles: 1003430064 heartbeat IPC: 0.737495 cumulative IPC: 0.429401 (Simulation time: 1 hr 3 min 23 sec) 
Heartbeat CPU 0 instructions: 431000000 cycles: 1005942378 heartbeat IPC: 0.398038 cumulative IPC: 0.429321 (Simulation time: 1 hr 3 min 32 sec) 
Heartbeat CPU 0 instructions: 432000000 cycles: 1007100290 heartbeat IPC: 0.863623 cumulative IPC: 0.429833 (Simulation time: 1 hr 3 min 39 sec) 
Heartbeat CPU 0 instructions: 433000003 cycles: 1009117189 heartbeat IPC: 0.495812 cumulative IPC: 0.429969 (Simulation time: 1 hr 3 min 47 sec) 
Heartbeat CPU 0 instructions: 434000000 cycles: 1010698517 heartbeat IPC: 0.632378 cumulative IPC: 0.430293 (Simulation time: 1 hr 3 min 55 sec) 
Heartbeat CPU 0 instructions: 435000001 cycles: 1012092481 heartbeat IPC: 0.717379 cumulative IPC: 0.430699 (Simulation time: 1 hr 4 min 2 sec) 
Heartbeat CPU 0 instructions: 436000002 cycles: 1015818736 heartbeat IPC: 0.268366 cumulative IPC: 0.430088 (Simulation time: 1 hr 4 min 14 sec) 
Heartbeat CPU 0 instructions: 437000003 cycles: 1018429216 heartbeat IPC: 0.383072 cumulative IPC: 0.429965 (Simulation time: 1 hr 4 min 24 sec) 
Heartbeat CPU 0 instructions: 438000002 cycles: 1019557847 heartbeat IPC: 0.886028 cumulative IPC: 0.430482 (Simulation time: 1 hr 4 min 31 sec) 
Heartbeat CPU 0 instructions: 439000001 cycles: 1022085369 heartbeat IPC: 0.395644 cumulative IPC: 0.430394 (Simulation time: 1 hr 4 min 41 sec) 
Heartbeat CPU 0 instructions: 440000000 cycles: 1025854502 heartbeat IPC: 0.265313 cumulative IPC: 0.429772 (Simulation time: 1 hr 4 min 53 sec) 
Heartbeat CPU 0 instructions: 441000001 cycles: 1028707509 heartbeat IPC: 0.350508 cumulative IPC: 0.429547 (Simulation time: 1 hr 5 min 3 sec) 
Heartbeat CPU 0 instructions: 442000002 cycles: 1030125322 heartbeat IPC: 0.705312 cumulative IPC: 0.429936 (Simulation time: 1 hr 5 min 11 sec) 
Heartbeat CPU 0 instructions: 443000002 cycles: 1032506546 heartbeat IPC: 0.419952 cumulative IPC: 0.429912 (Simulation time: 1 hr 5 min 20 sec) 
Heartbeat CPU 0 instructions: 444000001 cycles: 1035503722 heartbeat IPC: 0.333647 cumulative IPC: 0.429627 (Simulation time: 1 hr 5 min 31 sec) 
Heartbeat CPU 0 instructions: 445000001 cycles: 1036876177 heartbeat IPC: 0.728621 cumulative IPC: 0.430032 (Simulation time: 1 hr 5 min 38 sec) 
Heartbeat CPU 0 instructions: 446000003 cycles: 1039433028 heartbeat IPC: 0.391107 cumulative IPC: 0.429934 (Simulation time: 1 hr 5 min 47 sec) 
Heartbeat CPU 0 instructions: 447000000 cycles: 1042220859 heartbeat IPC: 0.358701 cumulative IPC: 0.429739 (Simulation time: 1 hr 5 min 58 sec) 
Heartbeat CPU 0 instructions: 448000002 cycles: 1044020754 heartbeat IPC: 0.555589 cumulative IPC: 0.429961 (Simulation time: 1 hr 6 min 6 sec) 
Heartbeat CPU 0 instructions: 449000000 cycles: 1045571187 heartbeat IPC: 0.64498 cumulative IPC: 0.430288 (Simulation time: 1 hr 6 min 13 sec) 
Heartbeat CPU 0 instructions: 450000000 cycles: 1048367889 heartbeat IPC: 0.357564 cumulative IPC: 0.430089 (Simulation time: 1 hr 6 min 23 sec) 
Heartbeat CPU 0 instructions: 451000000 cycles: 1049573353 heartbeat IPC: 0.829556 cumulative IPC: 0.430559 (Simulation time: 1 hr 6 min 30 sec) 
Heartbeat CPU 0 instructions: 452000003 cycles: 1052059102 heartbeat IPC: 0.402294 cumulative IPC: 0.430491 (Simulation time: 1 hr 6 min 39 sec) 
Heartbeat CPU 0 instructions: 453000003 cycles: 1053387758 heartbeat IPC: 0.75264 cumulative IPC: 0.430907 (Simulation time: 1 hr 6 min 47 sec) 
Heartbeat CPU 0 instructions: 454000000 cycles: 1055247908 heartbeat IPC: 0.537589 cumulative IPC: 0.4311 (Simulation time: 1 hr 6 min 54 sec) 
Heartbeat CPU 0 instructions: 455000001 cycles: 1057745192 heartbeat IPC: 0.400435 cumulative IPC: 0.431026 (Simulation time: 1 hr 7 min 4 sec) 
Heartbeat CPU 0 instructions: 456000003 cycles: 1059043309 heartbeat IPC: 0.770348 cumulative IPC: 0.431452 (Simulation time: 1 hr 7 min 11 sec) 
Heartbeat CPU 0 instructions: 457000000 cycles: 1060707618 heartbeat IPC: 0.600848 cumulative IPC: 0.431724 (Simulation time: 1 hr 7 min 18 sec) 
Heartbeat CPU 0 instructions: 458000001 cycles: 1063532124 heartbeat IPC: 0.354045 cumulative IPC: 0.431513 (Simulation time: 1 hr 7 min 28 sec) 
Heartbeat CPU 0 instructions: 459000000 cycles: 1065137669 heartbeat IPC: 0.622841 cumulative IPC: 0.431808 (Simulation time: 1 hr 7 min 36 sec) 
Heartbeat CPU 0 instructions: 460000001 cycles: 1066722148 heartbeat IPC: 0.631123 cumulative IPC: 0.432112 (Simulation time: 1 hr 7 min 43 sec) 
Heartbeat CPU 0 instructions: 461000002 cycles: 1069276534 heartbeat IPC: 0.391484 cumulative IPC: 0.432012 (Simulation time: 1 hr 7 min 53 sec) 
Heartbeat CPU 0 instructions: 462000000 cycles: 1070777712 heartbeat IPC: 0.666142 cumulative IPC: 0.432348 (Simulation time: 1 hr 8 min 0 sec) 
Heartbeat CPU 0 instructions: 463000002 cycles: 1072482808 heartbeat IPC: 0.586478 cumulative IPC: 0.432599 (Simulation time: 1 hr 8 min 8 sec) 
Heartbeat CPU 0 instructions: 464000002 cycles: 1074918959 heartbeat IPC: 0.410484 cumulative IPC: 0.432548 (Simulation time: 1 hr 8 min 17 sec) 
Heartbeat CPU 0 instructions: 465000001 cycles: 1076250563 heartbeat IPC: 0.750973 cumulative IPC: 0.432951 (Simulation time: 1 hr 8 min 24 sec) 
Heartbeat CPU 0 instructions: 466000002 cycles: 1078898432 heartbeat IPC: 0.377663 cumulative IPC: 0.432812 (Simulation time: 1 hr 8 min 34 sec) 
Heartbeat CPU 0 instructions: 467000000 cycles: 1080540089 heartbeat IPC: 0.609139 cumulative IPC: 0.433087 (Simulation time: 1 hr 8 min 41 sec) 
Heartbeat CPU 0 instructions: 468000002 cycles: 1082206708 heartbeat IPC: 0.600018 cumulative IPC: 0.43335 (Simulation time: 1 hr 8 min 49 sec) 
Heartbeat CPU 0 instructions: 469000001 cycles: 1085983127 heartbeat IPC: 0.264801 cumulative IPC: 0.43275 (Simulation time: 1 hr 9 min 1 sec) 
Heartbeat CPU 0 instructions: 470000000 cycles: 1087444098 heartbeat IPC: 0.684476 cumulative IPC: 0.433096 (Simulation time: 1 hr 9 min 8 sec) 
Heartbeat CPU 0 instructions: 471000002 cycles: 1089503897 heartbeat IPC: 0.485485 cumulative IPC: 0.433198 (Simulation time: 1 hr 9 min 17 sec) 
Heartbeat CPU 0 instructions: 472000001 cycles: 1093145839 heartbeat IPC: 0.274579 cumulative IPC: 0.432657 (Simulation time: 1 hr 9 min 29 sec) 
Heartbeat CPU 0 instructions: 473000000 cycles: 1097073258 heartbeat IPC: 0.25462 cumulative IPC: 0.432004 (Simulation time: 1 hr 9 min 41 sec) 
Heartbeat CPU 0 instructions: 474000000 cycles: 1101031850 heartbeat IPC: 0.252615 cumulative IPC: 0.431344 (Simulation time: 1 hr 9 min 54 sec) 
Heartbeat CPU 0 instructions: 475000000 cycles: 1104767251 heartbeat IPC: 0.267709 cumulative IPC: 0.430778 (Simulation time: 1 hr 10 min 6 sec) 
Heartbeat CPU 0 instructions: 476000000 cycles: 1107687644 heartbeat IPC: 0.34242 cumulative IPC: 0.430539 (Simulation time: 1 hr 10 min 17 sec) 
Heartbeat CPU 0 instructions: 477000000 cycles: 1109258372 heartbeat IPC: 0.636647 cumulative IPC: 0.430838 (Simulation time: 1 hr 10 min 24 sec) 
Heartbeat CPU 0 instructions: 478000002 cycles: 1111891703 heartbeat IPC: 0.379748 cumulative IPC: 0.430714 (Simulation time: 1 hr 10 min 34 sec) 
Heartbeat CPU 0 instructions: 479000001 cycles: 1113060266 heartbeat IPC: 0.855751 cumulative IPC: 0.431171 (Simulation time: 1 hr 10 min 40 sec) 
Heartbeat CPU 0 instructions: 480000000 cycles: 1114809358 heartbeat IPC: 0.571725 cumulative IPC: 0.431397 (Simulation time: 1 hr 10 min 48 sec) 
Heartbeat CPU 0 instructions: 481000002 cycles: 1116726621 heartbeat IPC: 0.521578 cumulative IPC: 0.431555 (Simulation time: 1 hr 10 min 57 sec) 
Heartbeat CPU 0 instructions: 482000002 cycles: 1118448721 heartbeat IPC: 0.580686 cumulative IPC: 0.43179 (Simulation time: 1 hr 11 min 4 sec) 
Heartbeat CPU 0 instructions: 483000000 cycles: 1121785614 heartbeat IPC: 0.299679 cumulative IPC: 0.431388 (Simulation time: 1 hr 11 min 15 sec) 
Heartbeat CPU 0 instructions: 484000000 cycles: 1123917979 heartbeat IPC: 0.468963 cumulative IPC: 0.431461 (Simulation time: 1 hr 11 min 24 sec) 
Heartbeat CPU 0 instructions: 485000003 cycles: 1125185995 heartbeat IPC: 0.788636 cumulative IPC: 0.431873 (Simulation time: 1 hr 11 min 32 sec) 
Heartbeat CPU 0 instructions: 486000003 cycles: 1127359655 heartbeat IPC: 0.460054 cumulative IPC: 0.431928 (Simulation time: 1 hr 11 min 41 sec) 
Heartbeat CPU 0 instructions: 487000001 cycles: 1131249988 heartbeat IPC: 0.257047 cumulative IPC: 0.431313 (Simulation time: 1 hr 11 min 54 sec) 
Heartbeat CPU 0 instructions: 488000000 cycles: 1134307884 heartbeat IPC: 0.327022 cumulative IPC: 0.431025 (Simulation time: 1 hr 12 min 5 sec) 
Heartbeat CPU 0 instructions: 489000001 cycles: 1135667397 heartbeat IPC: 0.735558 cumulative IPC: 0.431398 (Simulation time: 1 hr 12 min 12 sec) 
Heartbeat CPU 0 instructions: 490000002 cycles: 1138740080 heartbeat IPC: 0.325449 cumulative IPC: 0.431106 (Simulation time: 1 hr 12 min 22 sec) 
Heartbeat CPU 0 instructions: 491000000 cycles: 1140490977 heartbeat IPC: 0.571135 cumulative IPC: 0.431326 (Simulation time: 1 hr 12 min 30 sec) 
Heartbeat CPU 0 instructions: 492000002 cycles: 1143264934 heartbeat IPC: 0.360497 cumulative IPC: 0.43115 (Simulation time: 1 hr 12 min 39 sec) 
Heartbeat CPU 0 instructions: 493000001 cycles: 1146043623 heartbeat IPC: 0.359882 cumulative IPC: 0.430973 (Simulation time: 1 hr 12 min 49 sec) 
Heartbeat CPU 0 instructions: 494000001 cycles: 1147282101 heartbeat IPC: 0.807443 cumulative IPC: 0.431389 (Simulation time: 1 hr 12 min 56 sec) 
Heartbeat CPU 0 instructions: 495000000 cycles: 1148655696 heartbeat IPC: 0.728016 cumulative IPC: 0.431752 (Simulation time: 1 hr 13 min 3 sec) 
Heartbeat CPU 0 instructions: 496000000 cycles: 1151591182 heartbeat IPC: 0.340659 cumulative IPC: 0.431514 (Simulation time: 1 hr 13 min 13 sec) 
Heartbeat CPU 0 instructions: 497000001 cycles: 1153989449 heartbeat IPC: 0.416968 cumulative IPC: 0.431483 (Simulation time: 1 hr 13 min 21 sec) 
Heartbeat CPU 0 instructions: 498000000 cycles: 1156513226 heartbeat IPC: 0.396231 cumulative IPC: 0.431405 (Simulation time: 1 hr 13 min 30 sec) 
Heartbeat CPU 0 instructions: 499000003 cycles: 1160624148 heartbeat IPC: 0.243255 cumulative IPC: 0.430723 (Simulation time: 1 hr 13 min 43 sec) 
Heartbeat CPU 0 instructions: 500000000 cycles: 1163696673 heartbeat IPC: 0.325464 cumulative IPC: 0.430439 (Simulation time: 1 hr 13 min 53 sec) 
Heartbeat CPU 0 instructions: 501000002 cycles: 1165437717 heartbeat IPC: 0.574369 cumulative IPC: 0.430659 (Simulation time: 1 hr 14 min 0 sec) 
Heartbeat CPU 0 instructions: 502000000 cycles: 1168057950 heartbeat IPC: 0.381645 cumulative IPC: 0.430547 (Simulation time: 1 hr 14 min 10 sec) 
Heartbeat CPU 0 instructions: 503000003 cycles: 1169877039 heartbeat IPC: 0.549727 cumulative IPC: 0.430736 (Simulation time: 1 hr 14 min 17 sec) 
Heartbeat CPU 0 instructions: 504000003 cycles: 1172661837 heartbeat IPC: 0.359092 cumulative IPC: 0.430562 (Simulation time: 1 hr 14 min 27 sec) 
Heartbeat CPU 0 instructions: 505000001 cycles: 1176099869 heartbeat IPC: 0.290863 cumulative IPC: 0.430145 (Simulation time: 1 hr 14 min 38 sec) 
Heartbeat CPU 0 instructions: 506000000 cycles: 1177480530 heartbeat IPC: 0.72429 cumulative IPC: 0.430497 (Simulation time: 1 hr 14 min 45 sec) 
Heartbeat CPU 0 instructions: 507000002 cycles: 1180102857 heartbeat IPC: 0.381341 cumulative IPC: 0.430386 (Simulation time: 1 hr 14 min 54 sec) 
Heartbeat CPU 0 instructions: 508000000 cycles: 1183959106 heartbeat IPC: 0.259319 cumulative IPC: 0.429816 (Simulation time: 1 hr 15 min 7 sec) 
Heartbeat CPU 0 instructions: 509000000 cycles: 1185553449 heartbeat IPC: 0.627218 cumulative IPC: 0.430087 (Simulation time: 1 hr 15 min 14 sec) 
Heartbeat CPU 0 instructions: 510000000 cycles: 1187496173 heartbeat IPC: 0.514741 cumulative IPC: 0.430229 (Simulation time: 1 hr 15 min 22 sec) 
Finished CPU 0 instructions: 500000003 cycles: 1162171774 cumulative IPC: 0.430229 (Simulation time: 1 hr 15 min 22 sec) 

ChampSim completed all CPUs

Region of Interest Statistics

CPU 0 cumulative IPC: 0.430229 instructions: 500000003 cycles: 1162171774
L1D TOTAL     ACCESS:  224202850  HIT:  196371190  MISS:   27831660
L1D LOAD      ACCESS:  118784825  HIT:   92083105  MISS:   26701720
L1D RFO       ACCESS:  105418025  HIT:  104288085  MISS:    1129940
L1D PREFETCH  ACCESS:          0  HIT:          0  MISS:          0
L1D WRITEBACK ACCESS:          0  HIT:          0  MISS:          0
L1D PREFETCH  REQUESTED:          0  ISSUED:          0  USEFUL:          0  USELESS:          0  UAC CORRECT:          0
L1D AVERAGE MISS LATENCY: 126.51 cycles
L1I TOTAL     ACCESS:  112356065  HIT:  112356055  MISS:         10
L1I LOAD      ACCESS:  112356065  HIT:  112356055  MISS:         10
L1I RFO       ACCESS:          0  HIT:          0  MISS:          0
L1I PREFETCH  ACCESS:          0  HIT:          0  MISS:          0
L1I WRITEBACK ACCESS:          0  HIT:          0  MISS:          0
L1I PREFETCH  REQUESTED:          0  ISSUED:          0  USEFUL:          0  USELESS:          0  UAC CORRECT:          0
L1I AVERAGE MISS LATENCY: 242 cycles
L2C TOTAL     ACCESS:   30108622  HIT:    2504144  MISS:   27604478
L2C LOAD      ACCESS:   26701610  HIT:     227727  MISS:   26473883
L2C RFO       ACCESS:    1129905  HIT:      16215  MISS:    1113690
L2C PREFETCH  ACCESS:          0  HIT:          0  MISS:          0
L2C WRITEBACK ACCESS:    2277107  HIT:    2260202  MISS:      16905
L2C PREFETCH  REQUESTED:          0  ISSUED:          0  USEFUL:          0  USELESS:          0  UAC CORRECT:          0
L2C AVERAGE MISS LATENCY: 111.264 cycles
LLC TOTAL     ACCESS:   38162015  HIT:   10578473  MISS:   27583542
LLC LOAD      ACCESS:   26473883  HIT:    8174120  MISS:   18299763
LLC RFO       ACCESS:    1113689  HIT:        794  MISS:    1112895
LLC PREFETCH  ACCESS:    8469392  HIT:     306397  MISS:    8162995
LLC WRITEBACK ACCESS:    2105051  HIT:    2097162  MISS:       7889
LLC PREFETCH  REQUESTED:   20777634  ISSUED:   20777634  USEFUL:    8152657  USELESS:      10338  UAC CORRECT:    6082891
LLC AVERAGE MISS LATENCY: 121.648 cycles
Major fault: 0 Minor fault: 129408
performance stats:
mapping cache size: 5804272
divergence: 4339178

DRAM Statistics
 CHANNEL 0
 RQ ROW_BUFFER_HIT:   12197319  ROW_BUFFER_MISS:    1593860
 DBUS_CONGESTED:   13316939
 WQ ROW_BUFFER_HIT:     926714  ROW_BUFFER_MISS:     117581  FULL:          0

 CHANNEL 1
 RQ ROW_BUFFER_HIT:   12190050  ROW_BUFFER_MISS:    1594399
 DBUS_CONGESTED:   13316939
 WQ ROW_BUFFER_HIT:     925287  ROW_BUFFER_MISS:     114986  FULL:          0

 AVG_CONGESTED_CYCLE: 16

CPU 0 Branch Prediction Accuracy: 98.9777% MPKI: 1.40512 Average ROB Occupancy at Mispredict: 195.159

Branch types
NOT_BRANCH: 431275352 86.2551%
BRANCH_DIRECT_JUMP: 5396960 1.07939%
BRANCH_INDIRECT: 0 0%
BRANCH_CONDITIONAL: 63326393 12.6653%
BRANCH_DIRECT_CALL: 615 0.000123%
BRANCH_INDIRECT_CALL: 0 0%
BRANCH_RETURN: 615 0.000123%
BRANCH_OTHER: 0 0%

