
*** ChampSim Multicore Out-of-Order Simulator ***

Warmup Instructions: 1000000
Prefetch Warmup Instructions: 10000000
Simulation Instructions: 500000000
Stat Printing Period: 1000000
Number of CPUs: 1
LLC sets: 2048
LLC ways: 16
Off-chip DRAM Size: 32768 MB Channels: 2 Width: 64-bit Data Rate: 1024 MT/s

CPU 0 runs /scratch/cluster/cmolder/ML-DPC/ChampSimTraces/spec17/605.mcf-s0.trace.xz
Read seed: 267
Heartbeat CPU 0 instructions: 1000001 cycles: 418979 heartbeat IPC: 2.38676 cumulative IPC: 2.38676 (Simulation time: 0 hr 0 min 7 sec) 

Warmup complete CPU 0 instructions: 1000001 cycles: 418979 (Simulation time: 0 hr 0 min 7 sec) 

Heartbeat CPU 0 instructions: 2000001 cycles: 3150534 heartbeat IPC: 0.366092 cumulative IPC: 0.366092 (Simulation time: 0 hr 0 min 14 sec) 
Heartbeat CPU 0 instructions: 3000000 cycles: 5872394 heartbeat IPC: 0.367395 cumulative IPC: 0.366742 (Simulation time: 0 hr 0 min 20 sec) 
Heartbeat CPU 0 instructions: 4000001 cycles: 8590399 heartbeat IPC: 0.367917 cumulative IPC: 0.367133 (Simulation time: 0 hr 0 min 26 sec) 
Heartbeat CPU 0 instructions: 5000003 cycles: 11321161 heartbeat IPC: 0.366199 cumulative IPC: 0.366899 (Simulation time: 0 hr 0 min 32 sec) 
Heartbeat CPU 0 instructions: 6000000 cycles: 14030875 heartbeat IPC: 0.369042 cumulative IPC: 0.367326 (Simulation time: 0 hr 0 min 39 sec) 
Heartbeat CPU 0 instructions: 7000001 cycles: 16965060 heartbeat IPC: 0.34081 cumulative IPC: 0.362624 (Simulation time: 0 hr 0 min 45 sec) 
Heartbeat CPU 0 instructions: 8000003 cycles: 19696098 heartbeat IPC: 0.366162 cumulative IPC: 0.363125 (Simulation time: 0 hr 0 min 51 sec) 
Heartbeat CPU 0 instructions: 9000002 cycles: 22380225 heartbeat IPC: 0.37256 cumulative IPC: 0.364278 (Simulation time: 0 hr 0 min 56 sec) 
Heartbeat CPU 0 instructions: 10000002 cycles: 25025555 heartbeat IPC: 0.378025 cumulative IPC: 0.365756 (Simulation time: 0 hr 1 min 2 sec) 

Warmup complete CPU 0 instructions: 10000002 cycles: 25025555 (Simulation time: 0 hr 1 min 2 sec) 

Heartbeat CPU 0 instructions: 11000000 cycles: 27528988 heartbeat IPC: 0.399451 cumulative IPC: 0.399451 (Simulation time: 0 hr 1 min 9 sec) 
Heartbeat CPU 0 instructions: 12000003 cycles: 30196695 heartbeat IPC: 0.374855 cumulative IPC: 0.386762 (Simulation time: 0 hr 1 min 15 sec) 
Heartbeat CPU 0 instructions: 13000003 cycles: 32777542 heartbeat IPC: 0.38747 cumulative IPC: 0.386998 (Simulation time: 0 hr 1 min 22 sec) 
Heartbeat CPU 0 instructions: 14000003 cycles: 35228161 heartbeat IPC: 0.40806 cumulative IPC: 0.392057 (Simulation time: 0 hr 1 min 27 sec) 
Heartbeat CPU 0 instructions: 15000001 cycles: 37627089 heartbeat IPC: 0.416852 cumulative IPC: 0.396777 (Simulation time: 0 hr 1 min 34 sec) 
Heartbeat CPU 0 instructions: 16000000 cycles: 40051492 heartbeat IPC: 0.412472 cumulative IPC: 0.399309 (Simulation time: 0 hr 1 min 39 sec) 
Heartbeat CPU 0 instructions: 17000001 cycles: 42612936 heartbeat IPC: 0.390405 cumulative IPC: 0.398013 (Simulation time: 0 hr 1 min 45 sec) 
Heartbeat CPU 0 instructions: 18000000 cycles: 45376055 heartbeat IPC: 0.36191 cumulative IPC: 0.393111 (Simulation time: 0 hr 1 min 52 sec) 
Heartbeat CPU 0 instructions: 19000000 cycles: 47909612 heartbeat IPC: 0.394702 cumulative IPC: 0.393287 (Simulation time: 0 hr 1 min 58 sec) 
Heartbeat CPU 0 instructions: 20000001 cycles: 50375907 heartbeat IPC: 0.405467 cumulative IPC: 0.394472 (Simulation time: 0 hr 2 min 3 sec) 
Heartbeat CPU 0 instructions: 21000003 cycles: 52860255 heartbeat IPC: 0.402521 cumulative IPC: 0.39519 (Simulation time: 0 hr 2 min 9 sec) 
Heartbeat CPU 0 instructions: 22000000 cycles: 55295024 heartbeat IPC: 0.410715 cumulative IPC: 0.396439 (Simulation time: 0 hr 2 min 15 sec) 
Heartbeat CPU 0 instructions: 23000001 cycles: 57815112 heartbeat IPC: 0.396812 cumulative IPC: 0.396468 (Simulation time: 0 hr 2 min 21 sec) 
Heartbeat CPU 0 instructions: 24000000 cycles: 60536505 heartbeat IPC: 0.367458 cumulative IPC: 0.394245 (Simulation time: 0 hr 2 min 28 sec) 
Heartbeat CPU 0 instructions: 25000002 cycles: 63053479 heartbeat IPC: 0.397303 cumulative IPC: 0.394447 (Simulation time: 0 hr 2 min 34 sec) 
Heartbeat CPU 0 instructions: 26000001 cycles: 65507484 heartbeat IPC: 0.407497 cumulative IPC: 0.395238 (Simulation time: 0 hr 2 min 39 sec) 
Heartbeat CPU 0 instructions: 27000000 cycles: 67950226 heartbeat IPC: 0.409376 cumulative IPC: 0.396043 (Simulation time: 0 hr 2 min 45 sec) 
Heartbeat CPU 0 instructions: 28000000 cycles: 70415310 heartbeat IPC: 0.405666 cumulative IPC: 0.396565 (Simulation time: 0 hr 2 min 51 sec) 
Heartbeat CPU 0 instructions: 29000001 cycles: 72926562 heartbeat IPC: 0.398208 cumulative IPC: 0.396651 (Simulation time: 0 hr 2 min 57 sec) 
Heartbeat CPU 0 instructions: 30000000 cycles: 75404722 heartbeat IPC: 0.403525 cumulative IPC: 0.396989 (Simulation time: 0 hr 3 min 3 sec) 
Heartbeat CPU 0 instructions: 31000002 cycles: 77850410 heartbeat IPC: 0.408884 cumulative IPC: 0.39754 (Simulation time: 0 hr 3 min 8 sec) 
Heartbeat CPU 0 instructions: 32000001 cycles: 80372339 heartbeat IPC: 0.396521 cumulative IPC: 0.397494 (Simulation time: 0 hr 3 min 14 sec) 
Heartbeat CPU 0 instructions: 33000000 cycles: 82814123 heartbeat IPC: 0.409536 cumulative IPC: 0.398003 (Simulation time: 0 hr 3 min 20 sec) 
Heartbeat CPU 0 instructions: 34000000 cycles: 85292811 heartbeat IPC: 0.403439 cumulative IPC: 0.398226 (Simulation time: 0 hr 3 min 26 sec) 
Heartbeat CPU 0 instructions: 35000001 cycles: 87736770 heartbeat IPC: 0.409173 cumulative IPC: 0.398653 (Simulation time: 0 hr 3 min 31 sec) 
Heartbeat CPU 0 instructions: 36000001 cycles: 90316744 heartbeat IPC: 0.387601 cumulative IPC: 0.398216 (Simulation time: 0 hr 3 min 37 sec) 
Heartbeat CPU 0 instructions: 37000000 cycles: 93081538 heartbeat IPC: 0.36169 cumulative IPC: 0.396732 (Simulation time: 0 hr 3 min 43 sec) 
Heartbeat CPU 0 instructions: 38000003 cycles: 95530881 heartbeat IPC: 0.408274 cumulative IPC: 0.397133 (Simulation time: 0 hr 3 min 49 sec) 
Heartbeat CPU 0 instructions: 39000000 cycles: 97990161 heartbeat IPC: 0.406622 cumulative IPC: 0.397453 (Simulation time: 0 hr 3 min 55 sec) 
Heartbeat CPU 0 instructions: 40000001 cycles: 100473265 heartbeat IPC: 0.402722 cumulative IPC: 0.397626 (Simulation time: 0 hr 4 min 0 sec) 
Heartbeat CPU 0 instructions: 41000000 cycles: 102932456 heartbeat IPC: 0.406637 cumulative IPC: 0.397911 (Simulation time: 0 hr 4 min 6 sec) 
Heartbeat CPU 0 instructions: 42000000 cycles: 105479345 heartbeat IPC: 0.392636 cumulative IPC: 0.397744 (Simulation time: 0 hr 4 min 12 sec) 
Heartbeat CPU 0 instructions: 43000000 cycles: 108236586 heartbeat IPC: 0.362681 cumulative IPC: 0.396582 (Simulation time: 0 hr 4 min 18 sec) 
Heartbeat CPU 0 instructions: 44000000 cycles: 110725940 heartbeat IPC: 0.401711 cumulative IPC: 0.396731 (Simulation time: 0 hr 4 min 25 sec) 
Heartbeat CPU 0 instructions: 45000002 cycles: 113141943 heartbeat IPC: 0.413908 cumulative IPC: 0.397202 (Simulation time: 0 hr 4 min 31 sec) 
Heartbeat CPU 0 instructions: 46000000 cycles: 115579786 heartbeat IPC: 0.410198 cumulative IPC: 0.397552 (Simulation time: 0 hr 4 min 37 sec) 
Heartbeat CPU 0 instructions: 47000000 cycles: 118006129 heartbeat IPC: 0.412143 cumulative IPC: 0.397933 (Simulation time: 0 hr 4 min 43 sec) 
Heartbeat CPU 0 instructions: 48000000 cycles: 120571818 heartbeat IPC: 0.389759 cumulative IPC: 0.397713 (Simulation time: 0 hr 4 min 49 sec) 
Heartbeat CPU 0 instructions: 49000001 cycles: 123250556 heartbeat IPC: 0.373311 cumulative IPC: 0.397048 (Simulation time: 0 hr 4 min 55 sec) 
Heartbeat CPU 0 instructions: 50000001 cycles: 125705566 heartbeat IPC: 0.40733 cumulative IPC: 0.397298 (Simulation time: 0 hr 5 min 0 sec) 
Heartbeat CPU 0 instructions: 51000003 cycles: 128125693 heartbeat IPC: 0.413202 cumulative IPC: 0.397672 (Simulation time: 0 hr 5 min 6 sec) 
Heartbeat CPU 0 instructions: 52000000 cycles: 130578057 heartbeat IPC: 0.407769 cumulative IPC: 0.397906 (Simulation time: 0 hr 5 min 12 sec) 
Heartbeat CPU 0 instructions: 53000000 cycles: 133120870 heartbeat IPC: 0.393265 cumulative IPC: 0.397797 (Simulation time: 0 hr 5 min 18 sec) 
Heartbeat CPU 0 instructions: 54000003 cycles: 135738818 heartbeat IPC: 0.38198 cumulative IPC: 0.397423 (Simulation time: 0 hr 5 min 23 sec) 
Heartbeat CPU 0 instructions: 55000000 cycles: 138138352 heartbeat IPC: 0.416746 cumulative IPC: 0.397833 (Simulation time: 0 hr 5 min 29 sec) 
Heartbeat CPU 0 instructions: 56000000 cycles: 140558493 heartbeat IPC: 0.413199 cumulative IPC: 0.398155 (Simulation time: 0 hr 5 min 34 sec) 
Heartbeat CPU 0 instructions: 57000000 cycles: 143042541 heartbeat IPC: 0.402569 cumulative IPC: 0.398248 (Simulation time: 0 hr 5 min 40 sec) 
Heartbeat CPU 0 instructions: 58000000 cycles: 145763401 heartbeat IPC: 0.367531 cumulative IPC: 0.397556 (Simulation time: 0 hr 5 min 46 sec) 
Heartbeat CPU 0 instructions: 59000000 cycles: 148180743 heartbeat IPC: 0.413678 cumulative IPC: 0.397872 (Simulation time: 0 hr 5 min 51 sec) 
Heartbeat CPU 0 instructions: 60000001 cycles: 150580047 heartbeat IPC: 0.416788 cumulative IPC: 0.398233 (Simulation time: 0 hr 5 min 56 sec) 
Heartbeat CPU 0 instructions: 61000002 cycles: 152988365 heartbeat IPC: 0.415228 cumulative IPC: 0.398553 (Simulation time: 0 hr 6 min 2 sec) 
Heartbeat CPU 0 instructions: 62000000 cycles: 155815207 heartbeat IPC: 0.353751 cumulative IPC: 0.397585 (Simulation time: 0 hr 6 min 7 sec) 
Heartbeat CPU 0 instructions: 63000000 cycles: 158259660 heartbeat IPC: 0.409089 cumulative IPC: 0.397796 (Simulation time: 0 hr 6 min 13 sec) 
Heartbeat CPU 0 instructions: 64000001 cycles: 160692161 heartbeat IPC: 0.4111 cumulative IPC: 0.398035 (Simulation time: 0 hr 6 min 18 sec) 
Heartbeat CPU 0 instructions: 65000001 cycles: 163169349 heartbeat IPC: 0.403684 cumulative IPC: 0.398136 (Simulation time: 0 hr 6 min 23 sec) 
Heartbeat CPU 0 instructions: 66000000 cycles: 165992429 heartbeat IPC: 0.354223 cumulative IPC: 0.397256 (Simulation time: 0 hr 6 min 29 sec) 
Heartbeat CPU 0 instructions: 67000002 cycles: 168401041 heartbeat IPC: 0.415178 cumulative IPC: 0.397557 (Simulation time: 0 hr 6 min 34 sec) 
Heartbeat CPU 0 instructions: 68000000 cycles: 170835359 heartbeat IPC: 0.410792 cumulative IPC: 0.397778 (Simulation time: 0 hr 6 min 39 sec) 
Heartbeat CPU 0 instructions: 69000002 cycles: 173340169 heartbeat IPC: 0.399233 cumulative IPC: 0.397803 (Simulation time: 0 hr 6 min 45 sec) 
Heartbeat CPU 0 instructions: 70000001 cycles: 176104997 heartbeat IPC: 0.361686 cumulative IPC: 0.397142 (Simulation time: 0 hr 6 min 50 sec) 
Heartbeat CPU 0 instructions: 71000002 cycles: 178555263 heartbeat IPC: 0.408119 cumulative IPC: 0.397317 (Simulation time: 0 hr 6 min 56 sec) 
Heartbeat CPU 0 instructions: 72000001 cycles: 180978960 heartbeat IPC: 0.412592 cumulative IPC: 0.397555 (Simulation time: 0 hr 7 min 1 sec) 
Heartbeat CPU 0 instructions: 73000003 cycles: 183404117 heartbeat IPC: 0.412345 cumulative IPC: 0.397781 (Simulation time: 0 hr 7 min 7 sec) 
Heartbeat CPU 0 instructions: 74000003 cycles: 186077234 heartbeat IPC: 0.374095 cumulative IPC: 0.397388 (Simulation time: 0 hr 7 min 13 sec) 
Heartbeat CPU 0 instructions: 75000001 cycles: 188685206 heartbeat IPC: 0.383439 cumulative IPC: 0.397166 (Simulation time: 0 hr 7 min 19 sec) 
Heartbeat CPU 0 instructions: 76000002 cycles: 191063043 heartbeat IPC: 0.420551 cumulative IPC: 0.397501 (Simulation time: 0 hr 7 min 24 sec) 
Heartbeat CPU 0 instructions: 77000000 cycles: 193486143 heartbeat IPC: 0.412694 cumulative IPC: 0.397719 (Simulation time: 0 hr 7 min 30 sec) 
Heartbeat CPU 0 instructions: 78000002 cycles: 195943001 heartbeat IPC: 0.407025 cumulative IPC: 0.397853 (Simulation time: 0 hr 7 min 36 sec) 
Heartbeat CPU 0 instructions: 79000001 cycles: 198751394 heartbeat IPC: 0.356075 cumulative IPC: 0.397178 (Simulation time: 0 hr 7 min 42 sec) 
Heartbeat CPU 0 instructions: 80000003 cycles: 201155133 heartbeat IPC: 0.416019 cumulative IPC: 0.397435 (Simulation time: 0 hr 7 min 47 sec) 
Heartbeat CPU 0 instructions: 81000000 cycles: 203549033 heartbeat IPC: 0.417727 cumulative IPC: 0.397707 (Simulation time: 0 hr 7 min 53 sec) 
Heartbeat CPU 0 instructions: 82000000 cycles: 206090561 heartbeat IPC: 0.393464 cumulative IPC: 0.397647 (Simulation time: 0 hr 7 min 58 sec) 
Heartbeat CPU 0 instructions: 83000000 cycles: 208814885 heartbeat IPC: 0.367064 cumulative IPC: 0.397194 (Simulation time: 0 hr 8 min 4 sec) 
Heartbeat CPU 0 instructions: 84000000 cycles: 211222883 heartbeat IPC: 0.415283 cumulative IPC: 0.397428 (Simulation time: 0 hr 8 min 10 sec) 
Heartbeat CPU 0 instructions: 85000002 cycles: 213903375 heartbeat IPC: 0.373067 cumulative IPC: 0.397082 (Simulation time: 0 hr 8 min 15 sec) 
Heartbeat CPU 0 instructions: 86000002 cycles: 216379487 heartbeat IPC: 0.403859 cumulative IPC: 0.39717 (Simulation time: 0 hr 8 min 21 sec) 
Heartbeat CPU 0 instructions: 87000000 cycles: 218781515 heartbeat IPC: 0.416314 cumulative IPC: 0.397407 (Simulation time: 0 hr 8 min 26 sec) 
Heartbeat CPU 0 instructions: 88000000 cycles: 221565509 heartbeat IPC: 0.359196 cumulative IPC: 0.396866 (Simulation time: 0 hr 8 min 32 sec) 
Heartbeat CPU 0 instructions: 89000000 cycles: 224027896 heartbeat IPC: 0.40611 cumulative IPC: 0.39698 (Simulation time: 0 hr 8 min 38 sec) 
Heartbeat CPU 0 instructions: 90000003 cycles: 226448443 heartbeat IPC: 0.413131 cumulative IPC: 0.397174 (Simulation time: 0 hr 8 min 43 sec) 
Heartbeat CPU 0 instructions: 91000002 cycles: 228968275 heartbeat IPC: 0.396851 cumulative IPC: 0.39717 (Simulation time: 0 hr 8 min 49 sec) 
Heartbeat CPU 0 instructions: 92000001 cycles: 231690831 heartbeat IPC: 0.367302 cumulative IPC: 0.396777 (Simulation time: 0 hr 8 min 54 sec) 
Heartbeat CPU 0 instructions: 93000000 cycles: 234106727 heartbeat IPC: 0.413925 cumulative IPC: 0.396975 (Simulation time: 0 hr 9 min 0 sec) 
Heartbeat CPU 0 instructions: 94000003 cycles: 236579861 heartbeat IPC: 0.404346 cumulative IPC: 0.397061 (Simulation time: 0 hr 9 min 5 sec) 
Heartbeat CPU 0 instructions: 95000000 cycles: 239282947 heartbeat IPC: 0.369946 cumulative IPC: 0.396719 (Simulation time: 0 hr 9 min 10 sec) 
Heartbeat CPU 0 instructions: 96000002 cycles: 241697778 heartbeat IPC: 0.414108 cumulative IPC: 0.396913 (Simulation time: 0 hr 9 min 15 sec) 
Heartbeat CPU 0 instructions: 97000000 cycles: 244273545 heartbeat IPC: 0.388233 cumulative IPC: 0.396811 (Simulation time: 0 hr 9 min 21 sec) 
Heartbeat CPU 0 instructions: 98000000 cycles: 246892172 heartbeat IPC: 0.38188 cumulative IPC: 0.396635 (Simulation time: 0 hr 9 min 26 sec) 
Heartbeat CPU 0 instructions: 99000000 cycles: 249419838 heartbeat IPC: 0.395622 cumulative IPC: 0.396623 (Simulation time: 0 hr 9 min 31 sec) 
Heartbeat CPU 0 instructions: 100000001 cycles: 252083093 heartbeat IPC: 0.375481 cumulative IPC: 0.396375 (Simulation time: 0 hr 9 min 37 sec) 
Heartbeat CPU 0 instructions: 101000003 cycles: 254474256 heartbeat IPC: 0.418207 cumulative IPC: 0.396603 (Simulation time: 0 hr 9 min 43 sec) 
Heartbeat CPU 0 instructions: 102000001 cycles: 257244263 heartbeat IPC: 0.361009 cumulative IPC: 0.396178 (Simulation time: 0 hr 9 min 49 sec) 
Heartbeat CPU 0 instructions: 103000001 cycles: 259664376 heartbeat IPC: 0.413204 cumulative IPC: 0.396354 (Simulation time: 0 hr 9 min 55 sec) 
Heartbeat CPU 0 instructions: 104000001 cycles: 262450821 heartbeat IPC: 0.35888 cumulative IPC: 0.395914 (Simulation time: 0 hr 10 min 1 sec) 
Heartbeat CPU 0 instructions: 105000001 cycles: 264962551 heartbeat IPC: 0.398132 cumulative IPC: 0.395937 (Simulation time: 0 hr 10 min 7 sec) 
Heartbeat CPU 0 instructions: 106000000 cycles: 267589289 heartbeat IPC: 0.3807 cumulative IPC: 0.395772 (Simulation time: 0 hr 10 min 12 sec) 
Heartbeat CPU 0 instructions: 107000000 cycles: 270068659 heartbeat IPC: 0.403328 cumulative IPC: 0.395849 (Simulation time: 0 hr 10 min 18 sec) 
Heartbeat CPU 0 instructions: 108000003 cycles: 272652136 heartbeat IPC: 0.387076 cumulative IPC: 0.395757 (Simulation time: 0 hr 10 min 24 sec) 
Heartbeat CPU 0 instructions: 109000000 cycles: 275448852 heartbeat IPC: 0.357561 cumulative IPC: 0.395331 (Simulation time: 0 hr 10 min 29 sec) 
Heartbeat CPU 0 instructions: 110000000 cycles: 277814357 heartbeat IPC: 0.422743 cumulative IPC: 0.395587 (Simulation time: 0 hr 10 min 35 sec) 
Heartbeat CPU 0 instructions: 111000000 cycles: 280572267 heartbeat IPC: 0.362593 cumulative IPC: 0.395231 (Simulation time: 0 hr 10 min 41 sec) 
Heartbeat CPU 0 instructions: 112000001 cycles: 283125643 heartbeat IPC: 0.391639 cumulative IPC: 0.395196 (Simulation time: 0 hr 10 min 47 sec) 
Heartbeat CPU 0 instructions: 113000000 cycles: 285769129 heartbeat IPC: 0.378288 cumulative IPC: 0.395024 (Simulation time: 0 hr 10 min 52 sec) 
Heartbeat CPU 0 instructions: 114000000 cycles: 288502584 heartbeat IPC: 0.365837 cumulative IPC: 0.394721 (Simulation time: 0 hr 10 min 58 sec) 
Heartbeat CPU 0 instructions: 115000001 cycles: 290892724 heartbeat IPC: 0.418386 cumulative IPC: 0.394934 (Simulation time: 0 hr 11 min 4 sec) 
Heartbeat CPU 0 instructions: 116000000 cycles: 293683601 heartbeat IPC: 0.35831 cumulative IPC: 0.394554 (Simulation time: 0 hr 11 min 10 sec) 
Heartbeat CPU 0 instructions: 117000000 cycles: 296034858 heartbeat IPC: 0.425304 cumulative IPC: 0.39482 (Simulation time: 0 hr 11 min 15 sec) 
Heartbeat CPU 0 instructions: 118000000 cycles: 298822166 heartbeat IPC: 0.358769 cumulative IPC: 0.394453 (Simulation time: 0 hr 11 min 21 sec) 
Heartbeat CPU 0 instructions: 119000001 cycles: 301297857 heartbeat IPC: 0.403928 cumulative IPC: 0.394538 (Simulation time: 0 hr 11 min 27 sec) 
Heartbeat CPU 0 instructions: 120000002 cycles: 303967812 heartbeat IPC: 0.374539 cumulative IPC: 0.394347 (Simulation time: 0 hr 11 min 33 sec) 
Heartbeat CPU 0 instructions: 121000000 cycles: 306703515 heartbeat IPC: 0.365536 cumulative IPC: 0.394067 (Simulation time: 0 hr 11 min 38 sec) 
Heartbeat CPU 0 instructions: 122000000 cycles: 309323060 heartbeat IPC: 0.381746 cumulative IPC: 0.393954 (Simulation time: 0 hr 11 min 44 sec) 
Heartbeat CPU 0 instructions: 123000002 cycles: 311750087 heartbeat IPC: 0.412028 cumulative IPC: 0.394107 (Simulation time: 0 hr 11 min 50 sec) 
Heartbeat CPU 0 instructions: 124000001 cycles: 314453879 heartbeat IPC: 0.369851 cumulative IPC: 0.39388 (Simulation time: 0 hr 11 min 55 sec) 
Heartbeat CPU 0 instructions: 125000001 cycles: 317172605 heartbeat IPC: 0.367819 cumulative IPC: 0.393637 (Simulation time: 0 hr 12 min 1 sec) 
Heartbeat CPU 0 instructions: 126000001 cycles: 319915040 heartbeat IPC: 0.364639 cumulative IPC: 0.393368 (Simulation time: 0 hr 12 min 7 sec) 
Heartbeat CPU 0 instructions: 127000001 cycles: 322608657 heartbeat IPC: 0.371248 cumulative IPC: 0.393167 (Simulation time: 0 hr 12 min 13 sec) 
Heartbeat CPU 0 instructions: 128000000 cycles: 325308639 heartbeat IPC: 0.370372 cumulative IPC: 0.392963 (Simulation time: 0 hr 12 min 19 sec) 
Heartbeat CPU 0 instructions: 129000001 cycles: 327984756 heartbeat IPC: 0.373676 cumulative IPC: 0.392792 (Simulation time: 0 hr 12 min 25 sec) 
Heartbeat CPU 0 instructions: 130000002 cycles: 330719646 heartbeat IPC: 0.365646 cumulative IPC: 0.392549 (Simulation time: 0 hr 12 min 31 sec) 
Heartbeat CPU 0 instructions: 131000000 cycles: 333664321 heartbeat IPC: 0.339595 cumulative IPC: 0.392044 (Simulation time: 0 hr 12 min 37 sec) 
Heartbeat CPU 0 instructions: 132000000 cycles: 336368286 heartbeat IPC: 0.369827 cumulative IPC: 0.391851 (Simulation time: 0 hr 12 min 43 sec) 
Heartbeat CPU 0 instructions: 133000001 cycles: 339032293 heartbeat IPC: 0.375375 cumulative IPC: 0.391711 (Simulation time: 0 hr 12 min 48 sec) 
Heartbeat CPU 0 instructions: 134000003 cycles: 341693640 heartbeat IPC: 0.37575 cumulative IPC: 0.391577 (Simulation time: 0 hr 12 min 54 sec) 
Heartbeat CPU 0 instructions: 135000000 cycles: 344387980 heartbeat IPC: 0.371147 cumulative IPC: 0.391405 (Simulation time: 0 hr 13 min 0 sec) 
Heartbeat CPU 0 instructions: 136000002 cycles: 347097266 heartbeat IPC: 0.369102 cumulative IPC: 0.391217 (Simulation time: 0 hr 13 min 6 sec) 
Heartbeat CPU 0 instructions: 137000000 cycles: 349777716 heartbeat IPC: 0.373071 cumulative IPC: 0.391067 (Simulation time: 0 hr 13 min 12 sec) 
Heartbeat CPU 0 instructions: 138000000 cycles: 352478330 heartbeat IPC: 0.370286 cumulative IPC: 0.390896 (Simulation time: 0 hr 13 min 18 sec) 
Heartbeat CPU 0 instructions: 139000001 cycles: 355500530 heartbeat IPC: 0.330885 cumulative IPC: 0.390347 (Simulation time: 0 hr 13 min 24 sec) 
Heartbeat CPU 0 instructions: 140000002 cycles: 358342890 heartbeat IPC: 0.351821 cumulative IPC: 0.390019 (Simulation time: 0 hr 13 min 30 sec) 
Heartbeat CPU 0 instructions: 141000000 cycles: 361277129 heartbeat IPC: 0.340803 cumulative IPC: 0.389589 (Simulation time: 0 hr 13 min 37 sec) 
Heartbeat CPU 0 instructions: 142000003 cycles: 363989454 heartbeat IPC: 0.368688 cumulative IPC: 0.389422 (Simulation time: 0 hr 13 min 43 sec) 
Heartbeat CPU 0 instructions: 143000000 cycles: 366734787 heartbeat IPC: 0.364253 cumulative IPC: 0.38922 (Simulation time: 0 hr 13 min 49 sec) 
Heartbeat CPU 0 instructions: 144000000 cycles: 369610776 heartbeat IPC: 0.347706 cumulative IPC: 0.388873 (Simulation time: 0 hr 13 min 55 sec) 
Heartbeat CPU 0 instructions: 145000003 cycles: 372457522 heartbeat IPC: 0.351279 cumulative IPC: 0.388565 (Simulation time: 0 hr 14 min 1 sec) 
Heartbeat CPU 0 instructions: 146000000 cycles: 375350739 heartbeat IPC: 0.345635 cumulative IPC: 0.388211 (Simulation time: 0 hr 14 min 8 sec) 
Heartbeat CPU 0 instructions: 147000001 cycles: 378044928 heartbeat IPC: 0.37117 cumulative IPC: 0.388081 (Simulation time: 0 hr 14 min 14 sec) 
Heartbeat CPU 0 instructions: 148000001 cycles: 380792240 heartbeat IPC: 0.363992 cumulative IPC: 0.387895 (Simulation time: 0 hr 14 min 21 sec) 
Heartbeat CPU 0 instructions: 149000001 cycles: 383758836 heartbeat IPC: 0.337087 cumulative IPC: 0.387475 (Simulation time: 0 hr 14 min 27 sec) 
Heartbeat CPU 0 instructions: 150000001 cycles: 386681544 heartbeat IPC: 0.342148 cumulative IPC: 0.387108 (Simulation time: 0 hr 14 min 34 sec) 
Heartbeat CPU 0 instructions: 151000001 cycles: 389741203 heartbeat IPC: 0.326834 cumulative IPC: 0.386603 (Simulation time: 0 hr 14 min 41 sec) 
Heartbeat CPU 0 instructions: 152000000 cycles: 392625040 heartbeat IPC: 0.34676 cumulative IPC: 0.38629 (Simulation time: 0 hr 14 min 48 sec) 
Heartbeat CPU 0 instructions: 153000000 cycles: 395434967 heartbeat IPC: 0.355881 cumulative IPC: 0.386059 (Simulation time: 0 hr 14 min 54 sec) 
Heartbeat CPU 0 instructions: 154000000 cycles: 398526870 heartbeat IPC: 0.323425 cumulative IPC: 0.385541 (Simulation time: 0 hr 15 min 1 sec) 
Heartbeat CPU 0 instructions: 155000002 cycles: 401388986 heartbeat IPC: 0.349393 cumulative IPC: 0.385266 (Simulation time: 0 hr 15 min 8 sec) 
Heartbeat CPU 0 instructions: 156000000 cycles: 404513549 heartbeat IPC: 0.320044 cumulative IPC: 0.384729 (Simulation time: 0 hr 15 min 15 sec) 
Heartbeat CPU 0 instructions: 157000000 cycles: 407326002 heartbeat IPC: 0.355561 cumulative IPC: 0.384514 (Simulation time: 0 hr 15 min 21 sec) 
Heartbeat CPU 0 instructions: 158000001 cycles: 410394151 heartbeat IPC: 0.32593 cumulative IPC: 0.384048 (Simulation time: 0 hr 15 min 28 sec) 
Heartbeat CPU 0 instructions: 159000001 cycles: 413160551 heartbeat IPC: 0.361481 cumulative IPC: 0.383887 (Simulation time: 0 hr 15 min 34 sec) 
Heartbeat CPU 0 instructions: 160000001 cycles: 416273905 heartbeat IPC: 0.321197 cumulative IPC: 0.383388 (Simulation time: 0 hr 15 min 41 sec) 
Heartbeat CPU 0 instructions: 161000002 cycles: 419074736 heartbeat IPC: 0.357037 cumulative IPC: 0.383201 (Simulation time: 0 hr 15 min 47 sec) 
Heartbeat CPU 0 instructions: 162000000 cycles: 422249149 heartbeat IPC: 0.315018 cumulative IPC: 0.382656 (Simulation time: 0 hr 15 min 54 sec) 
Heartbeat CPU 0 instructions: 163000002 cycles: 425117495 heartbeat IPC: 0.348634 cumulative IPC: 0.382412 (Simulation time: 0 hr 16 min 0 sec) 
Heartbeat CPU 0 instructions: 164000003 cycles: 428237865 heartbeat IPC: 0.320475 cumulative IPC: 0.381933 (Simulation time: 0 hr 16 min 7 sec) 
Heartbeat CPU 0 instructions: 165000000 cycles: 431221307 heartbeat IPC: 0.335182 cumulative IPC: 0.381589 (Simulation time: 0 hr 16 min 13 sec) 
Heartbeat CPU 0 instructions: 166000002 cycles: 434178020 heartbeat IPC: 0.338214 cumulative IPC: 0.381276 (Simulation time: 0 hr 16 min 19 sec) 
Heartbeat CPU 0 instructions: 167000000 cycles: 437479680 heartbeat IPC: 0.302877 cumulative IPC: 0.380648 (Simulation time: 0 hr 16 min 26 sec) 
Heartbeat CPU 0 instructions: 168000001 cycles: 440791390 heartbeat IPC: 0.301959 cumulative IPC: 0.380022 (Simulation time: 0 hr 16 min 33 sec) 
Heartbeat CPU 0 instructions: 169000000 cycles: 443910733 heartbeat IPC: 0.32058 cumulative IPC: 0.379579 (Simulation time: 0 hr 16 min 40 sec) 
Heartbeat CPU 0 instructions: 170000001 cycles: 447254801 heartbeat IPC: 0.299037 cumulative IPC: 0.378941 (Simulation time: 0 hr 16 min 47 sec) 
Heartbeat CPU 0 instructions: 171000000 cycles: 450396014 heartbeat IPC: 0.318348 cumulative IPC: 0.378494 (Simulation time: 0 hr 16 min 54 sec) 
Heartbeat CPU 0 instructions: 172000000 cycles: 453734909 heartbeat IPC: 0.2995 cumulative IPC: 0.377878 (Simulation time: 0 hr 17 min 1 sec) 
Heartbeat CPU 0 instructions: 173000002 cycles: 456801902 heartbeat IPC: 0.326053 cumulative IPC: 0.37751 (Simulation time: 0 hr 17 min 8 sec) 
Heartbeat CPU 0 instructions: 174000001 cycles: 459975880 heartbeat IPC: 0.315062 cumulative IPC: 0.377055 (Simulation time: 0 hr 17 min 15 sec) 
Heartbeat CPU 0 instructions: 175000001 cycles: 463229616 heartbeat IPC: 0.307339 cumulative IPC: 0.376537 (Simulation time: 0 hr 17 min 22 sec) 
Heartbeat CPU 0 instructions: 176000000 cycles: 466230246 heartbeat IPC: 0.333263 cumulative IPC: 0.376243 (Simulation time: 0 hr 17 min 29 sec) 
Heartbeat CPU 0 instructions: 177000001 cycles: 469299792 heartbeat IPC: 0.325781 cumulative IPC: 0.375894 (Simulation time: 0 hr 17 min 36 sec) 
Heartbeat CPU 0 instructions: 178000001 cycles: 472519390 heartbeat IPC: 0.310598 cumulative IPC: 0.375424 (Simulation time: 0 hr 17 min 43 sec) 
Heartbeat CPU 0 instructions: 179000000 cycles: 475678264 heartbeat IPC: 0.316568 cumulative IPC: 0.375012 (Simulation time: 0 hr 17 min 50 sec) 
Heartbeat CPU 0 instructions: 180000003 cycles: 478865067 heartbeat IPC: 0.313795 cumulative IPC: 0.374582 (Simulation time: 0 hr 17 min 57 sec) 
Heartbeat CPU 0 instructions: 181000001 cycles: 482071597 heartbeat IPC: 0.311863 cumulative IPC: 0.374142 (Simulation time: 0 hr 18 min 4 sec) 
Heartbeat CPU 0 instructions: 182000003 cycles: 485252195 heartbeat IPC: 0.314407 cumulative IPC: 0.373729 (Simulation time: 0 hr 18 min 11 sec) 
Heartbeat CPU 0 instructions: 183000002 cycles: 488527582 heartbeat IPC: 0.305307 cumulative IPC: 0.373245 (Simulation time: 0 hr 18 min 18 sec) 
Heartbeat CPU 0 instructions: 184000002 cycles: 491591748 heartbeat IPC: 0.326353 cumulative IPC: 0.372937 (Simulation time: 0 hr 18 min 25 sec) 
Heartbeat CPU 0 instructions: 185000001 cycles: 495095875 heartbeat IPC: 0.285378 cumulative IPC: 0.372285 (Simulation time: 0 hr 18 min 32 sec) 
Heartbeat CPU 0 instructions: 186000003 cycles: 498153327 heartbeat IPC: 0.32707 cumulative IPC: 0.371993 (Simulation time: 0 hr 18 min 38 sec) 
Heartbeat CPU 0 instructions: 187000000 cycles: 501343070 heartbeat IPC: 0.313504 cumulative IPC: 0.371601 (Simulation time: 0 hr 18 min 45 sec) 
Heartbeat CPU 0 instructions: 188000002 cycles: 504623923 heartbeat IPC: 0.304799 cumulative IPC: 0.371144 (Simulation time: 0 hr 18 min 52 sec) 
Heartbeat CPU 0 instructions: 189000002 cycles: 507731082 heartbeat IPC: 0.321837 cumulative IPC: 0.370827 (Simulation time: 0 hr 18 min 59 sec) 
Heartbeat CPU 0 instructions: 190000000 cycles: 510952549 heartbeat IPC: 0.310417 cumulative IPC: 0.370426 (Simulation time: 0 hr 19 min 6 sec) 
Heartbeat CPU 0 instructions: 191000001 cycles: 514124332 heartbeat IPC: 0.31528 cumulative IPC: 0.370068 (Simulation time: 0 hr 19 min 13 sec) 
Heartbeat CPU 0 instructions: 192000001 cycles: 517220435 heartbeat IPC: 0.322987 cumulative IPC: 0.369772 (Simulation time: 0 hr 19 min 20 sec) 
Heartbeat CPU 0 instructions: 193000001 cycles: 520535706 heartbeat IPC: 0.301634 cumulative IPC: 0.369316 (Simulation time: 0 hr 19 min 27 sec) 
Heartbeat CPU 0 instructions: 194000000 cycles: 523733902 heartbeat IPC: 0.312676 cumulative IPC: 0.368953 (Simulation time: 0 hr 19 min 34 sec) 
Heartbeat CPU 0 instructions: 195000000 cycles: 527216736 heartbeat IPC: 0.287122 cumulative IPC: 0.368386 (Simulation time: 0 hr 19 min 41 sec) 
Heartbeat CPU 0 instructions: 196000002 cycles: 530397643 heartbeat IPC: 0.314376 cumulative IPC: 0.368046 (Simulation time: 0 hr 19 min 48 sec) 
Heartbeat CPU 0 instructions: 197000001 cycles: 533819551 heartbeat IPC: 0.292234 cumulative IPC: 0.367536 (Simulation time: 0 hr 19 min 55 sec) 
Heartbeat CPU 0 instructions: 198000000 cycles: 536962082 heartbeat IPC: 0.318215 cumulative IPC: 0.367233 (Simulation time: 0 hr 20 min 2 sec) 
Heartbeat CPU 0 instructions: 199000000 cycles: 540313616 heartbeat IPC: 0.298371 cumulative IPC: 0.366785 (Simulation time: 0 hr 20 min 9 sec) 
Heartbeat CPU 0 instructions: 200000001 cycles: 543556629 heartbeat IPC: 0.308356 cumulative IPC: 0.36642 (Simulation time: 0 hr 20 min 16 sec) 
Heartbeat CPU 0 instructions: 201000003 cycles: 546681300 heartbeat IPC: 0.320034 cumulative IPC: 0.366142 (Simulation time: 0 hr 20 min 23 sec) 
Heartbeat CPU 0 instructions: 202000003 cycles: 549883589 heartbeat IPC: 0.312277 cumulative IPC: 0.365813 (Simulation time: 0 hr 20 min 30 sec) 
Heartbeat CPU 0 instructions: 203000002 cycles: 553117781 heartbeat IPC: 0.309196 cumulative IPC: 0.365466 (Simulation time: 0 hr 20 min 37 sec) 
Heartbeat CPU 0 instructions: 204000000 cycles: 556355256 heartbeat IPC: 0.308882 cumulative IPC: 0.365122 (Simulation time: 0 hr 20 min 43 sec) 
Heartbeat CPU 0 instructions: 205000001 cycles: 559557682 heartbeat IPC: 0.312264 cumulative IPC: 0.364805 (Simulation time: 0 hr 20 min 51 sec) 
Heartbeat CPU 0 instructions: 206000000 cycles: 562845909 heartbeat IPC: 0.304115 cumulative IPC: 0.364434 (Simulation time: 0 hr 20 min 58 sec) 
Heartbeat CPU 0 instructions: 207000001 cycles: 566197843 heartbeat IPC: 0.298336 cumulative IPC: 0.364025 (Simulation time: 0 hr 21 min 5 sec) 
Heartbeat CPU 0 instructions: 208000003 cycles: 569383240 heartbeat IPC: 0.313933 cumulative IPC: 0.363731 (Simulation time: 0 hr 21 min 12 sec) 
Heartbeat CPU 0 instructions: 209000000 cycles: 572540225 heartbeat IPC: 0.316757 cumulative IPC: 0.363461 (Simulation time: 0 hr 21 min 19 sec) 
Heartbeat CPU 0 instructions: 210000002 cycles: 575910758 heartbeat IPC: 0.29669 cumulative IPC: 0.363052 (Simulation time: 0 hr 21 min 26 sec) 
Heartbeat CPU 0 instructions: 211000003 cycles: 579107215 heartbeat IPC: 0.312847 cumulative IPC: 0.362762 (Simulation time: 0 hr 21 min 32 sec) 
Heartbeat CPU 0 instructions: 212000001 cycles: 582266187 heartbeat IPC: 0.316558 cumulative IPC: 0.3625 (Simulation time: 0 hr 21 min 39 sec) 
Heartbeat CPU 0 instructions: 213000003 cycles: 585500662 heartbeat IPC: 0.30917 cumulative IPC: 0.362193 (Simulation time: 0 hr 21 min 46 sec) 
Heartbeat CPU 0 instructions: 214000002 cycles: 588620020 heartbeat IPC: 0.320578 cumulative IPC: 0.361962 (Simulation time: 0 hr 21 min 53 sec) 
Heartbeat CPU 0 instructions: 215000000 cycles: 591980007 heartbeat IPC: 0.29762 cumulative IPC: 0.361581 (Simulation time: 0 hr 22 min 0 sec) 
Heartbeat CPU 0 instructions: 216000000 cycles: 594954483 heartbeat IPC: 0.336194 cumulative IPC: 0.361449 (Simulation time: 0 hr 22 min 7 sec) 
Heartbeat CPU 0 instructions: 217000001 cycles: 598057020 heartbeat IPC: 0.322317 cumulative IPC: 0.361237 (Simulation time: 0 hr 22 min 13 sec) 
Heartbeat CPU 0 instructions: 218000003 cycles: 601245859 heartbeat IPC: 0.313594 cumulative IPC: 0.360973 (Simulation time: 0 hr 22 min 21 sec) 
Heartbeat CPU 0 instructions: 219000000 cycles: 604371429 heartbeat IPC: 0.319941 cumulative IPC: 0.360752 (Simulation time: 0 hr 22 min 29 sec) 
Heartbeat CPU 0 instructions: 220000000 cycles: 607295214 heartbeat IPC: 0.342022 cumulative IPC: 0.360658 (Simulation time: 0 hr 22 min 36 sec) 
Heartbeat CPU 0 instructions: 221000001 cycles: 610371020 heartbeat IPC: 0.325118 cumulative IPC: 0.360471 (Simulation time: 0 hr 22 min 42 sec) 
Heartbeat CPU 0 instructions: 222000000 cycles: 613539963 heartbeat IPC: 0.315562 cumulative IPC: 0.360229 (Simulation time: 0 hr 22 min 49 sec) 
Heartbeat CPU 0 instructions: 223000000 cycles: 616517604 heartbeat IPC: 0.335836 cumulative IPC: 0.360106 (Simulation time: 0 hr 22 min 56 sec) 
Heartbeat CPU 0 instructions: 224000001 cycles: 619496498 heartbeat IPC: 0.335695 cumulative IPC: 0.359984 (Simulation time: 0 hr 23 min 3 sec) 
Heartbeat CPU 0 instructions: 225000000 cycles: 622667190 heartbeat IPC: 0.315388 cumulative IPC: 0.359747 (Simulation time: 0 hr 23 min 9 sec) 
Heartbeat CPU 0 instructions: 226000002 cycles: 625900900 heartbeat IPC: 0.309243 cumulative IPC: 0.359476 (Simulation time: 0 hr 23 min 16 sec) 
Heartbeat CPU 0 instructions: 227000002 cycles: 628939324 heartbeat IPC: 0.329118 cumulative IPC: 0.359323 (Simulation time: 0 hr 23 min 23 sec) 
Heartbeat CPU 0 instructions: 228000000 cycles: 631967497 heartbeat IPC: 0.330231 cumulative IPC: 0.359178 (Simulation time: 0 hr 23 min 29 sec) 
Heartbeat CPU 0 instructions: 229000003 cycles: 635124515 heartbeat IPC: 0.316756 cumulative IPC: 0.358958 (Simulation time: 0 hr 23 min 36 sec) 
Heartbeat CPU 0 instructions: 230000002 cycles: 638181508 heartbeat IPC: 0.327119 cumulative IPC: 0.358799 (Simulation time: 0 hr 23 min 42 sec) 
Heartbeat CPU 0 instructions: 231000000 cycles: 641216925 heartbeat IPC: 0.329443 cumulative IPC: 0.358655 (Simulation time: 0 hr 23 min 49 sec) 
Heartbeat CPU 0 instructions: 232000000 cycles: 644417450 heartbeat IPC: 0.312449 cumulative IPC: 0.358416 (Simulation time: 0 hr 23 min 55 sec) 
Heartbeat CPU 0 instructions: 233000000 cycles: 647595823 heartbeat IPC: 0.314626 cumulative IPC: 0.358193 (Simulation time: 0 hr 24 min 2 sec) 
Heartbeat CPU 0 instructions: 234000002 cycles: 650577777 heartbeat IPC: 0.335351 cumulative IPC: 0.358084 (Simulation time: 0 hr 24 min 9 sec) 
Heartbeat CPU 0 instructions: 235000001 cycles: 653688332 heartbeat IPC: 0.321486 cumulative IPC: 0.357903 (Simulation time: 0 hr 24 min 15 sec) 
Heartbeat CPU 0 instructions: 236000002 cycles: 656839199 heartbeat IPC: 0.317373 cumulative IPC: 0.3577 (Simulation time: 0 hr 24 min 22 sec) 
Heartbeat CPU 0 instructions: 237000001 cycles: 663958469 heartbeat IPC: 0.140464 cumulative IPC: 0.35528 (Simulation time: 0 hr 24 min 31 sec) 
Heartbeat CPU 0 instructions: 238000001 cycles: 666909893 heartbeat IPC: 0.33882 cumulative IPC: 0.355204 (Simulation time: 0 hr 24 min 38 sec) 
Heartbeat CPU 0 instructions: 239000003 cycles: 669875926 heartbeat IPC: 0.337151 cumulative IPC: 0.355121 (Simulation time: 0 hr 24 min 45 sec) 
Heartbeat CPU 0 instructions: 240000001 cycles: 673042150 heartbeat IPC: 0.315833 cumulative IPC: 0.354929 (Simulation time: 0 hr 24 min 51 sec) 
Heartbeat CPU 0 instructions: 241000000 cycles: 675900841 heartbeat IPC: 0.34981 cumulative IPC: 0.354907 (Simulation time: 0 hr 24 min 58 sec) 
Heartbeat CPU 0 instructions: 242000000 cycles: 678834089 heartbeat IPC: 0.340919 cumulative IPC: 0.354844 (Simulation time: 0 hr 25 min 4 sec) 
Heartbeat CPU 0 instructions: 243000000 cycles: 681739438 heartbeat IPC: 0.344193 cumulative IPC: 0.354797 (Simulation time: 0 hr 25 min 10 sec) 
Heartbeat CPU 0 instructions: 244000003 cycles: 684681128 heartbeat IPC: 0.339942 cumulative IPC: 0.354731 (Simulation time: 0 hr 25 min 17 sec) 
Heartbeat CPU 0 instructions: 245000002 cycles: 687852952 heartbeat IPC: 0.315276 cumulative IPC: 0.354542 (Simulation time: 0 hr 25 min 23 sec) 
Heartbeat CPU 0 instructions: 246000002 cycles: 690711811 heartbeat IPC: 0.34979 cumulative IPC: 0.354521 (Simulation time: 0 hr 25 min 30 sec) 
Heartbeat CPU 0 instructions: 247000002 cycles: 696222147 heartbeat IPC: 0.181477 cumulative IPC: 0.353101 (Simulation time: 0 hr 25 min 38 sec) 
Heartbeat CPU 0 instructions: 248000001 cycles: 699078516 heartbeat IPC: 0.350094 cumulative IPC: 0.353088 (Simulation time: 0 hr 25 min 44 sec) 
Heartbeat CPU 0 instructions: 249000002 cycles: 702128318 heartbeat IPC: 0.32789 cumulative IPC: 0.352974 (Simulation time: 0 hr 25 min 50 sec) 
Heartbeat CPU 0 instructions: 250000001 cycles: 704754565 heartbeat IPC: 0.380771 cumulative IPC: 0.353082 (Simulation time: 0 hr 25 min 56 sec) 
Heartbeat CPU 0 instructions: 251000001 cycles: 707754751 heartbeat IPC: 0.333313 cumulative IPC: 0.352995 (Simulation time: 0 hr 26 min 2 sec) 
Heartbeat CPU 0 instructions: 252000003 cycles: 710473578 heartbeat IPC: 0.367806 cumulative IPC: 0.353054 (Simulation time: 0 hr 26 min 8 sec) 
Heartbeat CPU 0 instructions: 253000000 cycles: 713395273 heartbeat IPC: 0.342266 cumulative IPC: 0.353008 (Simulation time: 0 hr 26 min 15 sec) 
Heartbeat CPU 0 instructions: 254000001 cycles: 716342691 heartbeat IPC: 0.33928 cumulative IPC: 0.352949 (Simulation time: 0 hr 26 min 21 sec) 
Heartbeat CPU 0 instructions: 255000001 cycles: 719076622 heartbeat IPC: 0.365774 cumulative IPC: 0.353 (Simulation time: 0 hr 26 min 27 sec) 
Heartbeat CPU 0 instructions: 256000002 cycles: 721814078 heartbeat IPC: 0.365303 cumulative IPC: 0.353048 (Simulation time: 0 hr 26 min 33 sec) 
Heartbeat CPU 0 instructions: 257000002 cycles: 724857000 heartbeat IPC: 0.328631 cumulative IPC: 0.352942 (Simulation time: 0 hr 26 min 39 sec) 
Heartbeat CPU 0 instructions: 258000000 cycles: 727852417 heartbeat IPC: 0.333843 cumulative IPC: 0.352861 (Simulation time: 0 hr 26 min 46 sec) 
Heartbeat CPU 0 instructions: 259000002 cycles: 730855497 heartbeat IPC: 0.332992 cumulative IPC: 0.352776 (Simulation time: 0 hr 26 min 52 sec) 
Heartbeat CPU 0 instructions: 260000000 cycles: 733590394 heartbeat IPC: 0.365644 cumulative IPC: 0.352826 (Simulation time: 0 hr 26 min 58 sec) 
Heartbeat CPU 0 instructions: 261000003 cycles: 736474267 heartbeat IPC: 0.346757 cumulative IPC: 0.352801 (Simulation time: 0 hr 27 min 4 sec) 
Heartbeat CPU 0 instructions: 262000001 cycles: 739453208 heartbeat IPC: 0.335689 cumulative IPC: 0.35273 (Simulation time: 0 hr 27 min 10 sec) 
Heartbeat CPU 0 instructions: 263000001 cycles: 742443354 heartbeat IPC: 0.334432 cumulative IPC: 0.352654 (Simulation time: 0 hr 27 min 16 sec) 
Heartbeat CPU 0 instructions: 264000000 cycles: 745447876 heartbeat IPC: 0.332831 cumulative IPC: 0.352571 (Simulation time: 0 hr 27 min 23 sec) 
Heartbeat CPU 0 instructions: 265000002 cycles: 748412998 heartbeat IPC: 0.337255 cumulative IPC: 0.352508 (Simulation time: 0 hr 27 min 29 sec) 
Heartbeat CPU 0 instructions: 266000000 cycles: 751233695 heartbeat IPC: 0.354522 cumulative IPC: 0.352516 (Simulation time: 0 hr 27 min 35 sec) 
Heartbeat CPU 0 instructions: 267000000 cycles: 754096166 heartbeat IPC: 0.349349 cumulative IPC: 0.352504 (Simulation time: 0 hr 27 min 41 sec) 
Heartbeat CPU 0 instructions: 268000002 cycles: 757091299 heartbeat IPC: 0.333876 cumulative IPC: 0.352427 (Simulation time: 0 hr 27 min 48 sec) 
Heartbeat CPU 0 instructions: 269000002 cycles: 760119677 heartbeat IPC: 0.33021 cumulative IPC: 0.352336 (Simulation time: 0 hr 27 min 54 sec) 
Heartbeat CPU 0 instructions: 270000000 cycles: 762953492 heartbeat IPC: 0.35288 cumulative IPC: 0.352338 (Simulation time: 0 hr 28 min 0 sec) 
Heartbeat CPU 0 instructions: 271000002 cycles: 765818496 heartbeat IPC: 0.34904 cumulative IPC: 0.352325 (Simulation time: 0 hr 28 min 6 sec) 
Heartbeat CPU 0 instructions: 272000003 cycles: 768847515 heartbeat IPC: 0.33014 cumulative IPC: 0.352235 (Simulation time: 0 hr 28 min 12 sec) 
Heartbeat CPU 0 instructions: 273000001 cycles: 771858031 heartbeat IPC: 0.332168 cumulative IPC: 0.352154 (Simulation time: 0 hr 28 min 19 sec) 
Heartbeat CPU 0 instructions: 274000001 cycles: 774532258 heartbeat IPC: 0.37394 cumulative IPC: 0.352232 (Simulation time: 0 hr 28 min 25 sec) 
Heartbeat CPU 0 instructions: 275000000 cycles: 777525231 heartbeat IPC: 0.334116 cumulative IPC: 0.35216 (Simulation time: 0 hr 28 min 31 sec) 
Heartbeat CPU 0 instructions: 276000000 cycles: 780450578 heartbeat IPC: 0.34184 cumulative IPC: 0.35212 (Simulation time: 0 hr 28 min 37 sec) 
Heartbeat CPU 0 instructions: 277000002 cycles: 783201199 heartbeat IPC: 0.363555 cumulative IPC: 0.352161 (Simulation time: 0 hr 28 min 43 sec) 
Heartbeat CPU 0 instructions: 278000002 cycles: 786194022 heartbeat IPC: 0.334133 cumulative IPC: 0.35209 (Simulation time: 0 hr 28 min 49 sec) 
Heartbeat CPU 0 instructions: 279000000 cycles: 789216754 heartbeat IPC: 0.330826 cumulative IPC: 0.352006 (Simulation time: 0 hr 28 min 56 sec) 
Heartbeat CPU 0 instructions: 280000000 cycles: 791914237 heartbeat IPC: 0.370716 cumulative IPC: 0.352072 (Simulation time: 0 hr 29 min 2 sec) 
Heartbeat CPU 0 instructions: 281000000 cycles: 794842205 heartbeat IPC: 0.341534 cumulative IPC: 0.352032 (Simulation time: 0 hr 29 min 8 sec) 
Heartbeat CPU 0 instructions: 282000000 cycles: 797799359 heartbeat IPC: 0.338163 cumulative IPC: 0.351979 (Simulation time: 0 hr 29 min 14 sec) 
Heartbeat CPU 0 instructions: 283000003 cycles: 800812680 heartbeat IPC: 0.331861 cumulative IPC: 0.351901 (Simulation time: 0 hr 29 min 20 sec) 
Heartbeat CPU 0 instructions: 284000002 cycles: 803843372 heartbeat IPC: 0.329957 cumulative IPC: 0.351815 (Simulation time: 0 hr 29 min 27 sec) 
Heartbeat CPU 0 instructions: 285000002 cycles: 806541122 heartbeat IPC: 0.370679 cumulative IPC: 0.35188 (Simulation time: 0 hr 29 min 33 sec) 
Heartbeat CPU 0 instructions: 286000000 cycles: 809455396 heartbeat IPC: 0.343138 cumulative IPC: 0.351848 (Simulation time: 0 hr 29 min 39 sec) 
Heartbeat CPU 0 instructions: 287000000 cycles: 812484108 heartbeat IPC: 0.330173 cumulative IPC: 0.351765 (Simulation time: 0 hr 29 min 45 sec) 
Heartbeat CPU 0 instructions: 288000001 cycles: 815349655 heartbeat IPC: 0.348974 cumulative IPC: 0.351754 (Simulation time: 0 hr 29 min 51 sec) 
Heartbeat CPU 0 instructions: 289000000 cycles: 818159165 heartbeat IPC: 0.355934 cumulative IPC: 0.351769 (Simulation time: 0 hr 29 min 57 sec) 
Heartbeat CPU 0 instructions: 290000000 cycles: 821193278 heartbeat IPC: 0.329586 cumulative IPC: 0.351685 (Simulation time: 0 hr 30 min 4 sec) 
Heartbeat CPU 0 instructions: 291000000 cycles: 824018902 heartbeat IPC: 0.353904 cumulative IPC: 0.351693 (Simulation time: 0 hr 30 min 10 sec) 
Heartbeat CPU 0 instructions: 292000001 cycles: 826911235 heartbeat IPC: 0.345742 cumulative IPC: 0.351671 (Simulation time: 0 hr 30 min 16 sec) 
Heartbeat CPU 0 instructions: 293000003 cycles: 829953444 heartbeat IPC: 0.328709 cumulative IPC: 0.351584 (Simulation time: 0 hr 30 min 22 sec) 
Heartbeat CPU 0 instructions: 294000001 cycles: 832716442 heartbeat IPC: 0.361925 cumulative IPC: 0.35162 (Simulation time: 0 hr 30 min 28 sec) 
Heartbeat CPU 0 instructions: 295000000 cycles: 835649349 heartbeat IPC: 0.340958 cumulative IPC: 0.351581 (Simulation time: 0 hr 30 min 34 sec) 
Heartbeat CPU 0 instructions: 296000000 cycles: 838637273 heartbeat IPC: 0.334681 cumulative IPC: 0.351519 (Simulation time: 0 hr 30 min 40 sec) 
Heartbeat CPU 0 instructions: 297000000 cycles: 841333387 heartbeat IPC: 0.370904 cumulative IPC: 0.351583 (Simulation time: 0 hr 30 min 46 sec) 
Heartbeat CPU 0 instructions: 298000000 cycles: 844359538 heartbeat IPC: 0.330453 cumulative IPC: 0.351505 (Simulation time: 0 hr 30 min 53 sec) 
Heartbeat CPU 0 instructions: 299000002 cycles: 847180542 heartbeat IPC: 0.354484 cumulative IPC: 0.351515 (Simulation time: 0 hr 30 min 59 sec) 
Heartbeat CPU 0 instructions: 300000002 cycles: 850078734 heartbeat IPC: 0.345043 cumulative IPC: 0.351492 (Simulation time: 0 hr 31 min 5 sec) 
Heartbeat CPU 0 instructions: 301000001 cycles: 853111139 heartbeat IPC: 0.329771 cumulative IPC: 0.351413 (Simulation time: 0 hr 31 min 11 sec) 
Heartbeat CPU 0 instructions: 302000002 cycles: 856004344 heartbeat IPC: 0.345638 cumulative IPC: 0.351393 (Simulation time: 0 hr 31 min 18 sec) 
Heartbeat CPU 0 instructions: 303000001 cycles: 858800352 heartbeat IPC: 0.357652 cumulative IPC: 0.351414 (Simulation time: 0 hr 31 min 24 sec) 
Heartbeat CPU 0 instructions: 304000001 cycles: 861892318 heartbeat IPC: 0.323419 cumulative IPC: 0.35131 (Simulation time: 0 hr 31 min 30 sec) 
Heartbeat CPU 0 instructions: 305000002 cycles: 864830677 heartbeat IPC: 0.340326 cumulative IPC: 0.351272 (Simulation time: 0 hr 31 min 36 sec) 
Heartbeat CPU 0 instructions: 306000002 cycles: 867580809 heartbeat IPC: 0.363619 cumulative IPC: 0.351312 (Simulation time: 0 hr 31 min 42 sec) 
Heartbeat CPU 0 instructions: 307000000 cycles: 870583370 heartbeat IPC: 0.333048 cumulative IPC: 0.351247 (Simulation time: 0 hr 31 min 48 sec) 
Heartbeat CPU 0 instructions: 308000000 cycles: 873552756 heartbeat IPC: 0.33677 cumulative IPC: 0.351197 (Simulation time: 0 hr 31 min 55 sec) 
Heartbeat CPU 0 instructions: 309000000 cycles: 876318679 heartbeat IPC: 0.361543 cumulative IPC: 0.35123 (Simulation time: 0 hr 32 min 1 sec) 
Heartbeat CPU 0 instructions: 310000000 cycles: 879327511 heartbeat IPC: 0.332355 cumulative IPC: 0.351164 (Simulation time: 0 hr 32 min 7 sec) 
Heartbeat CPU 0 instructions: 311000002 cycles: 882404574 heartbeat IPC: 0.324986 cumulative IPC: 0.35107 (Simulation time: 0 hr 32 min 13 sec) 
Heartbeat CPU 0 instructions: 312000000 cycles: 885089464 heartbeat IPC: 0.372454 cumulative IPC: 0.351137 (Simulation time: 0 hr 32 min 19 sec) 
Heartbeat CPU 0 instructions: 313000000 cycles: 888060190 heartbeat IPC: 0.336618 cumulative IPC: 0.351087 (Simulation time: 0 hr 32 min 25 sec) 
Heartbeat CPU 0 instructions: 314000000 cycles: 890834515 heartbeat IPC: 0.360448 cumulative IPC: 0.351117 (Simulation time: 0 hr 32 min 31 sec) 
Heartbeat CPU 0 instructions: 315000002 cycles: 893756637 heartbeat IPC: 0.342218 cumulative IPC: 0.351087 (Simulation time: 0 hr 32 min 37 sec) 
Heartbeat CPU 0 instructions: 316000002 cycles: 896789193 heartbeat IPC: 0.329755 cumulative IPC: 0.351013 (Simulation time: 0 hr 32 min 44 sec) 
Heartbeat CPU 0 instructions: 317000002 cycles: 899530629 heartbeat IPC: 0.364772 cumulative IPC: 0.351056 (Simulation time: 0 hr 32 min 50 sec) 
Heartbeat CPU 0 instructions: 318000001 cycles: 902521643 heartbeat IPC: 0.334334 cumulative IPC: 0.350999 (Simulation time: 0 hr 32 min 56 sec) 
Heartbeat CPU 0 instructions: 319000000 cycles: 905550538 heartbeat IPC: 0.330153 cumulative IPC: 0.350927 (Simulation time: 0 hr 33 min 2 sec) 
Heartbeat CPU 0 instructions: 320000002 cycles: 908511976 heartbeat IPC: 0.337674 cumulative IPC: 0.350883 (Simulation time: 0 hr 33 min 9 sec) 
Heartbeat CPU 0 instructions: 321000000 cycles: 911230126 heartbeat IPC: 0.367897 cumulative IPC: 0.350935 (Simulation time: 0 hr 33 min 14 sec) 
Heartbeat CPU 0 instructions: 322000001 cycles: 914242134 heartbeat IPC: 0.332005 cumulative IPC: 0.350871 (Simulation time: 0 hr 33 min 21 sec) 
Heartbeat CPU 0 instructions: 323000002 cycles: 917211244 heartbeat IPC: 0.336802 cumulative IPC: 0.350824 (Simulation time: 0 hr 33 min 27 sec) 
Heartbeat CPU 0 instructions: 324000002 cycles: 920111415 heartbeat IPC: 0.344807 cumulative IPC: 0.350804 (Simulation time: 0 hr 33 min 33 sec) 
Heartbeat CPU 0 instructions: 325000000 cycles: 922960248 heartbeat IPC: 0.35102 cumulative IPC: 0.350805 (Simulation time: 0 hr 33 min 40 sec) 
Heartbeat CPU 0 instructions: 326000001 cycles: 925957139 heartbeat IPC: 0.333679 cumulative IPC: 0.350748 (Simulation time: 0 hr 33 min 46 sec) 
Heartbeat CPU 0 instructions: 327000002 cycles: 928823936 heartbeat IPC: 0.348822 cumulative IPC: 0.350742 (Simulation time: 0 hr 33 min 52 sec) 
Heartbeat CPU 0 instructions: 328000001 cycles: 931508993 heartbeat IPC: 0.372431 cumulative IPC: 0.350806 (Simulation time: 0 hr 33 min 58 sec) 
Heartbeat CPU 0 instructions: 329000000 cycles: 934441321 heartbeat IPC: 0.341026 cumulative IPC: 0.350775 (Simulation time: 0 hr 34 min 4 sec) 
Heartbeat CPU 0 instructions: 330000000 cycles: 937336720 heartbeat IPC: 0.345376 cumulative IPC: 0.350758 (Simulation time: 0 hr 34 min 11 sec) 
Heartbeat CPU 0 instructions: 331000000 cycles: 940319313 heartbeat IPC: 0.335279 cumulative IPC: 0.350707 (Simulation time: 0 hr 34 min 17 sec) 
Heartbeat CPU 0 instructions: 332000000 cycles: 943253836 heartbeat IPC: 0.340771 cumulative IPC: 0.350675 (Simulation time: 0 hr 34 min 23 sec) 
Heartbeat CPU 0 instructions: 333000000 cycles: 946124486 heartbeat IPC: 0.348353 cumulative IPC: 0.350668 (Simulation time: 0 hr 34 min 30 sec) 
Heartbeat CPU 0 instructions: 334000001 cycles: 948967812 heartbeat IPC: 0.351701 cumulative IPC: 0.350671 (Simulation time: 0 hr 34 min 36 sec) 
Heartbeat CPU 0 instructions: 335000000 cycles: 952017799 heartbeat IPC: 0.32787 cumulative IPC: 0.350596 (Simulation time: 0 hr 34 min 42 sec) 
Heartbeat CPU 0 instructions: 336000000 cycles: 954912374 heartbeat IPC: 0.345474 cumulative IPC: 0.35058 (Simulation time: 0 hr 34 min 49 sec) 
Heartbeat CPU 0 instructions: 337000003 cycles: 957854955 heartbeat IPC: 0.339839 cumulative IPC: 0.350546 (Simulation time: 0 hr 34 min 55 sec) 
Heartbeat CPU 0 instructions: 338000002 cycles: 960849057 heartbeat IPC: 0.33399 cumulative IPC: 0.350493 (Simulation time: 0 hr 35 min 1 sec) 
Heartbeat CPU 0 instructions: 339000003 cycles: 963857370 heartbeat IPC: 0.332413 cumulative IPC: 0.350435 (Simulation time: 0 hr 35 min 8 sec) 
Heartbeat CPU 0 instructions: 340000003 cycles: 966863974 heartbeat IPC: 0.332601 cumulative IPC: 0.350379 (Simulation time: 0 hr 35 min 14 sec) 
Heartbeat CPU 0 instructions: 341000000 cycles: 969842060 heartbeat IPC: 0.335785 cumulative IPC: 0.350333 (Simulation time: 0 hr 35 min 20 sec) 
Heartbeat CPU 0 instructions: 342000001 cycles: 972833883 heartbeat IPC: 0.334245 cumulative IPC: 0.350282 (Simulation time: 0 hr 35 min 27 sec) 
Heartbeat CPU 0 instructions: 343000000 cycles: 975807997 heartbeat IPC: 0.336234 cumulative IPC: 0.350238 (Simulation time: 0 hr 35 min 33 sec) 
Heartbeat CPU 0 instructions: 344000003 cycles: 978761082 heartbeat IPC: 0.33863 cumulative IPC: 0.350202 (Simulation time: 0 hr 35 min 39 sec) 
Heartbeat CPU 0 instructions: 345000001 cycles: 981729873 heartbeat IPC: 0.336837 cumulative IPC: 0.35016 (Simulation time: 0 hr 35 min 46 sec) 
Heartbeat CPU 0 instructions: 346000000 cycles: 984721985 heartbeat IPC: 0.334212 cumulative IPC: 0.350111 (Simulation time: 0 hr 35 min 52 sec) 
Heartbeat CPU 0 instructions: 347000000 cycles: 987664715 heartbeat IPC: 0.339821 cumulative IPC: 0.350079 (Simulation time: 0 hr 35 min 59 sec) 
Heartbeat CPU 0 instructions: 348000000 cycles: 990472785 heartbeat IPC: 0.356116 cumulative IPC: 0.350097 (Simulation time: 0 hr 36 min 5 sec) 
Heartbeat CPU 0 instructions: 349000002 cycles: 993422722 heartbeat IPC: 0.338991 cumulative IPC: 0.350063 (Simulation time: 0 hr 36 min 11 sec) 
Heartbeat CPU 0 instructions: 350000000 cycles: 996387683 heartbeat IPC: 0.337272 cumulative IPC: 0.350024 (Simulation time: 0 hr 36 min 17 sec) 
Heartbeat CPU 0 instructions: 351000002 cycles: 999276096 heartbeat IPC: 0.346212 cumulative IPC: 0.350013 (Simulation time: 0 hr 36 min 23 sec) 
Heartbeat CPU 0 instructions: 352000000 cycles: 1002257588 heartbeat IPC: 0.335402 cumulative IPC: 0.349968 (Simulation time: 0 hr 36 min 30 sec) 
Heartbeat CPU 0 instructions: 353000002 cycles: 1005229538 heartbeat IPC: 0.33648 cumulative IPC: 0.349927 (Simulation time: 0 hr 36 min 36 sec) 
Heartbeat CPU 0 instructions: 354000000 cycles: 1008107575 heartbeat IPC: 0.347458 cumulative IPC: 0.34992 (Simulation time: 0 hr 36 min 42 sec) 
Heartbeat CPU 0 instructions: 355000000 cycles: 1010950688 heartbeat IPC: 0.351727 cumulative IPC: 0.349925 (Simulation time: 0 hr 36 min 48 sec) 
Heartbeat CPU 0 instructions: 356000002 cycles: 1014022905 heartbeat IPC: 0.325498 cumulative IPC: 0.349849 (Simulation time: 0 hr 36 min 55 sec) 
Heartbeat CPU 0 instructions: 357000000 cycles: 1016803701 heartbeat IPC: 0.359609 cumulative IPC: 0.349877 (Simulation time: 0 hr 37 min 1 sec) 
Heartbeat CPU 0 instructions: 358000001 cycles: 1019627914 heartbeat IPC: 0.354081 cumulative IPC: 0.349889 (Simulation time: 0 hr 37 min 7 sec) 
Heartbeat CPU 0 instructions: 359000000 cycles: 1022590262 heartbeat IPC: 0.33757 cumulative IPC: 0.349852 (Simulation time: 0 hr 37 min 14 sec) 
Heartbeat CPU 0 instructions: 360000001 cycles: 1025550811 heartbeat IPC: 0.337776 cumulative IPC: 0.349816 (Simulation time: 0 hr 37 min 20 sec) 
Heartbeat CPU 0 instructions: 361000001 cycles: 1028571995 heartbeat IPC: 0.330996 cumulative IPC: 0.34976 (Simulation time: 0 hr 37 min 26 sec) 
Heartbeat CPU 0 instructions: 362000001 cycles: 1031527638 heartbeat IPC: 0.338336 cumulative IPC: 0.349726 (Simulation time: 0 hr 37 min 33 sec) 
Heartbeat CPU 0 instructions: 363000000 cycles: 1034238829 heartbeat IPC: 0.368841 cumulative IPC: 0.349777 (Simulation time: 0 hr 37 min 39 sec) 
Heartbeat CPU 0 instructions: 364000003 cycles: 1037207944 heartbeat IPC: 0.336802 cumulative IPC: 0.349739 (Simulation time: 0 hr 37 min 45 sec) 
Heartbeat CPU 0 instructions: 365000001 cycles: 1040070277 heartbeat IPC: 0.349365 cumulative IPC: 0.349738 (Simulation time: 0 hr 37 min 52 sec) 
Heartbeat CPU 0 instructions: 366000000 cycles: 1043004445 heartbeat IPC: 0.340812 cumulative IPC: 0.349713 (Simulation time: 0 hr 37 min 58 sec) 
Heartbeat CPU 0 instructions: 367000000 cycles: 1045951814 heartbeat IPC: 0.339286 cumulative IPC: 0.349682 (Simulation time: 0 hr 38 min 4 sec) 
Heartbeat CPU 0 instructions: 368000000 cycles: 1049077309 heartbeat IPC: 0.319949 cumulative IPC: 0.349592 (Simulation time: 0 hr 38 min 11 sec) 
Heartbeat CPU 0 instructions: 369000003 cycles: 1052196345 heartbeat IPC: 0.320613 cumulative IPC: 0.349504 (Simulation time: 0 hr 38 min 18 sec) 
Heartbeat CPU 0 instructions: 370000002 cycles: 1055292905 heartbeat IPC: 0.322939 cumulative IPC: 0.349424 (Simulation time: 0 hr 38 min 24 sec) 
Heartbeat CPU 0 instructions: 371000000 cycles: 1058178089 heartbeat IPC: 0.346598 cumulative IPC: 0.349416 (Simulation time: 0 hr 38 min 31 sec) 
Heartbeat CPU 0 instructions: 372000003 cycles: 1061371842 heartbeat IPC: 0.313112 cumulative IPC: 0.349304 (Simulation time: 0 hr 38 min 37 sec) 
Heartbeat CPU 0 instructions: 373000003 cycles: 1064305862 heartbeat IPC: 0.340829 cumulative IPC: 0.34928 (Simulation time: 0 hr 38 min 44 sec) 
Heartbeat CPU 0 instructions: 374000000 cycles: 1067466105 heartbeat IPC: 0.31643 cumulative IPC: 0.349181 (Simulation time: 0 hr 38 min 50 sec) 
Heartbeat CPU 0 instructions: 375000001 cycles: 1070573342 heartbeat IPC: 0.32183 cumulative IPC: 0.349099 (Simulation time: 0 hr 38 min 57 sec) 
Heartbeat CPU 0 instructions: 376000000 cycles: 1073517970 heartbeat IPC: 0.339601 cumulative IPC: 0.349073 (Simulation time: 0 hr 39 min 3 sec) 
Heartbeat CPU 0 instructions: 377000000 cycles: 1076744355 heartbeat IPC: 0.309944 cumulative IPC: 0.348953 (Simulation time: 0 hr 39 min 10 sec) 
Heartbeat CPU 0 instructions: 378000001 cycles: 1079722561 heartbeat IPC: 0.335773 cumulative IPC: 0.348915 (Simulation time: 0 hr 39 min 17 sec) 
Heartbeat CPU 0 instructions: 379000000 cycles: 1082963874 heartbeat IPC: 0.308517 cumulative IPC: 0.348792 (Simulation time: 0 hr 39 min 23 sec) 
Heartbeat CPU 0 instructions: 380000003 cycles: 1085860422 heartbeat IPC: 0.34524 cumulative IPC: 0.348782 (Simulation time: 0 hr 39 min 30 sec) 
Heartbeat CPU 0 instructions: 381000001 cycles: 1088992541 heartbeat IPC: 0.319272 cumulative IPC: 0.348695 (Simulation time: 0 hr 39 min 36 sec) 
Heartbeat CPU 0 instructions: 382000003 cycles: 1092119770 heartbeat IPC: 0.319773 cumulative IPC: 0.34861 (Simulation time: 0 hr 39 min 43 sec) 
Heartbeat CPU 0 instructions: 383000000 cycles: 1095055683 heartbeat IPC: 0.340609 cumulative IPC: 0.348588 (Simulation time: 0 hr 39 min 49 sec) 
Heartbeat CPU 0 instructions: 384000000 cycles: 1098309182 heartbeat IPC: 0.307361 cumulative IPC: 0.348463 (Simulation time: 0 hr 39 min 56 sec) 
Heartbeat CPU 0 instructions: 385000000 cycles: 1101209269 heartbeat IPC: 0.344817 cumulative IPC: 0.348454 (Simulation time: 0 hr 40 min 3 sec) 
Heartbeat CPU 0 instructions: 386000000 cycles: 1104396021 heartbeat IPC: 0.313799 cumulative IPC: 0.348351 (Simulation time: 0 hr 40 min 9 sec) 
Heartbeat CPU 0 instructions: 387000000 cycles: 1107306806 heartbeat IPC: 0.34355 cumulative IPC: 0.348338 (Simulation time: 0 hr 40 min 16 sec) 
Heartbeat CPU 0 instructions: 388000000 cycles: 1110525700 heartbeat IPC: 0.310666 cumulative IPC: 0.348227 (Simulation time: 0 hr 40 min 23 sec) 
Heartbeat CPU 0 instructions: 389000002 cycles: 1113412675 heartbeat IPC: 0.346384 cumulative IPC: 0.348222 (Simulation time: 0 hr 40 min 29 sec) 
Heartbeat CPU 0 instructions: 390000002 cycles: 1116622546 heartbeat IPC: 0.311539 cumulative IPC: 0.348114 (Simulation time: 0 hr 40 min 36 sec) 
Heartbeat CPU 0 instructions: 391000001 cycles: 1119642213 heartbeat IPC: 0.331162 cumulative IPC: 0.348067 (Simulation time: 0 hr 40 min 42 sec) 
Heartbeat CPU 0 instructions: 392000000 cycles: 1122918479 heartbeat IPC: 0.305225 cumulative IPC: 0.347939 (Simulation time: 0 hr 40 min 49 sec) 
Heartbeat CPU 0 instructions: 393000001 cycles: 1126180270 heartbeat IPC: 0.30658 cumulative IPC: 0.347817 (Simulation time: 0 hr 40 min 56 sec) 
Heartbeat CPU 0 instructions: 394000000 cycles: 1129568388 heartbeat IPC: 0.295149 cumulative IPC: 0.347655 (Simulation time: 0 hr 41 min 3 sec) 
Heartbeat CPU 0 instructions: 395000001 cycles: 1132744724 heartbeat IPC: 0.314828 cumulative IPC: 0.347561 (Simulation time: 0 hr 41 min 10 sec) 
Heartbeat CPU 0 instructions: 396000000 cycles: 1135954234 heartbeat IPC: 0.311574 cumulative IPC: 0.347457 (Simulation time: 0 hr 41 min 17 sec) 
Heartbeat CPU 0 instructions: 397000000 cycles: 1139174872 heartbeat IPC: 0.310497 cumulative IPC: 0.34735 (Simulation time: 0 hr 41 min 24 sec) 
Heartbeat CPU 0 instructions: 398000001 cycles: 1142454485 heartbeat IPC: 0.304914 cumulative IPC: 0.347226 (Simulation time: 0 hr 41 min 31 sec) 
Heartbeat CPU 0 instructions: 399000000 cycles: 1145653048 heartbeat IPC: 0.31264 cumulative IPC: 0.347127 (Simulation time: 0 hr 41 min 38 sec) 
Heartbeat CPU 0 instructions: 400000001 cycles: 1148791007 heartbeat IPC: 0.318679 cumulative IPC: 0.347048 (Simulation time: 0 hr 41 min 45 sec) 
Heartbeat CPU 0 instructions: 401000002 cycles: 1152144122 heartbeat IPC: 0.29823 cumulative IPC: 0.346902 (Simulation time: 0 hr 41 min 52 sec) 
Heartbeat CPU 0 instructions: 402000002 cycles: 1155323902 heartbeat IPC: 0.314487 cumulative IPC: 0.346811 (Simulation time: 0 hr 41 min 59 sec) 
Heartbeat CPU 0 instructions: 403000001 cycles: 1158475133 heartbeat IPC: 0.317336 cumulative IPC: 0.346729 (Simulation time: 0 hr 42 min 5 sec) 
Heartbeat CPU 0 instructions: 404000000 cycles: 1161656674 heartbeat IPC: 0.314313 cumulative IPC: 0.346638 (Simulation time: 0 hr 42 min 12 sec) 
Heartbeat CPU 0 instructions: 405000001 cycles: 1171808484 heartbeat IPC: 0.0985047 cumulative IPC: 0.344442 (Simulation time: 0 hr 42 min 24 sec) 
Heartbeat CPU 0 instructions: 406000002 cycles: 1174750109 heartbeat IPC: 0.339949 cumulative IPC: 0.34443 (Simulation time: 0 hr 42 min 31 sec) 
Heartbeat CPU 0 instructions: 407000000 cycles: 1177654713 heartbeat IPC: 0.34428 cumulative IPC: 0.34443 (Simulation time: 0 hr 42 min 37 sec) 
Heartbeat CPU 0 instructions: 408000002 cycles: 1180556261 heartbeat IPC: 0.344644 cumulative IPC: 0.34443 (Simulation time: 0 hr 42 min 44 sec) 
Heartbeat CPU 0 instructions: 409000000 cycles: 1183442990 heartbeat IPC: 0.346412 cumulative IPC: 0.344435 (Simulation time: 0 hr 42 min 50 sec) 
Heartbeat CPU 0 instructions: 410000003 cycles: 1186434776 heartbeat IPC: 0.334249 cumulative IPC: 0.344409 (Simulation time: 0 hr 42 min 57 sec) 
Heartbeat CPU 0 instructions: 411000000 cycles: 1189311721 heartbeat IPC: 0.34759 cumulative IPC: 0.344417 (Simulation time: 0 hr 43 min 3 sec) 
Heartbeat CPU 0 instructions: 412000001 cycles: 1192204681 heartbeat IPC: 0.345667 cumulative IPC: 0.34442 (Simulation time: 0 hr 43 min 10 sec) 
Heartbeat CPU 0 instructions: 413000000 cycles: 1195286540 heartbeat IPC: 0.324479 cumulative IPC: 0.344368 (Simulation time: 0 hr 43 min 16 sec) 
Heartbeat CPU 0 instructions: 414000002 cycles: 1198190121 heartbeat IPC: 0.344403 cumulative IPC: 0.344368 (Simulation time: 0 hr 43 min 23 sec) 
Heartbeat CPU 0 instructions: 415000001 cycles: 1201139505 heartbeat IPC: 0.339054 cumulative IPC: 0.344354 (Simulation time: 0 hr 43 min 29 sec) 
Heartbeat CPU 0 instructions: 416000000 cycles: 1204065296 heartbeat IPC: 0.341788 cumulative IPC: 0.344348 (Simulation time: 0 hr 43 min 36 sec) 
Heartbeat CPU 0 instructions: 417000000 cycles: 1206992792 heartbeat IPC: 0.341589 cumulative IPC: 0.344341 (Simulation time: 0 hr 43 min 42 sec) 
Heartbeat CPU 0 instructions: 418000000 cycles: 1209934686 heartbeat IPC: 0.339917 cumulative IPC: 0.34433 (Simulation time: 0 hr 43 min 49 sec) 
Heartbeat CPU 0 instructions: 419000000 cycles: 1212827234 heartbeat IPC: 0.345716 cumulative IPC: 0.344334 (Simulation time: 0 hr 43 min 55 sec) 
Heartbeat CPU 0 instructions: 420000001 cycles: 1216082626 heartbeat IPC: 0.307183 cumulative IPC: 0.344232 (Simulation time: 0 hr 44 min 2 sec) 
Heartbeat CPU 0 instructions: 421000001 cycles: 1219308784 heartbeat IPC: 0.309966 cumulative IPC: 0.344139 (Simulation time: 0 hr 44 min 9 sec) 
Heartbeat CPU 0 instructions: 422000002 cycles: 1222555782 heartbeat IPC: 0.307977 cumulative IPC: 0.344041 (Simulation time: 0 hr 44 min 16 sec) 
Heartbeat CPU 0 instructions: 423000000 cycles: 1225580072 heartbeat IPC: 0.330655 cumulative IPC: 0.344008 (Simulation time: 0 hr 44 min 23 sec) 
Heartbeat CPU 0 instructions: 424000003 cycles: 1228750600 heartbeat IPC: 0.315406 cumulative IPC: 0.343932 (Simulation time: 0 hr 44 min 30 sec) 
Heartbeat CPU 0 instructions: 425000002 cycles: 1231944763 heartbeat IPC: 0.313071 cumulative IPC: 0.343851 (Simulation time: 0 hr 44 min 36 sec) 
Heartbeat CPU 0 instructions: 426000003 cycles: 1235215638 heartbeat IPC: 0.305729 cumulative IPC: 0.343748 (Simulation time: 0 hr 44 min 43 sec) 
Heartbeat CPU 0 instructions: 427000001 cycles: 1238462519 heartbeat IPC: 0.307987 cumulative IPC: 0.343652 (Simulation time: 0 hr 44 min 50 sec) 
Heartbeat CPU 0 instructions: 428000000 cycles: 1241364666 heartbeat IPC: 0.344572 cumulative IPC: 0.343654 (Simulation time: 0 hr 44 min 57 sec) 
Heartbeat CPU 0 instructions: 429000000 cycles: 1244650845 heartbeat IPC: 0.304305 cumulative IPC: 0.343548 (Simulation time: 0 hr 45 min 4 sec) 
Heartbeat CPU 0 instructions: 430000001 cycles: 1247523427 heartbeat IPC: 0.348119 cumulative IPC: 0.343559 (Simulation time: 0 hr 45 min 10 sec) 
Heartbeat CPU 0 instructions: 431000001 cycles: 1250627155 heartbeat IPC: 0.322193 cumulative IPC: 0.343505 (Simulation time: 0 hr 45 min 18 sec) 
Heartbeat CPU 0 instructions: 432000000 cycles: 1253674108 heartbeat IPC: 0.328196 cumulative IPC: 0.343467 (Simulation time: 0 hr 45 min 24 sec) 
Heartbeat CPU 0 instructions: 433000000 cycles: 1256931479 heartbeat IPC: 0.306996 cumulative IPC: 0.34337 (Simulation time: 0 hr 45 min 32 sec) 
Heartbeat CPU 0 instructions: 434000000 cycles: 1260026320 heartbeat IPC: 0.323118 cumulative IPC: 0.34332 (Simulation time: 0 hr 45 min 39 sec) 
Heartbeat CPU 0 instructions: 435000001 cycles: 1263180647 heartbeat IPC: 0.317025 cumulative IPC: 0.343253 (Simulation time: 0 hr 45 min 46 sec) 
Heartbeat CPU 0 instructions: 436000001 cycles: 1266488477 heartbeat IPC: 0.302313 cumulative IPC: 0.343144 (Simulation time: 0 hr 45 min 53 sec) 
Heartbeat CPU 0 instructions: 437000001 cycles: 1269579534 heartbeat IPC: 0.323514 cumulative IPC: 0.343095 (Simulation time: 0 hr 46 min 0 sec) 
Heartbeat CPU 0 instructions: 438000001 cycles: 1272678446 heartbeat IPC: 0.322694 cumulative IPC: 0.343044 (Simulation time: 0 hr 46 min 7 sec) 
Heartbeat CPU 0 instructions: 439000000 cycles: 1275952911 heartbeat IPC: 0.305393 cumulative IPC: 0.342946 (Simulation time: 0 hr 46 min 15 sec) 
Heartbeat CPU 0 instructions: 440000000 cycles: 1278851402 heartbeat IPC: 0.345007 cumulative IPC: 0.34295 (Simulation time: 0 hr 46 min 21 sec) 
Heartbeat CPU 0 instructions: 441000002 cycles: 1282081729 heartbeat IPC: 0.309567 cumulative IPC: 0.342865 (Simulation time: 0 hr 46 min 28 sec) 
Heartbeat CPU 0 instructions: 442000001 cycles: 1285059893 heartbeat IPC: 0.335777 cumulative IPC: 0.342848 (Simulation time: 0 hr 46 min 35 sec) 
Heartbeat CPU 0 instructions: 443000000 cycles: 1288190126 heartbeat IPC: 0.319465 cumulative IPC: 0.34279 (Simulation time: 0 hr 46 min 41 sec) 
Heartbeat CPU 0 instructions: 444000000 cycles: 1291384315 heartbeat IPC: 0.313069 cumulative IPC: 0.342715 (Simulation time: 0 hr 46 min 48 sec) 
Heartbeat CPU 0 instructions: 445000000 cycles: 1294323698 heartbeat IPC: 0.340207 cumulative IPC: 0.342709 (Simulation time: 0 hr 46 min 55 sec) 
Heartbeat CPU 0 instructions: 446000000 cycles: 1297456178 heartbeat IPC: 0.319236 cumulative IPC: 0.342651 (Simulation time: 0 hr 47 min 2 sec) 
Heartbeat CPU 0 instructions: 447000002 cycles: 1300629240 heartbeat IPC: 0.315154 cumulative IPC: 0.342583 (Simulation time: 0 hr 47 min 9 sec) 
Heartbeat CPU 0 instructions: 448000002 cycles: 1303491192 heartbeat IPC: 0.349412 cumulative IPC: 0.342598 (Simulation time: 0 hr 47 min 15 sec) 
Heartbeat CPU 0 instructions: 449000000 cycles: 1306702626 heartbeat IPC: 0.311387 cumulative IPC: 0.34252 (Simulation time: 0 hr 47 min 22 sec) 
Heartbeat CPU 0 instructions: 450000001 cycles: 1309925151 heartbeat IPC: 0.310316 cumulative IPC: 0.342439 (Simulation time: 0 hr 47 min 29 sec) 
Heartbeat CPU 0 instructions: 451000000 cycles: 1312858455 heartbeat IPC: 0.340912 cumulative IPC: 0.342436 (Simulation time: 0 hr 47 min 35 sec) 
Heartbeat CPU 0 instructions: 452000002 cycles: 1316037657 heartbeat IPC: 0.314545 cumulative IPC: 0.342367 (Simulation time: 0 hr 47 min 42 sec) 
Heartbeat CPU 0 instructions: 453000003 cycles: 1319269139 heartbeat IPC: 0.309456 cumulative IPC: 0.342285 (Simulation time: 0 hr 47 min 49 sec) 
Heartbeat CPU 0 instructions: 454000001 cycles: 1322213635 heartbeat IPC: 0.339616 cumulative IPC: 0.342279 (Simulation time: 0 hr 47 min 56 sec) 
Heartbeat CPU 0 instructions: 455000002 cycles: 1325380202 heartbeat IPC: 0.3158 cumulative IPC: 0.342214 (Simulation time: 0 hr 48 min 3 sec) 
Heartbeat CPU 0 instructions: 456000001 cycles: 1328310337 heartbeat IPC: 0.341281 cumulative IPC: 0.342212 (Simulation time: 0 hr 48 min 9 sec) 
Heartbeat CPU 0 instructions: 457000000 cycles: 1331438516 heartbeat IPC: 0.319674 cumulative IPC: 0.342158 (Simulation time: 0 hr 48 min 16 sec) 
Heartbeat CPU 0 instructions: 458000000 cycles: 1334630779 heartbeat IPC: 0.313257 cumulative IPC: 0.342088 (Simulation time: 0 hr 48 min 23 sec) 
Heartbeat CPU 0 instructions: 459000002 cycles: 1337676950 heartbeat IPC: 0.328282 cumulative IPC: 0.342056 (Simulation time: 0 hr 48 min 29 sec) 
Heartbeat CPU 0 instructions: 460000000 cycles: 1340772654 heartbeat IPC: 0.323028 cumulative IPC: 0.342011 (Simulation time: 0 hr 48 min 36 sec) 
Heartbeat CPU 0 instructions: 461000002 cycles: 1343709466 heartbeat IPC: 0.340506 cumulative IPC: 0.342008 (Simulation time: 0 hr 48 min 43 sec) 
Heartbeat CPU 0 instructions: 462000000 cycles: 1347118564 heartbeat IPC: 0.293332 cumulative IPC: 0.341882 (Simulation time: 0 hr 48 min 50 sec) 
Heartbeat CPU 0 instructions: 463000000 cycles: 1350024330 heartbeat IPC: 0.344143 cumulative IPC: 0.341887 (Simulation time: 0 hr 48 min 56 sec) 
Heartbeat CPU 0 instructions: 464000001 cycles: 1353017272 heartbeat IPC: 0.33412 cumulative IPC: 0.34187 (Simulation time: 0 hr 49 min 3 sec) 
Heartbeat CPU 0 instructions: 465000003 cycles: 1356126806 heartbeat IPC: 0.321592 cumulative IPC: 0.341822 (Simulation time: 0 hr 49 min 9 sec) 
Heartbeat CPU 0 instructions: 466000003 cycles: 1359055972 heartbeat IPC: 0.341394 cumulative IPC: 0.341821 (Simulation time: 0 hr 49 min 16 sec) 
Heartbeat CPU 0 instructions: 467000000 cycles: 1362208385 heartbeat IPC: 0.317216 cumulative IPC: 0.341763 (Simulation time: 0 hr 49 min 23 sec) 
Heartbeat CPU 0 instructions: 468000001 cycles: 1365116291 heartbeat IPC: 0.34389 cumulative IPC: 0.341768 (Simulation time: 0 hr 49 min 29 sec) 
Heartbeat CPU 0 instructions: 469000002 cycles: 1368100121 heartbeat IPC: 0.33514 cumulative IPC: 0.341753 (Simulation time: 0 hr 49 min 36 sec) 
Heartbeat CPU 0 instructions: 470000002 cycles: 1371219616 heartbeat IPC: 0.320565 cumulative IPC: 0.341704 (Simulation time: 0 hr 49 min 43 sec) 
Heartbeat CPU 0 instructions: 471000002 cycles: 1374093532 heartbeat IPC: 0.347957 cumulative IPC: 0.341717 (Simulation time: 0 hr 49 min 49 sec) 
Heartbeat CPU 0 instructions: 472000000 cycles: 1377176794 heartbeat IPC: 0.324331 cumulative IPC: 0.341678 (Simulation time: 0 hr 49 min 56 sec) 
Heartbeat CPU 0 instructions: 473000000 cycles: 1380261720 heartbeat IPC: 0.324157 cumulative IPC: 0.341638 (Simulation time: 0 hr 50 min 3 sec) 
Heartbeat CPU 0 instructions: 474000001 cycles: 1383259475 heartbeat IPC: 0.333583 cumulative IPC: 0.34162 (Simulation time: 0 hr 50 min 9 sec) 
Heartbeat CPU 0 instructions: 475000000 cycles: 1386356185 heartbeat IPC: 0.322923 cumulative IPC: 0.341578 (Simulation time: 0 hr 50 min 16 sec) 
Heartbeat CPU 0 instructions: 476000002 cycles: 1389323889 heartbeat IPC: 0.336962 cumulative IPC: 0.341568 (Simulation time: 0 hr 50 min 22 sec) 
Heartbeat CPU 0 instructions: 477000000 cycles: 1392550138 heartbeat IPC: 0.309957 cumulative IPC: 0.341493 (Simulation time: 0 hr 50 min 29 sec) 
Heartbeat CPU 0 instructions: 478000002 cycles: 1395801092 heartbeat IPC: 0.307603 cumulative IPC: 0.341413 (Simulation time: 0 hr 50 min 36 sec) 
Heartbeat CPU 0 instructions: 479000003 cycles: 1398734367 heartbeat IPC: 0.340916 cumulative IPC: 0.341412 (Simulation time: 0 hr 50 min 42 sec) 
Heartbeat CPU 0 instructions: 480000000 cycles: 1401658107 heartbeat IPC: 0.342027 cumulative IPC: 0.341413 (Simulation time: 0 hr 50 min 48 sec) 
Heartbeat CPU 0 instructions: 481000000 cycles: 1404648565 heartbeat IPC: 0.334397 cumulative IPC: 0.341398 (Simulation time: 0 hr 50 min 55 sec) 
Heartbeat CPU 0 instructions: 482000002 cycles: 1408578378 heartbeat IPC: 0.254466 cumulative IPC: 0.341151 (Simulation time: 0 hr 51 min 2 sec) 
Heartbeat CPU 0 instructions: 483000002 cycles: 1411531043 heartbeat IPC: 0.338677 cumulative IPC: 0.341145 (Simulation time: 0 hr 51 min 9 sec) 
Heartbeat CPU 0 instructions: 484000000 cycles: 1414771966 heartbeat IPC: 0.308553 cumulative IPC: 0.341069 (Simulation time: 0 hr 51 min 16 sec) 
Heartbeat CPU 0 instructions: 485000000 cycles: 1417662991 heartbeat IPC: 0.345898 cumulative IPC: 0.341079 (Simulation time: 0 hr 51 min 22 sec) 
Heartbeat CPU 0 instructions: 486000000 cycles: 1420950591 heartbeat IPC: 0.304173 cumulative IPC: 0.340993 (Simulation time: 0 hr 51 min 29 sec) 
Heartbeat CPU 0 instructions: 487000001 cycles: 1423859182 heartbeat IPC: 0.343809 cumulative IPC: 0.340998 (Simulation time: 0 hr 51 min 36 sec) 
Heartbeat CPU 0 instructions: 488000002 cycles: 1427086196 heartbeat IPC: 0.309884 cumulative IPC: 0.340927 (Simulation time: 0 hr 51 min 43 sec) 
Heartbeat CPU 0 instructions: 489000000 cycles: 1430143413 heartbeat IPC: 0.327094 cumulative IPC: 0.340897 (Simulation time: 0 hr 51 min 49 sec) 
Heartbeat CPU 0 instructions: 490000001 cycles: 1433091480 heartbeat IPC: 0.339206 cumulative IPC: 0.340893 (Simulation time: 0 hr 51 min 56 sec) 
Heartbeat CPU 0 instructions: 491000000 cycles: 1436054877 heartbeat IPC: 0.33745 cumulative IPC: 0.340886 (Simulation time: 0 hr 52 min 2 sec) 
Heartbeat CPU 0 instructions: 492000000 cycles: 1439230953 heartbeat IPC: 0.314854 cumulative IPC: 0.340827 (Simulation time: 0 hr 52 min 9 sec) 
Heartbeat CPU 0 instructions: 493000003 cycles: 1442300561 heartbeat IPC: 0.325775 cumulative IPC: 0.340795 (Simulation time: 0 hr 52 min 16 sec) 
Heartbeat CPU 0 instructions: 494000000 cycles: 1445209059 heartbeat IPC: 0.343819 cumulative IPC: 0.340801 (Simulation time: 0 hr 52 min 22 sec) 
Heartbeat CPU 0 instructions: 495000000 cycles: 1448237848 heartbeat IPC: 0.330165 cumulative IPC: 0.340778 (Simulation time: 0 hr 52 min 29 sec) 
Heartbeat CPU 0 instructions: 496000003 cycles: 1451523223 heartbeat IPC: 0.30438 cumulative IPC: 0.340695 (Simulation time: 0 hr 52 min 36 sec) 
Heartbeat CPU 0 instructions: 497000002 cycles: 1454434020 heartbeat IPC: 0.343548 cumulative IPC: 0.3407 (Simulation time: 0 hr 52 min 42 sec) 
Heartbeat CPU 0 instructions: 498000003 cycles: 1457452937 heartbeat IPC: 0.331245 cumulative IPC: 0.34068 (Simulation time: 0 hr 52 min 49 sec) 
Heartbeat CPU 0 instructions: 499000000 cycles: 1460636145 heartbeat IPC: 0.314148 cumulative IPC: 0.340622 (Simulation time: 0 hr 52 min 56 sec) 
Heartbeat CPU 0 instructions: 500000002 cycles: 1463614238 heartbeat IPC: 0.335786 cumulative IPC: 0.340612 (Simulation time: 0 hr 53 min 2 sec) 
Heartbeat CPU 0 instructions: 501000000 cycles: 1466547725 heartbeat IPC: 0.340891 cumulative IPC: 0.340612 (Simulation time: 0 hr 53 min 9 sec) 
Heartbeat CPU 0 instructions: 502000002 cycles: 1469472515 heartbeat IPC: 0.341906 cumulative IPC: 0.340615 (Simulation time: 0 hr 53 min 15 sec) 
Heartbeat CPU 0 instructions: 503000001 cycles: 1472405318 heartbeat IPC: 0.34097 cumulative IPC: 0.340616 (Simulation time: 0 hr 53 min 22 sec) 
Heartbeat CPU 0 instructions: 504000002 cycles: 1475362978 heartbeat IPC: 0.338105 cumulative IPC: 0.34061 (Simulation time: 0 hr 53 min 28 sec) 
Heartbeat CPU 0 instructions: 505000001 cycles: 1478355005 heartbeat IPC: 0.334221 cumulative IPC: 0.340597 (Simulation time: 0 hr 53 min 35 sec) 
Heartbeat CPU 0 instructions: 506000000 cycles: 1481507703 heartbeat IPC: 0.317188 cumulative IPC: 0.340547 (Simulation time: 0 hr 53 min 42 sec) 
Heartbeat CPU 0 instructions: 507000000 cycles: 1485337768 heartbeat IPC: 0.261092 cumulative IPC: 0.340338 (Simulation time: 0 hr 53 min 49 sec) 
Heartbeat CPU 0 instructions: 508000001 cycles: 1488346326 heartbeat IPC: 0.332385 cumulative IPC: 0.340322 (Simulation time: 0 hr 53 min 55 sec) 
Heartbeat CPU 0 instructions: 509000000 cycles: 1491411183 heartbeat IPC: 0.326279 cumulative IPC: 0.340292 (Simulation time: 0 hr 54 min 2 sec) 
Heartbeat CPU 0 instructions: 510000000 cycles: 1494341243 heartbeat IPC: 0.34129 cumulative IPC: 0.340294 (Simulation time: 0 hr 54 min 9 sec) 
Finished CPU 0 instructions: 500000000 cycles: 1469315699 cumulative IPC: 0.340294 (Simulation time: 0 hr 54 min 9 sec) 

ChampSim completed all CPUs

Region of Interest Statistics

CPU 0 cumulative IPC: 0.340294 instructions: 500000000 cycles: 1469315699
L1D TOTAL     ACCESS:  162276456  HIT:  127403056  MISS:   34873400
L1D LOAD      ACCESS:  121193477  HIT:   87825966  MISS:   33367511
L1D RFO       ACCESS:   41082979  HIT:   39577090  MISS:    1505889
L1D PREFETCH  ACCESS:          0  HIT:          0  MISS:          0
L1D WRITEBACK ACCESS:          0  HIT:          0  MISS:          0
L1D PREFETCH  REQUESTED:          0  ISSUED:          0  USEFUL:          0  USELESS:          0  UAC CORRECT:          0
L1D AVERAGE MISS LATENCY: 75.5319 cycles
L1I TOTAL     ACCESS:   90407295  HIT:   90407293  MISS:          2
L1I LOAD      ACCESS:   90407295  HIT:   90407293  MISS:          2
L1I RFO       ACCESS:          0  HIT:          0  MISS:          0
L1I PREFETCH  ACCESS:          0  HIT:          0  MISS:          0
L1I WRITEBACK ACCESS:          0  HIT:          0  MISS:          0
L1I PREFETCH  REQUESTED:          0  ISSUED:          0  USEFUL:          0  USELESS:          0  UAC CORRECT:          0
L1I AVERAGE MISS LATENCY: 306 cycles
L2C TOTAL     ACCESS:   37179758  HIT:    8357372  MISS:   28822386
L2C LOAD      ACCESS:   33367375  HIT:    5271871  MISS:   28095504
L2C RFO       ACCESS:    1505882  HIT:     782843  MISS:     723039
L2C PREFETCH  ACCESS:          0  HIT:          0  MISS:          0
L2C WRITEBACK ACCESS:    2306501  HIT:    2302658  MISS:       3843
L2C PREFETCH  REQUESTED:          0  ISSUED:          0  USEFUL:          0  USELESS:          0  UAC CORRECT:          0
L2C AVERAGE MISS LATENCY: 73.7896 cycles
LLC TOTAL     ACCESS:   56352940  HIT:   31425026  MISS:   24927914
LLC LOAD      ACCESS:   28095483  HIT:   22141102  MISS:    5954381
LLC RFO       ACCESS:     723027  HIT:     688716  MISS:      34311
LLC PREFETCH  ACCESS:   26005594  HIT:    7140331  MISS:   18865263
LLC WRITEBACK ACCESS:    1528836  HIT:    1454877  MISS:      73959
LLC PREFETCH  REQUESTED:   27986875  ISSUED:   26673328  USEFUL:    9550259  USELESS:    9303673  UAC CORRECT:     238688
LLC AVERAGE MISS LATENCY: 192.222 cycles
Major fault: 0 Minor fault: 174353

DRAM Statistics
 CHANNEL 0
 RQ ROW_BUFFER_HIT:    6537917  ROW_BUFFER_MISS:    5910214
 DBUS_CONGESTED:   10754593
 WQ ROW_BUFFER_HIT:      88407  ROW_BUFFER_MISS:      51453  FULL:          0

 CHANNEL 1
 RQ ROW_BUFFER_HIT:    6534242  ROW_BUFFER_MISS:    5870901
 DBUS_CONGESTED:   10754593
 WQ ROW_BUFFER_HIT:      81583  ROW_BUFFER_MISS:      48750  FULL:          0

 AVG_CONGESTED_CYCLE: 16

CPU 0 Branch Prediction Accuracy: 94.6077% MPKI: 13.9561 Average ROB Occupancy at Mispredict: 33.541

Branch types
NOT_BRANCH: 370592239 74.1184%
BRANCH_DIRECT_JUMP: 14642726 2.92855%
BRANCH_INDIRECT: 0 0%
BRANCH_CONDITIONAL: 95479417 19.0959%
BRANCH_DIRECT_CALL: 9020303 1.80406%
BRANCH_INDIRECT_CALL: 622464 0.124493%
BRANCH_RETURN: 9642770 1.92855%
BRANCH_OTHER: 0 0%

