
*** ChampSim Multicore Out-of-Order Simulator ***

Warmup Instructions: 1000000
Prefetch Warmup Instructions: 10000000
Simulation Instructions: 500000000
Stat Printing Period: 1000000
Number of CPUs: 1
LLC sets: 2048
LLC ways: 16
Off-chip DRAM Size: 32768 MB Channels: 2 Width: 64-bit Data Rate: 1024 MT/s

CPU 0 runs /scratch/cluster/cmolder/ML-DPC/ChampSimTraces/spec17/605.mcf-s6.trace.xz
Read seed: 227
Heartbeat CPU 0 instructions: 1000001 cycles: 411331 heartbeat IPC: 2.43113 cumulative IPC: 2.43113 (Simulation time: 0 hr 0 min 3 sec) 

Warmup complete CPU 0 instructions: 1000001 cycles: 411331 (Simulation time: 0 hr 0 min 3 sec) 

Heartbeat CPU 0 instructions: 2000003 cycles: 2822439 heartbeat IPC: 0.414748 cumulative IPC: 0.414748 (Simulation time: 0 hr 0 min 6 sec) 
Heartbeat CPU 0 instructions: 3000000 cycles: 5232417 heartbeat IPC: 0.41494 cumulative IPC: 0.414844 (Simulation time: 0 hr 0 min 9 sec) 
Heartbeat CPU 0 instructions: 4000002 cycles: 7593955 heartbeat IPC: 0.423454 cumulative IPC: 0.417675 (Simulation time: 0 hr 0 min 12 sec) 
Heartbeat CPU 0 instructions: 5000000 cycles: 9937592 heartbeat IPC: 0.426686 cumulative IPC: 0.419892 (Simulation time: 0 hr 0 min 14 sec) 
Heartbeat CPU 0 instructions: 6000001 cycles: 12266736 heartbeat IPC: 0.429343 cumulative IPC: 0.421749 (Simulation time: 0 hr 0 min 17 sec) 
Heartbeat CPU 0 instructions: 7000001 cycles: 14847142 heartbeat IPC: 0.387536 cumulative IPC: 0.415633 (Simulation time: 0 hr 0 min 20 sec) 
Heartbeat CPU 0 instructions: 8000002 cycles: 17244739 heartbeat IPC: 0.417085 cumulative IPC: 0.41584 (Simulation time: 0 hr 0 min 23 sec) 
Heartbeat CPU 0 instructions: 9000000 cycles: 19642793 heartbeat IPC: 0.417004 cumulative IPC: 0.415985 (Simulation time: 0 hr 0 min 26 sec) 
Heartbeat CPU 0 instructions: 10000000 cycles: 22041797 heartbeat IPC: 0.41684 cumulative IPC: 0.41608 (Simulation time: 0 hr 0 min 29 sec) 

Warmup complete CPU 0 instructions: 10000002 cycles: 22041798 (Simulation time: 0 hr 0 min 29 sec) 

Heartbeat CPU 0 instructions: 11000000 cycles: 24147697 heartbeat IPC: 0.474856 cumulative IPC: 0.474856 (Simulation time: 0 hr 0 min 31 sec) 
Heartbeat CPU 0 instructions: 12000001 cycles: 26247331 heartbeat IPC: 0.476274 cumulative IPC: 0.475564 (Simulation time: 0 hr 0 min 34 sec) 
Heartbeat CPU 0 instructions: 13000002 cycles: 28297255 heartbeat IPC: 0.487823 cumulative IPC: 0.479581 (Simulation time: 0 hr 0 min 37 sec) 
Heartbeat CPU 0 instructions: 14000003 cycles: 30348202 heartbeat IPC: 0.48758 cumulative IPC: 0.481556 (Simulation time: 0 hr 0 min 39 sec) 
Heartbeat CPU 0 instructions: 15000001 cycles: 32465504 heartbeat IPC: 0.472298 cumulative IPC: 0.479676 (Simulation time: 0 hr 0 min 42 sec) 
Heartbeat CPU 0 instructions: 16000000 cycles: 34550656 heartbeat IPC: 0.479581 cumulative IPC: 0.47966 (Simulation time: 0 hr 0 min 45 sec) 
Heartbeat CPU 0 instructions: 17000003 cycles: 36616701 heartbeat IPC: 0.484018 cumulative IPC: 0.480278 (Simulation time: 0 hr 0 min 47 sec) 
Heartbeat CPU 0 instructions: 18000001 cycles: 38688830 heartbeat IPC: 0.482594 cumulative IPC: 0.480566 (Simulation time: 0 hr 0 min 50 sec) 
Heartbeat CPU 0 instructions: 19000000 cycles: 40768439 heartbeat IPC: 0.480859 cumulative IPC: 0.480599 (Simulation time: 0 hr 0 min 53 sec) 
Heartbeat CPU 0 instructions: 20000001 cycles: 42748929 heartbeat IPC: 0.504926 cumulative IPC: 0.482925 (Simulation time: 0 hr 0 min 55 sec) 
Heartbeat CPU 0 instructions: 21000000 cycles: 44554865 heartbeat IPC: 0.553729 cumulative IPC: 0.488605 (Simulation time: 0 hr 0 min 58 sec) 
Heartbeat CPU 0 instructions: 22000000 cycles: 46498487 heartbeat IPC: 0.514503 cumulative IPC: 0.490663 (Simulation time: 0 hr 1 min 0 sec) 
Heartbeat CPU 0 instructions: 23000000 cycles: 48513240 heartbeat IPC: 0.496339 cumulative IPC: 0.491095 (Simulation time: 0 hr 1 min 3 sec) 
Heartbeat CPU 0 instructions: 24000001 cycles: 50548481 heartbeat IPC: 0.491343 cumulative IPC: 0.491113 (Simulation time: 0 hr 1 min 6 sec) 
Heartbeat CPU 0 instructions: 25000001 cycles: 52579036 heartbeat IPC: 0.492476 cumulative IPC: 0.491204 (Simulation time: 0 hr 1 min 8 sec) 
Heartbeat CPU 0 instructions: 26000000 cycles: 54677215 heartbeat IPC: 0.476603 cumulative IPC: 0.490265 (Simulation time: 0 hr 1 min 11 sec) 
Heartbeat CPU 0 instructions: 27000000 cycles: 56759405 heartbeat IPC: 0.480264 cumulative IPC: 0.489665 (Simulation time: 0 hr 1 min 14 sec) 
Heartbeat CPU 0 instructions: 28000000 cycles: 58828941 heartbeat IPC: 0.4832 cumulative IPC: 0.489301 (Simulation time: 0 hr 1 min 17 sec) 
Heartbeat CPU 0 instructions: 29000002 cycles: 60878024 heartbeat IPC: 0.488024 cumulative IPC: 0.489234 (Simulation time: 0 hr 1 min 20 sec) 
Heartbeat CPU 0 instructions: 30000000 cycles: 62908673 heartbeat IPC: 0.492452 cumulative IPC: 0.489394 (Simulation time: 0 hr 1 min 22 sec) 
Heartbeat CPU 0 instructions: 31000003 cycles: 64990824 heartbeat IPC: 0.480274 cumulative IPC: 0.488952 (Simulation time: 0 hr 1 min 25 sec) 
Heartbeat CPU 0 instructions: 32000000 cycles: 67036922 heartbeat IPC: 0.488734 cumulative IPC: 0.488942 (Simulation time: 0 hr 1 min 27 sec) 
Heartbeat CPU 0 instructions: 33000000 cycles: 69057728 heartbeat IPC: 0.494852 cumulative IPC: 0.489196 (Simulation time: 0 hr 1 min 30 sec) 
Heartbeat CPU 0 instructions: 34000001 cycles: 71119739 heartbeat IPC: 0.484964 cumulative IPC: 0.489018 (Simulation time: 0 hr 1 min 32 sec) 
Heartbeat CPU 0 instructions: 35000001 cycles: 73162305 heartbeat IPC: 0.48958 cumulative IPC: 0.489041 (Simulation time: 0 hr 1 min 35 sec) 
Heartbeat CPU 0 instructions: 36000000 cycles: 75246151 heartbeat IPC: 0.479881 cumulative IPC: 0.488682 (Simulation time: 0 hr 1 min 38 sec) 
Heartbeat CPU 0 instructions: 37000000 cycles: 77285498 heartbeat IPC: 0.490353 cumulative IPC: 0.488743 (Simulation time: 0 hr 1 min 40 sec) 
Heartbeat CPU 0 instructions: 38000000 cycles: 79357074 heartbeat IPC: 0.482724 cumulative IPC: 0.488526 (Simulation time: 0 hr 1 min 43 sec) 
Heartbeat CPU 0 instructions: 39000000 cycles: 81367572 heartbeat IPC: 0.497389 cumulative IPC: 0.488826 (Simulation time: 0 hr 1 min 46 sec) 
Heartbeat CPU 0 instructions: 40000003 cycles: 83400845 heartbeat IPC: 0.491819 cumulative IPC: 0.488925 (Simulation time: 0 hr 1 min 48 sec) 
Heartbeat CPU 0 instructions: 41000003 cycles: 85430198 heartbeat IPC: 0.492768 cumulative IPC: 0.489048 (Simulation time: 0 hr 1 min 51 sec) 
Heartbeat CPU 0 instructions: 42000002 cycles: 87533987 heartbeat IPC: 0.475332 cumulative IPC: 0.488608 (Simulation time: 0 hr 1 min 53 sec) 
Heartbeat CPU 0 instructions: 43000003 cycles: 89602391 heartbeat IPC: 0.483465 cumulative IPC: 0.48845 (Simulation time: 0 hr 1 min 56 sec) 
Heartbeat CPU 0 instructions: 44000000 cycles: 91561565 heartbeat IPC: 0.510418 cumulative IPC: 0.489069 (Simulation time: 0 hr 1 min 59 sec) 
Heartbeat CPU 0 instructions: 45000000 cycles: 93389333 heartbeat IPC: 0.547115 cumulative IPC: 0.490557 (Simulation time: 0 hr 2 min 1 sec) 
Heartbeat CPU 0 instructions: 46000001 cycles: 95344475 heartbeat IPC: 0.511472 cumulative IPC: 0.491114 (Simulation time: 0 hr 2 min 4 sec) 
Heartbeat CPU 0 instructions: 47000003 cycles: 97403304 heartbeat IPC: 0.485714 cumulative IPC: 0.490967 (Simulation time: 0 hr 2 min 6 sec) 
Heartbeat CPU 0 instructions: 48000001 cycles: 99458625 heartbeat IPC: 0.486541 cumulative IPC: 0.490849 (Simulation time: 0 hr 2 min 9 sec) 
Heartbeat CPU 0 instructions: 49000002 cycles: 101520071 heartbeat IPC: 0.485097 cumulative IPC: 0.4907 (Simulation time: 0 hr 2 min 12 sec) 
Heartbeat CPU 0 instructions: 50000000 cycles: 103547862 heartbeat IPC: 0.493146 cumulative IPC: 0.490761 (Simulation time: 0 hr 2 min 14 sec) 
Heartbeat CPU 0 instructions: 51000001 cycles: 105593856 heartbeat IPC: 0.48876 cumulative IPC: 0.490712 (Simulation time: 0 hr 2 min 17 sec) 
Heartbeat CPU 0 instructions: 52000000 cycles: 107617722 heartbeat IPC: 0.494103 cumulative IPC: 0.490792 (Simulation time: 0 hr 2 min 19 sec) 
Heartbeat CPU 0 instructions: 53000000 cycles: 109681529 heartbeat IPC: 0.484541 cumulative IPC: 0.490645 (Simulation time: 0 hr 2 min 22 sec) 
Heartbeat CPU 0 instructions: 54000000 cycles: 111738963 heartbeat IPC: 0.486042 cumulative IPC: 0.490539 (Simulation time: 0 hr 2 min 25 sec) 
Heartbeat CPU 0 instructions: 55000000 cycles: 113835255 heartbeat IPC: 0.477033 cumulative IPC: 0.490231 (Simulation time: 0 hr 2 min 27 sec) 
Heartbeat CPU 0 instructions: 56000001 cycles: 115904257 heartbeat IPC: 0.483325 cumulative IPC: 0.490079 (Simulation time: 0 hr 2 min 30 sec) 
Heartbeat CPU 0 instructions: 57000001 cycles: 117937188 heartbeat IPC: 0.491901 cumulative IPC: 0.490117 (Simulation time: 0 hr 2 min 33 sec) 
Heartbeat CPU 0 instructions: 58000002 cycles: 120006960 heartbeat IPC: 0.483145 cumulative IPC: 0.48997 (Simulation time: 0 hr 2 min 35 sec) 
Heartbeat CPU 0 instructions: 59000002 cycles: 122024913 heartbeat IPC: 0.495552 cumulative IPC: 0.490083 (Simulation time: 0 hr 2 min 38 sec) 
Heartbeat CPU 0 instructions: 60000003 cycles: 124058445 heartbeat IPC: 0.491756 cumulative IPC: 0.490116 (Simulation time: 0 hr 2 min 41 sec) 
Heartbeat CPU 0 instructions: 61000000 cycles: 126195075 heartbeat IPC: 0.468025 cumulative IPC: 0.489663 (Simulation time: 0 hr 2 min 43 sec) 
Heartbeat CPU 0 instructions: 62000001 cycles: 128250055 heartbeat IPC: 0.486623 cumulative IPC: 0.489604 (Simulation time: 0 hr 2 min 46 sec) 
Heartbeat CPU 0 instructions: 63000001 cycles: 130300382 heartbeat IPC: 0.487727 cumulative IPC: 0.489569 (Simulation time: 0 hr 2 min 49 sec) 
Heartbeat CPU 0 instructions: 64000000 cycles: 132354972 heartbeat IPC: 0.486715 cumulative IPC: 0.489515 (Simulation time: 0 hr 2 min 51 sec) 
Heartbeat CPU 0 instructions: 65000000 cycles: 134455651 heartbeat IPC: 0.476037 cumulative IPC: 0.489264 (Simulation time: 0 hr 2 min 54 sec) 
Heartbeat CPU 0 instructions: 66000000 cycles: 136494556 heartbeat IPC: 0.490459 cumulative IPC: 0.489285 (Simulation time: 0 hr 2 min 57 sec) 
Heartbeat CPU 0 instructions: 67000003 cycles: 138343976 heartbeat IPC: 0.540712 cumulative IPC: 0.490103 (Simulation time: 0 hr 2 min 59 sec) 
Heartbeat CPU 0 instructions: 68000001 cycles: 140273178 heartbeat IPC: 0.518348 cumulative IPC: 0.490563 (Simulation time: 0 hr 3 min 2 sec) 
Heartbeat CPU 0 instructions: 69000000 cycles: 142271789 heartbeat IPC: 0.500347 cumulative IPC: 0.490726 (Simulation time: 0 hr 3 min 4 sec) 
Heartbeat CPU 0 instructions: 70000003 cycles: 144322222 heartbeat IPC: 0.487703 cumulative IPC: 0.490675 (Simulation time: 0 hr 3 min 7 sec) 
Heartbeat CPU 0 instructions: 71000000 cycles: 146331981 heartbeat IPC: 0.497571 cumulative IPC: 0.490787 (Simulation time: 0 hr 3 min 9 sec) 
Heartbeat CPU 0 instructions: 72000000 cycles: 148387896 heartbeat IPC: 0.486401 cumulative IPC: 0.490716 (Simulation time: 0 hr 3 min 12 sec) 
Heartbeat CPU 0 instructions: 73000002 cycles: 150421605 heartbeat IPC: 0.491713 cumulative IPC: 0.490731 (Simulation time: 0 hr 3 min 15 sec) 
Heartbeat CPU 0 instructions: 74000000 cycles: 152532212 heartbeat IPC: 0.473796 cumulative IPC: 0.490457 (Simulation time: 0 hr 3 min 18 sec) 
Heartbeat CPU 0 instructions: 75000000 cycles: 154591594 heartbeat IPC: 0.485583 cumulative IPC: 0.490382 (Simulation time: 0 hr 3 min 20 sec) 
Heartbeat CPU 0 instructions: 76000001 cycles: 156636232 heartbeat IPC: 0.489085 cumulative IPC: 0.490362 (Simulation time: 0 hr 3 min 23 sec) 
Heartbeat CPU 0 instructions: 77000000 cycles: 158696622 heartbeat IPC: 0.485345 cumulative IPC: 0.490286 (Simulation time: 0 hr 3 min 25 sec) 
Heartbeat CPU 0 instructions: 78000001 cycles: 160722608 heartbeat IPC: 0.493587 cumulative IPC: 0.490335 (Simulation time: 0 hr 3 min 28 sec) 
Heartbeat CPU 0 instructions: 79000002 cycles: 162759608 heartbeat IPC: 0.490919 cumulative IPC: 0.490343 (Simulation time: 0 hr 3 min 31 sec) 
Heartbeat CPU 0 instructions: 80000001 cycles: 164805264 heartbeat IPC: 0.48884 cumulative IPC: 0.490322 (Simulation time: 0 hr 3 min 34 sec) 
Heartbeat CPU 0 instructions: 81000000 cycles: 166845551 heartbeat IPC: 0.490127 cumulative IPC: 0.490319 (Simulation time: 0 hr 3 min 36 sec) 
Heartbeat CPU 0 instructions: 82000002 cycles: 168883206 heartbeat IPC: 0.490761 cumulative IPC: 0.490325 (Simulation time: 0 hr 3 min 39 sec) 
Heartbeat CPU 0 instructions: 83000003 cycles: 170936225 heartbeat IPC: 0.487088 cumulative IPC: 0.49028 (Simulation time: 0 hr 3 min 42 sec) 
Heartbeat CPU 0 instructions: 84000002 cycles: 172991813 heartbeat IPC: 0.486478 cumulative IPC: 0.490229 (Simulation time: 0 hr 3 min 44 sec) 
Heartbeat CPU 0 instructions: 85000000 cycles: 175036034 heartbeat IPC: 0.489183 cumulative IPC: 0.490215 (Simulation time: 0 hr 3 min 47 sec) 
Heartbeat CPU 0 instructions: 86000001 cycles: 177049855 heartbeat IPC: 0.496569 cumulative IPC: 0.490297 (Simulation time: 0 hr 3 min 50 sec) 
Heartbeat CPU 0 instructions: 87000003 cycles: 179025273 heartbeat IPC: 0.506223 cumulative IPC: 0.490497 (Simulation time: 0 hr 3 min 52 sec) 
Heartbeat CPU 0 instructions: 88000000 cycles: 181001992 heartbeat IPC: 0.505887 cumulative IPC: 0.490689 (Simulation time: 0 hr 3 min 55 sec) 
Heartbeat CPU 0 instructions: 89000000 cycles: 183922796 heartbeat IPC: 0.342371 cumulative IPC: 0.488013 (Simulation time: 0 hr 3 min 58 sec) 
Heartbeat CPU 0 instructions: 90000001 cycles: 186220143 heartbeat IPC: 0.435285 cumulative IPC: 0.487275 (Simulation time: 0 hr 4 min 1 sec) 
Heartbeat CPU 0 instructions: 91000000 cycles: 187875826 heartbeat IPC: 0.60398 cumulative IPC: 0.48844 (Simulation time: 0 hr 4 min 3 sec) 
Heartbeat CPU 0 instructions: 92000000 cycles: 190097818 heartbeat IPC: 0.450047 cumulative IPC: 0.487933 (Simulation time: 0 hr 4 min 6 sec) 
Heartbeat CPU 0 instructions: 93000001 cycles: 191823832 heartbeat IPC: 0.57937 cumulative IPC: 0.488862 (Simulation time: 0 hr 4 min 8 sec) 
Heartbeat CPU 0 instructions: 94000000 cycles: 194051900 heartbeat IPC: 0.448819 cumulative IPC: 0.488343 (Simulation time: 0 hr 4 min 11 sec) 
Heartbeat CPU 0 instructions: 95000003 cycles: 195759062 heartbeat IPC: 0.585769 cumulative IPC: 0.489301 (Simulation time: 0 hr 4 min 13 sec) 
Heartbeat CPU 0 instructions: 96000000 cycles: 197983913 heartbeat IPC: 0.449467 cumulative IPC: 0.488797 (Simulation time: 0 hr 4 min 16 sec) 
Heartbeat CPU 0 instructions: 97000001 cycles: 199674382 heartbeat IPC: 0.591552 cumulative IPC: 0.489775 (Simulation time: 0 hr 4 min 19 sec) 
Heartbeat CPU 0 instructions: 98000002 cycles: 201905963 heartbeat IPC: 0.448113 cumulative IPC: 0.489258 (Simulation time: 0 hr 4 min 21 sec) 
Heartbeat CPU 0 instructions: 99000000 cycles: 203596392 heartbeat IPC: 0.591565 cumulative IPC: 0.490211 (Simulation time: 0 hr 4 min 24 sec) 
Heartbeat CPU 0 instructions: 100000000 cycles: 205823206 heartbeat IPC: 0.449072 cumulative IPC: 0.489712 (Simulation time: 0 hr 4 min 27 sec) 
Heartbeat CPU 0 instructions: 101000002 cycles: 207522676 heartbeat IPC: 0.58842 cumulative IPC: 0.490617 (Simulation time: 0 hr 4 min 29 sec) 
Heartbeat CPU 0 instructions: 102000000 cycles: 209768547 heartbeat IPC: 0.445261 cumulative IPC: 0.490074 (Simulation time: 0 hr 4 min 32 sec) 
Heartbeat CPU 0 instructions: 103000003 cycles: 211429844 heartbeat IPC: 0.601941 cumulative IPC: 0.491055 (Simulation time: 0 hr 4 min 35 sec) 
Heartbeat CPU 0 instructions: 104000001 cycles: 213715952 heartbeat IPC: 0.437424 cumulative IPC: 0.490416 (Simulation time: 0 hr 4 min 37 sec) 
Heartbeat CPU 0 instructions: 105000000 cycles: 215380377 heartbeat IPC: 0.600807 cumulative IPC: 0.491366 (Simulation time: 0 hr 4 min 40 sec) 
Heartbeat CPU 0 instructions: 106000000 cycles: 217606461 heartbeat IPC: 0.449219 cumulative IPC: 0.490886 (Simulation time: 0 hr 4 min 43 sec) 
Heartbeat CPU 0 instructions: 107000001 cycles: 219284610 heartbeat IPC: 0.595895 cumulative IPC: 0.49178 (Simulation time: 0 hr 4 min 45 sec) 
Heartbeat CPU 0 instructions: 108000002 cycles: 221549434 heartbeat IPC: 0.441536 cumulative IPC: 0.491209 (Simulation time: 0 hr 4 min 48 sec) 
Heartbeat CPU 0 instructions: 109000002 cycles: 223248723 heartbeat IPC: 0.588481 cumulative IPC: 0.492031 (Simulation time: 0 hr 4 min 50 sec) 
Heartbeat CPU 0 instructions: 110000000 cycles: 225492768 heartbeat IPC: 0.445623 cumulative IPC: 0.491519 (Simulation time: 0 hr 4 min 53 sec) 
Heartbeat CPU 0 instructions: 111000000 cycles: 227199172 heartbeat IPC: 0.586028 cumulative IPC: 0.492305 (Simulation time: 0 hr 4 min 55 sec) 
Heartbeat CPU 0 instructions: 112000003 cycles: 229384960 heartbeat IPC: 0.457502 cumulative IPC: 0.491938 (Simulation time: 0 hr 4 min 58 sec) 
Heartbeat CPU 0 instructions: 113000000 cycles: 231071179 heartbeat IPC: 0.593041 cumulative IPC: 0.492754 (Simulation time: 0 hr 5 min 0 sec) 
Heartbeat CPU 0 instructions: 114000001 cycles: 233278787 heartbeat IPC: 0.452979 cumulative IPC: 0.492338 (Simulation time: 0 hr 5 min 3 sec) 
Heartbeat CPU 0 instructions: 115000002 cycles: 234957510 heartbeat IPC: 0.595692 cumulative IPC: 0.493153 (Simulation time: 0 hr 5 min 6 sec) 
Heartbeat CPU 0 instructions: 116000000 cycles: 237160088 heartbeat IPC: 0.454013 cumulative IPC: 0.492752 (Simulation time: 0 hr 5 min 8 sec) 
Heartbeat CPU 0 instructions: 117000001 cycles: 238855752 heartbeat IPC: 0.58974 cumulative IPC: 0.493511 (Simulation time: 0 hr 5 min 10 sec) 
Heartbeat CPU 0 instructions: 118000003 cycles: 241056690 heartbeat IPC: 0.454353 cumulative IPC: 0.493117 (Simulation time: 0 hr 5 min 13 sec) 
Heartbeat CPU 0 instructions: 119000000 cycles: 242733483 heartbeat IPC: 0.596375 cumulative IPC: 0.493902 (Simulation time: 0 hr 5 min 16 sec) 
Heartbeat CPU 0 instructions: 120000000 cycles: 244954215 heartbeat IPC: 0.450302 cumulative IPC: 0.493467 (Simulation time: 0 hr 5 min 18 sec) 
Heartbeat CPU 0 instructions: 121000000 cycles: 246625333 heartbeat IPC: 0.598402 cumulative IPC: 0.494248 (Simulation time: 0 hr 5 min 21 sec) 
Heartbeat CPU 0 instructions: 122000002 cycles: 248818738 heartbeat IPC: 0.455913 cumulative IPC: 0.493877 (Simulation time: 0 hr 5 min 23 sec) 
Heartbeat CPU 0 instructions: 123000000 cycles: 250510545 heartbeat IPC: 0.591083 cumulative IPC: 0.494597 (Simulation time: 0 hr 5 min 26 sec) 
Heartbeat CPU 0 instructions: 124000000 cycles: 252714934 heartbeat IPC: 0.45364 cumulative IPC: 0.494206 (Simulation time: 0 hr 5 min 28 sec) 
Heartbeat CPU 0 instructions: 125000000 cycles: 254411553 heartbeat IPC: 0.589408 cumulative IPC: 0.494901 (Simulation time: 0 hr 5 min 31 sec) 
Heartbeat CPU 0 instructions: 126000000 cycles: 256614037 heartbeat IPC: 0.454033 cumulative IPC: 0.494517 (Simulation time: 0 hr 5 min 33 sec) 
Heartbeat CPU 0 instructions: 127000000 cycles: 258389338 heartbeat IPC: 0.563285 cumulative IPC: 0.495034 (Simulation time: 0 hr 5 min 36 sec) 
Heartbeat CPU 0 instructions: 128000000 cycles: 260574971 heartbeat IPC: 0.457533 cumulative IPC: 0.49469 (Simulation time: 0 hr 5 min 39 sec) 
Heartbeat CPU 0 instructions: 129000000 cycles: 262344201 heartbeat IPC: 0.565218 cumulative IPC: 0.495209 (Simulation time: 0 hr 5 min 41 sec) 
Heartbeat CPU 0 instructions: 130000000 cycles: 264386650 heartbeat IPC: 0.489608 cumulative IPC: 0.495162 (Simulation time: 0 hr 5 min 44 sec) 
Heartbeat CPU 0 instructions: 131000000 cycles: 266253688 heartbeat IPC: 0.535608 cumulative IPC: 0.495471 (Simulation time: 0 hr 5 min 46 sec) 
Heartbeat CPU 0 instructions: 132000000 cycles: 268215858 heartbeat IPC: 0.50964 cumulative IPC: 0.495584 (Simulation time: 0 hr 5 min 49 sec) 
Heartbeat CPU 0 instructions: 133000001 cycles: 270192525 heartbeat IPC: 0.505903 cumulative IPC: 0.495666 (Simulation time: 0 hr 5 min 51 sec) 
Heartbeat CPU 0 instructions: 134000001 cycles: 272169793 heartbeat IPC: 0.505748 cumulative IPC: 0.495746 (Simulation time: 0 hr 5 min 54 sec) 
Heartbeat CPU 0 instructions: 135000003 cycles: 274118977 heartbeat IPC: 0.513036 cumulative IPC: 0.49588 (Simulation time: 0 hr 5 min 56 sec) 
Heartbeat CPU 0 instructions: 136000002 cycles: 276029680 heartbeat IPC: 0.523367 cumulative IPC: 0.496087 (Simulation time: 0 hr 5 min 59 sec) 
Heartbeat CPU 0 instructions: 137000001 cycles: 278005634 heartbeat IPC: 0.506084 cumulative IPC: 0.496164 (Simulation time: 0 hr 6 min 1 sec) 
Heartbeat CPU 0 instructions: 138000001 cycles: 280085159 heartbeat IPC: 0.480879 cumulative IPC: 0.496041 (Simulation time: 0 hr 6 min 4 sec) 
Heartbeat CPU 0 instructions: 139000000 cycles: 282411550 heartbeat IPC: 0.42985 cumulative IPC: 0.495449 (Simulation time: 0 hr 6 min 6 sec) 
Heartbeat CPU 0 instructions: 140000002 cycles: 284431629 heartbeat IPC: 0.495031 cumulative IPC: 0.495446 (Simulation time: 0 hr 6 min 9 sec) 
Heartbeat CPU 0 instructions: 141000000 cycles: 286563616 heartbeat IPC: 0.469045 cumulative IPC: 0.495233 (Simulation time: 0 hr 6 min 12 sec) 
Heartbeat CPU 0 instructions: 142000000 cycles: 288372392 heartbeat IPC: 0.55286 cumulative IPC: 0.495625 (Simulation time: 0 hr 6 min 14 sec) 
Heartbeat CPU 0 instructions: 143000000 cycles: 290564040 heartbeat IPC: 0.456278 cumulative IPC: 0.495303 (Simulation time: 0 hr 6 min 17 sec) 
Heartbeat CPU 0 instructions: 144000003 cycles: 292256392 heartbeat IPC: 0.590895 cumulative IPC: 0.495902 (Simulation time: 0 hr 6 min 19 sec) 
Heartbeat CPU 0 instructions: 145000001 cycles: 294559052 heartbeat IPC: 0.434279 cumulative IPC: 0.495381 (Simulation time: 0 hr 6 min 22 sec) 
Heartbeat CPU 0 instructions: 146000002 cycles: 296297204 heartbeat IPC: 0.575324 cumulative IPC: 0.495888 (Simulation time: 0 hr 6 min 24 sec) 
Heartbeat CPU 0 instructions: 147000003 cycles: 298526095 heartbeat IPC: 0.448654 cumulative IPC: 0.495507 (Simulation time: 0 hr 6 min 27 sec) 
Heartbeat CPU 0 instructions: 148000000 cycles: 300256303 heartbeat IPC: 0.577963 cumulative IPC: 0.49602 (Simulation time: 0 hr 6 min 29 sec) 
Heartbeat CPU 0 instructions: 149000000 cycles: 302523234 heartbeat IPC: 0.441125 cumulative IPC: 0.495576 (Simulation time: 0 hr 6 min 31 sec) 
Heartbeat CPU 0 instructions: 150000000 cycles: 304231143 heartbeat IPC: 0.585511 cumulative IPC: 0.496121 (Simulation time: 0 hr 6 min 33 sec) 
Heartbeat CPU 0 instructions: 151000000 cycles: 306187523 heartbeat IPC: 0.511148 cumulative IPC: 0.496224 (Simulation time: 0 hr 6 min 36 sec) 
Heartbeat CPU 0 instructions: 152000003 cycles: 308276161 heartbeat IPC: 0.478782 cumulative IPC: 0.496097 (Simulation time: 0 hr 6 min 38 sec) 
Heartbeat CPU 0 instructions: 153000000 cycles: 309983307 heartbeat IPC: 0.585771 cumulative IPC: 0.496629 (Simulation time: 0 hr 6 min 40 sec) 
Heartbeat CPU 0 instructions: 154000000 cycles: 312248100 heartbeat IPC: 0.441541 cumulative IPC: 0.496199 (Simulation time: 0 hr 6 min 43 sec) 
Heartbeat CPU 0 instructions: 155000000 cycles: 314010169 heartbeat IPC: 0.567515 cumulative IPC: 0.496629 (Simulation time: 0 hr 6 min 45 sec) 
Heartbeat CPU 0 instructions: 156000000 cycles: 316303848 heartbeat IPC: 0.435981 cumulative IPC: 0.496156 (Simulation time: 0 hr 6 min 48 sec) 
Heartbeat CPU 0 instructions: 157000001 cycles: 318022610 heartbeat IPC: 0.581815 cumulative IPC: 0.496654 (Simulation time: 0 hr 6 min 50 sec) 
Heartbeat CPU 0 instructions: 158000000 cycles: 320104942 heartbeat IPC: 0.48023 cumulative IPC: 0.496539 (Simulation time: 0 hr 6 min 52 sec) 
Heartbeat CPU 0 instructions: 159000000 cycles: 322000063 heartbeat IPC: 0.527671 cumulative IPC: 0.496736 (Simulation time: 0 hr 6 min 55 sec) 
Heartbeat CPU 0 instructions: 160000000 cycles: 323699580 heartbeat IPC: 0.588402 cumulative IPC: 0.497252 (Simulation time: 0 hr 6 min 57 sec) 
Heartbeat CPU 0 instructions: 161000001 cycles: 326001961 heartbeat IPC: 0.434333 cumulative IPC: 0.496776 (Simulation time: 0 hr 6 min 59 sec) 
Heartbeat CPU 0 instructions: 162000001 cycles: 327695405 heartbeat IPC: 0.590513 cumulative IPC: 0.497295 (Simulation time: 0 hr 7 min 2 sec) 
Heartbeat CPU 0 instructions: 163000000 cycles: 329947329 heartbeat IPC: 0.444064 cumulative IPC: 0.496906 (Simulation time: 0 hr 7 min 4 sec) 
Heartbeat CPU 0 instructions: 164000000 cycles: 331669181 heartbeat IPC: 0.58077 cumulative IPC: 0.497372 (Simulation time: 0 hr 7 min 6 sec) 
Heartbeat CPU 0 instructions: 165000000 cycles: 333932123 heartbeat IPC: 0.441903 cumulative IPC: 0.49697 (Simulation time: 0 hr 7 min 9 sec) 
Heartbeat CPU 0 instructions: 166000001 cycles: 335721373 heartbeat IPC: 0.558894 cumulative IPC: 0.497323 (Simulation time: 0 hr 7 min 11 sec) 
Heartbeat CPU 0 instructions: 167000002 cycles: 337501971 heartbeat IPC: 0.56161 cumulative IPC: 0.497686 (Simulation time: 0 hr 7 min 13 sec) 
Heartbeat CPU 0 instructions: 168000000 cycles: 339733904 heartbeat IPC: 0.448041 cumulative IPC: 0.497337 (Simulation time: 0 hr 7 min 16 sec) 
Heartbeat CPU 0 instructions: 169000003 cycles: 341451847 heartbeat IPC: 0.582093 cumulative IPC: 0.497793 (Simulation time: 0 hr 7 min 18 sec) 
Heartbeat CPU 0 instructions: 170000000 cycles: 343733987 heartbeat IPC: 0.438184 cumulative IPC: 0.49737 (Simulation time: 0 hr 7 min 21 sec) 
Heartbeat CPU 0 instructions: 171000001 cycles: 345455468 heartbeat IPC: 0.580896 cumulative IPC: 0.497814 (Simulation time: 0 hr 7 min 23 sec) 
Heartbeat CPU 0 instructions: 172000000 cycles: 347713160 heartbeat IPC: 0.44293 cumulative IPC: 0.497434 (Simulation time: 0 hr 7 min 25 sec) 
Heartbeat CPU 0 instructions: 173000001 cycles: 349412609 heartbeat IPC: 0.588427 cumulative IPC: 0.497906 (Simulation time: 0 hr 7 min 28 sec) 
Heartbeat CPU 0 instructions: 174000002 cycles: 351630078 heartbeat IPC: 0.450965 cumulative IPC: 0.497591 (Simulation time: 0 hr 7 min 30 sec) 
Heartbeat CPU 0 instructions: 175000003 cycles: 353348292 heartbeat IPC: 0.582 cumulative IPC: 0.498028 (Simulation time: 0 hr 7 min 32 sec) 
Heartbeat CPU 0 instructions: 176000000 cycles: 355614537 heartbeat IPC: 0.441257 cumulative IPC: 0.497643 (Simulation time: 0 hr 7 min 35 sec) 
Heartbeat CPU 0 instructions: 177000001 cycles: 357315898 heartbeat IPC: 0.587765 cumulative IPC: 0.4981 (Simulation time: 0 hr 7 min 37 sec) 
Heartbeat CPU 0 instructions: 178000000 cycles: 359141854 heartbeat IPC: 0.547658 cumulative IPC: 0.498368 (Simulation time: 0 hr 7 min 40 sec) 
Heartbeat CPU 0 instructions: 179000001 cycles: 361287292 heartbeat IPC: 0.466106 cumulative IPC: 0.498164 (Simulation time: 0 hr 7 min 42 sec) 
Heartbeat CPU 0 instructions: 180000001 cycles: 363100846 heartbeat IPC: 0.551403 cumulative IPC: 0.498447 (Simulation time: 0 hr 7 min 45 sec) 
Heartbeat CPU 0 instructions: 181000000 cycles: 365298424 heartbeat IPC: 0.455046 cumulative IPC: 0.49817 (Simulation time: 0 hr 7 min 47 sec) 
Heartbeat CPU 0 instructions: 182000000 cycles: 367000280 heartbeat IPC: 0.587594 cumulative IPC: 0.498611 (Simulation time: 0 hr 7 min 50 sec) 
Heartbeat CPU 0 instructions: 183000000 cycles: 369249082 heartbeat IPC: 0.444681 cumulative IPC: 0.498261 (Simulation time: 0 hr 7 min 52 sec) 
Heartbeat CPU 0 instructions: 184000003 cycles: 370954464 heartbeat IPC: 0.586381 cumulative IPC: 0.498692 (Simulation time: 0 hr 7 min 55 sec) 
Heartbeat CPU 0 instructions: 185000001 cycles: 373191380 heartbeat IPC: 0.447043 cumulative IPC: 0.498363 (Simulation time: 0 hr 7 min 57 sec) 
Heartbeat CPU 0 instructions: 186000001 cycles: 374967695 heartbeat IPC: 0.562963 cumulative IPC: 0.498688 (Simulation time: 0 hr 8 min 0 sec) 
Heartbeat CPU 0 instructions: 187000000 cycles: 377141812 heartbeat IPC: 0.459956 cumulative IPC: 0.498451 (Simulation time: 0 hr 8 min 2 sec) 
Heartbeat CPU 0 instructions: 188000000 cycles: 378828219 heartbeat IPC: 0.592977 cumulative IPC: 0.498898 (Simulation time: 0 hr 8 min 5 sec) 
Heartbeat CPU 0 instructions: 189000002 cycles: 381063854 heartbeat IPC: 0.447301 cumulative IPC: 0.498577 (Simulation time: 0 hr 8 min 7 sec) 
Heartbeat CPU 0 instructions: 190000002 cycles: 382768380 heartbeat IPC: 0.586673 cumulative IPC: 0.498993 (Simulation time: 0 hr 8 min 10 sec) 
Heartbeat CPU 0 instructions: 191000002 cycles: 385018252 heartbeat IPC: 0.44447 cumulative IPC: 0.498655 (Simulation time: 0 hr 8 min 12 sec) 
Heartbeat CPU 0 instructions: 192000001 cycles: 386760316 heartbeat IPC: 0.574031 cumulative IPC: 0.499015 (Simulation time: 0 hr 8 min 15 sec) 
Heartbeat CPU 0 instructions: 193000000 cycles: 388983405 heartbeat IPC: 0.449824 cumulative IPC: 0.498717 (Simulation time: 0 hr 8 min 17 sec) 
Heartbeat CPU 0 instructions: 194000001 cycles: 390701781 heartbeat IPC: 0.581945 cumulative IPC: 0.499105 (Simulation time: 0 hr 8 min 20 sec) 
Heartbeat CPU 0 instructions: 195000001 cycles: 392937068 heartbeat IPC: 0.44737 cumulative IPC: 0.498793 (Simulation time: 0 hr 8 min 22 sec) 
Heartbeat CPU 0 instructions: 196000000 cycles: 394645172 heartbeat IPC: 0.585444 cumulative IPC: 0.49919 (Simulation time: 0 hr 8 min 25 sec) 
Heartbeat CPU 0 instructions: 197000002 cycles: 396889560 heartbeat IPC: 0.445557 cumulative IPC: 0.498869 (Simulation time: 0 hr 8 min 27 sec) 
Heartbeat CPU 0 instructions: 198000000 cycles: 398622421 heartbeat IPC: 0.577079 cumulative IPC: 0.499229 (Simulation time: 0 hr 8 min 30 sec) 
Heartbeat CPU 0 instructions: 199000000 cycles: 400881947 heartbeat IPC: 0.442571 cumulative IPC: 0.498891 (Simulation time: 0 hr 8 min 33 sec) 
Heartbeat CPU 0 instructions: 200000000 cycles: 402599054 heartbeat IPC: 0.582375 cumulative IPC: 0.499268 (Simulation time: 0 hr 8 min 35 sec) 
Heartbeat CPU 0 instructions: 201000003 cycles: 404622651 heartbeat IPC: 0.494171 cumulative IPC: 0.499241 (Simulation time: 0 hr 8 min 37 sec) 
Heartbeat CPU 0 instructions: 202000001 cycles: 406607764 heartbeat IPC: 0.503749 cumulative IPC: 0.499264 (Simulation time: 0 hr 8 min 40 sec) 
Heartbeat CPU 0 instructions: 203000001 cycles: 408401472 heartbeat IPC: 0.557504 cumulative IPC: 0.499535 (Simulation time: 0 hr 8 min 43 sec) 
Heartbeat CPU 0 instructions: 204000000 cycles: 410591501 heartbeat IPC: 0.456614 cumulative IPC: 0.499293 (Simulation time: 0 hr 8 min 45 sec) 
Heartbeat CPU 0 instructions: 205000000 cycles: 412349784 heartbeat IPC: 0.568737 cumulative IPC: 0.499605 (Simulation time: 0 hr 8 min 48 sec) 
Heartbeat CPU 0 instructions: 206000000 cycles: 414572667 heartbeat IPC: 0.449866 cumulative IPC: 0.499324 (Simulation time: 0 hr 8 min 51 sec) 
Heartbeat CPU 0 instructions: 207000003 cycles: 416251809 heartbeat IPC: 0.595544 cumulative IPC: 0.499734 (Simulation time: 0 hr 8 min 53 sec) 
Heartbeat CPU 0 instructions: 208000000 cycles: 418529326 heartbeat IPC: 0.439073 cumulative IPC: 0.499385 (Simulation time: 0 hr 8 min 56 sec) 
Heartbeat CPU 0 instructions: 209000000 cycles: 420216919 heartbeat IPC: 0.59256 cumulative IPC: 0.49978 (Simulation time: 0 hr 8 min 58 sec) 
Heartbeat CPU 0 instructions: 210000003 cycles: 422481422 heartbeat IPC: 0.441599 cumulative IPC: 0.499451 (Simulation time: 0 hr 9 min 1 sec) 
Heartbeat CPU 0 instructions: 211000000 cycles: 424154117 heartbeat IPC: 0.597836 cumulative IPC: 0.49986 (Simulation time: 0 hr 9 min 3 sec) 
Heartbeat CPU 0 instructions: 212000001 cycles: 426392040 heartbeat IPC: 0.446843 cumulative IPC: 0.499567 (Simulation time: 0 hr 9 min 6 sec) 
Heartbeat CPU 0 instructions: 213000002 cycles: 428094271 heartbeat IPC: 0.587465 cumulative IPC: 0.499935 (Simulation time: 0 hr 9 min 8 sec) 
Heartbeat CPU 0 instructions: 214000003 cycles: 430087570 heartbeat IPC: 0.501681 cumulative IPC: 0.499944 (Simulation time: 0 hr 9 min 11 sec) 
Heartbeat CPU 0 instructions: 215000002 cycles: 431994881 heartbeat IPC: 0.524298 cumulative IPC: 0.500057 (Simulation time: 0 hr 9 min 13 sec) 
Heartbeat CPU 0 instructions: 216000000 cycles: 433715156 heartbeat IPC: 0.581301 cumulative IPC: 0.500397 (Simulation time: 0 hr 9 min 16 sec) 
Heartbeat CPU 0 instructions: 217000000 cycles: 435992452 heartbeat IPC: 0.439117 cumulative IPC: 0.50006 (Simulation time: 0 hr 9 min 18 sec) 
Heartbeat CPU 0 instructions: 218000001 cycles: 437716235 heartbeat IPC: 0.58012 cumulative IPC: 0.500392 (Simulation time: 0 hr 9 min 21 sec) 
Heartbeat CPU 0 instructions: 219000000 cycles: 439992745 heartbeat IPC: 0.439268 cumulative IPC: 0.500059 (Simulation time: 0 hr 9 min 24 sec) 
Heartbeat CPU 0 instructions: 220000000 cycles: 441739585 heartbeat IPC: 0.572462 cumulative IPC: 0.50036 (Simulation time: 0 hr 9 min 26 sec) 
Heartbeat CPU 0 instructions: 221000001 cycles: 443973970 heartbeat IPC: 0.447551 cumulative IPC: 0.50008 (Simulation time: 0 hr 9 min 29 sec) 
Heartbeat CPU 0 instructions: 222000000 cycles: 445690462 heartbeat IPC: 0.582583 cumulative IPC: 0.500415 (Simulation time: 0 hr 9 min 31 sec) 
Heartbeat CPU 0 instructions: 223000001 cycles: 447901142 heartbeat IPC: 0.45235 cumulative IPC: 0.500165 (Simulation time: 0 hr 9 min 34 sec) 
Heartbeat CPU 0 instructions: 224000001 cycles: 449573396 heartbeat IPC: 0.597995 cumulative IPC: 0.500548 (Simulation time: 0 hr 9 min 36 sec) 
Heartbeat CPU 0 instructions: 225000000 cycles: 451861639 heartbeat IPC: 0.437016 cumulative IPC: 0.50021 (Simulation time: 0 hr 9 min 39 sec) 
Heartbeat CPU 0 instructions: 226000000 cycles: 454498103 heartbeat IPC: 0.379296 cumulative IPC: 0.499472 (Simulation time: 0 hr 9 min 41 sec) 
Heartbeat CPU 0 instructions: 227000003 cycles: 456252415 heartbeat IPC: 0.570026 cumulative IPC: 0.499757 (Simulation time: 0 hr 9 min 44 sec) 
Heartbeat CPU 0 instructions: 228000002 cycles: 458533758 heartbeat IPC: 0.438338 cumulative IPC: 0.499436 (Simulation time: 0 hr 9 min 47 sec) 
Heartbeat CPU 0 instructions: 229000001 cycles: 460262566 heartbeat IPC: 0.578433 cumulative IPC: 0.499748 (Simulation time: 0 hr 9 min 49 sec) 
Heartbeat CPU 0 instructions: 230000000 cycles: 462418368 heartbeat IPC: 0.463864 cumulative IPC: 0.499572 (Simulation time: 0 hr 9 min 51 sec) 
Heartbeat CPU 0 instructions: 231000000 cycles: 464274528 heartbeat IPC: 0.538747 cumulative IPC: 0.499737 (Simulation time: 0 hr 9 min 54 sec) 
Heartbeat CPU 0 instructions: 232000001 cycles: 466007666 heartbeat IPC: 0.576989 cumulative IPC: 0.500038 (Simulation time: 0 hr 9 min 57 sec) 
Heartbeat CPU 0 instructions: 233000001 cycles: 468314090 heartbeat IPC: 0.433572 cumulative IPC: 0.499695 (Simulation time: 0 hr 9 min 59 sec) 
Heartbeat CPU 0 instructions: 234000001 cycles: 470034258 heartbeat IPC: 0.581339 cumulative IPC: 0.500008 (Simulation time: 0 hr 10 min 1 sec) 
Heartbeat CPU 0 instructions: 235000003 cycles: 471785212 heartbeat IPC: 0.571118 cumulative IPC: 0.500285 (Simulation time: 0 hr 10 min 4 sec) 
Heartbeat CPU 0 instructions: 236000001 cycles: 474142271 heartbeat IPC: 0.424257 cumulative IPC: 0.499889 (Simulation time: 0 hr 10 min 6 sec) 
Heartbeat CPU 0 instructions: 237000001 cycles: 475881789 heartbeat IPC: 0.574872 cumulative IPC: 0.500176 (Simulation time: 0 hr 10 min 9 sec) 
Heartbeat CPU 0 instructions: 238000003 cycles: 478177964 heartbeat IPC: 0.435508 cumulative IPC: 0.499851 (Simulation time: 0 hr 10 min 12 sec) 
Heartbeat CPU 0 instructions: 239000001 cycles: 479917118 heartbeat IPC: 0.574991 cumulative IPC: 0.500136 (Simulation time: 0 hr 10 min 14 sec) 
Heartbeat CPU 0 instructions: 240000000 cycles: 481616258 heartbeat IPC: 0.588532 cumulative IPC: 0.500463 (Simulation time: 0 hr 10 min 17 sec) 
Heartbeat CPU 0 instructions: 241000000 cycles: 483909836 heartbeat IPC: 0.436 cumulative IPC: 0.500143 (Simulation time: 0 hr 10 min 20 sec) 
Heartbeat CPU 0 instructions: 242000000 cycles: 485656502 heartbeat IPC: 0.572519 cumulative IPC: 0.500416 (Simulation time: 0 hr 10 min 22 sec) 
Heartbeat CPU 0 instructions: 243000002 cycles: 487563619 heartbeat IPC: 0.524353 cumulative IPC: 0.500514 (Simulation time: 0 hr 10 min 24 sec) 
Heartbeat CPU 0 instructions: 244000000 cycles: 489704083 heartbeat IPC: 0.467187 cumulative IPC: 0.500361 (Simulation time: 0 hr 10 min 27 sec) 
Heartbeat CPU 0 instructions: 245000001 cycles: 491419032 heartbeat IPC: 0.583108 cumulative IPC: 0.500663 (Simulation time: 0 hr 10 min 29 sec) 
Heartbeat CPU 0 instructions: 246000003 cycles: 493706082 heartbeat IPC: 0.437245 cumulative IPC: 0.500356 (Simulation time: 0 hr 10 min 32 sec) 
Heartbeat CPU 0 instructions: 247000000 cycles: 495441514 heartbeat IPC: 0.576224 cumulative IPC: 0.500634 (Simulation time: 0 hr 10 min 34 sec) 
Heartbeat CPU 0 instructions: 248000000 cycles: 497209681 heartbeat IPC: 0.565557 cumulative IPC: 0.500876 (Simulation time: 0 hr 10 min 37 sec) 
Heartbeat CPU 0 instructions: 249000001 cycles: 499476381 heartbeat IPC: 0.44117 cumulative IPC: 0.500592 (Simulation time: 0 hr 10 min 40 sec) 
Heartbeat CPU 0 instructions: 250000001 cycles: 501202212 heartbeat IPC: 0.579431 cumulative IPC: 0.500876 (Simulation time: 0 hr 10 min 42 sec) 
Heartbeat CPU 0 instructions: 251000003 cycles: 503132808 heartbeat IPC: 0.517976 cumulative IPC: 0.500945 (Simulation time: 0 hr 10 min 45 sec) 
Heartbeat CPU 0 instructions: 252000001 cycles: 505234670 heartbeat IPC: 0.475768 cumulative IPC: 0.500835 (Simulation time: 0 hr 10 min 47 sec) 
Heartbeat CPU 0 instructions: 253000000 cycles: 506958105 heartbeat IPC: 0.580236 cumulative IPC: 0.501117 (Simulation time: 0 hr 10 min 49 sec) 
Heartbeat CPU 0 instructions: 254000000 cycles: 509247995 heartbeat IPC: 0.436702 cumulative IPC: 0.500815 (Simulation time: 0 hr 10 min 52 sec) 
Heartbeat CPU 0 instructions: 255000000 cycles: 510979479 heartbeat IPC: 0.577539 cumulative IPC: 0.501086 (Simulation time: 0 hr 10 min 54 sec) 
Heartbeat CPU 0 instructions: 256000001 cycles: 512722683 heartbeat IPC: 0.573657 cumulative IPC: 0.501344 (Simulation time: 0 hr 10 min 57 sec) 
Heartbeat CPU 0 instructions: 257000001 cycles: 515038807 heartbeat IPC: 0.431756 cumulative IPC: 0.501017 (Simulation time: 0 hr 10 min 59 sec) 
Heartbeat CPU 0 instructions: 258000001 cycles: 516790904 heartbeat IPC: 0.570745 cumulative IPC: 0.501264 (Simulation time: 0 hr 11 min 1 sec) 
Heartbeat CPU 0 instructions: 259000000 cycles: 518913975 heartbeat IPC: 0.471015 cumulative IPC: 0.501135 (Simulation time: 0 hr 11 min 4 sec) 
Heartbeat CPU 0 instructions: 260000002 cycles: 520955654 heartbeat IPC: 0.489794 cumulative IPC: 0.501089 (Simulation time: 0 hr 11 min 6 sec) 
Heartbeat CPU 0 instructions: 261000002 cycles: 522683526 heartbeat IPC: 0.578747 cumulative IPC: 0.501357 (Simulation time: 0 hr 11 min 9 sec) 
Heartbeat CPU 0 instructions: 262000000 cycles: 525037826 heartbeat IPC: 0.424754 cumulative IPC: 0.500998 (Simulation time: 0 hr 11 min 11 sec) 
Heartbeat CPU 0 instructions: 263000003 cycles: 526762722 heartbeat IPC: 0.579747 cumulative IPC: 0.501267 (Simulation time: 0 hr 11 min 14 sec) 
Heartbeat CPU 0 instructions: 264000000 cycles: 528647564 heartbeat IPC: 0.530547 cumulative IPC: 0.501376 (Simulation time: 0 hr 11 min 16 sec) 
Heartbeat CPU 0 instructions: 265000000 cycles: 530780778 heartbeat IPC: 0.468776 cumulative IPC: 0.501239 (Simulation time: 0 hr 11 min 19 sec) 
Heartbeat CPU 0 instructions: 266000003 cycles: 532544328 heartbeat IPC: 0.56704 cumulative IPC: 0.501467 (Simulation time: 0 hr 11 min 21 sec) 
Heartbeat CPU 0 instructions: 267000000 cycles: 534835642 heartbeat IPC: 0.43643 cumulative IPC: 0.501176 (Simulation time: 0 hr 11 min 24 sec) 
Heartbeat CPU 0 instructions: 268000001 cycles: 536549654 heartbeat IPC: 0.583427 cumulative IPC: 0.50145 (Simulation time: 0 hr 11 min 26 sec) 
Heartbeat CPU 0 instructions: 269000000 cycles: 538268011 heartbeat IPC: 0.581951 cumulative IPC: 0.501718 (Simulation time: 0 hr 11 min 28 sec) 
Heartbeat CPU 0 instructions: 270000000 cycles: 540559419 heartbeat IPC: 0.436413 cumulative IPC: 0.501429 (Simulation time: 0 hr 11 min 31 sec) 
Heartbeat CPU 0 instructions: 271000000 cycles: 542297538 heartbeat IPC: 0.575335 cumulative IPC: 0.501676 (Simulation time: 0 hr 11 min 33 sec) 
Heartbeat CPU 0 instructions: 272000002 cycles: 544463213 heartbeat IPC: 0.461751 cumulative IPC: 0.501511 (Simulation time: 0 hr 11 min 36 sec) 
Heartbeat CPU 0 instructions: 273000001 cycles: 546325392 heartbeat IPC: 0.537005 cumulative IPC: 0.501637 (Simulation time: 0 hr 11 min 38 sec) 
Heartbeat CPU 0 instructions: 274000000 cycles: 548057996 heartbeat IPC: 0.577165 cumulative IPC: 0.501886 (Simulation time: 0 hr 11 min 41 sec) 
Heartbeat CPU 0 instructions: 275000000 cycles: 550384368 heartbeat IPC: 0.429854 cumulative IPC: 0.501568 (Simulation time: 0 hr 11 min 43 sec) 
Heartbeat CPU 0 instructions: 276000000 cycles: 552099407 heartbeat IPC: 0.583077 cumulative IPC: 0.501832 (Simulation time: 0 hr 11 min 45 sec) 
Heartbeat CPU 0 instructions: 277000001 cycles: 553957306 heartbeat IPC: 0.538243 cumulative IPC: 0.501959 (Simulation time: 0 hr 11 min 48 sec) 
Heartbeat CPU 0 instructions: 278000000 cycles: 556167987 heartbeat IPC: 0.452349 cumulative IPC: 0.501754 (Simulation time: 0 hr 11 min 50 sec) 
Heartbeat CPU 0 instructions: 279000003 cycles: 557889476 heartbeat IPC: 0.580894 cumulative IPC: 0.502008 (Simulation time: 0 hr 11 min 52 sec) 
Heartbeat CPU 0 instructions: 280000001 cycles: 560201626 heartbeat IPC: 0.432497 cumulative IPC: 0.50171 (Simulation time: 0 hr 11 min 55 sec) 
Heartbeat CPU 0 instructions: 281000001 cycles: 561956441 heartbeat IPC: 0.569861 cumulative IPC: 0.501931 (Simulation time: 0 hr 11 min 57 sec) 
Heartbeat CPU 0 instructions: 282000003 cycles: 563684667 heartbeat IPC: 0.578629 cumulative IPC: 0.502176 (Simulation time: 0 hr 12 min 0 sec) 
Heartbeat CPU 0 instructions: 283000001 cycles: 566004710 heartbeat IPC: 0.431026 cumulative IPC: 0.501872 (Simulation time: 0 hr 12 min 2 sec) 
Heartbeat CPU 0 instructions: 284000000 cycles: 567758818 heartbeat IPC: 0.57009 cumulative IPC: 0.502092 (Simulation time: 0 hr 12 min 4 sec) 
Heartbeat CPU 0 instructions: 285000000 cycles: 569683644 heartbeat IPC: 0.519527 cumulative IPC: 0.502153 (Simulation time: 0 hr 12 min 7 sec) 
Heartbeat CPU 0 instructions: 286000000 cycles: 571825445 heartbeat IPC: 0.466897 cumulative IPC: 0.502016 (Simulation time: 0 hr 12 min 9 sec) 
Heartbeat CPU 0 instructions: 287000003 cycles: 573572498 heartbeat IPC: 0.572394 cumulative IPC: 0.502239 (Simulation time: 0 hr 12 min 12 sec) 
Heartbeat CPU 0 instructions: 288000000 cycles: 575829232 heartbeat IPC: 0.443117 cumulative IPC: 0.501998 (Simulation time: 0 hr 12 min 14 sec) 
Heartbeat CPU 0 instructions: 289000002 cycles: 577668232 heartbeat IPC: 0.543775 cumulative IPC: 0.502136 (Simulation time: 0 hr 12 min 16 sec) 
Heartbeat CPU 0 instructions: 290000001 cycles: 579396897 heartbeat IPC: 0.57848 cumulative IPC: 0.502373 (Simulation time: 0 hr 12 min 19 sec) 
Heartbeat CPU 0 instructions: 291000000 cycles: 581733548 heartbeat IPC: 0.427963 cumulative IPC: 0.502062 (Simulation time: 0 hr 12 min 21 sec) 
Heartbeat CPU 0 instructions: 292000001 cycles: 583441547 heartbeat IPC: 0.585481 cumulative IPC: 0.502316 (Simulation time: 0 hr 12 min 23 sec) 
Heartbeat CPU 0 instructions: 293000000 cycles: 586065044 heartbeat IPC: 0.38117 cumulative IPC: 0.501752 (Simulation time: 0 hr 12 min 26 sec) 
Heartbeat CPU 0 instructions: 294000001 cycles: 588077894 heartbeat IPC: 0.496808 cumulative IPC: 0.501735 (Simulation time: 0 hr 12 min 29 sec) 
Heartbeat CPU 0 instructions: 295000001 cycles: 590053564 heartbeat IPC: 0.506157 cumulative IPC: 0.50175 (Simulation time: 0 hr 12 min 31 sec) 
Heartbeat CPU 0 instructions: 296000001 cycles: 591743483 heartbeat IPC: 0.591744 cumulative IPC: 0.502017 (Simulation time: 0 hr 12 min 33 sec) 
Heartbeat CPU 0 instructions: 297000000 cycles: 593432860 heartbeat IPC: 0.591934 cumulative IPC: 0.502283 (Simulation time: 0 hr 12 min 36 sec) 
Heartbeat CPU 0 instructions: 298000003 cycles: 595237285 heartbeat IPC: 0.554195 cumulative IPC: 0.502446 (Simulation time: 0 hr 12 min 38 sec) 
Heartbeat CPU 0 instructions: 299000001 cycles: 597360041 heartbeat IPC: 0.471085 cumulative IPC: 0.502331 (Simulation time: 0 hr 12 min 41 sec) 
Heartbeat CPU 0 instructions: 300000000 cycles: 599101488 heartbeat IPC: 0.574235 cumulative IPC: 0.502548 (Simulation time: 0 hr 12 min 43 sec) 
Heartbeat CPU 0 instructions: 301000001 cycles: 600801859 heartbeat IPC: 0.588108 cumulative IPC: 0.502799 (Simulation time: 0 hr 12 min 45 sec) 
Heartbeat CPU 0 instructions: 302000000 cycles: 602572516 heartbeat IPC: 0.564762 cumulative IPC: 0.502988 (Simulation time: 0 hr 12 min 48 sec) 
Heartbeat CPU 0 instructions: 303000000 cycles: 604826514 heartbeat IPC: 0.443656 cumulative IPC: 0.502759 (Simulation time: 0 hr 12 min 50 sec) 
Heartbeat CPU 0 instructions: 304000000 cycles: 606497929 heartbeat IPC: 0.598295 cumulative IPC: 0.503032 (Simulation time: 0 hr 12 min 53 sec) 
Heartbeat CPU 0 instructions: 305000000 cycles: 608203341 heartbeat IPC: 0.586369 cumulative IPC: 0.503274 (Simulation time: 0 hr 12 min 55 sec) 
Heartbeat CPU 0 instructions: 306000002 cycles: 609923817 heartbeat IPC: 0.581236 cumulative IPC: 0.503502 (Simulation time: 0 hr 12 min 57 sec) 
Heartbeat CPU 0 instructions: 307000000 cycles: 612042324 heartbeat IPC: 0.47203 cumulative IPC: 0.503389 (Simulation time: 0 hr 13 min 0 sec) 
Heartbeat CPU 0 instructions: 308000000 cycles: 613901491 heartbeat IPC: 0.537875 cumulative IPC: 0.503498 (Simulation time: 0 hr 13 min 2 sec) 
Heartbeat CPU 0 instructions: 309000000 cycles: 615582066 heartbeat IPC: 0.595034 cumulative IPC: 0.503757 (Simulation time: 0 hr 13 min 4 sec) 
Heartbeat CPU 0 instructions: 310000002 cycles: 617277631 heartbeat IPC: 0.589775 cumulative IPC: 0.504002 (Simulation time: 0 hr 13 min 7 sec) 
Heartbeat CPU 0 instructions: 311000002 cycles: 619098418 heartbeat IPC: 0.549213 cumulative IPC: 0.50414 (Simulation time: 0 hr 13 min 9 sec) 
Heartbeat CPU 0 instructions: 312000001 cycles: 621467336 heartbeat IPC: 0.422133 cumulative IPC: 0.503816 (Simulation time: 0 hr 13 min 12 sec) 
Heartbeat CPU 0 instructions: 313000002 cycles: 623181126 heartbeat IPC: 0.583503 cumulative IPC: 0.504043 (Simulation time: 0 hr 13 min 14 sec) 
Heartbeat CPU 0 instructions: 314000002 cycles: 624988889 heartbeat IPC: 0.55317 cumulative IPC: 0.50419 (Simulation time: 0 hr 13 min 16 sec) 
Heartbeat CPU 0 instructions: 315000002 cycles: 627222018 heartbeat IPC: 0.447802 cumulative IPC: 0.503982 (Simulation time: 0 hr 13 min 19 sec) 
Heartbeat CPU 0 instructions: 316000001 cycles: 628967253 heartbeat IPC: 0.572988 cumulative IPC: 0.504181 (Simulation time: 0 hr 13 min 21 sec) 
Heartbeat CPU 0 instructions: 317000000 cycles: 630660364 heartbeat IPC: 0.590628 cumulative IPC: 0.504421 (Simulation time: 0 hr 13 min 24 sec) 
Heartbeat CPU 0 instructions: 318000002 cycles: 632395282 heartbeat IPC: 0.576397 cumulative IPC: 0.504626 (Simulation time: 0 hr 13 min 26 sec) 
Heartbeat CPU 0 instructions: 319000000 cycles: 634618629 heartbeat IPC: 0.449771 cumulative IPC: 0.504427 (Simulation time: 0 hr 13 min 29 sec) 
Heartbeat CPU 0 instructions: 320000001 cycles: 636333173 heartbeat IPC: 0.583246 cumulative IPC: 0.504647 (Simulation time: 0 hr 13 min 31 sec) 
Heartbeat CPU 0 instructions: 321000003 cycles: 638045686 heartbeat IPC: 0.583938 cumulative IPC: 0.504867 (Simulation time: 0 hr 13 min 34 sec) 
Heartbeat CPU 0 instructions: 322000000 cycles: 640305176 heartbeat IPC: 0.442576 cumulative IPC: 0.504639 (Simulation time: 0 hr 13 min 36 sec) 
Heartbeat CPU 0 instructions: 323000001 cycles: 641983752 heartbeat IPC: 0.595744 cumulative IPC: 0.504886 (Simulation time: 0 hr 13 min 39 sec) 
Heartbeat CPU 0 instructions: 324000000 cycles: 643676139 heartbeat IPC: 0.590881 cumulative IPC: 0.50512 (Simulation time: 0 hr 13 min 41 sec) 
Heartbeat CPU 0 instructions: 325000000 cycles: 645424839 heartbeat IPC: 0.571853 cumulative IPC: 0.505307 (Simulation time: 0 hr 13 min 43 sec) 
Heartbeat CPU 0 instructions: 326000000 cycles: 647568631 heartbeat IPC: 0.466463 cumulative IPC: 0.505174 (Simulation time: 0 hr 13 min 46 sec) 
Heartbeat CPU 0 instructions: 327000001 cycles: 649252251 heartbeat IPC: 0.593959 cumulative IPC: 0.505413 (Simulation time: 0 hr 13 min 48 sec) 
Heartbeat CPU 0 instructions: 328000003 cycles: 650962730 heartbeat IPC: 0.584633 cumulative IPC: 0.505628 (Simulation time: 0 hr 13 min 51 sec) 
Heartbeat CPU 0 instructions: 329000002 cycles: 653183080 heartbeat IPC: 0.450379 cumulative IPC: 0.505434 (Simulation time: 0 hr 13 min 53 sec) 
Heartbeat CPU 0 instructions: 330000000 cycles: 654908744 heartbeat IPC: 0.579486 cumulative IPC: 0.505635 (Simulation time: 0 hr 13 min 56 sec) 
Heartbeat CPU 0 instructions: 331000001 cycles: 656579026 heartbeat IPC: 0.598702 cumulative IPC: 0.50588 (Simulation time: 0 hr 13 min 58 sec) 
Heartbeat CPU 0 instructions: 332000002 cycles: 658245896 heartbeat IPC: 0.599927 cumulative IPC: 0.506127 (Simulation time: 0 hr 14 min 0 sec) 
Heartbeat CPU 0 instructions: 333000000 cycles: 660462821 heartbeat IPC: 0.451074 cumulative IPC: 0.505936 (Simulation time: 0 hr 14 min 3 sec) 
Heartbeat CPU 0 instructions: 334000002 cycles: 662153876 heartbeat IPC: 0.591348 cumulative IPC: 0.506161 (Simulation time: 0 hr 14 min 5 sec) 
Heartbeat CPU 0 instructions: 335000001 cycles: 663918570 heartbeat IPC: 0.56667 cumulative IPC: 0.506328 (Simulation time: 0 hr 14 min 8 sec) 
Heartbeat CPU 0 instructions: 336000001 cycles: 666008438 heartbeat IPC: 0.478499 cumulative IPC: 0.506237 (Simulation time: 0 hr 14 min 10 sec) 
Heartbeat CPU 0 instructions: 337000002 cycles: 667902672 heartbeat IPC: 0.527918 cumulative IPC: 0.506301 (Simulation time: 0 hr 14 min 12 sec) 
Heartbeat CPU 0 instructions: 338000000 cycles: 669605348 heartbeat IPC: 0.58731 cumulative IPC: 0.506514 (Simulation time: 0 hr 14 min 15 sec) 
Heartbeat CPU 0 instructions: 339000002 cycles: 671307095 heartbeat IPC: 0.587633 cumulative IPC: 0.506727 (Simulation time: 0 hr 14 min 17 sec) 
Heartbeat CPU 0 instructions: 340000003 cycles: 673535519 heartbeat IPC: 0.448748 cumulative IPC: 0.506528 (Simulation time: 0 hr 14 min 20 sec) 
Heartbeat CPU 0 instructions: 341000000 cycles: 675208909 heartbeat IPC: 0.597588 cumulative IPC: 0.506762 (Simulation time: 0 hr 14 min 22 sec) 
Heartbeat CPU 0 instructions: 342000003 cycles: 676914927 heartbeat IPC: 0.586162 cumulative IPC: 0.506968 (Simulation time: 0 hr 14 min 25 sec) 
Heartbeat CPU 0 instructions: 343000003 cycles: 678926032 heartbeat IPC: 0.497239 cumulative IPC: 0.506939 (Simulation time: 0 hr 14 min 27 sec) 
Heartbeat CPU 0 instructions: 344000001 cycles: 680880347 heartbeat IPC: 0.511687 cumulative IPC: 0.506953 (Simulation time: 0 hr 14 min 30 sec) 
Heartbeat CPU 0 instructions: 345000001 cycles: 682559766 heartbeat IPC: 0.595444 cumulative IPC: 0.507178 (Simulation time: 0 hr 14 min 33 sec) 
Heartbeat CPU 0 instructions: 346000000 cycles: 684260897 heartbeat IPC: 0.587844 cumulative IPC: 0.507385 (Simulation time: 0 hr 14 min 35 sec) 
Heartbeat CPU 0 instructions: 347000001 cycles: 686505996 heartbeat IPC: 0.445415 cumulative IPC: 0.507176 (Simulation time: 0 hr 14 min 38 sec) 
Heartbeat CPU 0 instructions: 348000000 cycles: 688176747 heartbeat IPC: 0.598533 cumulative IPC: 0.507405 (Simulation time: 0 hr 14 min 40 sec) 
Heartbeat CPU 0 instructions: 349000002 cycles: 689858339 heartbeat IPC: 0.594676 cumulative IPC: 0.507624 (Simulation time: 0 hr 14 min 43 sec) 
Heartbeat CPU 0 instructions: 350000002 cycles: 692088717 heartbeat IPC: 0.448354 cumulative IPC: 0.507427 (Simulation time: 0 hr 14 min 46 sec) 
Heartbeat CPU 0 instructions: 351000000 cycles: 693765302 heartbeat IPC: 0.596449 cumulative IPC: 0.507649 (Simulation time: 0 hr 14 min 48 sec) 
Heartbeat CPU 0 instructions: 352000000 cycles: 695432619 heartbeat IPC: 0.599766 cumulative IPC: 0.507877 (Simulation time: 0 hr 14 min 50 sec) 
Heartbeat CPU 0 instructions: 353000000 cycles: 697177524 heartbeat IPC: 0.573097 cumulative IPC: 0.508046 (Simulation time: 0 hr 14 min 53 sec) 
Heartbeat CPU 0 instructions: 354000000 cycles: 699329152 heartbeat IPC: 0.464764 cumulative IPC: 0.507908 (Simulation time: 0 hr 14 min 55 sec) 
Heartbeat CPU 0 instructions: 355000000 cycles: 701000891 heartbeat IPC: 0.59818 cumulative IPC: 0.508131 (Simulation time: 0 hr 14 min 58 sec) 
Heartbeat CPU 0 instructions: 356000002 cycles: 702713640 heartbeat IPC: 0.583858 cumulative IPC: 0.508321 (Simulation time: 0 hr 15 min 0 sec) 
Heartbeat CPU 0 instructions: 357000000 cycles: 704944162 heartbeat IPC: 0.448325 cumulative IPC: 0.508125 (Simulation time: 0 hr 15 min 3 sec) 
Heartbeat CPU 0 instructions: 358000000 cycles: 706623234 heartbeat IPC: 0.595567 cumulative IPC: 0.50834 (Simulation time: 0 hr 15 min 5 sec) 
Heartbeat CPU 0 instructions: 359000000 cycles: 708335237 heartbeat IPC: 0.584111 cumulative IPC: 0.508529 (Simulation time: 0 hr 15 min 8 sec) 
Heartbeat CPU 0 instructions: 360000001 cycles: 710313633 heartbeat IPC: 0.505461 cumulative IPC: 0.50852 (Simulation time: 0 hr 15 min 10 sec) 
Heartbeat CPU 0 instructions: 361000001 cycles: 712280090 heartbeat IPC: 0.508529 cumulative IPC: 0.50852 (Simulation time: 0 hr 15 min 13 sec) 
Heartbeat CPU 0 instructions: 362000000 cycles: 713990187 heartbeat IPC: 0.584762 cumulative IPC: 0.508708 (Simulation time: 0 hr 15 min 15 sec) 
Heartbeat CPU 0 instructions: 363000000 cycles: 715693327 heartbeat IPC: 0.587151 cumulative IPC: 0.508901 (Simulation time: 0 hr 15 min 17 sec) 
Heartbeat CPU 0 instructions: 364000001 cycles: 717944694 heartbeat IPC: 0.444175 cumulative IPC: 0.508692 (Simulation time: 0 hr 15 min 20 sec) 
Heartbeat CPU 0 instructions: 365000002 cycles: 719637884 heartbeat IPC: 0.590602 cumulative IPC: 0.50889 (Simulation time: 0 hr 15 min 22 sec) 
Heartbeat CPU 0 instructions: 366000002 cycles: 721349772 heartbeat IPC: 0.58415 cumulative IPC: 0.509075 (Simulation time: 0 hr 15 min 25 sec) 
Heartbeat CPU 0 instructions: 367000000 cycles: 723318325 heartbeat IPC: 0.507986 cumulative IPC: 0.509072 (Simulation time: 0 hr 15 min 27 sec) 
Heartbeat CPU 0 instructions: 368000003 cycles: 725293209 heartbeat IPC: 0.50636 cumulative IPC: 0.509064 (Simulation time: 0 hr 15 min 30 sec) 
Heartbeat CPU 0 instructions: 369000003 cycles: 727025516 heartbeat IPC: 0.577265 cumulative IPC: 0.509232 (Simulation time: 0 hr 15 min 32 sec) 
Heartbeat CPU 0 instructions: 370000002 cycles: 728742910 heartbeat IPC: 0.582277 cumulative IPC: 0.509409 (Simulation time: 0 hr 15 min 35 sec) 
Heartbeat CPU 0 instructions: 371000003 cycles: 730964575 heartbeat IPC: 0.450113 cumulative IPC: 0.509223 (Simulation time: 0 hr 15 min 37 sec) 
Heartbeat CPU 0 instructions: 372000000 cycles: 732653806 heartbeat IPC: 0.591984 cumulative IPC: 0.50942 (Simulation time: 0 hr 15 min 40 sec) 
Heartbeat CPU 0 instructions: 373000000 cycles: 734361984 heartbeat IPC: 0.585419 cumulative IPC: 0.509602 (Simulation time: 0 hr 15 min 42 sec) 
Heartbeat CPU 0 instructions: 374000000 cycles: 736211648 heartbeat IPC: 0.540639 cumulative IPC: 0.509683 (Simulation time: 0 hr 15 min 45 sec) 
Heartbeat CPU 0 instructions: 375000000 cycles: 738264172 heartbeat IPC: 0.487205 cumulative IPC: 0.509618 (Simulation time: 0 hr 15 min 48 sec) 
Heartbeat CPU 0 instructions: 376000000 cycles: 739941642 heartbeat IPC: 0.596136 cumulative IPC: 0.50982 (Simulation time: 0 hr 15 min 50 sec) 
Heartbeat CPU 0 instructions: 377000003 cycles: 741633540 heartbeat IPC: 0.591054 cumulative IPC: 0.510011 (Simulation time: 0 hr 15 min 53 sec) 
Heartbeat CPU 0 instructions: 378000002 cycles: 743858596 heartbeat IPC: 0.449426 cumulative IPC: 0.509825 (Simulation time: 0 hr 15 min 55 sec) 
Heartbeat CPU 0 instructions: 379000001 cycles: 745551014 heartbeat IPC: 0.59087 cumulative IPC: 0.510014 (Simulation time: 0 hr 15 min 58 sec) 
Heartbeat CPU 0 instructions: 380000000 cycles: 747250052 heartbeat IPC: 0.588568 cumulative IPC: 0.510198 (Simulation time: 0 hr 16 min 1 sec) 
Heartbeat CPU 0 instructions: 381000001 cycles: 749111929 heartbeat IPC: 0.537093 cumulative IPC: 0.510267 (Simulation time: 0 hr 16 min 3 sec) 
Heartbeat CPU 0 instructions: 382000000 cycles: 751176614 heartbeat IPC: 0.484335 cumulative IPC: 0.510194 (Simulation time: 0 hr 16 min 6 sec) 
Heartbeat CPU 0 instructions: 383000002 cycles: 752883159 heartbeat IPC: 0.58598 cumulative IPC: 0.510371 (Simulation time: 0 hr 16 min 8 sec) 
Heartbeat CPU 0 instructions: 384000002 cycles: 754580363 heartbeat IPC: 0.589204 cumulative IPC: 0.510553 (Simulation time: 0 hr 16 min 11 sec) 
Heartbeat CPU 0 instructions: 385000000 cycles: 756800551 heartbeat IPC: 0.450411 cumulative IPC: 0.510372 (Simulation time: 0 hr 16 min 13 sec) 
Heartbeat CPU 0 instructions: 386000000 cycles: 758460576 heartbeat IPC: 0.602401 cumulative IPC: 0.510579 (Simulation time: 0 hr 16 min 16 sec) 
Heartbeat CPU 0 instructions: 387000000 cycles: 760153221 heartbeat IPC: 0.590791 cumulative IPC: 0.510763 (Simulation time: 0 hr 16 min 18 sec) 
Heartbeat CPU 0 instructions: 388000002 cycles: 761848798 heartbeat IPC: 0.589771 cumulative IPC: 0.510944 (Simulation time: 0 hr 16 min 21 sec) 
Heartbeat CPU 0 instructions: 389000002 cycles: 764062907 heartbeat IPC: 0.451649 cumulative IPC: 0.510767 (Simulation time: 0 hr 16 min 24 sec) 
Heartbeat CPU 0 instructions: 390000000 cycles: 765739772 heartbeat IPC: 0.59635 cumulative IPC: 0.51096 (Simulation time: 0 hr 16 min 26 sec) 
Heartbeat CPU 0 instructions: 391000000 cycles: 767454985 heartbeat IPC: 0.583018 cumulative IPC: 0.511126 (Simulation time: 0 hr 16 min 29 sec) 
Heartbeat CPU 0 instructions: 392000000 cycles: 769782018 heartbeat IPC: 0.429732 cumulative IPC: 0.510873 (Simulation time: 0 hr 16 min 33 sec) 
Heartbeat CPU 0 instructions: 393000000 cycles: 771460364 heartbeat IPC: 0.595825 cumulative IPC: 0.511063 (Simulation time: 0 hr 16 min 37 sec) 
Heartbeat CPU 0 instructions: 394000001 cycles: 773116846 heartbeat IPC: 0.60369 cumulative IPC: 0.511267 (Simulation time: 0 hr 16 min 41 sec) 
Heartbeat CPU 0 instructions: 395000003 cycles: 775092997 heartbeat IPC: 0.506035 cumulative IPC: 0.511253 (Simulation time: 0 hr 16 min 45 sec) 
Heartbeat CPU 0 instructions: 396000000 cycles: 777024744 heartbeat IPC: 0.517665 cumulative IPC: 0.51127 (Simulation time: 0 hr 16 min 49 sec) 
Heartbeat CPU 0 instructions: 397000002 cycles: 778696239 heartbeat IPC: 0.598268 cumulative IPC: 0.511462 (Simulation time: 0 hr 16 min 53 sec) 
Heartbeat CPU 0 instructions: 398000002 cycles: 780367557 heartbeat IPC: 0.59833 cumulative IPC: 0.511653 (Simulation time: 0 hr 16 min 58 sec) 
Heartbeat CPU 0 instructions: 399000000 cycles: 782556629 heartbeat IPC: 0.456814 cumulative IPC: 0.511496 (Simulation time: 0 hr 17 min 3 sec) 
Heartbeat CPU 0 instructions: 400000002 cycles: 784239659 heartbeat IPC: 0.594168 cumulative IPC: 0.511678 (Simulation time: 0 hr 17 min 7 sec) 
Heartbeat CPU 0 instructions: 401000001 cycles: 785930576 heartbeat IPC: 0.591394 cumulative IPC: 0.511855 (Simulation time: 0 hr 17 min 12 sec) 
Heartbeat CPU 0 instructions: 402000001 cycles: 788156503 heartbeat IPC: 0.449251 cumulative IPC: 0.511673 (Simulation time: 0 hr 17 min 17 sec) 
Heartbeat CPU 0 instructions: 403000003 cycles: 789843385 heartbeat IPC: 0.592811 cumulative IPC: 0.511851 (Simulation time: 0 hr 17 min 22 sec) 
Heartbeat CPU 0 instructions: 404000000 cycles: 791527672 heartbeat IPC: 0.593721 cumulative IPC: 0.51203 (Simulation time: 0 hr 17 min 26 sec) 
Heartbeat CPU 0 instructions: 405000000 cycles: 793492766 heartbeat IPC: 0.508882 cumulative IPC: 0.512022 (Simulation time: 0 hr 17 min 31 sec) 
Heartbeat CPU 0 instructions: 406000002 cycles: 795463180 heartbeat IPC: 0.507509 cumulative IPC: 0.512011 (Simulation time: 0 hr 17 min 36 sec) 
Heartbeat CPU 0 instructions: 407000000 cycles: 797163911 heartbeat IPC: 0.587981 cumulative IPC: 0.512177 (Simulation time: 0 hr 17 min 41 sec) 
Heartbeat CPU 0 instructions: 408000000 cycles: 798858612 heartbeat IPC: 0.590075 cumulative IPC: 0.512347 (Simulation time: 0 hr 17 min 45 sec) 
Heartbeat CPU 0 instructions: 409000003 cycles: 801114018 heartbeat IPC: 0.44338 cumulative IPC: 0.512148 (Simulation time: 0 hr 17 min 51 sec) 
Heartbeat CPU 0 instructions: 410000000 cycles: 802792606 heartbeat IPC: 0.595737 cumulative IPC: 0.512327 (Simulation time: 0 hr 17 min 55 sec) 
Heartbeat CPU 0 instructions: 411000000 cycles: 804504388 heartbeat IPC: 0.584187 cumulative IPC: 0.512485 (Simulation time: 0 hr 18 min 0 sec) 
Heartbeat CPU 0 instructions: 412000000 cycles: 806531087 heartbeat IPC: 0.493413 cumulative IPC: 0.512435 (Simulation time: 0 hr 18 min 5 sec) 
Heartbeat CPU 0 instructions: 413000000 cycles: 808449135 heartbeat IPC: 0.521363 cumulative IPC: 0.512457 (Simulation time: 0 hr 18 min 10 sec) 
Heartbeat CPU 0 instructions: 414000002 cycles: 810136973 heartbeat IPC: 0.592475 cumulative IPC: 0.512628 (Simulation time: 0 hr 18 min 14 sec) 
Heartbeat CPU 0 instructions: 415000000 cycles: 811835561 heartbeat IPC: 0.588723 cumulative IPC: 0.512792 (Simulation time: 0 hr 18 min 19 sec) 
Heartbeat CPU 0 instructions: 416000003 cycles: 814083625 heartbeat IPC: 0.444829 cumulative IPC: 0.512599 (Simulation time: 0 hr 18 min 24 sec) 
Heartbeat CPU 0 instructions: 417000000 cycles: 815758908 heartbeat IPC: 0.596912 cumulative IPC: 0.512777 (Simulation time: 0 hr 18 min 29 sec) 
Heartbeat CPU 0 instructions: 418000000 cycles: 817459130 heartbeat IPC: 0.588158 cumulative IPC: 0.512938 (Simulation time: 0 hr 18 min 33 sec) 
Heartbeat CPU 0 instructions: 419000002 cycles: 819175945 heartbeat IPC: 0.582475 cumulative IPC: 0.513088 (Simulation time: 0 hr 18 min 38 sec) 
Heartbeat CPU 0 instructions: 420000001 cycles: 821397286 heartbeat IPC: 0.450178 cumulative IPC: 0.512913 (Simulation time: 0 hr 18 min 43 sec) 
Heartbeat CPU 0 instructions: 421000001 cycles: 823064201 heartbeat IPC: 0.599911 cumulative IPC: 0.513094 (Simulation time: 0 hr 18 min 48 sec) 
Heartbeat CPU 0 instructions: 422000003 cycles: 824821810 heartbeat IPC: 0.568956 cumulative IPC: 0.513217 (Simulation time: 0 hr 18 min 52 sec) 
Heartbeat CPU 0 instructions: 423000000 cycles: 826877617 heartbeat IPC: 0.486426 cumulative IPC: 0.513148 (Simulation time: 0 hr 18 min 57 sec) 
Heartbeat CPU 0 instructions: 424000000 cycles: 828755386 heartbeat IPC: 0.532547 cumulative IPC: 0.513193 (Simulation time: 0 hr 19 min 2 sec) 
Heartbeat CPU 0 instructions: 425000000 cycles: 830443934 heartbeat IPC: 0.592225 cumulative IPC: 0.513358 (Simulation time: 0 hr 19 min 7 sec) 
Heartbeat CPU 0 instructions: 426000001 cycles: 832340675 heartbeat IPC: 0.527221 cumulative IPC: 0.513391 (Simulation time: 0 hr 19 min 12 sec) 
Heartbeat CPU 0 instructions: 427000000 cycles: 834407957 heartbeat IPC: 0.483726 cumulative IPC: 0.513315 (Simulation time: 0 hr 19 min 17 sec) 
Heartbeat CPU 0 instructions: 428000000 cycles: 836098107 heartbeat IPC: 0.591663 cumulative IPC: 0.513478 (Simulation time: 0 hr 19 min 21 sec) 
Heartbeat CPU 0 instructions: 429000000 cycles: 837858479 heartbeat IPC: 0.568062 cumulative IPC: 0.513596 (Simulation time: 0 hr 19 min 26 sec) 
Heartbeat CPU 0 instructions: 430000000 cycles: 840088693 heartbeat IPC: 0.448387 cumulative IPC: 0.513418 (Simulation time: 0 hr 19 min 31 sec) 
Heartbeat CPU 0 instructions: 431000000 cycles: 841774043 heartbeat IPC: 0.593349 cumulative IPC: 0.513582 (Simulation time: 0 hr 19 min 35 sec) 
Heartbeat CPU 0 instructions: 432000000 cycles: 843474064 heartbeat IPC: 0.588228 cumulative IPC: 0.513737 (Simulation time: 0 hr 19 min 40 sec) 
Heartbeat CPU 0 instructions: 433000003 cycles: 845706563 heartbeat IPC: 0.44793 cumulative IPC: 0.513558 (Simulation time: 0 hr 19 min 45 sec) 
Heartbeat CPU 0 instructions: 434000001 cycles: 847390361 heartbeat IPC: 0.593894 cumulative IPC: 0.513722 (Simulation time: 0 hr 19 min 49 sec) 
Heartbeat CPU 0 instructions: 435000002 cycles: 849078931 heartbeat IPC: 0.592218 cumulative IPC: 0.513883 (Simulation time: 0 hr 19 min 54 sec) 
Heartbeat CPU 0 instructions: 436000001 cycles: 851312852 heartbeat IPC: 0.447643 cumulative IPC: 0.513704 (Simulation time: 0 hr 19 min 59 sec) 
Heartbeat CPU 0 instructions: 437000003 cycles: 852994771 heartbeat IPC: 0.59456 cumulative IPC: 0.513868 (Simulation time: 0 hr 20 min 3 sec) 
Heartbeat CPU 0 instructions: 438000000 cycles: 854678003 heartbeat IPC: 0.594093 cumulative IPC: 0.51403 (Simulation time: 0 hr 20 min 8 sec) 
Heartbeat CPU 0 instructions: 439000003 cycles: 856604124 heartbeat IPC: 0.51918 cumulative IPC: 0.514042 (Simulation time: 0 hr 20 min 12 sec) 
Heartbeat CPU 0 instructions: 440000000 cycles: 858593090 heartbeat IPC: 0.502772 cumulative IPC: 0.514015 (Simulation time: 0 hr 20 min 17 sec) 
Heartbeat CPU 0 instructions: 441000001 cycles: 860378472 heartbeat IPC: 0.560105 cumulative IPC: 0.514113 (Simulation time: 0 hr 20 min 21 sec) 
Heartbeat CPU 0 instructions: 442000000 cycles: 862102611 heartbeat IPC: 0.579999 cumulative IPC: 0.514248 (Simulation time: 0 hr 20 min 26 sec) 
Heartbeat CPU 0 instructions: 443000000 cycles: 864324325 heartbeat IPC: 0.450103 cumulative IPC: 0.514079 (Simulation time: 0 hr 20 min 31 sec) 
Heartbeat CPU 0 instructions: 444000001 cycles: 866206647 heartbeat IPC: 0.531259 cumulative IPC: 0.514118 (Simulation time: 0 hr 20 min 36 sec) 
Heartbeat CPU 0 instructions: 445000000 cycles: 867972026 heartbeat IPC: 0.56645 cumulative IPC: 0.514227 (Simulation time: 0 hr 20 min 40 sec) 
Heartbeat CPU 0 instructions: 446000003 cycles: 870209467 heartbeat IPC: 0.446941 cumulative IPC: 0.514049 (Simulation time: 0 hr 20 min 45 sec) 
Heartbeat CPU 0 instructions: 447000003 cycles: 871952256 heartbeat IPC: 0.573793 cumulative IPC: 0.514172 (Simulation time: 0 hr 20 min 50 sec) 
Heartbeat CPU 0 instructions: 448000000 cycles: 873672724 heartbeat IPC: 0.581235 cumulative IPC: 0.514307 (Simulation time: 0 hr 20 min 54 sec) 
Heartbeat CPU 0 instructions: 449000001 cycles: 875930270 heartbeat IPC: 0.442959 cumulative IPC: 0.514119 (Simulation time: 0 hr 20 min 59 sec) 
Heartbeat CPU 0 instructions: 450000000 cycles: 877615857 heartbeat IPC: 0.593265 cumulative IPC: 0.514275 (Simulation time: 0 hr 21 min 4 sec) 
Heartbeat CPU 0 instructions: 451000000 cycles: 879302295 heartbeat IPC: 0.592966 cumulative IPC: 0.514429 (Simulation time: 0 hr 21 min 8 sec) 
Heartbeat CPU 0 instructions: 452000000 cycles: 881525131 heartbeat IPC: 0.449876 cumulative IPC: 0.514262 (Simulation time: 0 hr 21 min 13 sec) 
Heartbeat CPU 0 instructions: 453000000 cycles: 883210413 heartbeat IPC: 0.593373 cumulative IPC: 0.514417 (Simulation time: 0 hr 21 min 18 sec) 
Heartbeat CPU 0 instructions: 454000002 cycles: 884909098 heartbeat IPC: 0.588692 cumulative IPC: 0.514564 (Simulation time: 0 hr 21 min 22 sec) 
Heartbeat CPU 0 instructions: 455000002 cycles: 887197278 heartbeat IPC: 0.437029 cumulative IPC: 0.514358 (Simulation time: 0 hr 21 min 27 sec) 
Heartbeat CPU 0 instructions: 456000001 cycles: 888881807 heartbeat IPC: 0.593637 cumulative IPC: 0.514512 (Simulation time: 0 hr 21 min 32 sec) 
Heartbeat CPU 0 instructions: 457000000 cycles: 890570073 heartbeat IPC: 0.592323 cumulative IPC: 0.514664 (Simulation time: 0 hr 21 min 36 sec) 
Heartbeat CPU 0 instructions: 458000002 cycles: 893194553 heartbeat IPC: 0.381029 cumulative IPC: 0.514261 (Simulation time: 0 hr 21 min 42 sec) 
Heartbeat CPU 0 instructions: 459000002 cycles: 894876683 heartbeat IPC: 0.594484 cumulative IPC: 0.514416 (Simulation time: 0 hr 21 min 46 sec) 
Heartbeat CPU 0 instructions: 460000001 cycles: 896794369 heartbeat IPC: 0.521461 cumulative IPC: 0.514431 (Simulation time: 0 hr 21 min 51 sec) 
Heartbeat CPU 0 instructions: 461000000 cycles: 898867231 heartbeat IPC: 0.482424 cumulative IPC: 0.514356 (Simulation time: 0 hr 21 min 56 sec) 
Heartbeat CPU 0 instructions: 462000000 cycles: 900571542 heartbeat IPC: 0.586747 cumulative IPC: 0.514496 (Simulation time: 0 hr 22 min 0 sec) 
Heartbeat CPU 0 instructions: 463000000 cycles: 902837887 heartbeat IPC: 0.441239 cumulative IPC: 0.514307 (Simulation time: 0 hr 22 min 5 sec) 
Heartbeat CPU 0 instructions: 464000000 cycles: 904554461 heartbeat IPC: 0.582556 cumulative IPC: 0.51444 (Simulation time: 0 hr 22 min 10 sec) 
Heartbeat CPU 0 instructions: 465000003 cycles: 906807457 heartbeat IPC: 0.443855 cumulative IPC: 0.51426 (Simulation time: 0 hr 22 min 15 sec) 
Heartbeat CPU 0 instructions: 466000003 cycles: 908493148 heartbeat IPC: 0.593229 cumulative IPC: 0.514411 (Simulation time: 0 hr 22 min 19 sec) 
Heartbeat CPU 0 instructions: 467000000 cycles: 910214394 heartbeat IPC: 0.580973 cumulative IPC: 0.51454 (Simulation time: 0 hr 22 min 24 sec) 
Heartbeat CPU 0 instructions: 468000000 cycles: 912509500 heartbeat IPC: 0.43571 cumulative IPC: 0.514336 (Simulation time: 0 hr 22 min 29 sec) 
Heartbeat CPU 0 instructions: 469000000 cycles: 914226095 heartbeat IPC: 0.582549 cumulative IPC: 0.514468 (Simulation time: 0 hr 22 min 33 sec) 
Heartbeat CPU 0 instructions: 470000003 cycles: 916462745 heartbeat IPC: 0.447099 cumulative IPC: 0.514299 (Simulation time: 0 hr 22 min 39 sec) 
Heartbeat CPU 0 instructions: 471000000 cycles: 918160203 heartbeat IPC: 0.589114 cumulative IPC: 0.514441 (Simulation time: 0 hr 22 min 43 sec) 
Heartbeat CPU 0 instructions: 472000001 cycles: 920214476 heartbeat IPC: 0.486791 cumulative IPC: 0.514378 (Simulation time: 0 hr 22 min 48 sec) 
Heartbeat CPU 0 instructions: 473000000 cycles: 922099545 heartbeat IPC: 0.530484 cumulative IPC: 0.514411 (Simulation time: 0 hr 22 min 52 sec) 
Heartbeat CPU 0 instructions: 474000000 cycles: 923814936 heartbeat IPC: 0.582957 cumulative IPC: 0.514542 (Simulation time: 0 hr 22 min 57 sec) 
Heartbeat CPU 0 instructions: 475000001 cycles: 926093686 heartbeat IPC: 0.438838 cumulative IPC: 0.514351 (Simulation time: 0 hr 23 min 2 sec) 
Heartbeat CPU 0 instructions: 476000001 cycles: 927809549 heartbeat IPC: 0.582797 cumulative IPC: 0.514481 (Simulation time: 0 hr 23 min 6 sec) 
Heartbeat CPU 0 instructions: 477000001 cycles: 930063000 heartbeat IPC: 0.443764 cumulative IPC: 0.514305 (Simulation time: 0 hr 23 min 11 sec) 
Heartbeat CPU 0 instructions: 478000003 cycles: 931738309 heartbeat IPC: 0.596906 cumulative IPC: 0.514457 (Simulation time: 0 hr 23 min 16 sec) 
Heartbeat CPU 0 instructions: 479000000 cycles: 933747094 heartbeat IPC: 0.497812 cumulative IPC: 0.514421 (Simulation time: 0 hr 23 min 21 sec) 
Heartbeat CPU 0 instructions: 480000000 cycles: 935676316 heartbeat IPC: 0.518344 cumulative IPC: 0.514429 (Simulation time: 0 hr 23 min 25 sec) 
Heartbeat CPU 0 instructions: 481000003 cycles: 937395026 heartbeat IPC: 0.581833 cumulative IPC: 0.514555 (Simulation time: 0 hr 23 min 30 sec) 
Heartbeat CPU 0 instructions: 482000002 cycles: 939639160 heartbeat IPC: 0.445606 cumulative IPC: 0.514387 (Simulation time: 0 hr 23 min 35 sec) 
Heartbeat CPU 0 instructions: 483000001 cycles: 941350714 heartbeat IPC: 0.584264 cumulative IPC: 0.514517 (Simulation time: 0 hr 23 min 39 sec) 
Heartbeat CPU 0 instructions: 484000000 cycles: 943566822 heartbeat IPC: 0.451241 cumulative IPC: 0.514365 (Simulation time: 0 hr 23 min 44 sec) 
Heartbeat CPU 0 instructions: 485000001 cycles: 945268974 heartbeat IPC: 0.587492 cumulative IPC: 0.5145 (Simulation time: 0 hr 23 min 49 sec) 
Heartbeat CPU 0 instructions: 486000000 cycles: 947448238 heartbeat IPC: 0.45887 cumulative IPC: 0.514369 (Simulation time: 0 hr 23 min 54 sec) 
Heartbeat CPU 0 instructions: 487000000 cycles: 949251263 heartbeat IPC: 0.554623 cumulative IPC: 0.514447 (Simulation time: 0 hr 23 min 58 sec) 
Heartbeat CPU 0 instructions: 488000002 cycles: 950964732 heartbeat IPC: 0.583613 cumulative IPC: 0.514574 (Simulation time: 0 hr 24 min 3 sec) 
Heartbeat CPU 0 instructions: 489000003 cycles: 953192036 heartbeat IPC: 0.448974 cumulative IPC: 0.514418 (Simulation time: 0 hr 24 min 8 sec) 
Heartbeat CPU 0 instructions: 490000002 cycles: 954899794 heartbeat IPC: 0.585562 cumulative IPC: 0.514548 (Simulation time: 0 hr 24 min 12 sec) 
Heartbeat CPU 0 instructions: 491000001 cycles: 957168996 heartbeat IPC: 0.440683 cumulative IPC: 0.514369 (Simulation time: 0 hr 24 min 17 sec) 
Heartbeat CPU 0 instructions: 492000001 cycles: 958868986 heartbeat IPC: 0.588239 cumulative IPC: 0.514503 (Simulation time: 0 hr 24 min 22 sec) 
Heartbeat CPU 0 instructions: 493000000 cycles: 961130054 heartbeat IPC: 0.442268 cumulative IPC: 0.514329 (Simulation time: 0 hr 24 min 27 sec) 
Heartbeat CPU 0 instructions: 494000000 cycles: 962824569 heartbeat IPC: 0.590139 cumulative IPC: 0.514465 (Simulation time: 0 hr 24 min 32 sec) 
Heartbeat CPU 0 instructions: 495000000 cycles: 964570750 heartbeat IPC: 0.572678 cumulative IPC: 0.514573 (Simulation time: 0 hr 24 min 36 sec) 
Heartbeat CPU 0 instructions: 496000000 cycles: 966783312 heartbeat IPC: 0.451965 cumulative IPC: 0.514426 (Simulation time: 0 hr 24 min 41 sec) 
Heartbeat CPU 0 instructions: 497000003 cycles: 968521508 heartbeat IPC: 0.575311 cumulative IPC: 0.514538 (Simulation time: 0 hr 24 min 45 sec) 
Heartbeat CPU 0 instructions: 498000000 cycles: 970786872 heartbeat IPC: 0.441429 cumulative IPC: 0.514364 (Simulation time: 0 hr 24 min 51 sec) 
Heartbeat CPU 0 instructions: 499000000 cycles: 972503717 heartbeat IPC: 0.582464 cumulative IPC: 0.514487 (Simulation time: 0 hr 24 min 55 sec) 
Heartbeat CPU 0 instructions: 500000000 cycles: 974786353 heartbeat IPC: 0.43809 cumulative IPC: 0.514304 (Simulation time: 0 hr 25 min 0 sec) 
Heartbeat CPU 0 instructions: 501000001 cycles: 976464821 heartbeat IPC: 0.595782 cumulative IPC: 0.514447 (Simulation time: 0 hr 25 min 4 sec) 
Heartbeat CPU 0 instructions: 502000003 cycles: 978299168 heartbeat IPC: 0.545154 cumulative IPC: 0.514506 (Simulation time: 0 hr 25 min 9 sec) 
Heartbeat CPU 0 instructions: 503000000 cycles: 980418884 heartbeat IPC: 0.47176 cumulative IPC: 0.514411 (Simulation time: 0 hr 25 min 14 sec) 
Heartbeat CPU 0 instructions: 504000000 cycles: 982114309 heartbeat IPC: 0.589823 cumulative IPC: 0.514544 (Simulation time: 0 hr 25 min 18 sec) 
Heartbeat CPU 0 instructions: 505000003 cycles: 984389666 heartbeat IPC: 0.439493 cumulative IPC: 0.514367 (Simulation time: 0 hr 25 min 24 sec) 
Heartbeat CPU 0 instructions: 506000000 cycles: 986099378 heartbeat IPC: 0.584892 cumulative IPC: 0.514492 (Simulation time: 0 hr 25 min 28 sec) 
Heartbeat CPU 0 instructions: 507000002 cycles: 988356244 heartbeat IPC: 0.443093 cumulative IPC: 0.514325 (Simulation time: 0 hr 25 min 33 sec) 
Heartbeat CPU 0 instructions: 508000003 cycles: 990108282 heartbeat IPC: 0.570764 cumulative IPC: 0.514427 (Simulation time: 0 hr 25 min 38 sec) 
Heartbeat CPU 0 instructions: 509000001 cycles: 991890117 heartbeat IPC: 0.561218 cumulative IPC: 0.514513 (Simulation time: 0 hr 25 min 42 sec) 
Heartbeat CPU 0 instructions: 510000000 cycles: 994015294 heartbeat IPC: 0.470549 cumulative IPC: 0.514417 (Simulation time: 0 hr 25 min 47 sec) 
Finished CPU 0 instructions: 500000001 cycles: 971973497 cumulative IPC: 0.514417 (Simulation time: 0 hr 25 min 47 sec) 

ChampSim completed all CPUs

Region of Interest Statistics

CPU 0 cumulative IPC: 0.514417 instructions: 500000001 cycles: 971973497
L1D TOTAL     ACCESS:  186958692  HIT:  170372073  MISS:   16586619
L1D LOAD      ACCESS:  130754699  HIT:  116009657  MISS:   14745042
L1D RFO       ACCESS:   56203993  HIT:   54362416  MISS:    1841577
L1D PREFETCH  ACCESS:          0  HIT:          0  MISS:          0
L1D WRITEBACK ACCESS:          0  HIT:          0  MISS:          0
L1D PREFETCH  REQUESTED:          0  ISSUED:          0  USEFUL:          0  USELESS:          0
L1D AVERAGE MISS LATENCY: 55.0588 cycles
L1I TOTAL     ACCESS:   95270183  HIT:   95270181  MISS:          2
L1I LOAD      ACCESS:   95270183  HIT:   95270181  MISS:          2
L1I RFO       ACCESS:          0  HIT:          0  MISS:          0
L1I PREFETCH  ACCESS:          0  HIT:          0  MISS:          0
L1I WRITEBACK ACCESS:          0  HIT:          0  MISS:          0
L1I PREFETCH  REQUESTED:          0  ISSUED:          0  USEFUL:          0  USELESS:          0
L1I AVERAGE MISS LATENCY: 306 cycles
L2C TOTAL     ACCESS:   19169337  HIT:    8603822  MISS:   10565515
L2C LOAD      ACCESS:   14744974  HIT:    4940328  MISS:    9804646
L2C RFO       ACCESS:    1841522  HIT:    1082140  MISS:     759382
L2C PREFETCH  ACCESS:          0  HIT:          0  MISS:          0
L2C WRITEBACK ACCESS:    2582841  HIT:    2581354  MISS:       1487
L2C PREFETCH  REQUESTED:          0  ISSUED:          0  USEFUL:          0  USELESS:          0
L2C AVERAGE MISS LATENCY: 63.8521 cycles
LLC TOTAL     ACCESS:   21119136  HIT:   15918033  MISS:    5201103
LLC LOAD      ACCESS:    9804628  HIT:    8100649  MISS:    1703979
LLC RFO       ACCESS:     759362  HIT:     750504  MISS:       8858
LLC PREFETCH  ACCESS:    9253514  HIT:    5795822  MISS:    3457692
LLC WRITEBACK ACCESS:    1301632  HIT:    1271058  MISS:      30574
LLC PREFETCH  REQUESTED:    9762160  ISSUED:    9397368  USEFUL:    2978007  USELESS:     477529
LLC AVERAGE MISS LATENCY: 160.517 cycles
Major fault: 0 Minor fault: 55253
performance stats:
mapping cache size: 3460220
divergence: 5085170

DRAM Statistics
 CHANNEL 0
 RQ ROW_BUFFER_HIT:    1701073  ROW_BUFFER_MISS:     884661
 DBUS_CONGESTED:    1485679
 WQ ROW_BUFFER_HIT:      21008  ROW_BUFFER_MISS:      20909  FULL:          0

 CHANNEL 1
 RQ ROW_BUFFER_HIT:    1702708  ROW_BUFFER_MISS:     882036
 DBUS_CONGESTED:    1485679
 WQ ROW_BUFFER_HIT:      21209  ROW_BUFFER_MISS:      21222  FULL:          0

 AVG_CONGESTED_CYCLE: 13

CPU 0 Branch Prediction Accuracy: 93.056% MPKI: 17.1876 Average ROB Occupancy at Mispredict: 25.3334

Branch types
NOT_BRANCH: 376241114 75.2482%
BRANCH_DIRECT_JUMP: 12880826 2.57617%
BRANCH_INDIRECT: 0 0%
BRANCH_CONDITIONAL: 82908474 16.5817%
BRANCH_DIRECT_CALL: 13234402 2.64688%
BRANCH_INDIRECT_CALL: 750372 0.150074%
BRANCH_RETURN: 13984772 2.79695%
BRANCH_OTHER: 0 0%

