
*** ChampSim Multicore Out-of-Order Simulator ***

Warmup Instructions: 1000000
Prefetch Warmup Instructions: 10000000
Simulation Instructions: 500000000
Stat Printing Period: 1000000
Number of CPUs: 1
LLC sets: 2048
LLC ways: 16
Off-chip DRAM Size: 32768 MB Channels: 2 Width: 64-bit Data Rate: 1024 MT/s

CPU 0 runs /scratch/cluster/cmolder/ML-DPC/ChampSimTraces/spec17/605.mcf-s4.trace.xz
Read seed: 223
Heartbeat CPU 0 instructions: 1000002 cycles: 415473 heartbeat IPC: 2.4069 cumulative IPC: 2.4069 (Simulation time: 0 hr 0 min 8 sec) 

Warmup complete CPU 0 instructions: 1000002 cycles: 415473 (Simulation time: 0 hr 0 min 8 sec) 

Heartbeat CPU 0 instructions: 2000000 cycles: 4209893 heartbeat IPC: 0.263544 cumulative IPC: 0.263544 (Simulation time: 0 hr 0 min 22 sec) 
Heartbeat CPU 0 instructions: 3000000 cycles: 6109865 heartbeat IPC: 0.526324 cumulative IPC: 0.351222 (Simulation time: 0 hr 0 min 32 sec) 
Heartbeat CPU 0 instructions: 4000000 cycles: 8521478 heartbeat IPC: 0.41466 cumulative IPC: 0.370096 (Simulation time: 0 hr 0 min 43 sec) 
Heartbeat CPU 0 instructions: 5000000 cycles: 12370585 heartbeat IPC: 0.259801 cumulative IPC: 0.334585 (Simulation time: 0 hr 0 min 58 sec) 
Heartbeat CPU 0 instructions: 6000001 cycles: 14141270 heartbeat IPC: 0.564754 cumulative IPC: 0.364278 (Simulation time: 0 hr 1 min 8 sec) 
Heartbeat CPU 0 instructions: 7000002 cycles: 17180131 heartbeat IPC: 0.329071 cumulative IPC: 0.357896 (Simulation time: 0 hr 1 min 20 sec) 
Heartbeat CPU 0 instructions: 8000000 cycles: 19783201 heartbeat IPC: 0.384161 cumulative IPC: 0.361426 (Simulation time: 0 hr 1 min 32 sec) 
Heartbeat CPU 0 instructions: 9000001 cycles: 22034946 heartbeat IPC: 0.4441 cumulative IPC: 0.370037 (Simulation time: 0 hr 1 min 42 sec) 
Heartbeat CPU 0 instructions: 10000001 cycles: 25324400 heartbeat IPC: 0.304002 cumulative IPC: 0.361316 (Simulation time: 0 hr 1 min 55 sec) 

Warmup complete CPU 0 instructions: 10000001 cycles: 25324400 (Simulation time: 0 hr 1 min 55 sec) 

Heartbeat CPU 0 instructions: 11000000 cycles: 26857991 heartbeat IPC: 0.652064 cumulative IPC: 0.652064 (Simulation time: 0 hr 2 min 5 sec) 
Heartbeat CPU 0 instructions: 12000000 cycles: 30796859 heartbeat IPC: 0.25388 cumulative IPC: 0.365466 (Simulation time: 0 hr 2 min 21 sec) 
Heartbeat CPU 0 instructions: 13000000 cycles: 32246525 heartbeat IPC: 0.689814 cumulative IPC: 0.433393 (Simulation time: 0 hr 2 min 30 sec) 
Heartbeat CPU 0 instructions: 14000002 cycles: 35035454 heartbeat IPC: 0.358561 cumulative IPC: 0.411902 (Simulation time: 0 hr 2 min 42 sec) 
Heartbeat CPU 0 instructions: 15000000 cycles: 38153002 heartbeat IPC: 0.320764 cumulative IPC: 0.389754 (Simulation time: 0 hr 2 min 56 sec) 
Heartbeat CPU 0 instructions: 16000000 cycles: 39741204 heartbeat IPC: 0.629643 cumulative IPC: 0.416181 (Simulation time: 0 hr 3 min 5 sec) 
Heartbeat CPU 0 instructions: 17000003 cycles: 43141225 heartbeat IPC: 0.294117 cumulative IPC: 0.392887 (Simulation time: 0 hr 3 min 19 sec) 
Heartbeat CPU 0 instructions: 18000000 cycles: 47272706 heartbeat IPC: 0.242043 cumulative IPC: 0.364493 (Simulation time: 0 hr 3 min 36 sec) 
Heartbeat CPU 0 instructions: 19000000 cycles: 51129079 heartbeat IPC: 0.259311 cumulative IPC: 0.348774 (Simulation time: 0 hr 3 min 52 sec) 
Heartbeat CPU 0 instructions: 20000000 cycles: 52578736 heartbeat IPC: 0.689818 cumulative IPC: 0.366914 (Simulation time: 0 hr 4 min 2 sec) 
Heartbeat CPU 0 instructions: 21000000 cycles: 54485145 heartbeat IPC: 0.524546 cumulative IPC: 0.377219 (Simulation time: 0 hr 4 min 12 sec) 
Heartbeat CPU 0 instructions: 22000000 cycles: 57813331 heartbeat IPC: 0.300464 cumulative IPC: 0.369357 (Simulation time: 0 hr 4 min 27 sec) 
Heartbeat CPU 0 instructions: 23000001 cycles: 61727215 heartbeat IPC: 0.255501 cumulative IPC: 0.357115 (Simulation time: 0 hr 4 min 43 sec) 
Heartbeat CPU 0 instructions: 24000000 cycles: 65687509 heartbeat IPC: 0.252506 cumulative IPC: 0.346851 (Simulation time: 0 hr 5 min 0 sec) 
Heartbeat CPU 0 instructions: 25000000 cycles: 69773378 heartbeat IPC: 0.244746 cumulative IPC: 0.337466 (Simulation time: 0 hr 5 min 17 sec) 
Heartbeat CPU 0 instructions: 26000003 cycles: 73776855 heartbeat IPC: 0.249784 cumulative IPC: 0.330221 (Simulation time: 0 hr 5 min 34 sec) 
Heartbeat CPU 0 instructions: 27000000 cycles: 77785256 heartbeat IPC: 0.249475 cumulative IPC: 0.324051 (Simulation time: 0 hr 5 min 51 sec) 
Heartbeat CPU 0 instructions: 28000001 cycles: 79538510 heartbeat IPC: 0.570369 cumulative IPC: 0.332017 (Simulation time: 0 hr 6 min 1 sec) 
Heartbeat CPU 0 instructions: 29000001 cycles: 81026450 heartbeat IPC: 0.67207 cumulative IPC: 0.341101 (Simulation time: 0 hr 6 min 12 sec) 
Heartbeat CPU 0 instructions: 30000001 cycles: 83425655 heartbeat IPC: 0.416805 cumulative IPC: 0.344227 (Simulation time: 0 hr 6 min 24 sec) 
Heartbeat CPU 0 instructions: 31000003 cycles: 85255494 heartbeat IPC: 0.546497 cumulative IPC: 0.350402 (Simulation time: 0 hr 6 min 34 sec) 
Heartbeat CPU 0 instructions: 32000000 cycles: 86814198 heartbeat IPC: 0.641557 cumulative IPC: 0.357783 (Simulation time: 0 hr 6 min 44 sec) 
Heartbeat CPU 0 instructions: 33000000 cycles: 89737884 heartbeat IPC: 0.342034 cumulative IPC: 0.357068 (Simulation time: 0 hr 6 min 57 sec) 
Heartbeat CPU 0 instructions: 34000000 cycles: 91581531 heartbeat IPC: 0.542403 cumulative IPC: 0.362225 (Simulation time: 0 hr 7 min 8 sec) 
Heartbeat CPU 0 instructions: 35000000 cycles: 93186486 heartbeat IPC: 0.62307 cumulative IPC: 0.368394 (Simulation time: 0 hr 7 min 18 sec) 
Heartbeat CPU 0 instructions: 36000000 cycles: 95847634 heartbeat IPC: 0.375778 cumulative IPC: 0.368673 (Simulation time: 0 hr 7 min 31 sec) 
Heartbeat CPU 0 instructions: 37000001 cycles: 97060523 heartbeat IPC: 0.824479 cumulative IPC: 0.376379 (Simulation time: 0 hr 7 min 40 sec) 
Heartbeat CPU 0 instructions: 38000000 cycles: 99151733 heartbeat IPC: 0.478192 cumulative IPC: 0.379263 (Simulation time: 0 hr 7 min 51 sec) 
Heartbeat CPU 0 instructions: 39000000 cycles: 102077911 heartbeat IPC: 0.341743 cumulative IPC: 0.377833 (Simulation time: 0 hr 8 min 5 sec) 
Heartbeat CPU 0 instructions: 40000000 cycles: 103848137 heartbeat IPC: 0.5649 cumulative IPC: 0.38205 (Simulation time: 0 hr 8 min 15 sec) 
Heartbeat CPU 0 instructions: 41000002 cycles: 105579319 heartbeat IPC: 0.577641 cumulative IPC: 0.386269 (Simulation time: 0 hr 8 min 25 sec) 
Heartbeat CPU 0 instructions: 42000003 cycles: 108286393 heartbeat IPC: 0.369403 cumulative IPC: 0.385719 (Simulation time: 0 hr 8 min 38 sec) 
Heartbeat CPU 0 instructions: 43000000 cycles: 109473754 heartbeat IPC: 0.842201 cumulative IPC: 0.39216 (Simulation time: 0 hr 8 min 47 sec) 
Heartbeat CPU 0 instructions: 44000000 cycles: 111937284 heartbeat IPC: 0.405922 cumulative IPC: 0.392551 (Simulation time: 0 hr 8 min 59 sec) 
Heartbeat CPU 0 instructions: 45000002 cycles: 113104610 heartbeat IPC: 0.85666 cumulative IPC: 0.398723 (Simulation time: 0 hr 9 min 8 sec) 
Heartbeat CPU 0 instructions: 46000001 cycles: 115623529 heartbeat IPC: 0.396995 cumulative IPC: 0.398675 (Simulation time: 0 hr 9 min 20 sec) 
Heartbeat CPU 0 instructions: 47000000 cycles: 117547638 heartbeat IPC: 0.519721 cumulative IPC: 0.4012 (Simulation time: 0 hr 9 min 31 sec) 
Heartbeat CPU 0 instructions: 48000003 cycles: 118825079 heartbeat IPC: 0.782817 cumulative IPC: 0.406414 (Simulation time: 0 hr 9 min 40 sec) 
Heartbeat CPU 0 instructions: 49000001 cycles: 121411857 heartbeat IPC: 0.386581 cumulative IPC: 0.40588 (Simulation time: 0 hr 9 min 53 sec) 
Heartbeat CPU 0 instructions: 50000001 cycles: 125206594 heartbeat IPC: 0.263523 cumulative IPC: 0.400472 (Simulation time: 0 hr 10 min 9 sec) 
Heartbeat CPU 0 instructions: 51000002 cycles: 126555283 heartbeat IPC: 0.741462 cumulative IPC: 0.405015 (Simulation time: 0 hr 10 min 19 sec) 
Heartbeat CPU 0 instructions: 52000000 cycles: 127823751 heartbeat IPC: 0.788351 cumulative IPC: 0.409759 (Simulation time: 0 hr 10 min 28 sec) 
Heartbeat CPU 0 instructions: 53000000 cycles: 130345103 heartbeat IPC: 0.396613 cumulative IPC: 0.409443 (Simulation time: 0 hr 10 min 41 sec) 
Heartbeat CPU 0 instructions: 54000000 cycles: 131602063 heartbeat IPC: 0.79557 cumulative IPC: 0.41401 (Simulation time: 0 hr 10 min 50 sec) 
Heartbeat CPU 0 instructions: 55000000 cycles: 132863498 heartbeat IPC: 0.792748 cumulative IPC: 0.418452 (Simulation time: 0 hr 10 min 59 sec) 
Heartbeat CPU 0 instructions: 56000001 cycles: 136309147 heartbeat IPC: 0.290221 cumulative IPC: 0.414471 (Simulation time: 0 hr 11 min 15 sec) 
Heartbeat CPU 0 instructions: 57000003 cycles: 139254052 heartbeat IPC: 0.33957 cumulative IPC: 0.412535 (Simulation time: 0 hr 11 min 29 sec) 
Heartbeat CPU 0 instructions: 58000000 cycles: 140533702 heartbeat IPC: 0.781461 cumulative IPC: 0.416633 (Simulation time: 0 hr 11 min 39 sec) 
Heartbeat CPU 0 instructions: 59000000 cycles: 143379424 heartbeat IPC: 0.351405 cumulative IPC: 0.415061 (Simulation time: 0 hr 11 min 52 sec) 
Heartbeat CPU 0 instructions: 60000001 cycles: 146428165 heartbeat IPC: 0.328005 cumulative IPC: 0.412869 (Simulation time: 0 hr 12 min 6 sec) 
Heartbeat CPU 0 instructions: 61000002 cycles: 147965525 heartbeat IPC: 0.650466 cumulative IPC: 0.415847 (Simulation time: 0 hr 12 min 16 sec) 
Heartbeat CPU 0 instructions: 62000000 cycles: 150675638 heartbeat IPC: 0.368988 cumulative IPC: 0.414834 (Simulation time: 0 hr 12 min 28 sec) 
Heartbeat CPU 0 instructions: 63000003 cycles: 152028878 heartbeat IPC: 0.738969 cumulative IPC: 0.418296 (Simulation time: 0 hr 12 min 37 sec) 
Heartbeat CPU 0 instructions: 64000001 cycles: 154695014 heartbeat IPC: 0.375074 cumulative IPC: 0.417405 (Simulation time: 0 hr 12 min 50 sec) 
Heartbeat CPU 0 instructions: 65000001 cycles: 156118692 heartbeat IPC: 0.702406 cumulative IPC: 0.420508 (Simulation time: 0 hr 12 min 59 sec) 
Heartbeat CPU 0 instructions: 66000000 cycles: 158688484 heartbeat IPC: 0.389136 cumulative IPC: 0.419903 (Simulation time: 0 hr 13 min 12 sec) 
Heartbeat CPU 0 instructions: 67000000 cycles: 159898802 heartbeat IPC: 0.826229 cumulative IPC: 0.423558 (Simulation time: 0 hr 13 min 21 sec) 
Heartbeat CPU 0 instructions: 68000000 cycles: 163004049 heartbeat IPC: 0.322036 cumulative IPC: 0.421268 (Simulation time: 0 hr 13 min 35 sec) 
Heartbeat CPU 0 instructions: 69000000 cycles: 164985204 heartbeat IPC: 0.504756 cumulative IPC: 0.422452 (Simulation time: 0 hr 13 min 46 sec) 
Heartbeat CPU 0 instructions: 70000002 cycles: 166316919 heartbeat IPC: 0.750913 cumulative IPC: 0.425555 (Simulation time: 0 hr 13 min 56 sec) 
Heartbeat CPU 0 instructions: 71000000 cycles: 168584848 heartbeat IPC: 0.44093 cumulative IPC: 0.425798 (Simulation time: 0 hr 14 min 8 sec) 
Heartbeat CPU 0 instructions: 72000000 cycles: 170459356 heartbeat IPC: 0.533473 cumulative IPC: 0.427189 (Simulation time: 0 hr 14 min 19 sec) 
Heartbeat CPU 0 instructions: 73000000 cycles: 172595689 heartbeat IPC: 0.468092 cumulative IPC: 0.427782 (Simulation time: 0 hr 14 min 31 sec) 
Heartbeat CPU 0 instructions: 74000002 cycles: 176453604 heartbeat IPC: 0.259208 cumulative IPC: 0.423479 (Simulation time: 0 hr 14 min 47 sec) 
Heartbeat CPU 0 instructions: 75000001 cycles: 178632564 heartbeat IPC: 0.458934 cumulative IPC: 0.423983 (Simulation time: 0 hr 14 min 58 sec) 
Heartbeat CPU 0 instructions: 76000000 cycles: 180784622 heartbeat IPC: 0.464671 cumulative IPC: 0.424546 (Simulation time: 0 hr 15 min 9 sec) 
Heartbeat CPU 0 instructions: 77000000 cycles: 184288762 heartbeat IPC: 0.285377 cumulative IPC: 0.421478 (Simulation time: 0 hr 15 min 24 sec) 
Heartbeat CPU 0 instructions: 78000003 cycles: 185613378 heartbeat IPC: 0.754938 cumulative IPC: 0.424234 (Simulation time: 0 hr 15 min 33 sec) 
Heartbeat CPU 0 instructions: 79000003 cycles: 188465738 heartbeat IPC: 0.350587 cumulative IPC: 0.422946 (Simulation time: 0 hr 15 min 46 sec) 
Heartbeat CPU 0 instructions: 80000002 cycles: 192156594 heartbeat IPC: 0.27094 cumulative IPC: 0.419583 (Simulation time: 0 hr 16 min 2 sec) 
Heartbeat CPU 0 instructions: 81000000 cycles: 193380182 heartbeat IPC: 0.817267 cumulative IPC: 0.422479 (Simulation time: 0 hr 16 min 11 sec) 
Heartbeat CPU 0 instructions: 82000000 cycles: 194532161 heartbeat IPC: 0.868071 cumulative IPC: 0.425512 (Simulation time: 0 hr 16 min 20 sec) 
Heartbeat CPU 0 instructions: 83000001 cycles: 197903814 heartbeat IPC: 0.296591 cumulative IPC: 0.422994 (Simulation time: 0 hr 16 min 35 sec) 
Heartbeat CPU 0 instructions: 84000002 cycles: 199374284 heartbeat IPC: 0.680055 cumulative IPC: 0.425165 (Simulation time: 0 hr 16 min 45 sec) 
Heartbeat CPU 0 instructions: 85000000 cycles: 201390765 heartbeat IPC: 0.495912 cumulative IPC: 0.425976 (Simulation time: 0 hr 16 min 56 sec) 
Heartbeat CPU 0 instructions: 86000000 cycles: 203044189 heartbeat IPC: 0.604806 cumulative IPC: 0.427639 (Simulation time: 0 hr 17 min 6 sec) 
Heartbeat CPU 0 instructions: 87000000 cycles: 204871787 heartbeat IPC: 0.547166 cumulative IPC: 0.428856 (Simulation time: 0 hr 17 min 17 sec) 
Heartbeat CPU 0 instructions: 88000000 cycles: 208561518 heartbeat IPC: 0.271022 cumulative IPC: 0.425678 (Simulation time: 0 hr 17 min 32 sec) 
Heartbeat CPU 0 instructions: 89000000 cycles: 210010237 heartbeat IPC: 0.690265 cumulative IPC: 0.427753 (Simulation time: 0 hr 17 min 42 sec) 
Heartbeat CPU 0 instructions: 90000000 cycles: 211212058 heartbeat IPC: 0.832071 cumulative IPC: 0.430367 (Simulation time: 0 hr 17 min 51 sec) 
Heartbeat CPU 0 instructions: 91000000 cycles: 213646615 heartbeat IPC: 0.410752 cumulative IPC: 0.430114 (Simulation time: 0 hr 18 min 4 sec) 
Heartbeat CPU 0 instructions: 92000002 cycles: 214806514 heartbeat IPC: 0.862146 cumulative IPC: 0.432759 (Simulation time: 0 hr 18 min 14 sec) 
Heartbeat CPU 0 instructions: 93000000 cycles: 217963750 heartbeat IPC: 0.316732 cumulative IPC: 0.430857 (Simulation time: 0 hr 18 min 28 sec) 
Heartbeat CPU 0 instructions: 94000001 cycles: 221229510 heartbeat IPC: 0.306208 cumulative IPC: 0.428779 (Simulation time: 0 hr 18 min 43 sec) 
Heartbeat CPU 0 instructions: 95000001 cycles: 222521521 heartbeat IPC: 0.773987 cumulative IPC: 0.431041 (Simulation time: 0 hr 18 min 52 sec) 
Heartbeat CPU 0 instructions: 96000003 cycles: 225446979 heartbeat IPC: 0.341828 cumulative IPC: 0.429737 (Simulation time: 0 hr 19 min 5 sec) 
Heartbeat CPU 0 instructions: 97000000 cycles: 229200284 heartbeat IPC: 0.266431 cumulative IPC: 0.42673 (Simulation time: 0 hr 19 min 22 sec) 
Heartbeat CPU 0 instructions: 98000003 cycles: 230751123 heartbeat IPC: 0.644814 cumulative IPC: 0.428377 (Simulation time: 0 hr 19 min 32 sec) 
Heartbeat CPU 0 instructions: 99000000 cycles: 232226657 heartbeat IPC: 0.677719 cumulative IPC: 0.430155 (Simulation time: 0 hr 19 min 42 sec) 
Heartbeat CPU 0 instructions: 100000002 cycles: 234847165 heartbeat IPC: 0.381606 cumulative IPC: 0.429548 (Simulation time: 0 hr 19 min 55 sec) 
Heartbeat CPU 0 instructions: 101000003 cycles: 236686647 heartbeat IPC: 0.543632 cumulative IPC: 0.43054 (Simulation time: 0 hr 20 min 5 sec) 
Heartbeat CPU 0 instructions: 102000000 cycles: 238136332 heartbeat IPC: 0.689803 cumulative IPC: 0.432307 (Simulation time: 0 hr 20 min 15 sec) 
Heartbeat CPU 0 instructions: 103000000 cycles: 240913007 heartbeat IPC: 0.360143 cumulative IPC: 0.431377 (Simulation time: 0 hr 20 min 28 sec) 
Heartbeat CPU 0 instructions: 104000001 cycles: 242360541 heartbeat IPC: 0.690831 cumulative IPC: 0.433108 (Simulation time: 0 hr 20 min 38 sec) 
Heartbeat CPU 0 instructions: 105000000 cycles: 244981790 heartbeat IPC: 0.381497 cumulative IPC: 0.432492 (Simulation time: 0 hr 20 min 51 sec) 
Heartbeat CPU 0 instructions: 106000000 cycles: 246335207 heartbeat IPC: 0.738871 cumulative IPC: 0.434368 (Simulation time: 0 hr 21 min 0 sec) 
Heartbeat CPU 0 instructions: 107000003 cycles: 247557327 heartbeat IPC: 0.818253 cumulative IPC: 0.436479 (Simulation time: 0 hr 21 min 10 sec) 
Heartbeat CPU 0 instructions: 108000001 cycles: 250065876 heartbeat IPC: 0.398636 cumulative IPC: 0.436057 (Simulation time: 0 hr 21 min 23 sec) 
Heartbeat CPU 0 instructions: 109000003 cycles: 252680995 heartbeat IPC: 0.382393 cumulative IPC: 0.435439 (Simulation time: 0 hr 21 min 35 sec) 
Heartbeat CPU 0 instructions: 110000000 cycles: 254371915 heartbeat IPC: 0.591392 cumulative IPC: 0.436591 (Simulation time: 0 hr 21 min 45 sec) 
Heartbeat CPU 0 instructions: 111000002 cycles: 257500886 heartbeat IPC: 0.319595 cumulative IPC: 0.435014 (Simulation time: 0 hr 21 min 59 sec) 
Heartbeat CPU 0 instructions: 112000002 cycles: 259613690 heartbeat IPC: 0.473305 cumulative IPC: 0.435359 (Simulation time: 0 hr 22 min 11 sec) 
Heartbeat CPU 0 instructions: 113000002 cycles: 260952713 heartbeat IPC: 0.746813 cumulative IPC: 0.437129 (Simulation time: 0 hr 22 min 20 sec) 
Heartbeat CPU 0 instructions: 114000000 cycles: 263443697 heartbeat IPC: 0.401447 cumulative IPC: 0.436756 (Simulation time: 0 hr 22 min 32 sec) 
Heartbeat CPU 0 instructions: 115000001 cycles: 264724789 heartbeat IPC: 0.780585 cumulative IPC: 0.438596 (Simulation time: 0 hr 22 min 42 sec) 
Heartbeat CPU 0 instructions: 116000003 cycles: 267890288 heartbeat IPC: 0.315907 cumulative IPC: 0.436995 (Simulation time: 0 hr 22 min 55 sec) 
Heartbeat CPU 0 instructions: 117000000 cycles: 269192116 heartbeat IPC: 0.768148 cumulative IPC: 0.438762 (Simulation time: 0 hr 23 min 4 sec) 
Heartbeat CPU 0 instructions: 118000002 cycles: 271852496 heartbeat IPC: 0.375887 cumulative IPC: 0.438084 (Simulation time: 0 hr 23 min 17 sec) 
Heartbeat CPU 0 instructions: 119000000 cycles: 275174555 heartbeat IPC: 0.301018 cumulative IPC: 0.436261 (Simulation time: 0 hr 23 min 31 sec) 
Heartbeat CPU 0 instructions: 120000002 cycles: 276523659 heartbeat IPC: 0.741234 cumulative IPC: 0.437899 (Simulation time: 0 hr 23 min 40 sec) 
Heartbeat CPU 0 instructions: 121000000 cycles: 278369224 heartbeat IPC: 0.541838 cumulative IPC: 0.438657 (Simulation time: 0 hr 23 min 51 sec) 
Heartbeat CPU 0 instructions: 122000001 cycles: 281687360 heartbeat IPC: 0.301374 cumulative IPC: 0.436881 (Simulation time: 0 hr 24 min 6 sec) 
Heartbeat CPU 0 instructions: 123000000 cycles: 282838671 heartbeat IPC: 0.868574 cumulative IPC: 0.438811 (Simulation time: 0 hr 24 min 16 sec) 
Heartbeat CPU 0 instructions: 124000000 cycles: 284007599 heartbeat IPC: 0.855485 cumulative IPC: 0.440693 (Simulation time: 0 hr 24 min 25 sec) 
Heartbeat CPU 0 instructions: 125000003 cycles: 287562034 heartbeat IPC: 0.281339 cumulative IPC: 0.438534 (Simulation time: 0 hr 24 min 40 sec) 
Heartbeat CPU 0 instructions: 126000001 cycles: 290628240 heartbeat IPC: 0.326135 cumulative IPC: 0.437235 (Simulation time: 0 hr 24 min 54 sec) 
Heartbeat CPU 0 instructions: 127000001 cycles: 292421457 heartbeat IPC: 0.557657 cumulative IPC: 0.438043 (Simulation time: 0 hr 25 min 5 sec) 
Heartbeat CPU 0 instructions: 128000000 cycles: 294459348 heartbeat IPC: 0.490703 cumulative IPC: 0.438442 (Simulation time: 0 hr 25 min 16 sec) 
Heartbeat CPU 0 instructions: 129000003 cycles: 298098647 heartbeat IPC: 0.274779 cumulative IPC: 0.436258 (Simulation time: 0 hr 25 min 32 sec) 
Heartbeat CPU 0 instructions: 130000003 cycles: 300179833 heartbeat IPC: 0.480495 cumulative IPC: 0.436593 (Simulation time: 0 hr 25 min 43 sec) 
Heartbeat CPU 0 instructions: 131000000 cycles: 302369093 heartbeat IPC: 0.456774 cumulative IPC: 0.436753 (Simulation time: 0 hr 25 min 53 sec) 
Heartbeat CPU 0 instructions: 132000000 cycles: 305122499 heartbeat IPC: 0.363187 cumulative IPC: 0.436029 (Simulation time: 0 hr 26 min 6 sec) 
Heartbeat CPU 0 instructions: 133000001 cycles: 306426917 heartbeat IPC: 0.766626 cumulative IPC: 0.437563 (Simulation time: 0 hr 26 min 15 sec) 
Heartbeat CPU 0 instructions: 134000002 cycles: 309856673 heartbeat IPC: 0.291566 cumulative IPC: 0.435803 (Simulation time: 0 hr 26 min 31 sec) 
Heartbeat CPU 0 instructions: 135000000 cycles: 312914843 heartbeat IPC: 0.326992 cumulative IPC: 0.434646 (Simulation time: 0 hr 26 min 45 sec) 
Heartbeat CPU 0 instructions: 136000003 cycles: 314106741 heartbeat IPC: 0.839 cumulative IPC: 0.436315 (Simulation time: 0 hr 26 min 54 sec) 
Heartbeat CPU 0 instructions: 137000000 cycles: 316450854 heartbeat IPC: 0.426599 cumulative IPC: 0.436237 (Simulation time: 0 hr 27 min 6 sec) 
Heartbeat CPU 0 instructions: 138000002 cycles: 320238414 heartbeat IPC: 0.264023 cumulative IPC: 0.434025 (Simulation time: 0 hr 27 min 23 sec) 
Heartbeat CPU 0 instructions: 139000001 cycles: 322381513 heartbeat IPC: 0.466614 cumulative IPC: 0.43426 (Simulation time: 0 hr 27 min 34 sec) 
Heartbeat CPU 0 instructions: 140000003 cycles: 324162281 heartbeat IPC: 0.561557 cumulative IPC: 0.435018 (Simulation time: 0 hr 27 min 44 sec) 
Heartbeat CPU 0 instructions: 141000000 cycles: 326268624 heartbeat IPC: 0.474755 cumulative IPC: 0.435297 (Simulation time: 0 hr 27 min 56 sec) 
Heartbeat CPU 0 instructions: 142000003 cycles: 327590903 heartbeat IPC: 0.756272 cumulative IPC: 0.436701 (Simulation time: 0 hr 28 min 5 sec) 
Heartbeat CPU 0 instructions: 143000000 cycles: 331232548 heartbeat IPC: 0.2746 cumulative IPC: 0.434771 (Simulation time: 0 hr 28 min 21 sec) 
Heartbeat CPU 0 instructions: 144000001 cycles: 333902512 heartbeat IPC: 0.374537 cumulative IPC: 0.43425 (Simulation time: 0 hr 28 min 34 sec) 
Heartbeat CPU 0 instructions: 145000001 cycles: 335227462 heartbeat IPC: 0.754745 cumulative IPC: 0.43562 (Simulation time: 0 hr 28 min 43 sec) 
Heartbeat CPU 0 instructions: 146000000 cycles: 338457486 heartbeat IPC: 0.309595 cumulative IPC: 0.43432 (Simulation time: 0 hr 28 min 58 sec) 
Heartbeat CPU 0 instructions: 147000000 cycles: 340338205 heartbeat IPC: 0.531712 cumulative IPC: 0.434902 (Simulation time: 0 hr 29 min 8 sec) 
Heartbeat CPU 0 instructions: 148000000 cycles: 342207764 heartbeat IPC: 0.534886 cumulative IPC: 0.435491 (Simulation time: 0 hr 29 min 19 sec) 
Heartbeat CPU 0 instructions: 149000003 cycles: 346054656 heartbeat IPC: 0.259951 cumulative IPC: 0.433386 (Simulation time: 0 hr 29 min 35 sec) 
Heartbeat CPU 0 instructions: 150000001 cycles: 347754606 heartbeat IPC: 0.588251 cumulative IPC: 0.434202 (Simulation time: 0 hr 29 min 46 sec) 
Heartbeat CPU 0 instructions: 151000001 cycles: 349555037 heartbeat IPC: 0.555423 cumulative IPC: 0.434876 (Simulation time: 0 hr 29 min 56 sec) 
Heartbeat CPU 0 instructions: 152000000 cycles: 352466591 heartbeat IPC: 0.343459 cumulative IPC: 0.434062 (Simulation time: 0 hr 30 min 10 sec) 
Heartbeat CPU 0 instructions: 153000002 cycles: 355060167 heartbeat IPC: 0.385569 cumulative IPC: 0.433681 (Simulation time: 0 hr 30 min 23 sec) 
Heartbeat CPU 0 instructions: 154000000 cycles: 356415383 heartbeat IPC: 0.737888 cumulative IPC: 0.434926 (Simulation time: 0 hr 30 min 32 sec) 
Heartbeat CPU 0 instructions: 155000001 cycles: 359750338 heartbeat IPC: 0.299854 cumulative IPC: 0.433579 (Simulation time: 0 hr 30 min 47 sec) 
Heartbeat CPU 0 instructions: 156000001 cycles: 361598849 heartbeat IPC: 0.540976 cumulative IPC: 0.434169 (Simulation time: 0 hr 30 min 57 sec) 
Heartbeat CPU 0 instructions: 157000000 cycles: 363603117 heartbeat IPC: 0.498935 cumulative IPC: 0.434553 (Simulation time: 0 hr 31 min 8 sec) 
Heartbeat CPU 0 instructions: 158000002 cycles: 365582017 heartbeat IPC: 0.505332 cumulative IPC: 0.434965 (Simulation time: 0 hr 31 min 19 sec) 
Heartbeat CPU 0 instructions: 159000000 cycles: 367744836 heartbeat IPC: 0.462359 cumulative IPC: 0.435138 (Simulation time: 0 hr 31 min 31 sec) 
Heartbeat CPU 0 instructions: 160000002 cycles: 370028767 heartbeat IPC: 0.437842 cumulative IPC: 0.435156 (Simulation time: 0 hr 31 min 43 sec) 
Heartbeat CPU 0 instructions: 161000002 cycles: 373184171 heartbeat IPC: 0.316917 cumulative IPC: 0.434083 (Simulation time: 0 hr 31 min 57 sec) 
Heartbeat CPU 0 instructions: 162000001 cycles: 374363848 heartbeat IPC: 0.847689 cumulative IPC: 0.435481 (Simulation time: 0 hr 32 min 7 sec) 
Heartbeat CPU 0 instructions: 163000001 cycles: 376668519 heartbeat IPC: 0.433901 cumulative IPC: 0.43547 (Simulation time: 0 hr 32 min 19 sec) 
Heartbeat CPU 0 instructions: 164000000 cycles: 378710346 heartbeat IPC: 0.489757 cumulative IPC: 0.435784 (Simulation time: 0 hr 32 min 29 sec) 
Heartbeat CPU 0 instructions: 165000000 cycles: 380448462 heartbeat IPC: 0.575336 cumulative IPC: 0.436467 (Simulation time: 0 hr 32 min 40 sec) 
Heartbeat CPU 0 instructions: 166000002 cycles: 382701694 heartbeat IPC: 0.443808 cumulative IPC: 0.436513 (Simulation time: 0 hr 32 min 52 sec) 
Heartbeat CPU 0 instructions: 167000000 cycles: 384381686 heartbeat IPC: 0.59524 cumulative IPC: 0.437256 (Simulation time: 0 hr 33 min 2 sec) 
Heartbeat CPU 0 instructions: 168000000 cycles: 387205230 heartbeat IPC: 0.354165 cumulative IPC: 0.436608 (Simulation time: 0 hr 33 min 15 sec) 
Heartbeat CPU 0 instructions: 169000003 cycles: 388943978 heartbeat IPC: 0.575128 cumulative IPC: 0.43727 (Simulation time: 0 hr 33 min 25 sec) 
Heartbeat CPU 0 instructions: 170000001 cycles: 390825997 heartbeat IPC: 0.531343 cumulative IPC: 0.437755 (Simulation time: 0 hr 33 min 35 sec) 
Heartbeat CPU 0 instructions: 171000000 cycles: 393268174 heartbeat IPC: 0.40947 cumulative IPC: 0.437567 (Simulation time: 0 hr 33 min 48 sec) 
Heartbeat CPU 0 instructions: 172000000 cycles: 394679930 heartbeat IPC: 0.708338 cumulative IPC: 0.438602 (Simulation time: 0 hr 33 min 57 sec) 
Heartbeat CPU 0 instructions: 173000002 cycles: 397087456 heartbeat IPC: 0.415365 cumulative IPC: 0.438451 (Simulation time: 0 hr 34 min 9 sec) 
Heartbeat CPU 0 instructions: 174000001 cycles: 398359229 heartbeat IPC: 0.786303 cumulative IPC: 0.439637 (Simulation time: 0 hr 34 min 18 sec) 
Heartbeat CPU 0 instructions: 175000002 cycles: 400838580 heartbeat IPC: 0.403332 cumulative IPC: 0.439398 (Simulation time: 0 hr 34 min 30 sec) 
Heartbeat CPU 0 instructions: 176000000 cycles: 402081730 heartbeat IPC: 0.804407 cumulative IPC: 0.440602 (Simulation time: 0 hr 34 min 40 sec) 
Heartbeat CPU 0 instructions: 177000003 cycles: 404516137 heartbeat IPC: 0.410779 cumulative IPC: 0.44041 (Simulation time: 0 hr 34 min 52 sec) 
Heartbeat CPU 0 instructions: 178000001 cycles: 405783756 heartbeat IPC: 0.788879 cumulative IPC: 0.441571 (Simulation time: 0 hr 35 min 1 sec) 
Heartbeat CPU 0 instructions: 179000000 cycles: 408253652 heartbeat IPC: 0.404875 cumulative IPC: 0.441335 (Simulation time: 0 hr 35 min 14 sec) 
Heartbeat CPU 0 instructions: 180000000 cycles: 409512233 heartbeat IPC: 0.794546 cumulative IPC: 0.442492 (Simulation time: 0 hr 35 min 23 sec) 
Heartbeat CPU 0 instructions: 181000003 cycles: 411743803 heartbeat IPC: 0.448116 cumulative IPC: 0.442524 (Simulation time: 0 hr 35 min 35 sec) 
Heartbeat CPU 0 instructions: 182000003 cycles: 415542303 heartbeat IPC: 0.263262 cumulative IPC: 0.440779 (Simulation time: 0 hr 35 min 51 sec) 
Heartbeat CPU 0 instructions: 183000002 cycles: 419358838 heartbeat IPC: 0.262018 cumulative IPC: 0.439048 (Simulation time: 0 hr 36 min 7 sec) 
Heartbeat CPU 0 instructions: 184000000 cycles: 421445788 heartbeat IPC: 0.479167 cumulative IPC: 0.439259 (Simulation time: 0 hr 36 min 19 sec) 
Heartbeat CPU 0 instructions: 185000001 cycles: 422844914 heartbeat IPC: 0.714733 cumulative IPC: 0.440229 (Simulation time: 0 hr 36 min 28 sec) 
Heartbeat CPU 0 instructions: 186000000 cycles: 425764015 heartbeat IPC: 0.342571 cumulative IPC: 0.439517 (Simulation time: 0 hr 36 min 41 sec) 
Heartbeat CPU 0 instructions: 187000000 cycles: 427691177 heartbeat IPC: 0.518898 cumulative IPC: 0.439897 (Simulation time: 0 hr 36 min 52 sec) 
Heartbeat CPU 0 instructions: 188000000 cycles: 428900505 heartbeat IPC: 0.826906 cumulative IPC: 0.441057 (Simulation time: 0 hr 37 min 1 sec) 
Heartbeat CPU 0 instructions: 189000003 cycles: 432716706 heartbeat IPC: 0.262041 cumulative IPC: 0.43938 (Simulation time: 0 hr 37 min 18 sec) 
Heartbeat CPU 0 instructions: 190000001 cycles: 436469971 heartbeat IPC: 0.266434 cumulative IPC: 0.437801 (Simulation time: 0 hr 37 min 34 sec) 
Heartbeat CPU 0 instructions: 191000000 cycles: 437905042 heartbeat IPC: 0.696829 cumulative IPC: 0.438702 (Simulation time: 0 hr 37 min 44 sec) 
Heartbeat CPU 0 instructions: 192000001 cycles: 439812742 heartbeat IPC: 0.524192 cumulative IPC: 0.439096 (Simulation time: 0 hr 37 min 55 sec) 
Heartbeat CPU 0 instructions: 193000000 cycles: 441598657 heartbeat IPC: 0.559937 cumulative IPC: 0.439614 (Simulation time: 0 hr 38 min 5 sec) 
Heartbeat CPU 0 instructions: 194000003 cycles: 443632832 heartbeat IPC: 0.491601 cumulative IPC: 0.439867 (Simulation time: 0 hr 38 min 16 sec) 
Heartbeat CPU 0 instructions: 195000001 cycles: 447416248 heartbeat IPC: 0.264311 cumulative IPC: 0.438293 (Simulation time: 0 hr 38 min 32 sec) 
Heartbeat CPU 0 instructions: 196000000 cycles: 448739905 heartbeat IPC: 0.755482 cumulative IPC: 0.439285 (Simulation time: 0 hr 38 min 41 sec) 
Heartbeat CPU 0 instructions: 197000001 cycles: 449953746 heartbeat IPC: 0.823832 cumulative IPC: 0.440384 (Simulation time: 0 hr 38 min 50 sec) 
Heartbeat CPU 0 instructions: 198000000 cycles: 453292922 heartbeat IPC: 0.299475 cumulative IPC: 0.439285 (Simulation time: 0 hr 39 min 6 sec) 
Heartbeat CPU 0 instructions: 199000003 cycles: 456523312 heartbeat IPC: 0.309561 cumulative IPC: 0.438313 (Simulation time: 0 hr 39 min 20 sec) 
Heartbeat CPU 0 instructions: 200000001 cycles: 457849052 heartbeat IPC: 0.754294 cumulative IPC: 0.439281 (Simulation time: 0 hr 39 min 29 sec) 
Heartbeat CPU 0 instructions: 201000001 cycles: 460675275 heartbeat IPC: 0.353829 cumulative IPC: 0.438727 (Simulation time: 0 hr 39 min 43 sec) 
Heartbeat CPU 0 instructions: 202000002 cycles: 463328752 heartbeat IPC: 0.376864 cumulative IPC: 0.438352 (Simulation time: 0 hr 39 min 55 sec) 
Heartbeat CPU 0 instructions: 203000000 cycles: 465185577 heartbeat IPC: 0.538553 cumulative IPC: 0.438775 (Simulation time: 0 hr 40 min 6 sec) 
Heartbeat CPU 0 instructions: 204000003 cycles: 466909867 heartbeat IPC: 0.579951 cumulative IPC: 0.439326 (Simulation time: 0 hr 40 min 17 sec) 
Heartbeat CPU 0 instructions: 205000000 cycles: 469132426 heartbeat IPC: 0.44993 cumulative IPC: 0.439379 (Simulation time: 0 hr 40 min 29 sec) 
Heartbeat CPU 0 instructions: 206000003 cycles: 470759032 heartbeat IPC: 0.614779 cumulative IPC: 0.44002 (Simulation time: 0 hr 40 min 39 sec) 
Heartbeat CPU 0 instructions: 207000000 cycles: 472707891 heartbeat IPC: 0.513119 cumulative IPC: 0.440338 (Simulation time: 0 hr 40 min 50 sec) 
Heartbeat CPU 0 instructions: 208000000 cycles: 474795839 heartbeat IPC: 0.478939 cumulative IPC: 0.440517 (Simulation time: 0 hr 41 min 1 sec) 
Heartbeat CPU 0 instructions: 209000000 cycles: 476392195 heartbeat IPC: 0.626427 cumulative IPC: 0.441175 (Simulation time: 0 hr 41 min 11 sec) 
Heartbeat CPU 0 instructions: 210000001 cycles: 479205119 heartbeat IPC: 0.355502 cumulative IPC: 0.440644 (Simulation time: 0 hr 41 min 24 sec) 
Heartbeat CPU 0 instructions: 211000001 cycles: 481077719 heartbeat IPC: 0.534017 cumulative IPC: 0.441028 (Simulation time: 0 hr 41 min 34 sec) 
Heartbeat CPU 0 instructions: 212000000 cycles: 483967166 heartbeat IPC: 0.346087 cumulative IPC: 0.44043 (Simulation time: 0 hr 41 min 48 sec) 
Heartbeat CPU 0 instructions: 213000002 cycles: 488035049 heartbeat IPC: 0.245829 cumulative IPC: 0.438719 (Simulation time: 0 hr 42 min 5 sec) 
Heartbeat CPU 0 instructions: 214000002 cycles: 491687320 heartbeat IPC: 0.273802 cumulative IPC: 0.437428 (Simulation time: 0 hr 42 min 21 sec) 
Heartbeat CPU 0 instructions: 215000003 cycles: 492999417 heartbeat IPC: 0.76214 cumulative IPC: 0.438339 (Simulation time: 0 hr 42 min 31 sec) 
Heartbeat CPU 0 instructions: 216000002 cycles: 495417840 heartbeat IPC: 0.413492 cumulative IPC: 0.438211 (Simulation time: 0 hr 42 min 42 sec) 
Heartbeat CPU 0 instructions: 217000000 cycles: 497326920 heartbeat IPC: 0.523811 cumulative IPC: 0.438557 (Simulation time: 0 hr 42 min 53 sec) 
Heartbeat CPU 0 instructions: 218000002 cycles: 498767329 heartbeat IPC: 0.694249 cumulative IPC: 0.439335 (Simulation time: 0 hr 43 min 3 sec) 
Heartbeat CPU 0 instructions: 219000001 cycles: 501168564 heartbeat IPC: 0.416452 cumulative IPC: 0.439219 (Simulation time: 0 hr 43 min 15 sec) 
Heartbeat CPU 0 instructions: 220000000 cycles: 502387837 heartbeat IPC: 0.82016 cumulative IPC: 0.440193 (Simulation time: 0 hr 43 min 24 sec) 
Heartbeat CPU 0 instructions: 221000000 cycles: 505351637 heartbeat IPC: 0.337405 cumulative IPC: 0.439558 (Simulation time: 0 hr 43 min 38 sec) 
Heartbeat CPU 0 instructions: 222000001 cycles: 507411848 heartbeat IPC: 0.485388 cumulative IPC: 0.439754 (Simulation time: 0 hr 43 min 50 sec) 
Heartbeat CPU 0 instructions: 223000000 cycles: 508694906 heartbeat IPC: 0.779387 cumulative IPC: 0.440656 (Simulation time: 0 hr 44 min 0 sec) 
Heartbeat CPU 0 instructions: 224000000 cycles: 510917879 heartbeat IPC: 0.449848 cumulative IPC: 0.440698 (Simulation time: 0 hr 44 min 12 sec) 
Heartbeat CPU 0 instructions: 225000001 cycles: 513706595 heartbeat IPC: 0.358588 cumulative IPC: 0.440229 (Simulation time: 0 hr 44 min 25 sec) 
Heartbeat CPU 0 instructions: 226000000 cycles: 514949420 heartbeat IPC: 0.804618 cumulative IPC: 0.441154 (Simulation time: 0 hr 44 min 34 sec) 
Heartbeat CPU 0 instructions: 227000003 cycles: 517414033 heartbeat IPC: 0.405744 cumulative IPC: 0.440977 (Simulation time: 0 hr 44 min 47 sec) 
Heartbeat CPU 0 instructions: 228000001 cycles: 519501603 heartbeat IPC: 0.479025 cumulative IPC: 0.441137 (Simulation time: 0 hr 44 min 58 sec) 
Heartbeat CPU 0 instructions: 229000003 cycles: 521523500 heartbeat IPC: 0.494586 cumulative IPC: 0.441355 (Simulation time: 0 hr 45 min 8 sec) 
Heartbeat CPU 0 instructions: 230000002 cycles: 525075213 heartbeat IPC: 0.281554 cumulative IPC: 0.440219 (Simulation time: 0 hr 45 min 24 sec) 
Heartbeat CPU 0 instructions: 231000000 cycles: 529029599 heartbeat IPC: 0.252883 cumulative IPC: 0.438749 (Simulation time: 0 hr 45 min 42 sec) 
Heartbeat CPU 0 instructions: 232000000 cycles: 530693561 heartbeat IPC: 0.600975 cumulative IPC: 0.439283 (Simulation time: 0 hr 45 min 52 sec) 
Heartbeat CPU 0 instructions: 233000002 cycles: 532585523 heartbeat IPC: 0.528553 cumulative IPC: 0.439616 (Simulation time: 0 hr 46 min 2 sec) 
Heartbeat CPU 0 instructions: 234000001 cycles: 535713124 heartbeat IPC: 0.319734 cumulative IPC: 0.438881 (Simulation time: 0 hr 46 min 16 sec) 
Heartbeat CPU 0 instructions: 235000000 cycles: 537749081 heartbeat IPC: 0.491169 cumulative IPC: 0.439089 (Simulation time: 0 hr 46 min 26 sec) 
Heartbeat CPU 0 instructions: 236000003 cycles: 540136049 heartbeat IPC: 0.418943 cumulative IPC: 0.438996 (Simulation time: 0 hr 46 min 38 sec) 
Heartbeat CPU 0 instructions: 237000001 cycles: 543040634 heartbeat IPC: 0.344283 cumulative IPC: 0.438464 (Simulation time: 0 hr 46 min 54 sec) 
Heartbeat CPU 0 instructions: 238000003 cycles: 544489233 heartbeat IPC: 0.690324 cumulative IPC: 0.439167 (Simulation time: 0 hr 47 min 5 sec) 
Heartbeat CPU 0 instructions: 239000000 cycles: 545938908 heartbeat IPC: 0.689808 cumulative IPC: 0.439865 (Simulation time: 0 hr 47 min 17 sec) 
Heartbeat CPU 0 instructions: 240000002 cycles: 547388974 heartbeat IPC: 0.689625 cumulative IPC: 0.440559 (Simulation time: 0 hr 47 min 28 sec) 
Heartbeat CPU 0 instructions: 241000002 cycles: 548840742 heartbeat IPC: 0.688815 cumulative IPC: 0.441247 (Simulation time: 0 hr 47 min 40 sec) 
Heartbeat CPU 0 instructions: 242000000 cycles: 550288450 heartbeat IPC: 0.690746 cumulative IPC: 0.441935 (Simulation time: 0 hr 47 min 51 sec) 
Heartbeat CPU 0 instructions: 243000003 cycles: 551736227 heartbeat IPC: 0.690716 cumulative IPC: 0.442619 (Simulation time: 0 hr 48 min 3 sec) 
Heartbeat CPU 0 instructions: 244000000 cycles: 553190351 heartbeat IPC: 0.687697 cumulative IPC: 0.443294 (Simulation time: 0 hr 48 min 14 sec) 
Heartbeat CPU 0 instructions: 245000000 cycles: 554644509 heartbeat IPC: 0.687683 cumulative IPC: 0.443966 (Simulation time: 0 hr 48 min 26 sec) 
Heartbeat CPU 0 instructions: 246000000 cycles: 556107215 heartbeat IPC: 0.683664 cumulative IPC: 0.444626 (Simulation time: 0 hr 48 min 37 sec) 
Heartbeat CPU 0 instructions: 247000001 cycles: 557590240 heartbeat IPC: 0.674298 cumulative IPC: 0.445266 (Simulation time: 0 hr 48 min 49 sec) 
Heartbeat CPU 0 instructions: 248000001 cycles: 559039326 heartbeat IPC: 0.69009 cumulative IPC: 0.445931 (Simulation time: 0 hr 49 min 0 sec) 
Heartbeat CPU 0 instructions: 249000000 cycles: 560532522 heartbeat IPC: 0.669704 cumulative IPC: 0.446555 (Simulation time: 0 hr 49 min 12 sec) 
Heartbeat CPU 0 instructions: 250000000 cycles: 561995571 heartbeat IPC: 0.683504 cumulative IPC: 0.447201 (Simulation time: 0 hr 49 min 23 sec) 
Heartbeat CPU 0 instructions: 251000000 cycles: 563498675 heartbeat IPC: 0.66529 cumulative IPC: 0.44781 (Simulation time: 0 hr 49 min 35 sec) 
Heartbeat CPU 0 instructions: 252000003 cycles: 564958639 heartbeat IPC: 0.68495 cumulative IPC: 0.448452 (Simulation time: 0 hr 49 min 46 sec) 
Heartbeat CPU 0 instructions: 253000000 cycles: 566420697 heartbeat IPC: 0.683965 cumulative IPC: 0.449088 (Simulation time: 0 hr 49 min 57 sec) 
Heartbeat CPU 0 instructions: 254000000 cycles: 567885502 heartbeat IPC: 0.682685 cumulative IPC: 0.449719 (Simulation time: 0 hr 50 min 8 sec) 
Heartbeat CPU 0 instructions: 255000003 cycles: 569343911 heartbeat IPC: 0.685681 cumulative IPC: 0.450352 (Simulation time: 0 hr 50 min 19 sec) 
Heartbeat CPU 0 instructions: 256000003 cycles: 570993504 heartbeat IPC: 0.60621 cumulative IPC: 0.450823 (Simulation time: 0 hr 50 min 30 sec) 
Heartbeat CPU 0 instructions: 257000001 cycles: 572461765 heartbeat IPC: 0.681076 cumulative IPC: 0.451441 (Simulation time: 0 hr 50 min 41 sec) 
Heartbeat CPU 0 instructions: 258000001 cycles: 573937705 heartbeat IPC: 0.677534 cumulative IPC: 0.452049 (Simulation time: 0 hr 50 min 52 sec) 
Heartbeat CPU 0 instructions: 259000000 cycles: 575432571 heartbeat IPC: 0.668956 cumulative IPC: 0.452638 (Simulation time: 0 hr 51 min 3 sec) 
Heartbeat CPU 0 instructions: 260000000 cycles: 577066239 heartbeat IPC: 0.612119 cumulative IPC: 0.45311 (Simulation time: 0 hr 51 min 14 sec) 
Heartbeat CPU 0 instructions: 261000002 cycles: 578567622 heartbeat IPC: 0.666054 cumulative IPC: 0.453688 (Simulation time: 0 hr 51 min 25 sec) 
Heartbeat CPU 0 instructions: 262000002 cycles: 580075427 heartbeat IPC: 0.663216 cumulative IPC: 0.454258 (Simulation time: 0 hr 51 min 36 sec) 
Heartbeat CPU 0 instructions: 263000000 cycles: 581602644 heartbeat IPC: 0.654785 cumulative IPC: 0.454808 (Simulation time: 0 hr 51 min 47 sec) 
Heartbeat CPU 0 instructions: 264000000 cycles: 583535622 heartbeat IPC: 0.517336 cumulative IPC: 0.455025 (Simulation time: 0 hr 51 min 56 sec) 
Heartbeat CPU 0 instructions: 265000001 cycles: 585329499 heartbeat IPC: 0.557452 cumulative IPC: 0.455353 (Simulation time: 0 hr 52 min 4 sec) 
Heartbeat CPU 0 instructions: 266000001 cycles: 587256733 heartbeat IPC: 0.518878 cumulative IPC: 0.455571 (Simulation time: 0 hr 52 min 13 sec) 
Heartbeat CPU 0 instructions: 267000002 cycles: 588986855 heartbeat IPC: 0.577995 cumulative IPC: 0.455947 (Simulation time: 0 hr 52 min 21 sec) 
Heartbeat CPU 0 instructions: 268000001 cycles: 590823443 heartbeat IPC: 0.544487 cumulative IPC: 0.456234 (Simulation time: 0 hr 52 min 30 sec) 
Heartbeat CPU 0 instructions: 269000001 cycles: 592577713 heartbeat IPC: 0.570038 cumulative IPC: 0.456586 (Simulation time: 0 hr 52 min 39 sec) 
Heartbeat CPU 0 instructions: 270000001 cycles: 594217453 heartbeat IPC: 0.609853 cumulative IPC: 0.457028 (Simulation time: 0 hr 52 min 48 sec) 
Heartbeat CPU 0 instructions: 271000001 cycles: 595980152 heartbeat IPC: 0.567312 cumulative IPC: 0.457369 (Simulation time: 0 hr 52 min 57 sec) 
Heartbeat CPU 0 instructions: 272000002 cycles: 597728298 heartbeat IPC: 0.572035 cumulative IPC: 0.457719 (Simulation time: 0 hr 53 min 5 sec) 
Heartbeat CPU 0 instructions: 273000001 cycles: 599516443 heartbeat IPC: 0.559238 cumulative IPC: 0.458035 (Simulation time: 0 hr 53 min 14 sec) 
Heartbeat CPU 0 instructions: 274000000 cycles: 601548806 heartbeat IPC: 0.492038 cumulative IPC: 0.458155 (Simulation time: 0 hr 53 min 23 sec) 
Heartbeat CPU 0 instructions: 275000000 cycles: 603251778 heartbeat IPC: 0.587209 cumulative IPC: 0.458535 (Simulation time: 0 hr 53 min 32 sec) 
Heartbeat CPU 0 instructions: 276000000 cycles: 605310460 heartbeat IPC: 0.485748 cumulative IPC: 0.458632 (Simulation time: 0 hr 53 min 40 sec) 
Heartbeat CPU 0 instructions: 277000000 cycles: 607133151 heartbeat IPC: 0.548639 cumulative IPC: 0.458914 (Simulation time: 0 hr 53 min 49 sec) 
Heartbeat CPU 0 instructions: 278000000 cycles: 608821188 heartbeat IPC: 0.592404 cumulative IPC: 0.4593 (Simulation time: 0 hr 53 min 58 sec) 
Heartbeat CPU 0 instructions: 279000002 cycles: 610761767 heartbeat IPC: 0.515311 cumulative IPC: 0.459486 (Simulation time: 0 hr 54 min 6 sec) 
Heartbeat CPU 0 instructions: 280000000 cycles: 612515529 heartbeat IPC: 0.570202 cumulative IPC: 0.459816 (Simulation time: 0 hr 54 min 15 sec) 
Heartbeat CPU 0 instructions: 281000000 cycles: 614315142 heartbeat IPC: 0.555675 cumulative IPC: 0.460109 (Simulation time: 0 hr 54 min 24 sec) 
Heartbeat CPU 0 instructions: 282000002 cycles: 616150755 heartbeat IPC: 0.544778 cumulative IPC: 0.460372 (Simulation time: 0 hr 54 min 33 sec) 
Heartbeat CPU 0 instructions: 283000002 cycles: 617875060 heartbeat IPC: 0.579944 cumulative IPC: 0.46072 (Simulation time: 0 hr 54 min 42 sec) 
Heartbeat CPU 0 instructions: 284000001 cycles: 619952245 heartbeat IPC: 0.48142 cumulative IPC: 0.460792 (Simulation time: 0 hr 54 min 51 sec) 
Heartbeat CPU 0 instructions: 285000001 cycles: 621671698 heartbeat IPC: 0.58158 cumulative IPC: 0.461141 (Simulation time: 0 hr 55 min 0 sec) 
Heartbeat CPU 0 instructions: 286000000 cycles: 623489221 heartbeat IPC: 0.550199 cumulative IPC: 0.461411 (Simulation time: 0 hr 55 min 9 sec) 
Heartbeat CPU 0 instructions: 287000000 cycles: 625116455 heartbeat IPC: 0.61454 cumulative IPC: 0.461827 (Simulation time: 0 hr 55 min 19 sec) 
Heartbeat CPU 0 instructions: 288000001 cycles: 627644217 heartbeat IPC: 0.395607 cumulative IPC: 0.461549 (Simulation time: 0 hr 55 min 31 sec) 
Heartbeat CPU 0 instructions: 289000002 cycles: 629672530 heartbeat IPC: 0.493021 cumulative IPC: 0.461654 (Simulation time: 0 hr 55 min 42 sec) 
Heartbeat CPU 0 instructions: 290000000 cycles: 631251507 heartbeat IPC: 0.63332 cumulative IPC: 0.462102 (Simulation time: 0 hr 55 min 52 sec) 
Heartbeat CPU 0 instructions: 291000000 cycles: 633713952 heartbeat IPC: 0.4061 cumulative IPC: 0.461875 (Simulation time: 0 hr 56 min 5 sec) 
Heartbeat CPU 0 instructions: 292000001 cycles: 636764464 heartbeat IPC: 0.327814 cumulative IPC: 0.461206 (Simulation time: 0 hr 56 min 19 sec) 
Heartbeat CPU 0 instructions: 293000000 cycles: 638236750 heartbeat IPC: 0.679215 cumulative IPC: 0.46173 (Simulation time: 0 hr 56 min 28 sec) 
Heartbeat CPU 0 instructions: 294000000 cycles: 640856201 heartbeat IPC: 0.381759 cumulative IPC: 0.46139 (Simulation time: 0 hr 56 min 41 sec) 
Heartbeat CPU 0 instructions: 295000003 cycles: 642140787 heartbeat IPC: 0.778463 cumulative IPC: 0.46205 (Simulation time: 0 hr 56 min 50 sec) 
Heartbeat CPU 0 instructions: 296000002 cycles: 644640959 heartbeat IPC: 0.399972 cumulative IPC: 0.461799 (Simulation time: 0 hr 57 min 2 sec) 
Heartbeat CPU 0 instructions: 297000000 cycles: 647337151 heartbeat IPC: 0.370893 cumulative IPC: 0.461405 (Simulation time: 0 hr 57 min 16 sec) 
Heartbeat CPU 0 instructions: 298000000 cycles: 648786483 heartbeat IPC: 0.689973 cumulative IPC: 0.461937 (Simulation time: 0 hr 57 min 25 sec) 
Heartbeat CPU 0 instructions: 299000001 cycles: 651263115 heartbeat IPC: 0.403775 cumulative IPC: 0.461707 (Simulation time: 0 hr 57 min 38 sec) 
Heartbeat CPU 0 instructions: 300000002 cycles: 652550112 heartbeat IPC: 0.777003 cumulative IPC: 0.462353 (Simulation time: 0 hr 57 min 47 sec) 
Heartbeat CPU 0 instructions: 301000003 cycles: 655078417 heartbeat IPC: 0.395522 cumulative IPC: 0.462085 (Simulation time: 0 hr 57 min 59 sec) 
Heartbeat CPU 0 instructions: 302000002 cycles: 656496347 heartbeat IPC: 0.705253 cumulative IPC: 0.462631 (Simulation time: 0 hr 58 min 9 sec) 
Heartbeat CPU 0 instructions: 303000002 cycles: 658834305 heartbeat IPC: 0.427724 cumulative IPC: 0.462503 (Simulation time: 0 hr 58 min 21 sec) 
Heartbeat CPU 0 instructions: 304000002 cycles: 662871601 heartbeat IPC: 0.247691 cumulative IPC: 0.461142 (Simulation time: 0 hr 58 min 37 sec) 
Heartbeat CPU 0 instructions: 305000000 cycles: 664233802 heartbeat IPC: 0.734105 cumulative IPC: 0.461724 (Simulation time: 0 hr 58 min 47 sec) 
Heartbeat CPU 0 instructions: 306000002 cycles: 666248964 heartbeat IPC: 0.496239 cumulative IPC: 0.461833 (Simulation time: 0 hr 58 min 58 sec) 
Heartbeat CPU 0 instructions: 307000002 cycles: 670023481 heartbeat IPC: 0.264935 cumulative IPC: 0.46068 (Simulation time: 0 hr 59 min 14 sec) 
Heartbeat CPU 0 instructions: 308000000 cycles: 673316846 heartbeat IPC: 0.30364 cumulative IPC: 0.459882 (Simulation time: 0 hr 59 min 29 sec) 
Heartbeat CPU 0 instructions: 309000001 cycles: 675037054 heartbeat IPC: 0.581326 cumulative IPC: 0.460203 (Simulation time: 0 hr 59 min 39 sec) 
Heartbeat CPU 0 instructions: 310000002 cycles: 677633596 heartbeat IPC: 0.385128 cumulative IPC: 0.459905 (Simulation time: 0 hr 59 min 52 sec) 
Heartbeat CPU 0 instructions: 311000002 cycles: 679121391 heartbeat IPC: 0.672136 cumulative IPC: 0.460388 (Simulation time: 1 hr 0 min 2 sec) 
Heartbeat CPU 0 instructions: 312000002 cycles: 680620506 heartbeat IPC: 0.66706 cumulative IPC: 0.46086 (Simulation time: 1 hr 0 min 12 sec) 
Heartbeat CPU 0 instructions: 313000002 cycles: 683347099 heartbeat IPC: 0.366758 cumulative IPC: 0.46047 (Simulation time: 1 hr 0 min 25 sec) 
Heartbeat CPU 0 instructions: 314000002 cycles: 687213597 heartbeat IPC: 0.258632 cumulative IPC: 0.459291 (Simulation time: 1 hr 0 min 42 sec) 
Heartbeat CPU 0 instructions: 315000001 cycles: 691050156 heartbeat IPC: 0.26065 cumulative IPC: 0.458147 (Simulation time: 1 hr 0 min 58 sec) 
Heartbeat CPU 0 instructions: 316000000 cycles: 694214524 heartbeat IPC: 0.316019 cumulative IPC: 0.457474 (Simulation time: 1 hr 1 min 12 sec) 
Heartbeat CPU 0 instructions: 317000002 cycles: 695659104 heartbeat IPC: 0.692244 cumulative IPC: 0.45798 (Simulation time: 1 hr 1 min 22 sec) 
Heartbeat CPU 0 instructions: 318000000 cycles: 698667643 heartbeat IPC: 0.332387 cumulative IPC: 0.457419 (Simulation time: 1 hr 1 min 35 sec) 
Heartbeat CPU 0 instructions: 319000000 cycles: 702551544 heartbeat IPC: 0.257473 cumulative IPC: 0.456272 (Simulation time: 1 hr 1 min 52 sec) 
Heartbeat CPU 0 instructions: 320000002 cycles: 705096609 heartbeat IPC: 0.392918 cumulative IPC: 0.456035 (Simulation time: 1 hr 2 min 5 sec) 
Heartbeat CPU 0 instructions: 321000002 cycles: 706472959 heartbeat IPC: 0.726559 cumulative IPC: 0.456582 (Simulation time: 1 hr 2 min 14 sec) 
Heartbeat CPU 0 instructions: 322000002 cycles: 710194924 heartbeat IPC: 0.268675 cumulative IPC: 0.455561 (Simulation time: 1 hr 2 min 31 sec) 
Heartbeat CPU 0 instructions: 323000000 cycles: 711467424 heartbeat IPC: 0.785853 cumulative IPC: 0.456173 (Simulation time: 1 hr 2 min 40 sec) 
Heartbeat CPU 0 instructions: 324000001 cycles: 713276243 heartbeat IPC: 0.552847 cumulative IPC: 0.456427 (Simulation time: 1 hr 2 min 51 sec) 
Heartbeat CPU 0 instructions: 325000001 cycles: 715502293 heartbeat IPC: 0.449226 cumulative IPC: 0.456404 (Simulation time: 1 hr 3 min 2 sec) 
Heartbeat CPU 0 instructions: 326000000 cycles: 717273328 heartbeat IPC: 0.564641 cumulative IPC: 0.456681 (Simulation time: 1 hr 3 min 12 sec) 
Heartbeat CPU 0 instructions: 327000002 cycles: 720992017 heartbeat IPC: 0.268913 cumulative IPC: 0.455677 (Simulation time: 1 hr 3 min 29 sec) 
Heartbeat CPU 0 instructions: 328000001 cycles: 723551355 heartbeat IPC: 0.390726 cumulative IPC: 0.455439 (Simulation time: 1 hr 3 min 41 sec) 
Heartbeat CPU 0 instructions: 329000003 cycles: 725587022 heartbeat IPC: 0.49124 cumulative IPC: 0.455543 (Simulation time: 1 hr 3 min 52 sec) 
Heartbeat CPU 0 instructions: 330000000 cycles: 728916096 heartbeat IPC: 0.300383 cumulative IPC: 0.454809 (Simulation time: 1 hr 4 min 6 sec) 
Heartbeat CPU 0 instructions: 331000001 cycles: 730638706 heartbeat IPC: 0.580515 cumulative IPC: 0.455116 (Simulation time: 1 hr 4 min 17 sec) 
Heartbeat CPU 0 instructions: 332000001 cycles: 731959016 heartbeat IPC: 0.757398 cumulative IPC: 0.455681 (Simulation time: 1 hr 4 min 26 sec) 
Heartbeat CPU 0 instructions: 333000000 cycles: 734783936 heartbeat IPC: 0.353992 cumulative IPC: 0.455276 (Simulation time: 1 hr 4 min 40 sec) 
Heartbeat CPU 0 instructions: 334000000 cycles: 736220078 heartbeat IPC: 0.69631 cumulative IPC: 0.455763 (Simulation time: 1 hr 4 min 50 sec) 
Heartbeat CPU 0 instructions: 335000000 cycles: 737546155 heartbeat IPC: 0.754104 cumulative IPC: 0.456319 (Simulation time: 1 hr 4 min 59 sec) 
Heartbeat CPU 0 instructions: 336000002 cycles: 740081379 heartbeat IPC: 0.394443 cumulative IPC: 0.456099 (Simulation time: 1 hr 5 min 12 sec) 
Heartbeat CPU 0 instructions: 337000000 cycles: 741900322 heartbeat IPC: 0.549769 cumulative IPC: 0.456337 (Simulation time: 1 hr 5 min 23 sec) 
Heartbeat CPU 0 instructions: 338000003 cycles: 744902402 heartbeat IPC: 0.333103 cumulative IPC: 0.455823 (Simulation time: 1 hr 5 min 36 sec) 
Heartbeat CPU 0 instructions: 339000000 cycles: 746684990 heartbeat IPC: 0.56098 cumulative IPC: 0.456083 (Simulation time: 1 hr 5 min 46 sec) 
Heartbeat CPU 0 instructions: 340000001 cycles: 748335124 heartbeat IPC: 0.606012 cumulative IPC: 0.456425 (Simulation time: 1 hr 5 min 56 sec) 
Heartbeat CPU 0 instructions: 341000000 cycles: 752055152 heartbeat IPC: 0.268815 cumulative IPC: 0.455464 (Simulation time: 1 hr 6 min 13 sec) 
Heartbeat CPU 0 instructions: 342000001 cycles: 756030317 heartbeat IPC: 0.251562 cumulative IPC: 0.454355 (Simulation time: 1 hr 6 min 29 sec) 
Heartbeat CPU 0 instructions: 343000000 cycles: 759825988 heartbeat IPC: 0.263458 cumulative IPC: 0.453369 (Simulation time: 1 hr 6 min 46 sec) 
Heartbeat CPU 0 instructions: 344000003 cycles: 763597229 heartbeat IPC: 0.265166 cumulative IPC: 0.452407 (Simulation time: 1 hr 7 min 3 sec) 
Heartbeat CPU 0 instructions: 345000000 cycles: 765040962 heartbeat IPC: 0.692647 cumulative IPC: 0.452876 (Simulation time: 1 hr 7 min 13 sec) 
Heartbeat CPU 0 instructions: 346000000 cycles: 766273160 heartbeat IPC: 0.811558 cumulative IPC: 0.453473 (Simulation time: 1 hr 7 min 23 sec) 
Heartbeat CPU 0 instructions: 347000001 cycles: 768580033 heartbeat IPC: 0.433488 cumulative IPC: 0.453411 (Simulation time: 1 hr 7 min 35 sec) 
Heartbeat CPU 0 instructions: 348000001 cycles: 771746153 heartbeat IPC: 0.315844 cumulative IPC: 0.452827 (Simulation time: 1 hr 7 min 49 sec) 
Heartbeat CPU 0 instructions: 349000002 cycles: 773140307 heartbeat IPC: 0.717282 cumulative IPC: 0.45332 (Simulation time: 1 hr 7 min 59 sec) 
Heartbeat CPU 0 instructions: 350000000 cycles: 776015413 heartbeat IPC: 0.347813 cumulative IPC: 0.452916 (Simulation time: 1 hr 8 min 12 sec) 
Heartbeat CPU 0 instructions: 351000002 cycles: 779981957 heartbeat IPC: 0.252109 cumulative IPC: 0.451861 (Simulation time: 1 hr 8 min 29 sec) 
Heartbeat CPU 0 instructions: 352000000 cycles: 783787026 heartbeat IPC: 0.262807 cumulative IPC: 0.450912 (Simulation time: 1 hr 8 min 46 sec) 
Heartbeat CPU 0 instructions: 353000002 cycles: 785794448 heartbeat IPC: 0.498152 cumulative IPC: 0.451037 (Simulation time: 1 hr 8 min 57 sec) 
Heartbeat CPU 0 instructions: 354000002 cycles: 787294380 heartbeat IPC: 0.666697 cumulative IPC: 0.451461 (Simulation time: 1 hr 9 min 7 sec) 
Heartbeat CPU 0 instructions: 355000001 cycles: 789489113 heartbeat IPC: 0.455636 cumulative IPC: 0.451473 (Simulation time: 1 hr 9 min 19 sec) 
Heartbeat CPU 0 instructions: 356000000 cycles: 790997708 heartbeat IPC: 0.662868 cumulative IPC: 0.45189 (Simulation time: 1 hr 9 min 29 sec) 
Heartbeat CPU 0 instructions: 357000000 cycles: 792303144 heartbeat IPC: 0.766028 cumulative IPC: 0.452425 (Simulation time: 1 hr 9 min 38 sec) 
Heartbeat CPU 0 instructions: 358000000 cycles: 796043697 heartbeat IPC: 0.26734 cumulative IPC: 0.451526 (Simulation time: 1 hr 9 min 54 sec) 
Heartbeat CPU 0 instructions: 359000002 cycles: 799839522 heartbeat IPC: 0.263448 cumulative IPC: 0.450604 (Simulation time: 1 hr 10 min 11 sec) 
Heartbeat CPU 0 instructions: 360000000 cycles: 802571443 heartbeat IPC: 0.366042 cumulative IPC: 0.450307 (Simulation time: 1 hr 10 min 25 sec) 
Heartbeat CPU 0 instructions: 361000000 cycles: 803833153 heartbeat IPC: 0.792575 cumulative IPC: 0.450862 (Simulation time: 1 hr 10 min 34 sec) 
Heartbeat CPU 0 instructions: 362000001 cycles: 806398047 heartbeat IPC: 0.38988 cumulative IPC: 0.450662 (Simulation time: 1 hr 10 min 46 sec) 
Heartbeat CPU 0 instructions: 363000000 cycles: 807788411 heartbeat IPC: 0.719235 cumulative IPC: 0.451139 (Simulation time: 1 hr 10 min 56 sec) 
Heartbeat CPU 0 instructions: 364000001 cycles: 810285479 heartbeat IPC: 0.40047 cumulative IPC: 0.450978 (Simulation time: 1 hr 11 min 8 sec) 
Heartbeat CPU 0 instructions: 365000002 cycles: 814082031 heartbeat IPC: 0.263397 cumulative IPC: 0.450075 (Simulation time: 1 hr 11 min 25 sec) 
Heartbeat CPU 0 instructions: 366000001 cycles: 815664744 heartbeat IPC: 0.631826 cumulative IPC: 0.450439 (Simulation time: 1 hr 11 min 35 sec) 
Heartbeat CPU 0 instructions: 367000002 cycles: 817228991 heartbeat IPC: 0.639286 cumulative IPC: 0.450812 (Simulation time: 1 hr 11 min 44 sec) 
Heartbeat CPU 0 instructions: 368000001 cycles: 821121217 heartbeat IPC: 0.256922 cumulative IPC: 0.449864 (Simulation time: 1 hr 12 min 2 sec) 
Heartbeat CPU 0 instructions: 369000000 cycles: 822676843 heartbeat IPC: 0.642827 cumulative IPC: 0.45024 (Simulation time: 1 hr 12 min 11 sec) 
Heartbeat CPU 0 instructions: 370000001 cycles: 824883144 heartbeat IPC: 0.453248 cumulative IPC: 0.450248 (Simulation time: 1 hr 12 min 23 sec) 
Heartbeat CPU 0 instructions: 371000003 cycles: 826334103 heartbeat IPC: 0.689201 cumulative IPC: 0.450681 (Simulation time: 1 hr 12 min 32 sec) 
Heartbeat CPU 0 instructions: 372000003 cycles: 827842001 heartbeat IPC: 0.663175 cumulative IPC: 0.45108 (Simulation time: 1 hr 12 min 42 sec) 
Heartbeat CPU 0 instructions: 373000000 cycles: 830909650 heartbeat IPC: 0.325982 cumulative IPC: 0.450604 (Simulation time: 1 hr 12 min 56 sec) 
Heartbeat CPU 0 instructions: 374000000 cycles: 832474417 heartbeat IPC: 0.639073 cumulative IPC: 0.450969 (Simulation time: 1 hr 13 min 6 sec) 
Heartbeat CPU 0 instructions: 375000003 cycles: 834575746 heartbeat IPC: 0.475891 cumulative IPC: 0.451034 (Simulation time: 1 hr 13 min 17 sec) 
Heartbeat CPU 0 instructions: 376000000 cycles: 838620589 heartbeat IPC: 0.247228 cumulative IPC: 0.450021 (Simulation time: 1 hr 13 min 34 sec) 
Heartbeat CPU 0 instructions: 377000000 cycles: 840864671 heartbeat IPC: 0.445617 cumulative IPC: 0.450008 (Simulation time: 1 hr 13 min 46 sec) 
Heartbeat CPU 0 instructions: 378000001 cycles: 842128436 heartbeat IPC: 0.791287 cumulative IPC: 0.450536 (Simulation time: 1 hr 13 min 55 sec) 
Heartbeat CPU 0 instructions: 379000002 cycles: 843764219 heartbeat IPC: 0.611329 cumulative IPC: 0.450858 (Simulation time: 1 hr 14 min 6 sec) 
Heartbeat CPU 0 instructions: 380000002 cycles: 847440591 heartbeat IPC: 0.272007 cumulative IPC: 0.450058 (Simulation time: 1 hr 14 min 22 sec) 
Heartbeat CPU 0 instructions: 381000001 cycles: 849849370 heartbeat IPC: 0.415148 cumulative IPC: 0.449956 (Simulation time: 1 hr 14 min 34 sec) 
Heartbeat CPU 0 instructions: 382000000 cycles: 851057981 heartbeat IPC: 0.827395 cumulative IPC: 0.450509 (Simulation time: 1 hr 14 min 43 sec) 
Heartbeat CPU 0 instructions: 383000001 cycles: 854421505 heartbeat IPC: 0.297308 cumulative IPC: 0.449887 (Simulation time: 1 hr 14 min 59 sec) 
Heartbeat CPU 0 instructions: 384000002 cycles: 856145456 heartbeat IPC: 0.580063 cumulative IPC: 0.450157 (Simulation time: 1 hr 15 min 9 sec) 
Heartbeat CPU 0 instructions: 385000000 cycles: 857803362 heartbeat IPC: 0.603169 cumulative IPC: 0.450462 (Simulation time: 1 hr 15 min 19 sec) 
Heartbeat CPU 0 instructions: 386000001 cycles: 860111470 heartbeat IPC: 0.433256 cumulative IPC: 0.450414 (Simulation time: 1 hr 15 min 31 sec) 
Heartbeat CPU 0 instructions: 387000000 cycles: 861512802 heartbeat IPC: 0.713606 cumulative IPC: 0.450855 (Simulation time: 1 hr 15 min 41 sec) 
Heartbeat CPU 0 instructions: 388000000 cycles: 864387717 heartbeat IPC: 0.347836 cumulative IPC: 0.450502 (Simulation time: 1 hr 15 min 54 sec) 
Heartbeat CPU 0 instructions: 389000000 cycles: 868221328 heartbeat IPC: 0.260851 cumulative IPC: 0.44964 (Simulation time: 1 hr 16 min 11 sec) 
Heartbeat CPU 0 instructions: 390000002 cycles: 870704890 heartbeat IPC: 0.402648 cumulative IPC: 0.449502 (Simulation time: 1 hr 16 min 24 sec) 
Heartbeat CPU 0 instructions: 391000000 cycles: 872239266 heartbeat IPC: 0.651729 cumulative IPC: 0.449868 (Simulation time: 1 hr 16 min 34 sec) 
Heartbeat CPU 0 instructions: 392000000 cycles: 874119286 heartbeat IPC: 0.531909 cumulative IPC: 0.45005 (Simulation time: 1 hr 16 min 45 sec) 
Heartbeat CPU 0 instructions: 393000002 cycles: 876532852 heartbeat IPC: 0.414326 cumulative IPC: 0.449949 (Simulation time: 1 hr 16 min 57 sec) 
Heartbeat CPU 0 instructions: 394000001 cycles: 878001720 heartbeat IPC: 0.680796 cumulative IPC: 0.450346 (Simulation time: 1 hr 17 min 7 sec) 
Heartbeat CPU 0 instructions: 395000000 cycles: 881229147 heartbeat IPC: 0.309844 cumulative IPC: 0.449816 (Simulation time: 1 hr 17 min 21 sec) 
Heartbeat CPU 0 instructions: 396000000 cycles: 883812822 heartbeat IPC: 0.387046 cumulative IPC: 0.449627 (Simulation time: 1 hr 17 min 34 sec) 
Heartbeat CPU 0 instructions: 397000001 cycles: 885345482 heartbeat IPC: 0.652461 cumulative IPC: 0.449989 (Simulation time: 1 hr 17 min 43 sec) 
Heartbeat CPU 0 instructions: 398000000 cycles: 888397793 heartbeat IPC: 0.32762 cumulative IPC: 0.449556 (Simulation time: 1 hr 17 min 57 sec) 
Heartbeat CPU 0 instructions: 399000000 cycles: 892117622 heartbeat IPC: 0.26883 cumulative IPC: 0.448781 (Simulation time: 1 hr 18 min 14 sec) 
Heartbeat CPU 0 instructions: 400000002 cycles: 895903335 heartbeat IPC: 0.264152 cumulative IPC: 0.447978 (Simulation time: 1 hr 18 min 31 sec) 
Heartbeat CPU 0 instructions: 401000002 cycles: 897109964 heartbeat IPC: 0.828755 cumulative IPC: 0.448505 (Simulation time: 1 hr 18 min 40 sec) 
Heartbeat CPU 0 instructions: 402000000 cycles: 898676384 heartbeat IPC: 0.638397 cumulative IPC: 0.448845 (Simulation time: 1 hr 18 min 50 sec) 
Heartbeat CPU 0 instructions: 403000000 cycles: 900800471 heartbeat IPC: 0.470791 cumulative IPC: 0.448899 (Simulation time: 1 hr 19 min 1 sec) 
Heartbeat CPU 0 instructions: 404000001 cycles: 902007850 heartbeat IPC: 0.828241 cumulative IPC: 0.449421 (Simulation time: 1 hr 19 min 11 sec) 
Heartbeat CPU 0 instructions: 405000000 cycles: 904397830 heartbeat IPC: 0.418413 cumulative IPC: 0.449337 (Simulation time: 1 hr 19 min 23 sec) 
Heartbeat CPU 0 instructions: 406000000 cycles: 905553433 heartbeat IPC: 0.865349 cumulative IPC: 0.449883 (Simulation time: 1 hr 19 min 32 sec) 
Heartbeat CPU 0 instructions: 407000000 cycles: 907834102 heartbeat IPC: 0.438468 cumulative IPC: 0.449853 (Simulation time: 1 hr 19 min 44 sec) 
Heartbeat CPU 0 instructions: 408000001 cycles: 909166944 heartbeat IPC: 0.750277 cumulative IPC: 0.450306 (Simulation time: 1 hr 19 min 54 sec) 
Heartbeat CPU 0 instructions: 409000001 cycles: 911492515 heartbeat IPC: 0.430002 cumulative IPC: 0.450253 (Simulation time: 1 hr 20 min 5 sec) 
Heartbeat CPU 0 instructions: 410000000 cycles: 914832602 heartbeat IPC: 0.299393 cumulative IPC: 0.449687 (Simulation time: 1 hr 20 min 20 sec) 
Heartbeat CPU 0 instructions: 411000001 cycles: 916419787 heartbeat IPC: 0.630047 cumulative IPC: 0.450008 (Simulation time: 1 hr 20 min 30 sec) 
Heartbeat CPU 0 instructions: 412000001 cycles: 917883611 heartbeat IPC: 0.683142 cumulative IPC: 0.45039 (Simulation time: 1 hr 20 min 40 sec) 
Heartbeat CPU 0 instructions: 413000001 cycles: 920623824 heartbeat IPC: 0.364935 cumulative IPC: 0.450129 (Simulation time: 1 hr 20 min 53 sec) 
Heartbeat CPU 0 instructions: 414000002 cycles: 921953633 heartbeat IPC: 0.751988 cumulative IPC: 0.450576 (Simulation time: 1 hr 21 min 2 sec) 
Heartbeat CPU 0 instructions: 415000003 cycles: 924627820 heartbeat IPC: 0.373946 cumulative IPC: 0.450349 (Simulation time: 1 hr 21 min 15 sec) 
Heartbeat CPU 0 instructions: 416000001 cycles: 925865648 heartbeat IPC: 0.807865 cumulative IPC: 0.45084 (Simulation time: 1 hr 21 min 24 sec) 
Heartbeat CPU 0 instructions: 417000000 cycles: 927614474 heartbeat IPC: 0.571812 cumulative IPC: 0.451074 (Simulation time: 1 hr 21 min 35 sec) 
Heartbeat CPU 0 instructions: 418000000 cycles: 930960350 heartbeat IPC: 0.298875 cumulative IPC: 0.450512 (Simulation time: 1 hr 21 min 49 sec) 
Heartbeat CPU 0 instructions: 419000003 cycles: 932125412 heartbeat IPC: 0.858326 cumulative IPC: 0.451036 (Simulation time: 1 hr 21 min 59 sec) 
Heartbeat CPU 0 instructions: 420000002 cycles: 934431876 heartbeat IPC: 0.433564 cumulative IPC: 0.450992 (Simulation time: 1 hr 22 min 11 sec) 
Heartbeat CPU 0 instructions: 421000001 cycles: 938372507 heartbeat IPC: 0.253766 cumulative IPC: 0.450141 (Simulation time: 1 hr 22 min 28 sec) 
Heartbeat CPU 0 instructions: 422000003 cycles: 940107072 heartbeat IPC: 0.576515 cumulative IPC: 0.45038 (Simulation time: 1 hr 22 min 38 sec) 
Heartbeat CPU 0 instructions: 423000002 cycles: 942059122 heartbeat IPC: 0.512281 cumulative IPC: 0.450512 (Simulation time: 1 hr 22 min 48 sec) 
Heartbeat CPU 0 instructions: 424000001 cycles: 944754452 heartbeat IPC: 0.371012 cumulative IPC: 0.450279 (Simulation time: 1 hr 23 min 1 sec) 
Heartbeat CPU 0 instructions: 425000001 cycles: 945959295 heartbeat IPC: 0.829984 cumulative IPC: 0.450776 (Simulation time: 1 hr 23 min 10 sec) 
Heartbeat CPU 0 instructions: 426000003 cycles: 947745163 heartbeat IPC: 0.559953 cumulative IPC: 0.450987 (Simulation time: 1 hr 23 min 21 sec) 
Heartbeat CPU 0 instructions: 427000001 cycles: 951363541 heartbeat IPC: 0.276366 cumulative IPC: 0.450305 (Simulation time: 1 hr 23 min 37 sec) 
Heartbeat CPU 0 instructions: 428000003 cycles: 955298265 heartbeat IPC: 0.254148 cumulative IPC: 0.449475 (Simulation time: 1 hr 23 min 54 sec) 
Heartbeat CPU 0 instructions: 429000000 cycles: 958066837 heartbeat IPC: 0.361196 cumulative IPC: 0.449213 (Simulation time: 1 hr 24 min 7 sec) 
Heartbeat CPU 0 instructions: 430000003 cycles: 959422782 heartbeat IPC: 0.737495 cumulative IPC: 0.449631 (Simulation time: 1 hr 24 min 16 sec) 
Heartbeat CPU 0 instructions: 431000000 cycles: 961927496 heartbeat IPC: 0.399246 cumulative IPC: 0.449497 (Simulation time: 1 hr 24 min 29 sec) 
Heartbeat CPU 0 instructions: 432000000 cycles: 963085408 heartbeat IPC: 0.863623 cumulative IPC: 0.450008 (Simulation time: 1 hr 24 min 38 sec) 
Heartbeat CPU 0 instructions: 433000003 cycles: 965108841 heartbeat IPC: 0.494211 cumulative IPC: 0.450103 (Simulation time: 1 hr 24 min 49 sec) 
Heartbeat CPU 0 instructions: 434000000 cycles: 966689455 heartbeat IPC: 0.632664 cumulative IPC: 0.45041 (Simulation time: 1 hr 24 min 59 sec) 
Heartbeat CPU 0 instructions: 435000001 cycles: 968083419 heartbeat IPC: 0.717379 cumulative IPC: 0.450805 (Simulation time: 1 hr 25 min 9 sec) 
Heartbeat CPU 0 instructions: 436000002 cycles: 971806354 heartbeat IPC: 0.268606 cumulative IPC: 0.450088 (Simulation time: 1 hr 25 min 25 sec) 
Heartbeat CPU 0 instructions: 437000003 cycles: 974421490 heartbeat IPC: 0.38239 cumulative IPC: 0.449901 (Simulation time: 1 hr 25 min 39 sec) 
Heartbeat CPU 0 instructions: 438000002 cycles: 975550121 heartbeat IPC: 0.886028 cumulative IPC: 0.450419 (Simulation time: 1 hr 25 min 48 sec) 
Heartbeat CPU 0 instructions: 439000001 cycles: 978080914 heartbeat IPC: 0.395133 cumulative IPC: 0.450272 (Simulation time: 1 hr 26 min 0 sec) 
Heartbeat CPU 0 instructions: 440000000 cycles: 981847867 heartbeat IPC: 0.265466 cumulative IPC: 0.449545 (Simulation time: 1 hr 26 min 17 sec) 
Heartbeat CPU 0 instructions: 441000001 cycles: 984702200 heartbeat IPC: 0.350345 cumulative IPC: 0.44925 (Simulation time: 1 hr 26 min 31 sec) 
Heartbeat CPU 0 instructions: 442000002 cycles: 986013606 heartbeat IPC: 0.762541 cumulative IPC: 0.449677 (Simulation time: 1 hr 26 min 41 sec) 
Heartbeat CPU 0 instructions: 443000002 cycles: 988288027 heartbeat IPC: 0.439672 cumulative IPC: 0.449654 (Simulation time: 1 hr 26 min 53 sec) 
Heartbeat CPU 0 instructions: 444000001 cycles: 991286189 heartbeat IPC: 0.333537 cumulative IPC: 0.449293 (Simulation time: 1 hr 27 min 7 sec) 
Heartbeat CPU 0 instructions: 445000001 cycles: 992658644 heartbeat IPC: 0.728621 cumulative IPC: 0.449689 (Simulation time: 1 hr 27 min 16 sec) 
Heartbeat CPU 0 instructions: 446000003 cycles: 995208552 heartbeat IPC: 0.392172 cumulative IPC: 0.449538 (Simulation time: 1 hr 27 min 29 sec) 
Heartbeat CPU 0 instructions: 447000000 cycles: 997991666 heartbeat IPC: 0.359309 cumulative IPC: 0.44928 (Simulation time: 1 hr 27 min 43 sec) 
Heartbeat CPU 0 instructions: 448000002 cycles: 999481553 heartbeat IPC: 0.671193 cumulative IPC: 0.449619 (Simulation time: 1 hr 27 min 53 sec) 
Heartbeat CPU 0 instructions: 449000000 cycles: 1000763451 heartbeat IPC: 0.780092 cumulative IPC: 0.450054 (Simulation time: 1 hr 28 min 3 sec) 
Heartbeat CPU 0 instructions: 450000000 cycles: 1003547836 heartbeat IPC: 0.359146 cumulative IPC: 0.449795 (Simulation time: 1 hr 28 min 16 sec) 
Heartbeat CPU 0 instructions: 451000000 cycles: 1004753300 heartbeat IPC: 0.829556 cumulative IPC: 0.450262 (Simulation time: 1 hr 28 min 25 sec) 
Heartbeat CPU 0 instructions: 452000003 cycles: 1007239597 heartbeat IPC: 0.402206 cumulative IPC: 0.450141 (Simulation time: 1 hr 28 min 37 sec) 
Heartbeat CPU 0 instructions: 453000003 cycles: 1008568253 heartbeat IPC: 0.75264 cumulative IPC: 0.450549 (Simulation time: 1 hr 28 min 47 sec) 
Heartbeat CPU 0 instructions: 454000000 cycles: 1010428707 heartbeat IPC: 0.537502 cumulative IPC: 0.450714 (Simulation time: 1 hr 28 min 57 sec) 
Heartbeat CPU 0 instructions: 455000001 cycles: 1012930376 heartbeat IPC: 0.399734 cumulative IPC: 0.450585 (Simulation time: 1 hr 29 min 10 sec) 
Heartbeat CPU 0 instructions: 456000003 cycles: 1014228493 heartbeat IPC: 0.770348 cumulative IPC: 0.451004 (Simulation time: 1 hr 29 min 20 sec) 
Heartbeat CPU 0 instructions: 457000000 cycles: 1015892802 heartbeat IPC: 0.600848 cumulative IPC: 0.451256 (Simulation time: 1 hr 29 min 29 sec) 
Heartbeat CPU 0 instructions: 458000001 cycles: 1018715552 heartbeat IPC: 0.354265 cumulative IPC: 0.45098 (Simulation time: 1 hr 29 min 43 sec) 
Heartbeat CPU 0 instructions: 459000000 cycles: 1020261979 heartbeat IPC: 0.646651 cumulative IPC: 0.451285 (Simulation time: 1 hr 29 min 53 sec) 
Heartbeat CPU 0 instructions: 460000001 cycles: 1021591634 heartbeat IPC: 0.752076 cumulative IPC: 0.451686 (Simulation time: 1 hr 30 min 2 sec) 
Heartbeat CPU 0 instructions: 461000002 cycles: 1024146242 heartbeat IPC: 0.39145 cumulative IPC: 0.451532 (Simulation time: 1 hr 30 min 15 sec) 
Heartbeat CPU 0 instructions: 462000000 cycles: 1025647420 heartbeat IPC: 0.666142 cumulative IPC: 0.451854 (Simulation time: 1 hr 30 min 25 sec) 
Heartbeat CPU 0 instructions: 463000002 cycles: 1027351769 heartbeat IPC: 0.586735 cumulative IPC: 0.452083 (Simulation time: 1 hr 30 min 35 sec) 
Heartbeat CPU 0 instructions: 464000002 cycles: 1029781110 heartbeat IPC: 0.411634 cumulative IPC: 0.451986 (Simulation time: 1 hr 30 min 47 sec) 
Heartbeat CPU 0 instructions: 465000001 cycles: 1031112714 heartbeat IPC: 0.750973 cumulative IPC: 0.452381 (Simulation time: 1 hr 30 min 56 sec) 
Heartbeat CPU 0 instructions: 466000002 cycles: 1033759693 heartbeat IPC: 0.37779 cumulative IPC: 0.452186 (Simulation time: 1 hr 31 min 9 sec) 
Heartbeat CPU 0 instructions: 467000000 cycles: 1035401350 heartbeat IPC: 0.609139 cumulative IPC: 0.452441 (Simulation time: 1 hr 31 min 19 sec) 
Heartbeat CPU 0 instructions: 468000002 cycles: 1036844270 heartbeat IPC: 0.69304 cumulative IPC: 0.452784 (Simulation time: 1 hr 31 min 29 sec) 
Heartbeat CPU 0 instructions: 469000001 cycles: 1040613236 heartbeat IPC: 0.265325 cumulative IPC: 0.452088 (Simulation time: 1 hr 31 min 45 sec) 
Heartbeat CPU 0 instructions: 470000000 cycles: 1042074207 heartbeat IPC: 0.684476 cumulative IPC: 0.452422 (Simulation time: 1 hr 31 min 55 sec) 
Heartbeat CPU 0 instructions: 471000002 cycles: 1044138871 heartbeat IPC: 0.484341 cumulative IPC: 0.452487 (Simulation time: 1 hr 32 min 5 sec) 
Heartbeat CPU 0 instructions: 472000001 cycles: 1047777236 heartbeat IPC: 0.274848 cumulative IPC: 0.451855 (Simulation time: 1 hr 32 min 22 sec) 
Heartbeat CPU 0 instructions: 473000000 cycles: 1051715362 heartbeat IPC: 0.253928 cumulative IPC: 0.451095 (Simulation time: 1 hr 32 min 38 sec) 
Heartbeat CPU 0 instructions: 474000000 cycles: 1055661927 heartbeat IPC: 0.253385 cumulative IPC: 0.450338 (Simulation time: 1 hr 32 min 55 sec) 
Heartbeat CPU 0 instructions: 475000000 cycles: 1059391406 heartbeat IPC: 0.268134 cumulative IPC: 0.449681 (Simulation time: 1 hr 33 min 12 sec) 
Heartbeat CPU 0 instructions: 476000000 cycles: 1062309600 heartbeat IPC: 0.342678 cumulative IPC: 0.44938 (Simulation time: 1 hr 33 min 26 sec) 
Heartbeat CPU 0 instructions: 477000000 cycles: 1063880328 heartbeat IPC: 0.636647 cumulative IPC: 0.449663 (Simulation time: 1 hr 33 min 35 sec) 
Heartbeat CPU 0 instructions: 478000002 cycles: 1066522196 heartbeat IPC: 0.378521 cumulative IPC: 0.449482 (Simulation time: 1 hr 33 min 48 sec) 
Heartbeat CPU 0 instructions: 479000001 cycles: 1067690759 heartbeat IPC: 0.855751 cumulative IPC: 0.449938 (Simulation time: 1 hr 33 min 57 sec) 
Heartbeat CPU 0 instructions: 480000000 cycles: 1069440639 heartbeat IPC: 0.571467 cumulative IPC: 0.450141 (Simulation time: 1 hr 34 min 8 sec) 
Heartbeat CPU 0 instructions: 481000002 cycles: 1071356746 heartbeat IPC: 0.521893 cumulative IPC: 0.450273 (Simulation time: 1 hr 34 min 19 sec) 
Heartbeat CPU 0 instructions: 482000002 cycles: 1073078846 heartbeat IPC: 0.580686 cumulative IPC: 0.450487 (Simulation time: 1 hr 34 min 29 sec) 
Heartbeat CPU 0 instructions: 483000000 cycles: 1076412052 heartbeat IPC: 0.300011 cumulative IPC: 0.45001 (Simulation time: 1 hr 34 min 44 sec) 
Heartbeat CPU 0 instructions: 484000000 cycles: 1078543582 heartbeat IPC: 0.469147 cumulative IPC: 0.450049 (Simulation time: 1 hr 34 min 55 sec) 
Heartbeat CPU 0 instructions: 485000003 cycles: 1079811598 heartbeat IPC: 0.788636 cumulative IPC: 0.450456 (Simulation time: 1 hr 35 min 5 sec) 
Heartbeat CPU 0 instructions: 486000003 cycles: 1081984406 heartbeat IPC: 0.460234 cumulative IPC: 0.450476 (Simulation time: 1 hr 35 min 17 sec) 
Heartbeat CPU 0 instructions: 487000001 cycles: 1085869436 heartbeat IPC: 0.257398 cumulative IPC: 0.449769 (Simulation time: 1 hr 35 min 33 sec) 
Heartbeat CPU 0 instructions: 488000000 cycles: 1088931709 heartbeat IPC: 0.326554 cumulative IPC: 0.449414 (Simulation time: 1 hr 35 min 47 sec) 
Heartbeat CPU 0 instructions: 489000001 cycles: 1090291222 heartbeat IPC: 0.735558 cumulative IPC: 0.449779 (Simulation time: 1 hr 35 min 57 sec) 
Heartbeat CPU 0 instructions: 490000002 cycles: 1093360515 heartbeat IPC: 0.325808 cumulative IPC: 0.449423 (Simulation time: 1 hr 36 min 11 sec) 
Heartbeat CPU 0 instructions: 491000000 cycles: 1095111412 heartbeat IPC: 0.571135 cumulative IPC: 0.449622 (Simulation time: 1 hr 36 min 20 sec) 
Heartbeat CPU 0 instructions: 492000002 cycles: 1097885191 heartbeat IPC: 0.36052 cumulative IPC: 0.449392 (Simulation time: 1 hr 36 min 33 sec) 
Heartbeat CPU 0 instructions: 493000001 cycles: 1100667118 heartbeat IPC: 0.359463 cumulative IPC: 0.449159 (Simulation time: 1 hr 36 min 47 sec) 
Heartbeat CPU 0 instructions: 494000001 cycles: 1101905596 heartbeat IPC: 0.807443 cumulative IPC: 0.449571 (Simulation time: 1 hr 36 min 57 sec) 
Heartbeat CPU 0 instructions: 495000000 cycles: 1103279191 heartbeat IPC: 0.728016 cumulative IPC: 0.449926 (Simulation time: 1 hr 37 min 6 sec) 
Heartbeat CPU 0 instructions: 496000000 cycles: 1106210086 heartbeat IPC: 0.341193 cumulative IPC: 0.449631 (Simulation time: 1 hr 37 min 20 sec) 
Heartbeat CPU 0 instructions: 497000001 cycles: 1108038331 heartbeat IPC: 0.546973 cumulative IPC: 0.449796 (Simulation time: 1 hr 37 min 31 sec) 
Heartbeat CPU 0 instructions: 498000000 cycles: 1110102619 heartbeat IPC: 0.484428 cumulative IPC: 0.449862 (Simulation time: 1 hr 37 min 42 sec) 
Heartbeat CPU 0 instructions: 499000003 cycles: 1114185614 heartbeat IPC: 0.244919 cumulative IPC: 0.449093 (Simulation time: 1 hr 37 min 59 sec) 
Heartbeat CPU 0 instructions: 500000000 cycles: 1117251711 heartbeat IPC: 0.326147 cumulative IPC: 0.448748 (Simulation time: 1 hr 38 min 13 sec) 
Heartbeat CPU 0 instructions: 501000002 cycles: 1118992755 heartbeat IPC: 0.574369 cumulative IPC: 0.448948 (Simulation time: 1 hr 38 min 23 sec) 
Heartbeat CPU 0 instructions: 502000000 cycles: 1121608086 heartbeat IPC: 0.38236 cumulative IPC: 0.448789 (Simulation time: 1 hr 38 min 35 sec) 
Heartbeat CPU 0 instructions: 503000003 cycles: 1123427175 heartbeat IPC: 0.549727 cumulative IPC: 0.448956 (Simulation time: 1 hr 38 min 45 sec) 
Heartbeat CPU 0 instructions: 504000003 cycles: 1126036460 heartbeat IPC: 0.383247 cumulative IPC: 0.4488 (Simulation time: 1 hr 38 min 57 sec) 
Heartbeat CPU 0 instructions: 505000001 cycles: 1129474851 heartbeat IPC: 0.290833 cumulative IPC: 0.448308 (Simulation time: 1 hr 39 min 12 sec) 
Heartbeat CPU 0 instructions: 506000000 cycles: 1130855512 heartbeat IPC: 0.72429 cumulative IPC: 0.448653 (Simulation time: 1 hr 39 min 21 sec) 
Heartbeat CPU 0 instructions: 507000002 cycles: 1133473241 heartbeat IPC: 0.382011 cumulative IPC: 0.448496 (Simulation time: 1 hr 39 min 34 sec) 
Heartbeat CPU 0 instructions: 508000000 cycles: 1137319683 heartbeat IPC: 0.25998 cumulative IPC: 0.447844 (Simulation time: 1 hr 39 min 51 sec) 
Heartbeat CPU 0 instructions: 509000000 cycles: 1138914026 heartbeat IPC: 0.627218 cumulative IPC: 0.4481 (Simulation time: 1 hr 40 min 1 sec) 
Heartbeat CPU 0 instructions: 510000000 cycles: 1140856228 heartbeat IPC: 0.51488 cumulative IPC: 0.448217 (Simulation time: 1 hr 40 min 12 sec) 
Finished CPU 0 instructions: 500000003 cycles: 1115531829 cumulative IPC: 0.448217 (Simulation time: 1 hr 40 min 12 sec) 

ChampSim completed all CPUs

Region of Interest Statistics

CPU 0 cumulative IPC: 0.448217 instructions: 500000003 cycles: 1115531829
L1D TOTAL     ACCESS:  223313056  HIT:  195481403  MISS:   27831653
L1D LOAD      ACCESS:  117890945  HIT:   91189229  MISS:   26701716
L1D RFO       ACCESS:  105422111  HIT:  104292174  MISS:    1129937
L1D PREFETCH  ACCESS:          0  HIT:          0  MISS:          0
L1D WRITEBACK ACCESS:          0  HIT:          0  MISS:          0
L1D PREFETCH  REQUESTED:          0  ISSUED:          0  USEFUL:          0  USELESS:          0  UAC CORRECT:          0
L1D AVERAGE MISS LATENCY: 114.356 cycles
L1I TOTAL     ACCESS:  111125665  HIT:  111125655  MISS:         10
L1I LOAD      ACCESS:  111125665  HIT:  111125655  MISS:         10
L1I RFO       ACCESS:          0  HIT:          0  MISS:          0
L1I PREFETCH  ACCESS:          0  HIT:          0  MISS:          0
L1I WRITEBACK ACCESS:          0  HIT:          0  MISS:          0
L1I PREFETCH  REQUESTED:          0  ISSUED:          0  USEFUL:          0  USELESS:          0  UAC CORRECT:          0
L1I AVERAGE MISS LATENCY: 242 cycles
L2C TOTAL     ACCESS:   30108613  HIT:    2504136  MISS:   27604477
L2C LOAD      ACCESS:   26701609  HIT:     227728  MISS:   26473881
L2C RFO       ACCESS:    1129902  HIT:      16212  MISS:    1113690
L2C PREFETCH  ACCESS:          0  HIT:          0  MISS:          0
L2C WRITEBACK ACCESS:    2277102  HIT:    2260196  MISS:      16906
L2C PREFETCH  REQUESTED:          0  ISSUED:          0  USEFUL:          0  USELESS:          0  UAC CORRECT:          0
L2C AVERAGE MISS LATENCY: 98.9507 cycles
LLC TOTAL     ACCESS:   40190557  HIT:   12508358  MISS:   27682199
LLC LOAD      ACCESS:   26473881  HIT:   10053231  MISS:   16420650
LLC RFO       ACCESS:    1113689  HIT:       9795  MISS:    1103894
LLC PREFETCH  ACCESS:   10497936  HIT:     348181  MISS:   10149755
LLC WRITEBACK ACCESS:    2105051  HIT:    2097151  MISS:       7900
LLC PREFETCH  REQUESTED:   26473876  ISSUED:   24818848  USEFUL:   10040787  USELESS:     108968  UAC CORRECT:    6091286
LLC AVERAGE MISS LATENCY: 122.279 cycles
Major fault: 0 Minor fault: 129408
performance stats:
mapping cache size: 5804272
divergence: 4338696

DRAM Statistics
 CHANNEL 0
 RQ ROW_BUFFER_HIT:   12246569  ROW_BUFFER_MISS:    1593663
 DBUS_CONGESTED:   14515275
 WQ ROW_BUFFER_HIT:     926230  ROW_BUFFER_MISS:     118073  FULL:          0

 CHANNEL 1
 RQ ROW_BUFFER_HIT:   12240681  ROW_BUFFER_MISS:    1593364
 DBUS_CONGESTED:   14515275
 WQ ROW_BUFFER_HIT:     922434  ROW_BUFFER_MISS:     117845  FULL:          0

 AVG_CONGESTED_CYCLE: 17

CPU 0 Branch Prediction Accuracy: 98.9777% MPKI: 1.40512 Average ROB Occupancy at Mispredict: 193.098

Branch types
NOT_BRANCH: 431275352 86.2551%
BRANCH_DIRECT_JUMP: 5396960 1.07939%
BRANCH_INDIRECT: 0 0%
BRANCH_CONDITIONAL: 63326393 12.6653%
BRANCH_DIRECT_CALL: 615 0.000123%
BRANCH_INDIRECT_CALL: 0 0%
BRANCH_RETURN: 615 0.000123%
BRANCH_OTHER: 0 0%

