
*** ChampSim Multicore Out-of-Order Simulator ***

Warmup Instructions: 1000000
Prefetch Warmup Instructions: 10000000
Simulation Instructions: 500000000
Stat Printing Period: 1000000
Number of CPUs: 1
LLC sets: 2048
LLC ways: 16
Off-chip DRAM Size: 32768 MB Channels: 2 Width: 64-bit Data Rate: 1024 MT/s

CPU 0 runs /scratch/cluster/cmolder/ML-DPC/ChampSimTraces/spec17/605.mcf-s3.trace.xz
Read seed: 273
Heartbeat CPU 0 instructions: 1000000 cycles: 713393 heartbeat IPC: 1.40175 cumulative IPC: 1.40175 (Simulation time: 0 hr 0 min 7 sec) 

Warmup complete CPU 0 instructions: 1000001 cycles: 713394 (Simulation time: 0 hr 0 min 7 sec) 

Heartbeat CPU 0 instructions: 2000002 cycles: 6947993 heartbeat IPC: 0.160396 cumulative IPC: 0.160395 (Simulation time: 0 hr 0 min 19 sec) 
Heartbeat CPU 0 instructions: 3000000 cycles: 13268484 heartbeat IPC: 0.158215 cumulative IPC: 0.159298 (Simulation time: 0 hr 0 min 31 sec) 
Heartbeat CPU 0 instructions: 4000001 cycles: 19526317 heartbeat IPC: 0.1598 cumulative IPC: 0.159465 (Simulation time: 0 hr 0 min 44 sec) 
Heartbeat CPU 0 instructions: 5000000 cycles: 25971615 heartbeat IPC: 0.155152 cumulative IPC: 0.158364 (Simulation time: 0 hr 0 min 56 sec) 
Heartbeat CPU 0 instructions: 6000003 cycles: 32391522 heartbeat IPC: 0.155766 cumulative IPC: 0.157838 (Simulation time: 0 hr 1 min 8 sec) 
Heartbeat CPU 0 instructions: 7000001 cycles: 38713759 heartbeat IPC: 0.158172 cumulative IPC: 0.157893 (Simulation time: 0 hr 1 min 19 sec) 
Heartbeat CPU 0 instructions: 8000003 cycles: 45061094 heartbeat IPC: 0.157547 cumulative IPC: 0.157844 (Simulation time: 0 hr 1 min 31 sec) 
Heartbeat CPU 0 instructions: 9000002 cycles: 51358483 heartbeat IPC: 0.158796 cumulative IPC: 0.157962 (Simulation time: 0 hr 1 min 44 sec) 
Heartbeat CPU 0 instructions: 10000003 cycles: 57449931 heartbeat IPC: 0.164165 cumulative IPC: 0.158628 (Simulation time: 0 hr 1 min 56 sec) 

Warmup complete CPU 0 instructions: 10000003 cycles: 57449931 (Simulation time: 0 hr 1 min 56 sec) 

Heartbeat CPU 0 instructions: 11000000 cycles: 62448097 heartbeat IPC: 0.200073 cumulative IPC: 0.200073 (Simulation time: 0 hr 2 min 7 sec) 
Heartbeat CPU 0 instructions: 12000001 cycles: 67502212 heartbeat IPC: 0.197859 cumulative IPC: 0.19896 (Simulation time: 0 hr 2 min 19 sec) 
Heartbeat CPU 0 instructions: 13000003 cycles: 72520005 heartbeat IPC: 0.199291 cumulative IPC: 0.19907 (Simulation time: 0 hr 2 min 30 sec) 
Heartbeat CPU 0 instructions: 14000000 cycles: 77614893 heartbeat IPC: 0.196275 cumulative IPC: 0.198364 (Simulation time: 0 hr 2 min 41 sec) 
Heartbeat CPU 0 instructions: 15000002 cycles: 82602416 heartbeat IPC: 0.200501 cumulative IPC: 0.198787 (Simulation time: 0 hr 2 min 53 sec) 
Heartbeat CPU 0 instructions: 16000000 cycles: 87517670 heartbeat IPC: 0.203448 cumulative IPC: 0.199549 (Simulation time: 0 hr 3 min 5 sec) 
Heartbeat CPU 0 instructions: 17000000 cycles: 92639987 heartbeat IPC: 0.195224 cumulative IPC: 0.19892 (Simulation time: 0 hr 3 min 16 sec) 
Heartbeat CPU 0 instructions: 18000001 cycles: 97662879 heartbeat IPC: 0.199089 cumulative IPC: 0.198941 (Simulation time: 0 hr 3 min 27 sec) 
Heartbeat CPU 0 instructions: 19000001 cycles: 102748383 heartbeat IPC: 0.196637 cumulative IPC: 0.198682 (Simulation time: 0 hr 3 min 38 sec) 
Heartbeat CPU 0 instructions: 20000001 cycles: 107707761 heartbeat IPC: 0.201638 cumulative IPC: 0.198974 (Simulation time: 0 hr 3 min 49 sec) 
Heartbeat CPU 0 instructions: 21000000 cycles: 112689639 heartbeat IPC: 0.200727 cumulative IPC: 0.199132 (Simulation time: 0 hr 4 min 0 sec) 
Heartbeat CPU 0 instructions: 22000000 cycles: 117885441 heartbeat IPC: 0.192463 cumulative IPC: 0.198559 (Simulation time: 0 hr 4 min 10 sec) 
Heartbeat CPU 0 instructions: 23000000 cycles: 123035690 heartbeat IPC: 0.194165 cumulative IPC: 0.198214 (Simulation time: 0 hr 4 min 21 sec) 
Heartbeat CPU 0 instructions: 24000001 cycles: 128169058 heartbeat IPC: 0.194804 cumulative IPC: 0.197966 (Simulation time: 0 hr 4 min 31 sec) 
Heartbeat CPU 0 instructions: 25000003 cycles: 133364828 heartbeat IPC: 0.192465 cumulative IPC: 0.19759 (Simulation time: 0 hr 4 min 42 sec) 
Heartbeat CPU 0 instructions: 26000000 cycles: 138386846 heartbeat IPC: 0.199123 cumulative IPC: 0.197685 (Simulation time: 0 hr 4 min 52 sec) 
Heartbeat CPU 0 instructions: 27000000 cycles: 143339663 heartbeat IPC: 0.201905 cumulative IPC: 0.197928 (Simulation time: 0 hr 5 min 3 sec) 
Heartbeat CPU 0 instructions: 28000003 cycles: 148417496 heartbeat IPC: 0.196935 cumulative IPC: 0.197873 (Simulation time: 0 hr 5 min 14 sec) 
Heartbeat CPU 0 instructions: 29000001 cycles: 153557763 heartbeat IPC: 0.194542 cumulative IPC: 0.197695 (Simulation time: 0 hr 5 min 25 sec) 
Heartbeat CPU 0 instructions: 30000000 cycles: 158742619 heartbeat IPC: 0.192869 cumulative IPC: 0.197448 (Simulation time: 0 hr 5 min 35 sec) 
Heartbeat CPU 0 instructions: 31000003 cycles: 163836298 heartbeat IPC: 0.196322 cumulative IPC: 0.197394 (Simulation time: 0 hr 5 min 46 sec) 
Heartbeat CPU 0 instructions: 32000001 cycles: 168976210 heartbeat IPC: 0.194555 cumulative IPC: 0.197263 (Simulation time: 0 hr 5 min 57 sec) 
Heartbeat CPU 0 instructions: 33000000 cycles: 174259990 heartbeat IPC: 0.189258 cumulative IPC: 0.196901 (Simulation time: 0 hr 6 min 8 sec) 
Heartbeat CPU 0 instructions: 34000001 cycles: 179451620 heartbeat IPC: 0.192618 cumulative IPC: 0.196719 (Simulation time: 0 hr 6 min 19 sec) 
Heartbeat CPU 0 instructions: 35000001 cycles: 184677354 heartbeat IPC: 0.191361 cumulative IPC: 0.196498 (Simulation time: 0 hr 6 min 30 sec) 
Heartbeat CPU 0 instructions: 36000002 cycles: 189904226 heartbeat IPC: 0.191319 cumulative IPC: 0.196294 (Simulation time: 0 hr 6 min 41 sec) 
Heartbeat CPU 0 instructions: 37000002 cycles: 195107639 heartbeat IPC: 0.192182 cumulative IPC: 0.196139 (Simulation time: 0 hr 6 min 52 sec) 
Heartbeat CPU 0 instructions: 38000003 cycles: 200211685 heartbeat IPC: 0.195923 cumulative IPC: 0.196131 (Simulation time: 0 hr 7 min 3 sec) 
Heartbeat CPU 0 instructions: 39000000 cycles: 205374403 heartbeat IPC: 0.193696 cumulative IPC: 0.196046 (Simulation time: 0 hr 7 min 14 sec) 
Heartbeat CPU 0 instructions: 40000000 cycles: 210577790 heartbeat IPC: 0.192183 cumulative IPC: 0.195915 (Simulation time: 0 hr 7 min 24 sec) 
Heartbeat CPU 0 instructions: 41000003 cycles: 215627276 heartbeat IPC: 0.198041 cumulative IPC: 0.195983 (Simulation time: 0 hr 7 min 36 sec) 
Heartbeat CPU 0 instructions: 42000000 cycles: 220821424 heartbeat IPC: 0.192524 cumulative IPC: 0.195873 (Simulation time: 0 hr 7 min 47 sec) 
Heartbeat CPU 0 instructions: 43000003 cycles: 226023983 heartbeat IPC: 0.192214 cumulative IPC: 0.19576 (Simulation time: 0 hr 7 min 58 sec) 
Heartbeat CPU 0 instructions: 44000000 cycles: 231145596 heartbeat IPC: 0.19525 cumulative IPC: 0.195745 (Simulation time: 0 hr 8 min 9 sec) 
Heartbeat CPU 0 instructions: 45000001 cycles: 236321370 heartbeat IPC: 0.193208 cumulative IPC: 0.195671 (Simulation time: 0 hr 8 min 19 sec) 
Heartbeat CPU 0 instructions: 46000001 cycles: 241698486 heartbeat IPC: 0.185973 cumulative IPC: 0.195388 (Simulation time: 0 hr 8 min 30 sec) 
Heartbeat CPU 0 instructions: 47000000 cycles: 246878800 heartbeat IPC: 0.193038 cumulative IPC: 0.195324 (Simulation time: 0 hr 8 min 41 sec) 
Heartbeat CPU 0 instructions: 48000000 cycles: 252110458 heartbeat IPC: 0.191144 cumulative IPC: 0.195212 (Simulation time: 0 hr 8 min 51 sec) 
Heartbeat CPU 0 instructions: 49000000 cycles: 257307316 heartbeat IPC: 0.192424 cumulative IPC: 0.195139 (Simulation time: 0 hr 9 min 2 sec) 
Heartbeat CPU 0 instructions: 50000000 cycles: 262496228 heartbeat IPC: 0.192719 cumulative IPC: 0.195078 (Simulation time: 0 hr 9 min 13 sec) 
Heartbeat CPU 0 instructions: 51000001 cycles: 267701208 heartbeat IPC: 0.192124 cumulative IPC: 0.195005 (Simulation time: 0 hr 9 min 24 sec) 
Heartbeat CPU 0 instructions: 52000003 cycles: 272849168 heartbeat IPC: 0.194252 cumulative IPC: 0.194987 (Simulation time: 0 hr 9 min 36 sec) 
Heartbeat CPU 0 instructions: 53000001 cycles: 277992602 heartbeat IPC: 0.194422 cumulative IPC: 0.194974 (Simulation time: 0 hr 9 min 48 sec) 
Heartbeat CPU 0 instructions: 54000003 cycles: 283096906 heartbeat IPC: 0.195913 cumulative IPC: 0.194995 (Simulation time: 0 hr 10 min 0 sec) 
Heartbeat CPU 0 instructions: 55000000 cycles: 288204691 heartbeat IPC: 0.195779 cumulative IPC: 0.195012 (Simulation time: 0 hr 10 min 16 sec) 
Heartbeat CPU 0 instructions: 56000001 cycles: 293473372 heartbeat IPC: 0.189801 cumulative IPC: 0.194896 (Simulation time: 0 hr 10 min 27 sec) 
Heartbeat CPU 0 instructions: 57000003 cycles: 298611082 heartbeat IPC: 0.19464 cumulative IPC: 0.19489 (Simulation time: 0 hr 10 min 38 sec) 
Heartbeat CPU 0 instructions: 58000001 cycles: 303804693 heartbeat IPC: 0.192544 cumulative IPC: 0.194841 (Simulation time: 0 hr 10 min 49 sec) 
Heartbeat CPU 0 instructions: 59000000 cycles: 309062198 heartbeat IPC: 0.190204 cumulative IPC: 0.194744 (Simulation time: 0 hr 11 min 0 sec) 
Heartbeat CPU 0 instructions: 60000001 cycles: 314083422 heartbeat IPC: 0.199155 cumulative IPC: 0.19483 (Simulation time: 0 hr 11 min 12 sec) 
Heartbeat CPU 0 instructions: 61000002 cycles: 319208105 heartbeat IPC: 0.195134 cumulative IPC: 0.194836 (Simulation time: 0 hr 11 min 24 sec) 
Heartbeat CPU 0 instructions: 62000001 cycles: 324237346 heartbeat IPC: 0.198837 cumulative IPC: 0.194912 (Simulation time: 0 hr 11 min 35 sec) 
Heartbeat CPU 0 instructions: 63000001 cycles: 329655131 heartbeat IPC: 0.184577 cumulative IPC: 0.194706 (Simulation time: 0 hr 11 min 46 sec) 
Heartbeat CPU 0 instructions: 64000001 cycles: 334753237 heartbeat IPC: 0.196151 cumulative IPC: 0.194733 (Simulation time: 0 hr 11 min 57 sec) 
Heartbeat CPU 0 instructions: 65000000 cycles: 340061920 heartbeat IPC: 0.18837 cumulative IPC: 0.194613 (Simulation time: 0 hr 12 min 8 sec) 
Heartbeat CPU 0 instructions: 66000000 cycles: 345069681 heartbeat IPC: 0.19969 cumulative IPC: 0.194702 (Simulation time: 0 hr 12 min 20 sec) 
Heartbeat CPU 0 instructions: 67000002 cycles: 350264537 heartbeat IPC: 0.192499 cumulative IPC: 0.194662 (Simulation time: 0 hr 12 min 31 sec) 
Heartbeat CPU 0 instructions: 68000002 cycles: 355517943 heartbeat IPC: 0.190353 cumulative IPC: 0.194586 (Simulation time: 0 hr 12 min 42 sec) 
Heartbeat CPU 0 instructions: 69000000 cycles: 360634688 heartbeat IPC: 0.195436 cumulative IPC: 0.194601 (Simulation time: 0 hr 12 min 53 sec) 
Heartbeat CPU 0 instructions: 70000003 cycles: 365774681 heartbeat IPC: 0.194553 cumulative IPC: 0.1946 (Simulation time: 0 hr 13 min 5 sec) 
Heartbeat CPU 0 instructions: 71000001 cycles: 370969847 heartbeat IPC: 0.192486 cumulative IPC: 0.194565 (Simulation time: 0 hr 13 min 17 sec) 
Heartbeat CPU 0 instructions: 72000002 cycles: 376201699 heartbeat IPC: 0.191137 cumulative IPC: 0.194509 (Simulation time: 0 hr 13 min 28 sec) 
Heartbeat CPU 0 instructions: 73000000 cycles: 381305680 heartbeat IPC: 0.195925 cumulative IPC: 0.194531 (Simulation time: 0 hr 13 min 39 sec) 
Heartbeat CPU 0 instructions: 74000000 cycles: 386536804 heartbeat IPC: 0.191164 cumulative IPC: 0.194478 (Simulation time: 0 hr 13 min 51 sec) 
Heartbeat CPU 0 instructions: 75000001 cycles: 391817403 heartbeat IPC: 0.189373 cumulative IPC: 0.194397 (Simulation time: 0 hr 14 min 2 sec) 
Heartbeat CPU 0 instructions: 76000000 cycles: 397050867 heartbeat IPC: 0.191078 cumulative IPC: 0.194346 (Simulation time: 0 hr 14 min 14 sec) 
Heartbeat CPU 0 instructions: 77000000 cycles: 402140566 heartbeat IPC: 0.196475 cumulative IPC: 0.194377 (Simulation time: 0 hr 14 min 25 sec) 
Heartbeat CPU 0 instructions: 78000001 cycles: 407227094 heartbeat IPC: 0.196598 cumulative IPC: 0.194409 (Simulation time: 0 hr 14 min 37 sec) 
Heartbeat CPU 0 instructions: 79000002 cycles: 412579484 heartbeat IPC: 0.186833 cumulative IPC: 0.194295 (Simulation time: 0 hr 14 min 48 sec) 
Heartbeat CPU 0 instructions: 80000000 cycles: 417766563 heartbeat IPC: 0.192786 cumulative IPC: 0.194274 (Simulation time: 0 hr 14 min 59 sec) 
Heartbeat CPU 0 instructions: 81000003 cycles: 422948328 heartbeat IPC: 0.192985 cumulative IPC: 0.194255 (Simulation time: 0 hr 15 min 10 sec) 
Heartbeat CPU 0 instructions: 82000001 cycles: 428092445 heartbeat IPC: 0.194396 cumulative IPC: 0.194257 (Simulation time: 0 hr 15 min 22 sec) 
Heartbeat CPU 0 instructions: 83000002 cycles: 433313312 heartbeat IPC: 0.191539 cumulative IPC: 0.194219 (Simulation time: 0 hr 15 min 33 sec) 
Heartbeat CPU 0 instructions: 84000000 cycles: 438604680 heartbeat IPC: 0.188987 cumulative IPC: 0.194147 (Simulation time: 0 hr 15 min 44 sec) 
Heartbeat CPU 0 instructions: 85000002 cycles: 443856840 heartbeat IPC: 0.190398 cumulative IPC: 0.194096 (Simulation time: 0 hr 15 min 56 sec) 
Heartbeat CPU 0 instructions: 86000002 cycles: 449100048 heartbeat IPC: 0.190723 cumulative IPC: 0.194051 (Simulation time: 0 hr 16 min 7 sec) 
Heartbeat CPU 0 instructions: 87000000 cycles: 454209442 heartbeat IPC: 0.195718 cumulative IPC: 0.194072 (Simulation time: 0 hr 16 min 19 sec) 
Heartbeat CPU 0 instructions: 88000000 cycles: 459527650 heartbeat IPC: 0.188033 cumulative IPC: 0.193992 (Simulation time: 0 hr 16 min 30 sec) 
Heartbeat CPU 0 instructions: 89000000 cycles: 464626554 heartbeat IPC: 0.196121 cumulative IPC: 0.194019 (Simulation time: 0 hr 16 min 42 sec) 
Heartbeat CPU 0 instructions: 90000000 cycles: 469839103 heartbeat IPC: 0.191845 cumulative IPC: 0.193992 (Simulation time: 0 hr 16 min 54 sec) 
Heartbeat CPU 0 instructions: 91000003 cycles: 475145352 heartbeat IPC: 0.188458 cumulative IPC: 0.193921 (Simulation time: 0 hr 17 min 5 sec) 
Heartbeat CPU 0 instructions: 92000003 cycles: 480386830 heartbeat IPC: 0.190786 cumulative IPC: 0.193882 (Simulation time: 0 hr 17 min 17 sec) 
Heartbeat CPU 0 instructions: 93000002 cycles: 485667386 heartbeat IPC: 0.189374 cumulative IPC: 0.193827 (Simulation time: 0 hr 17 min 28 sec) 
Heartbeat CPU 0 instructions: 94000002 cycles: 491007229 heartbeat IPC: 0.187271 cumulative IPC: 0.193746 (Simulation time: 0 hr 17 min 40 sec) 
Heartbeat CPU 0 instructions: 95000000 cycles: 496233965 heartbeat IPC: 0.191324 cumulative IPC: 0.193717 (Simulation time: 0 hr 17 min 51 sec) 
Heartbeat CPU 0 instructions: 96000002 cycles: 501460844 heartbeat IPC: 0.191319 cumulative IPC: 0.193689 (Simulation time: 0 hr 18 min 3 sec) 
Heartbeat CPU 0 instructions: 97000002 cycles: 506803715 heartbeat IPC: 0.187165 cumulative IPC: 0.193611 (Simulation time: 0 hr 18 min 15 sec) 
Heartbeat CPU 0 instructions: 98000000 cycles: 512115864 heartbeat IPC: 0.188247 cumulative IPC: 0.193549 (Simulation time: 0 hr 18 min 27 sec) 
Heartbeat CPU 0 instructions: 99000000 cycles: 517460637 heartbeat IPC: 0.187099 cumulative IPC: 0.193474 (Simulation time: 0 hr 18 min 38 sec) 
Heartbeat CPU 0 instructions: 100000001 cycles: 522729525 heartbeat IPC: 0.189794 cumulative IPC: 0.193432 (Simulation time: 0 hr 18 min 50 sec) 
Heartbeat CPU 0 instructions: 101000000 cycles: 528030942 heartbeat IPC: 0.188629 cumulative IPC: 0.193378 (Simulation time: 0 hr 19 min 1 sec) 
Heartbeat CPU 0 instructions: 102000000 cycles: 533408436 heartbeat IPC: 0.18596 cumulative IPC: 0.193294 (Simulation time: 0 hr 19 min 13 sec) 
Heartbeat CPU 0 instructions: 103000001 cycles: 538684760 heartbeat IPC: 0.189526 cumulative IPC: 0.193253 (Simulation time: 0 hr 19 min 24 sec) 
Heartbeat CPU 0 instructions: 104000000 cycles: 543964724 heartbeat IPC: 0.189395 cumulative IPC: 0.193211 (Simulation time: 0 hr 19 min 36 sec) 
Heartbeat CPU 0 instructions: 105000000 cycles: 549341566 heartbeat IPC: 0.185983 cumulative IPC: 0.193132 (Simulation time: 0 hr 19 min 48 sec) 
Heartbeat CPU 0 instructions: 106000003 cycles: 554686097 heartbeat IPC: 0.187108 cumulative IPC: 0.193067 (Simulation time: 0 hr 19 min 59 sec) 
Heartbeat CPU 0 instructions: 107000000 cycles: 560157743 heartbeat IPC: 0.18276 cumulative IPC: 0.192955 (Simulation time: 0 hr 20 min 11 sec) 
Heartbeat CPU 0 instructions: 108000000 cycles: 565521962 heartbeat IPC: 0.18642 cumulative IPC: 0.192886 (Simulation time: 0 hr 20 min 22 sec) 
Heartbeat CPU 0 instructions: 109000003 cycles: 570946176 heartbeat IPC: 0.184359 cumulative IPC: 0.192796 (Simulation time: 0 hr 20 min 34 sec) 
Heartbeat CPU 0 instructions: 110000000 cycles: 576296817 heartbeat IPC: 0.186893 cumulative IPC: 0.192735 (Simulation time: 0 hr 20 min 46 sec) 
Heartbeat CPU 0 instructions: 111000000 cycles: 581732956 heartbeat IPC: 0.183954 cumulative IPC: 0.192644 (Simulation time: 0 hr 20 min 58 sec) 
Heartbeat CPU 0 instructions: 112000000 cycles: 587242745 heartbeat IPC: 0.181495 cumulative IPC: 0.192528 (Simulation time: 0 hr 21 min 9 sec) 
Heartbeat CPU 0 instructions: 113000000 cycles: 592687805 heartbeat IPC: 0.183653 cumulative IPC: 0.192438 (Simulation time: 0 hr 21 min 21 sec) 
Heartbeat CPU 0 instructions: 114000003 cycles: 598284812 heartbeat IPC: 0.178667 cumulative IPC: 0.192295 (Simulation time: 0 hr 21 min 32 sec) 
Heartbeat CPU 0 instructions: 115000000 cycles: 603479406 heartbeat IPC: 0.192507 cumulative IPC: 0.192297 (Simulation time: 0 hr 21 min 44 sec) 
Heartbeat CPU 0 instructions: 116000000 cycles: 608956034 heartbeat IPC: 0.182594 cumulative IPC: 0.192201 (Simulation time: 0 hr 21 min 56 sec) 
Heartbeat CPU 0 instructions: 117000000 cycles: 614256068 heartbeat IPC: 0.188678 cumulative IPC: 0.192167 (Simulation time: 0 hr 22 min 7 sec) 
Heartbeat CPU 0 instructions: 118000000 cycles: 619519286 heartbeat IPC: 0.189998 cumulative IPC: 0.192147 (Simulation time: 0 hr 22 min 19 sec) 
Heartbeat CPU 0 instructions: 119000000 cycles: 624882664 heartbeat IPC: 0.18645 cumulative IPC: 0.192093 (Simulation time: 0 hr 22 min 31 sec) 
Heartbeat CPU 0 instructions: 120000000 cycles: 630117944 heartbeat IPC: 0.191012 cumulative IPC: 0.192083 (Simulation time: 0 hr 22 min 43 sec) 
Heartbeat CPU 0 instructions: 121000000 cycles: 635452615 heartbeat IPC: 0.187453 cumulative IPC: 0.192041 (Simulation time: 0 hr 22 min 54 sec) 
Heartbeat CPU 0 instructions: 122000000 cycles: 641018242 heartbeat IPC: 0.179674 cumulative IPC: 0.191923 (Simulation time: 0 hr 23 min 6 sec) 
Heartbeat CPU 0 instructions: 123000000 cycles: 646270613 heartbeat IPC: 0.19039 cumulative IPC: 0.191909 (Simulation time: 0 hr 23 min 17 sec) 
Heartbeat CPU 0 instructions: 124000000 cycles: 651734635 heartbeat IPC: 0.183015 cumulative IPC: 0.191827 (Simulation time: 0 hr 23 min 29 sec) 
Heartbeat CPU 0 instructions: 125000000 cycles: 657052639 heartbeat IPC: 0.18804 cumulative IPC: 0.191794 (Simulation time: 0 hr 23 min 41 sec) 
Heartbeat CPU 0 instructions: 126000000 cycles: 662326842 heartbeat IPC: 0.189602 cumulative IPC: 0.191775 (Simulation time: 0 hr 23 min 52 sec) 
Heartbeat CPU 0 instructions: 127000000 cycles: 667672581 heartbeat IPC: 0.187065 cumulative IPC: 0.191733 (Simulation time: 0 hr 24 min 4 sec) 
Heartbeat CPU 0 instructions: 128000001 cycles: 673113931 heartbeat IPC: 0.183778 cumulative IPC: 0.191663 (Simulation time: 0 hr 24 min 15 sec) 
Heartbeat CPU 0 instructions: 129000003 cycles: 678437340 heartbeat IPC: 0.18785 cumulative IPC: 0.19163 (Simulation time: 0 hr 24 min 26 sec) 
Heartbeat CPU 0 instructions: 130000000 cycles: 683801518 heartbeat IPC: 0.186421 cumulative IPC: 0.191586 (Simulation time: 0 hr 24 min 37 sec) 
Heartbeat CPU 0 instructions: 131000002 cycles: 689110590 heartbeat IPC: 0.188357 cumulative IPC: 0.191559 (Simulation time: 0 hr 24 min 49 sec) 
Heartbeat CPU 0 instructions: 132000000 cycles: 694575816 heartbeat IPC: 0.182975 cumulative IPC: 0.191485 (Simulation time: 0 hr 25 min 0 sec) 
Heartbeat CPU 0 instructions: 133000002 cycles: 699983853 heartbeat IPC: 0.18491 cumulative IPC: 0.19143 (Simulation time: 0 hr 25 min 12 sec) 
Heartbeat CPU 0 instructions: 134000003 cycles: 705073502 heartbeat IPC: 0.196477 cumulative IPC: 0.191469 (Simulation time: 0 hr 25 min 23 sec) 
Heartbeat CPU 0 instructions: 135000000 cycles: 710231453 heartbeat IPC: 0.193875 cumulative IPC: 0.191488 (Simulation time: 0 hr 25 min 34 sec) 
Heartbeat CPU 0 instructions: 136000001 cycles: 715387550 heartbeat IPC: 0.193945 cumulative IPC: 0.191508 (Simulation time: 0 hr 25 min 45 sec) 
Heartbeat CPU 0 instructions: 137000002 cycles: 720650931 heartbeat IPC: 0.189992 cumulative IPC: 0.191495 (Simulation time: 0 hr 25 min 56 sec) 
Heartbeat CPU 0 instructions: 138000003 cycles: 725870158 heartbeat IPC: 0.191599 cumulative IPC: 0.191496 (Simulation time: 0 hr 26 min 8 sec) 
Heartbeat CPU 0 instructions: 139000001 cycles: 730952338 heartbeat IPC: 0.196766 cumulative IPC: 0.191536 (Simulation time: 0 hr 26 min 19 sec) 
Heartbeat CPU 0 instructions: 140000003 cycles: 736047038 heartbeat IPC: 0.196283 cumulative IPC: 0.191572 (Simulation time: 0 hr 26 min 30 sec) 
Heartbeat CPU 0 instructions: 141000000 cycles: 741158220 heartbeat IPC: 0.195649 cumulative IPC: 0.191602 (Simulation time: 0 hr 26 min 41 sec) 
Heartbeat CPU 0 instructions: 142000003 cycles: 746328243 heartbeat IPC: 0.193423 cumulative IPC: 0.191616 (Simulation time: 0 hr 26 min 52 sec) 
Heartbeat CPU 0 instructions: 143000000 cycles: 751451163 heartbeat IPC: 0.195201 cumulative IPC: 0.191642 (Simulation time: 0 hr 27 min 3 sec) 
Heartbeat CPU 0 instructions: 144000000 cycles: 756453727 heartbeat IPC: 0.199897 cumulative IPC: 0.191701 (Simulation time: 0 hr 27 min 14 sec) 
Heartbeat CPU 0 instructions: 145000000 cycles: 761456699 heartbeat IPC: 0.199881 cumulative IPC: 0.19176 (Simulation time: 0 hr 27 min 26 sec) 
Heartbeat CPU 0 instructions: 146000002 cycles: 766398423 heartbeat IPC: 0.202359 cumulative IPC: 0.191833 (Simulation time: 0 hr 27 min 37 sec) 
Heartbeat CPU 0 instructions: 147000001 cycles: 771243643 heartbeat IPC: 0.206389 cumulative IPC: 0.191932 (Simulation time: 0 hr 27 min 48 sec) 
Heartbeat CPU 0 instructions: 148000001 cycles: 776275159 heartbeat IPC: 0.198747 cumulative IPC: 0.19198 (Simulation time: 0 hr 27 min 59 sec) 
Heartbeat CPU 0 instructions: 149000000 cycles: 781288222 heartbeat IPC: 0.199479 cumulative IPC: 0.192032 (Simulation time: 0 hr 28 min 10 sec) 
Heartbeat CPU 0 instructions: 150000000 cycles: 786199375 heartbeat IPC: 0.203618 cumulative IPC: 0.19211 (Simulation time: 0 hr 28 min 22 sec) 
Heartbeat CPU 0 instructions: 151000002 cycles: 791252853 heartbeat IPC: 0.197884 cumulative IPC: 0.19215 (Simulation time: 0 hr 28 min 33 sec) 
Heartbeat CPU 0 instructions: 152000002 cycles: 796209919 heartbeat IPC: 0.201732 cumulative IPC: 0.192214 (Simulation time: 0 hr 28 min 44 sec) 
Heartbeat CPU 0 instructions: 153000000 cycles: 801137238 heartbeat IPC: 0.20295 cumulative IPC: 0.192285 (Simulation time: 0 hr 28 min 55 sec) 
Heartbeat CPU 0 instructions: 154000000 cycles: 805937247 heartbeat IPC: 0.208333 cumulative IPC: 0.192388 (Simulation time: 0 hr 29 min 6 sec) 
Heartbeat CPU 0 instructions: 155000001 cycles: 810832874 heartbeat IPC: 0.204264 cumulative IPC: 0.192465 (Simulation time: 0 hr 29 min 18 sec) 
Heartbeat CPU 0 instructions: 156000002 cycles: 815619345 heartbeat IPC: 0.208922 cumulative IPC: 0.192569 (Simulation time: 0 hr 29 min 29 sec) 
Heartbeat CPU 0 instructions: 157000000 cycles: 820588536 heartbeat IPC: 0.20124 cumulative IPC: 0.192626 (Simulation time: 0 hr 29 min 41 sec) 
Heartbeat CPU 0 instructions: 158000002 cycles: 825268684 heartbeat IPC: 0.213669 cumulative IPC: 0.192754 (Simulation time: 0 hr 29 min 53 sec) 
Heartbeat CPU 0 instructions: 159000000 cycles: 830445651 heartbeat IPC: 0.193163 cumulative IPC: 0.192757 (Simulation time: 0 hr 30 min 4 sec) 
Heartbeat CPU 0 instructions: 160000002 cycles: 835344064 heartbeat IPC: 0.204148 cumulative IPC: 0.192828 (Simulation time: 0 hr 30 min 15 sec) 
Heartbeat CPU 0 instructions: 161000000 cycles: 840237591 heartbeat IPC: 0.204351 cumulative IPC: 0.1929 (Simulation time: 0 hr 30 min 25 sec) 
Heartbeat CPU 0 instructions: 162000000 cycles: 845088480 heartbeat IPC: 0.206148 cumulative IPC: 0.192982 (Simulation time: 0 hr 30 min 35 sec) 
Heartbeat CPU 0 instructions: 163000000 cycles: 850053373 heartbeat IPC: 0.201414 cumulative IPC: 0.193035 (Simulation time: 0 hr 30 min 46 sec) 
Heartbeat CPU 0 instructions: 164000000 cycles: 855009254 heartbeat IPC: 0.20178 cumulative IPC: 0.193089 (Simulation time: 0 hr 30 min 56 sec) 
Heartbeat CPU 0 instructions: 165000000 cycles: 859958382 heartbeat IPC: 0.202056 cumulative IPC: 0.193144 (Simulation time: 0 hr 31 min 6 sec) 
Heartbeat CPU 0 instructions: 166000003 cycles: 864946024 heartbeat IPC: 0.200496 cumulative IPC: 0.19319 (Simulation time: 0 hr 31 min 17 sec) 
Heartbeat CPU 0 instructions: 167000001 cycles: 869934816 heartbeat IPC: 0.200449 cumulative IPC: 0.193234 (Simulation time: 0 hr 31 min 27 sec) 
Heartbeat CPU 0 instructions: 168000000 cycles: 874829422 heartbeat IPC: 0.204306 cumulative IPC: 0.193301 (Simulation time: 0 hr 31 min 37 sec) 
Heartbeat CPU 0 instructions: 169000000 cycles: 879707734 heartbeat IPC: 0.204989 cumulative IPC: 0.19337 (Simulation time: 0 hr 31 min 48 sec) 
Heartbeat CPU 0 instructions: 170000000 cycles: 884536579 heartbeat IPC: 0.207089 cumulative IPC: 0.19345 (Simulation time: 0 hr 31 min 58 sec) 
Heartbeat CPU 0 instructions: 171000000 cycles: 889442056 heartbeat IPC: 0.203854 cumulative IPC: 0.193511 (Simulation time: 0 hr 32 min 8 sec) 
Heartbeat CPU 0 instructions: 172000001 cycles: 894437065 heartbeat IPC: 0.2002 cumulative IPC: 0.193551 (Simulation time: 0 hr 32 min 19 sec) 
Heartbeat CPU 0 instructions: 173000000 cycles: 899454797 heartbeat IPC: 0.199293 cumulative IPC: 0.193586 (Simulation time: 0 hr 32 min 29 sec) 
Heartbeat CPU 0 instructions: 174000000 cycles: 904421810 heartbeat IPC: 0.201328 cumulative IPC: 0.193631 (Simulation time: 0 hr 32 min 40 sec) 
Heartbeat CPU 0 instructions: 175000001 cycles: 909408342 heartbeat IPC: 0.20054 cumulative IPC: 0.193671 (Simulation time: 0 hr 32 min 50 sec) 
Heartbeat CPU 0 instructions: 176000000 cycles: 914564909 heartbeat IPC: 0.193927 cumulative IPC: 0.193673 (Simulation time: 0 hr 33 min 1 sec) 
Heartbeat CPU 0 instructions: 177000000 cycles: 919560509 heartbeat IPC: 0.200176 cumulative IPC: 0.193711 (Simulation time: 0 hr 33 min 11 sec) 
Heartbeat CPU 0 instructions: 178000000 cycles: 924410213 heartbeat IPC: 0.206198 cumulative IPC: 0.19378 (Simulation time: 0 hr 33 min 21 sec) 
Heartbeat CPU 0 instructions: 179000000 cycles: 929242257 heartbeat IPC: 0.206952 cumulative IPC: 0.193853 (Simulation time: 0 hr 33 min 32 sec) 
Heartbeat CPU 0 instructions: 180000000 cycles: 933992371 heartbeat IPC: 0.210521 cumulative IPC: 0.193944 (Simulation time: 0 hr 33 min 42 sec) 
Heartbeat CPU 0 instructions: 181000001 cycles: 938962736 heartbeat IPC: 0.201193 cumulative IPC: 0.193985 (Simulation time: 0 hr 33 min 53 sec) 
Heartbeat CPU 0 instructions: 182000000 cycles: 943716852 heartbeat IPC: 0.210344 cumulative IPC: 0.194072 (Simulation time: 0 hr 34 min 3 sec) 
Heartbeat CPU 0 instructions: 183000000 cycles: 948604958 heartbeat IPC: 0.204578 cumulative IPC: 0.19413 (Simulation time: 0 hr 34 min 14 sec) 
Heartbeat CPU 0 instructions: 184000000 cycles: 953511740 heartbeat IPC: 0.2038 cumulative IPC: 0.194183 (Simulation time: 0 hr 34 min 24 sec) 
Heartbeat CPU 0 instructions: 185000003 cycles: 958364470 heartbeat IPC: 0.20607 cumulative IPC: 0.194247 (Simulation time: 0 hr 34 min 34 sec) 
Heartbeat CPU 0 instructions: 186000001 cycles: 963480717 heartbeat IPC: 0.195455 cumulative IPC: 0.194254 (Simulation time: 0 hr 34 min 44 sec) 
Heartbeat CPU 0 instructions: 187000000 cycles: 968429860 heartbeat IPC: 0.202055 cumulative IPC: 0.194296 (Simulation time: 0 hr 34 min 55 sec) 
Heartbeat CPU 0 instructions: 188000002 cycles: 973327187 heartbeat IPC: 0.204193 cumulative IPC: 0.194349 (Simulation time: 0 hr 35 min 5 sec) 
Heartbeat CPU 0 instructions: 189000003 cycles: 978315192 heartbeat IPC: 0.200481 cumulative IPC: 0.194382 (Simulation time: 0 hr 35 min 16 sec) 
Heartbeat CPU 0 instructions: 190000000 cycles: 983234366 heartbeat IPC: 0.203286 cumulative IPC: 0.19443 (Simulation time: 0 hr 35 min 26 sec) 
Heartbeat CPU 0 instructions: 191000000 cycles: 988265257 heartbeat IPC: 0.198772 cumulative IPC: 0.194453 (Simulation time: 0 hr 35 min 37 sec) 
Heartbeat CPU 0 instructions: 192000003 cycles: 993419531 heartbeat IPC: 0.194014 cumulative IPC: 0.194451 (Simulation time: 0 hr 35 min 47 sec) 
Heartbeat CPU 0 instructions: 193000000 cycles: 998338088 heartbeat IPC: 0.203311 cumulative IPC: 0.194497 (Simulation time: 0 hr 35 min 57 sec) 
Heartbeat CPU 0 instructions: 194000003 cycles: 1003357706 heartbeat IPC: 0.199219 cumulative IPC: 0.194522 (Simulation time: 0 hr 36 min 8 sec) 
Heartbeat CPU 0 instructions: 195000003 cycles: 1008576244 heartbeat IPC: 0.191625 cumulative IPC: 0.194506 (Simulation time: 0 hr 36 min 19 sec) 
Heartbeat CPU 0 instructions: 196000002 cycles: 1013635335 heartbeat IPC: 0.197664 cumulative IPC: 0.194523 (Simulation time: 0 hr 36 min 29 sec) 
Heartbeat CPU 0 instructions: 197000000 cycles: 1018719404 heartbeat IPC: 0.196692 cumulative IPC: 0.194534 (Simulation time: 0 hr 36 min 40 sec) 
Heartbeat CPU 0 instructions: 198000000 cycles: 1023752284 heartbeat IPC: 0.198693 cumulative IPC: 0.194556 (Simulation time: 0 hr 36 min 50 sec) 
Heartbeat CPU 0 instructions: 199000000 cycles: 1028704969 heartbeat IPC: 0.201911 cumulative IPC: 0.194594 (Simulation time: 0 hr 37 min 1 sec) 
Heartbeat CPU 0 instructions: 200000001 cycles: 1033703581 heartbeat IPC: 0.200056 cumulative IPC: 0.194622 (Simulation time: 0 hr 37 min 12 sec) 
Heartbeat CPU 0 instructions: 201000001 cycles: 1038656915 heartbeat IPC: 0.201884 cumulative IPC: 0.194658 (Simulation time: 0 hr 37 min 23 sec) 
Heartbeat CPU 0 instructions: 202000001 cycles: 1043629238 heartbeat IPC: 0.201113 cumulative IPC: 0.194691 (Simulation time: 0 hr 37 min 33 sec) 
Heartbeat CPU 0 instructions: 203000002 cycles: 1048606376 heartbeat IPC: 0.200919 cumulative IPC: 0.194722 (Simulation time: 0 hr 37 min 44 sec) 
Heartbeat CPU 0 instructions: 204000001 cycles: 1053658277 heartbeat IPC: 0.197945 cumulative IPC: 0.194738 (Simulation time: 0 hr 37 min 55 sec) 
Heartbeat CPU 0 instructions: 205000000 cycles: 1058741051 heartbeat IPC: 0.196743 cumulative IPC: 0.194749 (Simulation time: 0 hr 38 min 6 sec) 
Heartbeat CPU 0 instructions: 206000000 cycles: 1063903800 heartbeat IPC: 0.193695 cumulative IPC: 0.194743 (Simulation time: 0 hr 38 min 16 sec) 
Heartbeat CPU 0 instructions: 207000003 cycles: 1068905905 heartbeat IPC: 0.199916 cumulative IPC: 0.194769 (Simulation time: 0 hr 38 min 27 sec) 
Heartbeat CPU 0 instructions: 208000002 cycles: 1073981475 heartbeat IPC: 0.197022 cumulative IPC: 0.19478 (Simulation time: 0 hr 38 min 38 sec) 
Heartbeat CPU 0 instructions: 209000000 cycles: 1079061330 heartbeat IPC: 0.196856 cumulative IPC: 0.19479 (Simulation time: 0 hr 38 min 48 sec) 
Heartbeat CPU 0 instructions: 210000000 cycles: 1084182447 heartbeat IPC: 0.19527 cumulative IPC: 0.194793 (Simulation time: 0 hr 39 min 0 sec) 
Heartbeat CPU 0 instructions: 211000001 cycles: 1089332618 heartbeat IPC: 0.194169 cumulative IPC: 0.19479 (Simulation time: 0 hr 39 min 11 sec) 
Heartbeat CPU 0 instructions: 212000002 cycles: 1094324012 heartbeat IPC: 0.200345 cumulative IPC: 0.194816 (Simulation time: 0 hr 39 min 21 sec) 
Heartbeat CPU 0 instructions: 213000003 cycles: 1099433036 heartbeat IPC: 0.195732 cumulative IPC: 0.194821 (Simulation time: 0 hr 39 min 32 sec) 
Heartbeat CPU 0 instructions: 214000001 cycles: 1104474690 heartbeat IPC: 0.198347 cumulative IPC: 0.194838 (Simulation time: 0 hr 39 min 43 sec) 
Heartbeat CPU 0 instructions: 215000000 cycles: 1109380309 heartbeat IPC: 0.203848 cumulative IPC: 0.19488 (Simulation time: 0 hr 39 min 54 sec) 
Heartbeat CPU 0 instructions: 216000001 cycles: 1114521417 heartbeat IPC: 0.194511 cumulative IPC: 0.194878 (Simulation time: 0 hr 40 min 5 sec) 
Heartbeat CPU 0 instructions: 217000003 cycles: 1119559614 heartbeat IPC: 0.198484 cumulative IPC: 0.194895 (Simulation time: 0 hr 40 min 16 sec) 
Heartbeat CPU 0 instructions: 218000001 cycles: 1124645231 heartbeat IPC: 0.196633 cumulative IPC: 0.194903 (Simulation time: 0 hr 40 min 27 sec) 
Heartbeat CPU 0 instructions: 219000001 cycles: 1129744515 heartbeat IPC: 0.196106 cumulative IPC: 0.194909 (Simulation time: 0 hr 40 min 37 sec) 
Heartbeat CPU 0 instructions: 220000000 cycles: 1134838351 heartbeat IPC: 0.196316 cumulative IPC: 0.194916 (Simulation time: 0 hr 40 min 49 sec) 
Heartbeat CPU 0 instructions: 221000002 cycles: 1139794094 heartbeat IPC: 0.201786 cumulative IPC: 0.194947 (Simulation time: 0 hr 41 min 0 sec) 
Heartbeat CPU 0 instructions: 222000002 cycles: 1144736097 heartbeat IPC: 0.202347 cumulative IPC: 0.194981 (Simulation time: 0 hr 41 min 11 sec) 
Heartbeat CPU 0 instructions: 223000000 cycles: 1149600439 heartbeat IPC: 0.205577 cumulative IPC: 0.195028 (Simulation time: 0 hr 41 min 22 sec) 
Heartbeat CPU 0 instructions: 224000000 cycles: 1154510470 heartbeat IPC: 0.203665 cumulative IPC: 0.195067 (Simulation time: 0 hr 41 min 33 sec) 
Heartbeat CPU 0 instructions: 225000003 cycles: 1159605217 heartbeat IPC: 0.196281 cumulative IPC: 0.195072 (Simulation time: 0 hr 41 min 44 sec) 
Heartbeat CPU 0 instructions: 226000002 cycles: 1164756548 heartbeat IPC: 0.194124 cumulative IPC: 0.195068 (Simulation time: 0 hr 41 min 55 sec) 
Heartbeat CPU 0 instructions: 227000000 cycles: 1169811613 heartbeat IPC: 0.197821 cumulative IPC: 0.19508 (Simulation time: 0 hr 42 min 6 sec) 
Heartbeat CPU 0 instructions: 228000001 cycles: 1174987995 heartbeat IPC: 0.193185 cumulative IPC: 0.195072 (Simulation time: 0 hr 42 min 17 sec) 
Heartbeat CPU 0 instructions: 229000000 cycles: 1180015666 heartbeat IPC: 0.198899 cumulative IPC: 0.195089 (Simulation time: 0 hr 42 min 28 sec) 
Heartbeat CPU 0 instructions: 230000000 cycles: 1184890790 heartbeat IPC: 0.205123 cumulative IPC: 0.195132 (Simulation time: 0 hr 42 min 39 sec) 
Heartbeat CPU 0 instructions: 231000000 cycles: 1189955597 heartbeat IPC: 0.197441 cumulative IPC: 0.195143 (Simulation time: 0 hr 42 min 50 sec) 
Heartbeat CPU 0 instructions: 232000000 cycles: 1195063346 heartbeat IPC: 0.195781 cumulative IPC: 0.195145 (Simulation time: 0 hr 43 min 1 sec) 
Heartbeat CPU 0 instructions: 233000000 cycles: 1200122946 heartbeat IPC: 0.197644 cumulative IPC: 0.195156 (Simulation time: 0 hr 43 min 13 sec) 
Heartbeat CPU 0 instructions: 234000000 cycles: 1205142891 heartbeat IPC: 0.199205 cumulative IPC: 0.195174 (Simulation time: 0 hr 43 min 24 sec) 
Heartbeat CPU 0 instructions: 235000002 cycles: 1210163915 heartbeat IPC: 0.199163 cumulative IPC: 0.195192 (Simulation time: 0 hr 43 min 35 sec) 
Heartbeat CPU 0 instructions: 236000002 cycles: 1215151177 heartbeat IPC: 0.200511 cumulative IPC: 0.195214 (Simulation time: 0 hr 43 min 46 sec) 
Heartbeat CPU 0 instructions: 237000001 cycles: 1220237344 heartbeat IPC: 0.196612 cumulative IPC: 0.195221 (Simulation time: 0 hr 43 min 58 sec) 
Heartbeat CPU 0 instructions: 238000003 cycles: 1225411836 heartbeat IPC: 0.193256 cumulative IPC: 0.195212 (Simulation time: 0 hr 44 min 10 sec) 
Heartbeat CPU 0 instructions: 239000000 cycles: 1230460164 heartbeat IPC: 0.198085 cumulative IPC: 0.195224 (Simulation time: 0 hr 44 min 21 sec) 
Heartbeat CPU 0 instructions: 240000001 cycles: 1235424574 heartbeat IPC: 0.201434 cumulative IPC: 0.19525 (Simulation time: 0 hr 44 min 32 sec) 
Heartbeat CPU 0 instructions: 241000002 cycles: 1240550521 heartbeat IPC: 0.195086 cumulative IPC: 0.19525 (Simulation time: 0 hr 44 min 43 sec) 
Heartbeat CPU 0 instructions: 242000000 cycles: 1245485684 heartbeat IPC: 0.202627 cumulative IPC: 0.19528 (Simulation time: 0 hr 44 min 54 sec) 
Heartbeat CPU 0 instructions: 243000001 cycles: 1250680474 heartbeat IPC: 0.192501 cumulative IPC: 0.195268 (Simulation time: 0 hr 45 min 5 sec) 
Heartbeat CPU 0 instructions: 244000000 cycles: 1255800171 heartbeat IPC: 0.195324 cumulative IPC: 0.195268 (Simulation time: 0 hr 45 min 16 sec) 
Heartbeat CPU 0 instructions: 245000001 cycles: 1260850960 heartbeat IPC: 0.197989 cumulative IPC: 0.19528 (Simulation time: 0 hr 45 min 27 sec) 
Heartbeat CPU 0 instructions: 246000000 cycles: 1266056558 heartbeat IPC: 0.192101 cumulative IPC: 0.195266 (Simulation time: 0 hr 45 min 39 sec) 
Heartbeat CPU 0 instructions: 247000002 cycles: 1271218691 heartbeat IPC: 0.193719 cumulative IPC: 0.19526 (Simulation time: 0 hr 45 min 51 sec) 
Heartbeat CPU 0 instructions: 248000000 cycles: 1276256665 heartbeat IPC: 0.198492 cumulative IPC: 0.195273 (Simulation time: 0 hr 46 min 2 sec) 
Heartbeat CPU 0 instructions: 249000000 cycles: 1281190154 heartbeat IPC: 0.202696 cumulative IPC: 0.195303 (Simulation time: 0 hr 46 min 13 sec) 
Heartbeat CPU 0 instructions: 250000001 cycles: 1286248737 heartbeat IPC: 0.197684 cumulative IPC: 0.195313 (Simulation time: 0 hr 46 min 25 sec) 
Heartbeat CPU 0 instructions: 251000001 cycles: 1291453099 heartbeat IPC: 0.192147 cumulative IPC: 0.195299 (Simulation time: 0 hr 46 min 36 sec) 
Heartbeat CPU 0 instructions: 252000003 cycles: 1296558316 heartbeat IPC: 0.195878 cumulative IPC: 0.195302 (Simulation time: 0 hr 46 min 48 sec) 
Heartbeat CPU 0 instructions: 253000000 cycles: 1301627787 heartbeat IPC: 0.197259 cumulative IPC: 0.19531 (Simulation time: 0 hr 46 min 59 sec) 
Heartbeat CPU 0 instructions: 254000000 cycles: 1306671660 heartbeat IPC: 0.19826 cumulative IPC: 0.195322 (Simulation time: 0 hr 47 min 11 sec) 
Heartbeat CPU 0 instructions: 255000000 cycles: 1311795933 heartbeat IPC: 0.19515 cumulative IPC: 0.195321 (Simulation time: 0 hr 47 min 22 sec) 
Heartbeat CPU 0 instructions: 256000002 cycles: 1316814900 heartbeat IPC: 0.199245 cumulative IPC: 0.195337 (Simulation time: 0 hr 47 min 33 sec) 
Heartbeat CPU 0 instructions: 257000000 cycles: 1321852516 heartbeat IPC: 0.198506 cumulative IPC: 0.195349 (Simulation time: 0 hr 47 min 44 sec) 
Heartbeat CPU 0 instructions: 258000001 cycles: 1326862160 heartbeat IPC: 0.199615 cumulative IPC: 0.195366 (Simulation time: 0 hr 47 min 56 sec) 
Heartbeat CPU 0 instructions: 259000001 cycles: 1331761084 heartbeat IPC: 0.204126 cumulative IPC: 0.1954 (Simulation time: 0 hr 48 min 7 sec) 
Heartbeat CPU 0 instructions: 260000000 cycles: 1336909015 heartbeat IPC: 0.194253 cumulative IPC: 0.195395 (Simulation time: 0 hr 48 min 19 sec) 
Heartbeat CPU 0 instructions: 261000002 cycles: 1341908100 heartbeat IPC: 0.200037 cumulative IPC: 0.195413 (Simulation time: 0 hr 48 min 30 sec) 
Heartbeat CPU 0 instructions: 262000002 cycles: 1347183814 heartbeat IPC: 0.189548 cumulative IPC: 0.195389 (Simulation time: 0 hr 48 min 40 sec) 
Heartbeat CPU 0 instructions: 263000003 cycles: 1352275189 heartbeat IPC: 0.196411 cumulative IPC: 0.195393 (Simulation time: 0 hr 48 min 51 sec) 
Heartbeat CPU 0 instructions: 264000000 cycles: 1357324751 heartbeat IPC: 0.198036 cumulative IPC: 0.195403 (Simulation time: 0 hr 49 min 3 sec) 
Heartbeat CPU 0 instructions: 265000000 cycles: 1362423962 heartbeat IPC: 0.196109 cumulative IPC: 0.195406 (Simulation time: 0 hr 49 min 14 sec) 
Heartbeat CPU 0 instructions: 266000002 cycles: 1367608902 heartbeat IPC: 0.192867 cumulative IPC: 0.195396 (Simulation time: 0 hr 49 min 25 sec) 
Heartbeat CPU 0 instructions: 267000002 cycles: 1372898818 heartbeat IPC: 0.189039 cumulative IPC: 0.195371 (Simulation time: 0 hr 49 min 36 sec) 
Heartbeat CPU 0 instructions: 268000002 cycles: 1378105182 heartbeat IPC: 0.192073 cumulative IPC: 0.195358 (Simulation time: 0 hr 49 min 47 sec) 
Heartbeat CPU 0 instructions: 269000001 cycles: 1383166930 heartbeat IPC: 0.19756 cumulative IPC: 0.195366 (Simulation time: 0 hr 49 min 57 sec) 
Heartbeat CPU 0 instructions: 270000001 cycles: 1388209179 heartbeat IPC: 0.198324 cumulative IPC: 0.195377 (Simulation time: 0 hr 50 min 8 sec) 
Heartbeat CPU 0 instructions: 271000001 cycles: 1393240426 heartbeat IPC: 0.198758 cumulative IPC: 0.19539 (Simulation time: 0 hr 50 min 19 sec) 
Heartbeat CPU 0 instructions: 272000000 cycles: 1398217297 heartbeat IPC: 0.200929 cumulative IPC: 0.19541 (Simulation time: 0 hr 50 min 30 sec) 
Heartbeat CPU 0 instructions: 273000000 cycles: 1403291964 heartbeat IPC: 0.197057 cumulative IPC: 0.195417 (Simulation time: 0 hr 50 min 42 sec) 
Heartbeat CPU 0 instructions: 274000003 cycles: 1408391667 heartbeat IPC: 0.19609 cumulative IPC: 0.195419 (Simulation time: 0 hr 50 min 53 sec) 
Heartbeat CPU 0 instructions: 275000000 cycles: 1413700774 heartbeat IPC: 0.188355 cumulative IPC: 0.195392 (Simulation time: 0 hr 51 min 4 sec) 
Heartbeat CPU 0 instructions: 276000002 cycles: 1418827073 heartbeat IPC: 0.195073 cumulative IPC: 0.19539 (Simulation time: 0 hr 51 min 15 sec) 
Heartbeat CPU 0 instructions: 277000000 cycles: 1423963066 heartbeat IPC: 0.194704 cumulative IPC: 0.195388 (Simulation time: 0 hr 51 min 26 sec) 
Heartbeat CPU 0 instructions: 278000003 cycles: 1428958330 heartbeat IPC: 0.20019 cumulative IPC: 0.195405 (Simulation time: 0 hr 51 min 37 sec) 
Heartbeat CPU 0 instructions: 279000003 cycles: 1434095127 heartbeat IPC: 0.194674 cumulative IPC: 0.195403 (Simulation time: 0 hr 51 min 48 sec) 
Heartbeat CPU 0 instructions: 280000001 cycles: 1439193933 heartbeat IPC: 0.196124 cumulative IPC: 0.195405 (Simulation time: 0 hr 52 min 0 sec) 
Heartbeat CPU 0 instructions: 281000001 cycles: 1444214993 heartbeat IPC: 0.199161 cumulative IPC: 0.195419 (Simulation time: 0 hr 52 min 11 sec) 
Heartbeat CPU 0 instructions: 282000000 cycles: 1449254919 heartbeat IPC: 0.198415 cumulative IPC: 0.19543 (Simulation time: 0 hr 52 min 22 sec) 
Heartbeat CPU 0 instructions: 283000000 cycles: 1454350194 heartbeat IPC: 0.19626 cumulative IPC: 0.195433 (Simulation time: 0 hr 52 min 33 sec) 
Heartbeat CPU 0 instructions: 284000000 cycles: 1459477904 heartbeat IPC: 0.195019 cumulative IPC: 0.195431 (Simulation time: 0 hr 52 min 44 sec) 
Heartbeat CPU 0 instructions: 285000003 cycles: 1464615378 heartbeat IPC: 0.194649 cumulative IPC: 0.195428 (Simulation time: 0 hr 52 min 56 sec) 
Heartbeat CPU 0 instructions: 286000000 cycles: 1469539022 heartbeat IPC: 0.203101 cumulative IPC: 0.195455 (Simulation time: 0 hr 53 min 7 sec) 
Heartbeat CPU 0 instructions: 287000002 cycles: 1474587510 heartbeat IPC: 0.19808 cumulative IPC: 0.195464 (Simulation time: 0 hr 53 min 18 sec) 
Heartbeat CPU 0 instructions: 288000000 cycles: 1479761172 heartbeat IPC: 0.193286 cumulative IPC: 0.195457 (Simulation time: 0 hr 53 min 30 sec) 
Heartbeat CPU 0 instructions: 289000000 cycles: 1484731561 heartbeat IPC: 0.201191 cumulative IPC: 0.195476 (Simulation time: 0 hr 53 min 41 sec) 
Heartbeat CPU 0 instructions: 290000000 cycles: 1489788650 heartbeat IPC: 0.197742 cumulative IPC: 0.195484 (Simulation time: 0 hr 53 min 52 sec) 
Heartbeat CPU 0 instructions: 291000000 cycles: 1494896605 heartbeat IPC: 0.195773 cumulative IPC: 0.195486 (Simulation time: 0 hr 54 min 3 sec) 
Heartbeat CPU 0 instructions: 292000000 cycles: 1500068056 heartbeat IPC: 0.193369 cumulative IPC: 0.195478 (Simulation time: 0 hr 54 min 13 sec) 
Heartbeat CPU 0 instructions: 293000000 cycles: 1505088090 heartbeat IPC: 0.199202 cumulative IPC: 0.195491 (Simulation time: 0 hr 54 min 24 sec) 
Heartbeat CPU 0 instructions: 294000003 cycles: 1510382424 heartbeat IPC: 0.188882 cumulative IPC: 0.195467 (Simulation time: 0 hr 54 min 36 sec) 
Heartbeat CPU 0 instructions: 295000000 cycles: 1515551538 heartbeat IPC: 0.193456 cumulative IPC: 0.19546 (Simulation time: 0 hr 54 min 48 sec) 
Heartbeat CPU 0 instructions: 296000002 cycles: 1520734861 heartbeat IPC: 0.192927 cumulative IPC: 0.195451 (Simulation time: 0 hr 55 min 0 sec) 
Heartbeat CPU 0 instructions: 297000000 cycles: 1525720319 heartbeat IPC: 0.200583 cumulative IPC: 0.195468 (Simulation time: 0 hr 55 min 10 sec) 
Heartbeat CPU 0 instructions: 298000000 cycles: 1530915114 heartbeat IPC: 0.1925 cumulative IPC: 0.195458 (Simulation time: 0 hr 55 min 21 sec) 
Heartbeat CPU 0 instructions: 299000000 cycles: 1536180042 heartbeat IPC: 0.189936 cumulative IPC: 0.195438 (Simulation time: 0 hr 55 min 32 sec) 
Heartbeat CPU 0 instructions: 300000001 cycles: 1541307266 heartbeat IPC: 0.195038 cumulative IPC: 0.195437 (Simulation time: 0 hr 55 min 43 sec) 
Heartbeat CPU 0 instructions: 301000000 cycles: 1546545361 heartbeat IPC: 0.190909 cumulative IPC: 0.195421 (Simulation time: 0 hr 55 min 54 sec) 
Heartbeat CPU 0 instructions: 302000003 cycles: 1551980979 heartbeat IPC: 0.183972 cumulative IPC: 0.195379 (Simulation time: 0 hr 56 min 5 sec) 
Heartbeat CPU 0 instructions: 303000001 cycles: 1557382150 heartbeat IPC: 0.185145 cumulative IPC: 0.195342 (Simulation time: 0 hr 56 min 16 sec) 
Heartbeat CPU 0 instructions: 304000003 cycles: 1562720718 heartbeat IPC: 0.187317 cumulative IPC: 0.195314 (Simulation time: 0 hr 56 min 27 sec) 
Heartbeat CPU 0 instructions: 305000003 cycles: 1568016042 heartbeat IPC: 0.188846 cumulative IPC: 0.195291 (Simulation time: 0 hr 56 min 37 sec) 
Heartbeat CPU 0 instructions: 306000000 cycles: 1573311119 heartbeat IPC: 0.188854 cumulative IPC: 0.195269 (Simulation time: 0 hr 56 min 48 sec) 
Heartbeat CPU 0 instructions: 307000000 cycles: 1578563596 heartbeat IPC: 0.190386 cumulative IPC: 0.195252 (Simulation time: 0 hr 56 min 59 sec) 
Heartbeat CPU 0 instructions: 308000000 cycles: 1583813676 heartbeat IPC: 0.190473 cumulative IPC: 0.195235 (Simulation time: 0 hr 57 min 10 sec) 
Heartbeat CPU 0 instructions: 309000000 cycles: 1588955080 heartbeat IPC: 0.194499 cumulative IPC: 0.195233 (Simulation time: 0 hr 57 min 20 sec) 
Heartbeat CPU 0 instructions: 310000003 cycles: 1594101078 heartbeat IPC: 0.194326 cumulative IPC: 0.19523 (Simulation time: 0 hr 57 min 31 sec) 
Heartbeat CPU 0 instructions: 311000003 cycles: 1599243940 heartbeat IPC: 0.194444 cumulative IPC: 0.195227 (Simulation time: 0 hr 57 min 42 sec) 
Heartbeat CPU 0 instructions: 312000000 cycles: 1604509286 heartbeat IPC: 0.18992 cumulative IPC: 0.195209 (Simulation time: 0 hr 57 min 53 sec) 
Heartbeat CPU 0 instructions: 313000003 cycles: 1609798333 heartbeat IPC: 0.189071 cumulative IPC: 0.195188 (Simulation time: 0 hr 58 min 5 sec) 
Heartbeat CPU 0 instructions: 314000001 cycles: 1615052796 heartbeat IPC: 0.190314 cumulative IPC: 0.195172 (Simulation time: 0 hr 58 min 16 sec) 
Heartbeat CPU 0 instructions: 315000000 cycles: 1620125321 heartbeat IPC: 0.19714 cumulative IPC: 0.195178 (Simulation time: 0 hr 58 min 26 sec) 
Heartbeat CPU 0 instructions: 316000000 cycles: 1625308946 heartbeat IPC: 0.192915 cumulative IPC: 0.195171 (Simulation time: 0 hr 58 min 37 sec) 
Heartbeat CPU 0 instructions: 317000002 cycles: 1630475908 heartbeat IPC: 0.193538 cumulative IPC: 0.195165 (Simulation time: 0 hr 58 min 48 sec) 
Heartbeat CPU 0 instructions: 318000003 cycles: 1635706233 heartbeat IPC: 0.191193 cumulative IPC: 0.195152 (Simulation time: 0 hr 59 min 0 sec) 
Heartbeat CPU 0 instructions: 319000000 cycles: 1640967800 heartbeat IPC: 0.190057 cumulative IPC: 0.195135 (Simulation time: 0 hr 59 min 11 sec) 
Heartbeat CPU 0 instructions: 320000000 cycles: 1646264797 heartbeat IPC: 0.188786 cumulative IPC: 0.195114 (Simulation time: 0 hr 59 min 22 sec) 
Heartbeat CPU 0 instructions: 321000000 cycles: 1651650431 heartbeat IPC: 0.185679 cumulative IPC: 0.195082 (Simulation time: 0 hr 59 min 33 sec) 
Heartbeat CPU 0 instructions: 322000000 cycles: 1656883282 heartbeat IPC: 0.1911 cumulative IPC: 0.195069 (Simulation time: 0 hr 59 min 44 sec) 
Heartbeat CPU 0 instructions: 323000003 cycles: 1662165032 heartbeat IPC: 0.189332 cumulative IPC: 0.19505 (Simulation time: 0 hr 59 min 55 sec) 
Heartbeat CPU 0 instructions: 324000003 cycles: 1667431528 heartbeat IPC: 0.18988 cumulative IPC: 0.195033 (Simulation time: 1 hr 0 min 6 sec) 
Heartbeat CPU 0 instructions: 325000002 cycles: 1672711455 heartbeat IPC: 0.189396 cumulative IPC: 0.195015 (Simulation time: 1 hr 0 min 17 sec) 
Heartbeat CPU 0 instructions: 326000002 cycles: 1677972621 heartbeat IPC: 0.190072 cumulative IPC: 0.194999 (Simulation time: 1 hr 0 min 28 sec) 
Heartbeat CPU 0 instructions: 327000001 cycles: 1683276104 heartbeat IPC: 0.188555 cumulative IPC: 0.194978 (Simulation time: 1 hr 0 min 40 sec) 
Heartbeat CPU 0 instructions: 328000002 cycles: 1688695684 heartbeat IPC: 0.184516 cumulative IPC: 0.194943 (Simulation time: 1 hr 0 min 51 sec) 
Heartbeat CPU 0 instructions: 329000000 cycles: 1693980489 heartbeat IPC: 0.189221 cumulative IPC: 0.194925 (Simulation time: 1 hr 1 min 2 sec) 
Heartbeat CPU 0 instructions: 330000000 cycles: 1699350469 heartbeat IPC: 0.18622 cumulative IPC: 0.194896 (Simulation time: 1 hr 1 min 13 sec) 
Heartbeat CPU 0 instructions: 331000000 cycles: 1704717113 heartbeat IPC: 0.186336 cumulative IPC: 0.194868 (Simulation time: 1 hr 1 min 24 sec) 
Heartbeat CPU 0 instructions: 332000001 cycles: 1710005184 heartbeat IPC: 0.189105 cumulative IPC: 0.19485 (Simulation time: 1 hr 1 min 35 sec) 
Heartbeat CPU 0 instructions: 333000001 cycles: 1715453182 heartbeat IPC: 0.183554 cumulative IPC: 0.194813 (Simulation time: 1 hr 1 min 47 sec) 
Heartbeat CPU 0 instructions: 334000002 cycles: 1720728594 heartbeat IPC: 0.189559 cumulative IPC: 0.194796 (Simulation time: 1 hr 1 min 58 sec) 
Heartbeat CPU 0 instructions: 335000000 cycles: 1725864749 heartbeat IPC: 0.194698 cumulative IPC: 0.194796 (Simulation time: 1 hr 2 min 9 sec) 
Heartbeat CPU 0 instructions: 336000000 cycles: 1731149199 heartbeat IPC: 0.189234 cumulative IPC: 0.194778 (Simulation time: 1 hr 2 min 20 sec) 
Heartbeat CPU 0 instructions: 337000000 cycles: 1736458401 heartbeat IPC: 0.188352 cumulative IPC: 0.194758 (Simulation time: 1 hr 2 min 31 sec) 
Heartbeat CPU 0 instructions: 338000003 cycles: 1741739813 heartbeat IPC: 0.189344 cumulative IPC: 0.194741 (Simulation time: 1 hr 2 min 43 sec) 
Heartbeat CPU 0 instructions: 339000003 cycles: 1747354943 heartbeat IPC: 0.17809 cumulative IPC: 0.194686 (Simulation time: 1 hr 2 min 54 sec) 
Heartbeat CPU 0 instructions: 340000001 cycles: 1752653154 heartbeat IPC: 0.188743 cumulative IPC: 0.194667 (Simulation time: 1 hr 3 min 5 sec) 
Heartbeat CPU 0 instructions: 341000000 cycles: 1757916676 heartbeat IPC: 0.189987 cumulative IPC: 0.194652 (Simulation time: 1 hr 3 min 16 sec) 
Heartbeat CPU 0 instructions: 342000002 cycles: 1763135242 heartbeat IPC: 0.191624 cumulative IPC: 0.194643 (Simulation time: 1 hr 3 min 28 sec) 
Heartbeat CPU 0 instructions: 343000000 cycles: 1768499913 heartbeat IPC: 0.186404 cumulative IPC: 0.194617 (Simulation time: 1 hr 3 min 39 sec) 
Heartbeat CPU 0 instructions: 344000001 cycles: 1773954071 heartbeat IPC: 0.183347 cumulative IPC: 0.194582 (Simulation time: 1 hr 3 min 51 sec) 
Heartbeat CPU 0 instructions: 345000000 cycles: 1779297011 heartbeat IPC: 0.187163 cumulative IPC: 0.194559 (Simulation time: 1 hr 4 min 3 sec) 
Heartbeat CPU 0 instructions: 346000000 cycles: 1784599903 heartbeat IPC: 0.188576 cumulative IPC: 0.19454 (Simulation time: 1 hr 4 min 14 sec) 
Heartbeat CPU 0 instructions: 347000000 cycles: 1789858539 heartbeat IPC: 0.190163 cumulative IPC: 0.194527 (Simulation time: 1 hr 4 min 26 sec) 
Heartbeat CPU 0 instructions: 348000000 cycles: 1795156260 heartbeat IPC: 0.18876 cumulative IPC: 0.194509 (Simulation time: 1 hr 4 min 38 sec) 
Heartbeat CPU 0 instructions: 349000003 cycles: 1800425387 heartbeat IPC: 0.189785 cumulative IPC: 0.194495 (Simulation time: 1 hr 4 min 49 sec) 
Heartbeat CPU 0 instructions: 350000003 cycles: 1805866955 heartbeat IPC: 0.183771 cumulative IPC: 0.194462 (Simulation time: 1 hr 5 min 1 sec) 
Heartbeat CPU 0 instructions: 351000000 cycles: 1811218648 heartbeat IPC: 0.186856 cumulative IPC: 0.194438 (Simulation time: 1 hr 5 min 12 sec) 
Heartbeat CPU 0 instructions: 352000000 cycles: 1816480929 heartbeat IPC: 0.190032 cumulative IPC: 0.194425 (Simulation time: 1 hr 5 min 23 sec) 
Heartbeat CPU 0 instructions: 353000000 cycles: 1822119580 heartbeat IPC: 0.177347 cumulative IPC: 0.194371 (Simulation time: 1 hr 5 min 35 sec) 
Heartbeat CPU 0 instructions: 354000001 cycles: 1827542066 heartbeat IPC: 0.184417 cumulative IPC: 0.19434 (Simulation time: 1 hr 5 min 46 sec) 
Heartbeat CPU 0 instructions: 355000000 cycles: 1832824174 heartbeat IPC: 0.189318 cumulative IPC: 0.194325 (Simulation time: 1 hr 5 min 57 sec) 
Heartbeat CPU 0 instructions: 356000003 cycles: 1838312710 heartbeat IPC: 0.182198 cumulative IPC: 0.194288 (Simulation time: 1 hr 6 min 9 sec) 
Heartbeat CPU 0 instructions: 357000000 cycles: 1843657500 heartbeat IPC: 0.187098 cumulative IPC: 0.194266 (Simulation time: 1 hr 6 min 20 sec) 
Heartbeat CPU 0 instructions: 358000002 cycles: 1849048671 heartbeat IPC: 0.185489 cumulative IPC: 0.19424 (Simulation time: 1 hr 6 min 32 sec) 
Heartbeat CPU 0 instructions: 359000001 cycles: 1854137690 heartbeat IPC: 0.196501 cumulative IPC: 0.194246 (Simulation time: 1 hr 6 min 43 sec) 
Heartbeat CPU 0 instructions: 360000001 cycles: 1859392824 heartbeat IPC: 0.19029 cumulative IPC: 0.194235 (Simulation time: 1 hr 6 min 54 sec) 
Heartbeat CPU 0 instructions: 361000001 cycles: 1864831058 heartbeat IPC: 0.183883 cumulative IPC: 0.194204 (Simulation time: 1 hr 7 min 6 sec) 
Heartbeat CPU 0 instructions: 362000002 cycles: 1870201877 heartbeat IPC: 0.186192 cumulative IPC: 0.19418 (Simulation time: 1 hr 7 min 17 sec) 
Heartbeat CPU 0 instructions: 363000000 cycles: 1875447262 heartbeat IPC: 0.190643 cumulative IPC: 0.19417 (Simulation time: 1 hr 7 min 29 sec) 
Heartbeat CPU 0 instructions: 364000002 cycles: 1881023535 heartbeat IPC: 0.179332 cumulative IPC: 0.194124 (Simulation time: 1 hr 7 min 42 sec) 
Heartbeat CPU 0 instructions: 365000000 cycles: 1886361207 heartbeat IPC: 0.187347 cumulative IPC: 0.194105 (Simulation time: 1 hr 7 min 54 sec) 
Heartbeat CPU 0 instructions: 366000003 cycles: 1891902740 heartbeat IPC: 0.180456 cumulative IPC: 0.194063 (Simulation time: 1 hr 8 min 6 sec) 
Heartbeat CPU 0 instructions: 367000000 cycles: 1897178891 heartbeat IPC: 0.189532 cumulative IPC: 0.19405 (Simulation time: 1 hr 8 min 18 sec) 
Heartbeat CPU 0 instructions: 368000000 cycles: 1902775110 heartbeat IPC: 0.178692 cumulative IPC: 0.194004 (Simulation time: 1 hr 8 min 30 sec) 
Heartbeat CPU 0 instructions: 369000003 cycles: 1908131546 heartbeat IPC: 0.186692 cumulative IPC: 0.193983 (Simulation time: 1 hr 8 min 42 sec) 
Heartbeat CPU 0 instructions: 370000001 cycles: 1913579912 heartbeat IPC: 0.183541 cumulative IPC: 0.193952 (Simulation time: 1 hr 8 min 54 sec) 
Heartbeat CPU 0 instructions: 371000000 cycles: 1918917732 heartbeat IPC: 0.187342 cumulative IPC: 0.193933 (Simulation time: 1 hr 9 min 6 sec) 
Heartbeat CPU 0 instructions: 372000000 cycles: 1924241168 heartbeat IPC: 0.187849 cumulative IPC: 0.193916 (Simulation time: 1 hr 9 min 18 sec) 
Heartbeat CPU 0 instructions: 373000001 cycles: 1929570727 heartbeat IPC: 0.187633 cumulative IPC: 0.193898 (Simulation time: 1 hr 9 min 30 sec) 
Heartbeat CPU 0 instructions: 374000000 cycles: 1935073328 heartbeat IPC: 0.181732 cumulative IPC: 0.193862 (Simulation time: 1 hr 9 min 42 sec) 
Heartbeat CPU 0 instructions: 375000002 cycles: 1940368985 heartbeat IPC: 0.188834 cumulative IPC: 0.193848 (Simulation time: 1 hr 9 min 53 sec) 
Heartbeat CPU 0 instructions: 376000001 cycles: 1945990642 heartbeat IPC: 0.177883 cumulative IPC: 0.1938 (Simulation time: 1 hr 10 min 4 sec) 
Heartbeat CPU 0 instructions: 377000003 cycles: 1951180869 heartbeat IPC: 0.19267 cumulative IPC: 0.193797 (Simulation time: 1 hr 10 min 15 sec) 
Heartbeat CPU 0 instructions: 378000003 cycles: 1956603404 heartbeat IPC: 0.184416 cumulative IPC: 0.193771 (Simulation time: 1 hr 10 min 26 sec) 
Heartbeat CPU 0 instructions: 379000001 cycles: 1961854702 heartbeat IPC: 0.190429 cumulative IPC: 0.193761 (Simulation time: 1 hr 10 min 37 sec) 
Heartbeat CPU 0 instructions: 380000000 cycles: 1967155625 heartbeat IPC: 0.188646 cumulative IPC: 0.193747 (Simulation time: 1 hr 10 min 48 sec) 
Heartbeat CPU 0 instructions: 381000000 cycles: 1972473436 heartbeat IPC: 0.188047 cumulative IPC: 0.193731 (Simulation time: 1 hr 10 min 59 sec) 
Heartbeat CPU 0 instructions: 382000001 cycles: 1977756544 heartbeat IPC: 0.189283 cumulative IPC: 0.193719 (Simulation time: 1 hr 11 min 10 sec) 
Heartbeat CPU 0 instructions: 383000001 cycles: 1982987684 heartbeat IPC: 0.191163 cumulative IPC: 0.193712 (Simulation time: 1 hr 11 min 20 sec) 
Heartbeat CPU 0 instructions: 384000000 cycles: 1988292885 heartbeat IPC: 0.188494 cumulative IPC: 0.193698 (Simulation time: 1 hr 11 min 31 sec) 
Heartbeat CPU 0 instructions: 385000000 cycles: 1993738823 heartbeat IPC: 0.183623 cumulative IPC: 0.193669 (Simulation time: 1 hr 11 min 43 sec) 
Heartbeat CPU 0 instructions: 386000000 cycles: 1999019132 heartbeat IPC: 0.189383 cumulative IPC: 0.193658 (Simulation time: 1 hr 11 min 55 sec) 
Heartbeat CPU 0 instructions: 387000002 cycles: 2004226061 heartbeat IPC: 0.192052 cumulative IPC: 0.193653 (Simulation time: 1 hr 12 min 6 sec) 
Heartbeat CPU 0 instructions: 388000002 cycles: 2009416873 heartbeat IPC: 0.192648 cumulative IPC: 0.193651 (Simulation time: 1 hr 12 min 18 sec) 
Heartbeat CPU 0 instructions: 389000001 cycles: 2014749091 heartbeat IPC: 0.187539 cumulative IPC: 0.193634 (Simulation time: 1 hr 12 min 29 sec) 
Heartbeat CPU 0 instructions: 390000003 cycles: 2020007601 heartbeat IPC: 0.190168 cumulative IPC: 0.193625 (Simulation time: 1 hr 12 min 40 sec) 
Heartbeat CPU 0 instructions: 391000000 cycles: 2025579533 heartbeat IPC: 0.17947 cumulative IPC: 0.193585 (Simulation time: 1 hr 12 min 51 sec) 
Heartbeat CPU 0 instructions: 392000001 cycles: 2030844212 heartbeat IPC: 0.189945 cumulative IPC: 0.193575 (Simulation time: 1 hr 13 min 3 sec) 
Heartbeat CPU 0 instructions: 393000002 cycles: 2035893798 heartbeat IPC: 0.198036 cumulative IPC: 0.193586 (Simulation time: 1 hr 13 min 13 sec) 
Heartbeat CPU 0 instructions: 394000003 cycles: 2040901310 heartbeat IPC: 0.1997 cumulative IPC: 0.193602 (Simulation time: 1 hr 13 min 24 sec) 
Heartbeat CPU 0 instructions: 395000001 cycles: 2046082199 heartbeat IPC: 0.193017 cumulative IPC: 0.1936 (Simulation time: 1 hr 13 min 36 sec) 
Heartbeat CPU 0 instructions: 396000000 cycles: 2051154722 heartbeat IPC: 0.19714 cumulative IPC: 0.193609 (Simulation time: 1 hr 13 min 47 sec) 
Heartbeat CPU 0 instructions: 397000000 cycles: 2056383774 heartbeat IPC: 0.191239 cumulative IPC: 0.193603 (Simulation time: 1 hr 13 min 57 sec) 
Heartbeat CPU 0 instructions: 398000000 cycles: 2061398789 heartbeat IPC: 0.199401 cumulative IPC: 0.193618 (Simulation time: 1 hr 14 min 9 sec) 
Heartbeat CPU 0 instructions: 399000000 cycles: 2066488363 heartbeat IPC: 0.19648 cumulative IPC: 0.193625 (Simulation time: 1 hr 14 min 20 sec) 
Heartbeat CPU 0 instructions: 400000000 cycles: 2071483974 heartbeat IPC: 0.200176 cumulative IPC: 0.193641 (Simulation time: 1 hr 14 min 31 sec) 
Heartbeat CPU 0 instructions: 401000003 cycles: 2076499678 heartbeat IPC: 0.199374 cumulative IPC: 0.193655 (Simulation time: 1 hr 14 min 42 sec) 
Heartbeat CPU 0 instructions: 402000000 cycles: 2081755750 heartbeat IPC: 0.190256 cumulative IPC: 0.193647 (Simulation time: 1 hr 14 min 54 sec) 
Heartbeat CPU 0 instructions: 403000001 cycles: 2086700886 heartbeat IPC: 0.202219 cumulative IPC: 0.193668 (Simulation time: 1 hr 15 min 6 sec) 
Heartbeat CPU 0 instructions: 404000000 cycles: 2091736947 heartbeat IPC: 0.198568 cumulative IPC: 0.19368 (Simulation time: 1 hr 15 min 17 sec) 
Heartbeat CPU 0 instructions: 405000000 cycles: 2097093816 heartbeat IPC: 0.186676 cumulative IPC: 0.193661 (Simulation time: 1 hr 15 min 28 sec) 
Heartbeat CPU 0 instructions: 406000001 cycles: 2101983836 heartbeat IPC: 0.204498 cumulative IPC: 0.193687 (Simulation time: 1 hr 15 min 39 sec) 
Heartbeat CPU 0 instructions: 407000000 cycles: 2106951172 heartbeat IPC: 0.201315 cumulative IPC: 0.193706 (Simulation time: 1 hr 15 min 50 sec) 
Heartbeat CPU 0 instructions: 408000000 cycles: 2112199078 heartbeat IPC: 0.190552 cumulative IPC: 0.193698 (Simulation time: 1 hr 16 min 2 sec) 
Heartbeat CPU 0 instructions: 409000000 cycles: 2117390532 heartbeat IPC: 0.192624 cumulative IPC: 0.193695 (Simulation time: 1 hr 16 min 13 sec) 
Heartbeat CPU 0 instructions: 410000000 cycles: 2122520458 heartbeat IPC: 0.194935 cumulative IPC: 0.193698 (Simulation time: 1 hr 16 min 24 sec) 
Heartbeat CPU 0 instructions: 411000000 cycles: 2127583227 heartbeat IPC: 0.19752 cumulative IPC: 0.193707 (Simulation time: 1 hr 16 min 35 sec) 
Heartbeat CPU 0 instructions: 412000000 cycles: 2132702936 heartbeat IPC: 0.195324 cumulative IPC: 0.193711 (Simulation time: 1 hr 16 min 47 sec) 
Heartbeat CPU 0 instructions: 413000001 cycles: 2137799931 heartbeat IPC: 0.196194 cumulative IPC: 0.193717 (Simulation time: 1 hr 16 min 58 sec) 
Heartbeat CPU 0 instructions: 414000002 cycles: 2142859983 heartbeat IPC: 0.197627 cumulative IPC: 0.193727 (Simulation time: 1 hr 17 min 9 sec) 
Heartbeat CPU 0 instructions: 415000000 cycles: 2148063721 heartbeat IPC: 0.192169 cumulative IPC: 0.193723 (Simulation time: 1 hr 17 min 20 sec) 
Heartbeat CPU 0 instructions: 416000000 cycles: 2153124113 heartbeat IPC: 0.197613 cumulative IPC: 0.193732 (Simulation time: 1 hr 17 min 31 sec) 
Heartbeat CPU 0 instructions: 417000000 cycles: 2158252006 heartbeat IPC: 0.195012 cumulative IPC: 0.193736 (Simulation time: 1 hr 17 min 43 sec) 
Heartbeat CPU 0 instructions: 418000000 cycles: 2163531637 heartbeat IPC: 0.189407 cumulative IPC: 0.193725 (Simulation time: 1 hr 17 min 54 sec) 
Heartbeat CPU 0 instructions: 419000000 cycles: 2168605116 heartbeat IPC: 0.197103 cumulative IPC: 0.193733 (Simulation time: 1 hr 18 min 5 sec) 
Heartbeat CPU 0 instructions: 420000000 cycles: 2173494249 heartbeat IPC: 0.204535 cumulative IPC: 0.193758 (Simulation time: 1 hr 18 min 16 sec) 
Heartbeat CPU 0 instructions: 421000003 cycles: 2178671832 heartbeat IPC: 0.193141 cumulative IPC: 0.193756 (Simulation time: 1 hr 18 min 27 sec) 
Heartbeat CPU 0 instructions: 422000003 cycles: 2183899758 heartbeat IPC: 0.19128 cumulative IPC: 0.19375 (Simulation time: 1 hr 18 min 39 sec) 
Heartbeat CPU 0 instructions: 423000000 cycles: 2188820209 heartbeat IPC: 0.203233 cumulative IPC: 0.193772 (Simulation time: 1 hr 18 min 50 sec) 
Heartbeat CPU 0 instructions: 424000000 cycles: 2193751875 heartbeat IPC: 0.202771 cumulative IPC: 0.193793 (Simulation time: 1 hr 19 min 1 sec) 
Heartbeat CPU 0 instructions: 425000003 cycles: 2198845334 heartbeat IPC: 0.196331 cumulative IPC: 0.193799 (Simulation time: 1 hr 19 min 12 sec) 
Heartbeat CPU 0 instructions: 426000002 cycles: 2203940360 heartbeat IPC: 0.19627 cumulative IPC: 0.193805 (Simulation time: 1 hr 19 min 24 sec) 
Heartbeat CPU 0 instructions: 427000001 cycles: 2208917569 heartbeat IPC: 0.200916 cumulative IPC: 0.193821 (Simulation time: 1 hr 19 min 35 sec) 
Heartbeat CPU 0 instructions: 428000002 cycles: 2214100376 heartbeat IPC: 0.192946 cumulative IPC: 0.193819 (Simulation time: 1 hr 19 min 46 sec) 
Heartbeat CPU 0 instructions: 429000000 cycles: 2219104405 heartbeat IPC: 0.199839 cumulative IPC: 0.193833 (Simulation time: 1 hr 19 min 56 sec) 
Heartbeat CPU 0 instructions: 430000002 cycles: 2224454353 heartbeat IPC: 0.186918 cumulative IPC: 0.193816 (Simulation time: 1 hr 20 min 8 sec) 
Heartbeat CPU 0 instructions: 431000000 cycles: 2229635004 heartbeat IPC: 0.193026 cumulative IPC: 0.193814 (Simulation time: 1 hr 20 min 19 sec) 
Heartbeat CPU 0 instructions: 432000000 cycles: 2234628652 heartbeat IPC: 0.200254 cumulative IPC: 0.193829 (Simulation time: 1 hr 20 min 30 sec) 
Heartbeat CPU 0 instructions: 433000003 cycles: 2239871121 heartbeat IPC: 0.19075 cumulative IPC: 0.193821 (Simulation time: 1 hr 20 min 41 sec) 
Heartbeat CPU 0 instructions: 434000001 cycles: 2244918538 heartbeat IPC: 0.198121 cumulative IPC: 0.193831 (Simulation time: 1 hr 20 min 52 sec) 
Heartbeat CPU 0 instructions: 435000000 cycles: 2249887381 heartbeat IPC: 0.201254 cumulative IPC: 0.193848 (Simulation time: 1 hr 21 min 3 sec) 
Heartbeat CPU 0 instructions: 436000003 cycles: 2254859733 heartbeat IPC: 0.201113 cumulative IPC: 0.193865 (Simulation time: 1 hr 21 min 14 sec) 
Heartbeat CPU 0 instructions: 437000003 cycles: 2260192670 heartbeat IPC: 0.187514 cumulative IPC: 0.193849 (Simulation time: 1 hr 21 min 25 sec) 
Heartbeat CPU 0 instructions: 438000002 cycles: 2265186780 heartbeat IPC: 0.200236 cumulative IPC: 0.193864 (Simulation time: 1 hr 21 min 37 sec) 
Heartbeat CPU 0 instructions: 439000002 cycles: 2270329423 heartbeat IPC: 0.194453 cumulative IPC: 0.193865 (Simulation time: 1 hr 21 min 48 sec) 
Heartbeat CPU 0 instructions: 440000000 cycles: 2275500561 heartbeat IPC: 0.193381 cumulative IPC: 0.193864 (Simulation time: 1 hr 21 min 59 sec) 
Heartbeat CPU 0 instructions: 441000002 cycles: 2280770997 heartbeat IPC: 0.189738 cumulative IPC: 0.193854 (Simulation time: 1 hr 22 min 11 sec) 
Heartbeat CPU 0 instructions: 442000001 cycles: 2285921703 heartbeat IPC: 0.194148 cumulative IPC: 0.193855 (Simulation time: 1 hr 22 min 22 sec) 
Heartbeat CPU 0 instructions: 443000000 cycles: 2291241356 heartbeat IPC: 0.187982 cumulative IPC: 0.193841 (Simulation time: 1 hr 22 min 34 sec) 
Heartbeat CPU 0 instructions: 444000002 cycles: 2298424939 heartbeat IPC: 0.139207 cumulative IPC: 0.193666 (Simulation time: 1 hr 22 min 46 sec) 
Heartbeat CPU 0 instructions: 445000000 cycles: 2306257100 heartbeat IPC: 0.127678 cumulative IPC: 0.193436 (Simulation time: 1 hr 22 min 56 sec) 
Heartbeat CPU 0 instructions: 446000001 cycles: 2311763094 heartbeat IPC: 0.18162 cumulative IPC: 0.193407 (Simulation time: 1 hr 23 min 6 sec) 
Heartbeat CPU 0 instructions: 447000001 cycles: 2319384535 heartbeat IPC: 0.131209 cumulative IPC: 0.193197 (Simulation time: 1 hr 23 min 17 sec) 
Heartbeat CPU 0 instructions: 448000001 cycles: 2324622899 heartbeat IPC: 0.190899 cumulative IPC: 0.193192 (Simulation time: 1 hr 23 min 27 sec) 
Heartbeat CPU 0 instructions: 449000002 cycles: 2329445014 heartbeat IPC: 0.207378 cumulative IPC: 0.193222 (Simulation time: 1 hr 23 min 38 sec) 
Heartbeat CPU 0 instructions: 450000000 cycles: 2334259642 heartbeat IPC: 0.2077 cumulative IPC: 0.193253 (Simulation time: 1 hr 23 min 49 sec) 
Heartbeat CPU 0 instructions: 451000000 cycles: 2339143033 heartbeat IPC: 0.204776 cumulative IPC: 0.193278 (Simulation time: 1 hr 24 min 1 sec) 
Heartbeat CPU 0 instructions: 452000001 cycles: 2344038299 heartbeat IPC: 0.204279 cumulative IPC: 0.193301 (Simulation time: 1 hr 24 min 12 sec) 
Heartbeat CPU 0 instructions: 453000000 cycles: 2348919286 heartbeat IPC: 0.204876 cumulative IPC: 0.193326 (Simulation time: 1 hr 24 min 23 sec) 
Heartbeat CPU 0 instructions: 454000001 cycles: 2353805436 heartbeat IPC: 0.20466 cumulative IPC: 0.19335 (Simulation time: 1 hr 24 min 34 sec) 
Heartbeat CPU 0 instructions: 455000003 cycles: 2358694848 heartbeat IPC: 0.204524 cumulative IPC: 0.193374 (Simulation time: 1 hr 24 min 45 sec) 
Heartbeat CPU 0 instructions: 456000002 cycles: 2363581395 heartbeat IPC: 0.204643 cumulative IPC: 0.193397 (Simulation time: 1 hr 24 min 57 sec) 
Heartbeat CPU 0 instructions: 457000003 cycles: 2368489473 heartbeat IPC: 0.203746 cumulative IPC: 0.193419 (Simulation time: 1 hr 25 min 9 sec) 
Heartbeat CPU 0 instructions: 458000000 cycles: 2373379075 heartbeat IPC: 0.204515 cumulative IPC: 0.193443 (Simulation time: 1 hr 25 min 20 sec) 
Heartbeat CPU 0 instructions: 459000001 cycles: 2378285043 heartbeat IPC: 0.203834 cumulative IPC: 0.193465 (Simulation time: 1 hr 25 min 31 sec) 
Heartbeat CPU 0 instructions: 460000003 cycles: 2379638892 heartbeat IPC: 0.738636 cumulative IPC: 0.193783 (Simulation time: 1 hr 25 min 38 sec) 
Heartbeat CPU 0 instructions: 461000003 cycles: 2381931660 heartbeat IPC: 0.436154 cumulative IPC: 0.194022 (Simulation time: 1 hr 25 min 47 sec) 
Heartbeat CPU 0 instructions: 462000000 cycles: 2383819965 heartbeat IPC: 0.529574 cumulative IPC: 0.194294 (Simulation time: 1 hr 25 min 56 sec) 
Heartbeat CPU 0 instructions: 463000003 cycles: 2385676004 heartbeat IPC: 0.538783 cumulative IPC: 0.194569 (Simulation time: 1 hr 26 min 4 sec) 
Heartbeat CPU 0 instructions: 464000000 cycles: 2387734782 heartbeat IPC: 0.485724 cumulative IPC: 0.194826 (Simulation time: 1 hr 26 min 14 sec) 
Heartbeat CPU 0 instructions: 465000002 cycles: 2389708502 heartbeat IPC: 0.506658 cumulative IPC: 0.19509 (Simulation time: 1 hr 26 min 23 sec) 
Heartbeat CPU 0 instructions: 466000003 cycles: 2391590997 heartbeat IPC: 0.53121 cumulative IPC: 0.195361 (Simulation time: 1 hr 26 min 31 sec) 
Heartbeat CPU 0 instructions: 467000002 cycles: 2393495828 heartbeat IPC: 0.52498 cumulative IPC: 0.19563 (Simulation time: 1 hr 26 min 39 sec) 
Heartbeat CPU 0 instructions: 468000000 cycles: 2395592541 heartbeat IPC: 0.476936 cumulative IPC: 0.195882 (Simulation time: 1 hr 26 min 48 sec) 
Heartbeat CPU 0 instructions: 469000001 cycles: 2397470146 heartbeat IPC: 0.532594 cumulative IPC: 0.196152 (Simulation time: 1 hr 26 min 56 sec) 
Heartbeat CPU 0 instructions: 470000003 cycles: 2399357333 heartbeat IPC: 0.52989 cumulative IPC: 0.196421 (Simulation time: 1 hr 27 min 4 sec) 
Heartbeat CPU 0 instructions: 471000002 cycles: 2401319964 heartbeat IPC: 0.50952 cumulative IPC: 0.196683 (Simulation time: 1 hr 27 min 12 sec) 
Heartbeat CPU 0 instructions: 472000000 cycles: 2403359102 heartbeat IPC: 0.490402 cumulative IPC: 0.196939 (Simulation time: 1 hr 27 min 21 sec) 
Heartbeat CPU 0 instructions: 473000000 cycles: 2405261699 heartbeat IPC: 0.525597 cumulative IPC: 0.197205 (Simulation time: 1 hr 27 min 29 sec) 
Heartbeat CPU 0 instructions: 474000002 cycles: 2407128657 heartbeat IPC: 0.535632 cumulative IPC: 0.197474 (Simulation time: 1 hr 27 min 37 sec) 
Heartbeat CPU 0 instructions: 475000002 cycles: 2409163756 heartbeat IPC: 0.491377 cumulative IPC: 0.197728 (Simulation time: 1 hr 27 min 45 sec) 
Heartbeat CPU 0 instructions: 476000000 cycles: 2411114951 heartbeat IPC: 0.512505 cumulative IPC: 0.197989 (Simulation time: 1 hr 27 min 54 sec) 
Heartbeat CPU 0 instructions: 477000003 cycles: 2412993567 heartbeat IPC: 0.532308 cumulative IPC: 0.198256 (Simulation time: 1 hr 28 min 2 sec) 
Heartbeat CPU 0 instructions: 478000003 cycles: 2414834420 heartbeat IPC: 0.543226 cumulative IPC: 0.198525 (Simulation time: 1 hr 28 min 10 sec) 
Heartbeat CPU 0 instructions: 479000001 cycles: 2416687962 heartbeat IPC: 0.539506 cumulative IPC: 0.198793 (Simulation time: 1 hr 28 min 18 sec) 
Heartbeat CPU 0 instructions: 480000001 cycles: 2418593288 heartbeat IPC: 0.524845 cumulative IPC: 0.199056 (Simulation time: 1 hr 28 min 27 sec) 
Heartbeat CPU 0 instructions: 481000002 cycles: 2420651109 heartbeat IPC: 0.485951 cumulative IPC: 0.199306 (Simulation time: 1 hr 28 min 35 sec) 
Heartbeat CPU 0 instructions: 482000002 cycles: 2422483146 heartbeat IPC: 0.545841 cumulative IPC: 0.199574 (Simulation time: 1 hr 28 min 43 sec) 
Heartbeat CPU 0 instructions: 483000002 cycles: 2423631176 heartbeat IPC: 0.871057 cumulative IPC: 0.1999 (Simulation time: 1 hr 28 min 50 sec) 
Heartbeat CPU 0 instructions: 484000000 cycles: 2424455122 heartbeat IPC: 1.21367 cumulative IPC: 0.200253 (Simulation time: 1 hr 28 min 55 sec) 
Heartbeat CPU 0 instructions: 485000000 cycles: 2426112835 heartbeat IPC: 0.603241 cumulative IPC: 0.200535 (Simulation time: 1 hr 29 min 3 sec) 
Heartbeat CPU 0 instructions: 486000003 cycles: 2427427817 heartbeat IPC: 0.760469 cumulative IPC: 0.200846 (Simulation time: 1 hr 29 min 10 sec) 
Heartbeat CPU 0 instructions: 487000001 cycles: 2428647715 heartbeat IPC: 0.819739 cumulative IPC: 0.201164 (Simulation time: 1 hr 29 min 17 sec) 
Heartbeat CPU 0 instructions: 488000001 cycles: 2429407659 heartbeat IPC: 1.31589 cumulative IPC: 0.201521 (Simulation time: 1 hr 29 min 22 sec) 
Heartbeat CPU 0 instructions: 489000000 cycles: 2431076383 heartbeat IPC: 0.59926 cumulative IPC: 0.201801 (Simulation time: 1 hr 29 min 30 sec) 
Heartbeat CPU 0 instructions: 490000000 cycles: 2432385369 heartbeat IPC: 0.76395 cumulative IPC: 0.202111 (Simulation time: 1 hr 29 min 37 sec) 
Heartbeat CPU 0 instructions: 491000000 cycles: 2433551330 heartbeat IPC: 0.857662 cumulative IPC: 0.202432 (Simulation time: 1 hr 29 min 44 sec) 
Heartbeat CPU 0 instructions: 492000000 cycles: 2434758812 heartbeat IPC: 0.82817 cumulative IPC: 0.20275 (Simulation time: 1 hr 29 min 50 sec) 
Heartbeat CPU 0 instructions: 493000001 cycles: 2435952147 heartbeat IPC: 0.837988 cumulative IPC: 0.203069 (Simulation time: 1 hr 29 min 57 sec) 
Heartbeat CPU 0 instructions: 494000000 cycles: 2437202625 heartbeat IPC: 0.799693 cumulative IPC: 0.203382 (Simulation time: 1 hr 30 min 4 sec) 
Heartbeat CPU 0 instructions: 495000000 cycles: 2438406005 heartbeat IPC: 0.830993 cumulative IPC: 0.2037 (Simulation time: 1 hr 30 min 10 sec) 
Heartbeat CPU 0 instructions: 496000001 cycles: 2439628938 heartbeat IPC: 0.817707 cumulative IPC: 0.204015 (Simulation time: 1 hr 30 min 17 sec) 
Heartbeat CPU 0 instructions: 497000002 cycles: 2440835168 heartbeat IPC: 0.82903 cumulative IPC: 0.204331 (Simulation time: 1 hr 30 min 24 sec) 
Heartbeat CPU 0 instructions: 498000003 cycles: 2441908112 heartbeat IPC: 0.932016 cumulative IPC: 0.204659 (Simulation time: 1 hr 30 min 30 sec) 
Heartbeat CPU 0 instructions: 499000000 cycles: 2443340442 heartbeat IPC: 0.698161 cumulative IPC: 0.204955 (Simulation time: 1 hr 30 min 38 sec) 
Heartbeat CPU 0 instructions: 500000003 cycles: 2444693640 heartbeat IPC: 0.738992 cumulative IPC: 0.205258 (Simulation time: 1 hr 30 min 45 sec) 
Heartbeat CPU 0 instructions: 501000003 cycles: 2446463642 heartbeat IPC: 0.564971 cumulative IPC: 0.205524 (Simulation time: 1 hr 30 min 53 sec) 
Heartbeat CPU 0 instructions: 502000001 cycles: 2447639609 heartbeat IPC: 0.850362 cumulative IPC: 0.205841 (Simulation time: 1 hr 30 min 59 sec) 
Heartbeat CPU 0 instructions: 503000002 cycles: 2448862229 heartbeat IPC: 0.817916 cumulative IPC: 0.206154 (Simulation time: 1 hr 31 min 6 sec) 
Heartbeat CPU 0 instructions: 504000001 cycles: 2450574932 heartbeat IPC: 0.583872 cumulative IPC: 0.206425 (Simulation time: 1 hr 31 min 14 sec) 
Heartbeat CPU 0 instructions: 505000000 cycles: 2452407381 heartbeat IPC: 0.545717 cumulative IPC: 0.206684 (Simulation time: 1 hr 31 min 22 sec) 
Heartbeat CPU 0 instructions: 506000000 cycles: 2453760603 heartbeat IPC: 0.738977 cumulative IPC: 0.206985 (Simulation time: 1 hr 31 min 29 sec) 
Heartbeat CPU 0 instructions: 507000000 cycles: 2455226593 heartbeat IPC: 0.682133 cumulative IPC: 0.207275 (Simulation time: 1 hr 31 min 37 sec) 
Heartbeat CPU 0 instructions: 508000001 cycles: 2456734433 heartbeat IPC: 0.663201 cumulative IPC: 0.207562 (Simulation time: 1 hr 31 min 44 sec) 
Heartbeat CPU 0 instructions: 509000002 cycles: 2458021660 heartbeat IPC: 0.776865 cumulative IPC: 0.207867 (Simulation time: 1 hr 31 min 51 sec) 
Heartbeat CPU 0 instructions: 510000001 cycles: 2459285538 heartbeat IPC: 0.791215 cumulative IPC: 0.208174 (Simulation time: 1 hr 31 min 57 sec) 
Finished CPU 0 instructions: 500000002 cycles: 2401835608 cumulative IPC: 0.208174 (Simulation time: 1 hr 31 min 57 sec) 

ChampSim completed all CPUs

Region of Interest Statistics

CPU 0 cumulative IPC: 0.208174 instructions: 500000002 cycles: 2401835608
L1D TOTAL     ACCESS:  240531253  HIT:  198506887  MISS:   42024366
L1D LOAD      ACCESS:  148868495  HIT:  126571446  MISS:   22297049
L1D RFO       ACCESS:   91662758  HIT:   71935441  MISS:   19727317
L1D PREFETCH  ACCESS:          0  HIT:          0  MISS:          0
L1D WRITEBACK ACCESS:          0  HIT:          0  MISS:          0
L1D PREFETCH  REQUESTED:          0  ISSUED:          0  USEFUL:          0  USELESS:          0  UAC CORRECT:          0
L1D AVERAGE MISS LATENCY: 243.348 cycles
L1I TOTAL     ACCESS:   92877446  HIT:   92877220  MISS:        226
L1I LOAD      ACCESS:   92877446  HIT:   92877220  MISS:        226
L1I RFO       ACCESS:          0  HIT:          0  MISS:          0
L1I PREFETCH  ACCESS:          0  HIT:          0  MISS:          0
L1I WRITEBACK ACCESS:          0  HIT:          0  MISS:          0
L1I PREFETCH  REQUESTED:          0  ISSUED:          0  USEFUL:          0  USELESS:          0  UAC CORRECT:          0
L1I AVERAGE MISS LATENCY: 220.478 cycles
L2C TOTAL     ACCESS:   81709273  HIT:   43221589  MISS:   38487684
L2C LOAD      ACCESS:   22296655  HIT:    3421434  MISS:   18875221
L2C RFO       ACCESS:   19727316  HIT:     124640  MISS:   19602676
L2C PREFETCH  ACCESS:          0  HIT:          0  MISS:          0
L2C WRITEBACK ACCESS:   39685302  HIT:   39675515  MISS:       9787
L2C PREFETCH  REQUESTED:          0  ISSUED:          0  USEFUL:          0  USELESS:          0  UAC CORRECT:          0
L2C AVERAGE MISS LATENCY: 240.426 cycles
LLC TOTAL     ACCESS:   92740037  HIT:   56004512  MISS:   36735525
LLC LOAD      ACCESS:   18874786  HIT:   15111482  MISS:    3763304
LLC RFO       ACCESS:   19602666  HIT:     381034  MISS:   19221632
LLC PREFETCH  ACCESS:   17436694  HIT:    3737800  MISS:   13698894
LLC WRITEBACK ACCESS:   36825891  HIT:   36774196  MISS:      51695
LLC PREFETCH  REQUESTED:   18874560  ISSUED:   18018634  USEFUL:   10146540  USELESS:    3542298  UAC CORRECT:     222813
LLC AVERAGE MISS LATENCY: 305.872 cycles
Major fault: 0 Minor fault: 401450

DRAM Statistics
 CHANNEL 0
 RQ ROW_BUFFER_HIT:    2327175  ROW_BUFFER_MISS:   16027564
 DBUS_CONGESTED:   43091247
 WQ ROW_BUFFER_HIT:   15853178  ROW_BUFFER_MISS:     247793  FULL:          0

 CHANNEL 1
 RQ ROW_BUFFER_HIT:    2309757  ROW_BUFFER_MISS:   16006905
 DBUS_CONGESTED:   43091247
 WQ ROW_BUFFER_HIT:   15832184  ROW_BUFFER_MISS:     262657  FULL:          0

 AVG_CONGESTED_CYCLE: 21

CPU 0 Branch Prediction Accuracy: 96.0973% MPKI: 5.38443 Average ROB Occupancy at Mispredict: 105.007

Branch types
NOT_BRANCH: 431016038 86.2032%
BRANCH_DIRECT_JUMP: 7725890 1.54518%
BRANCH_INDIRECT: 4 8e-07%
BRANCH_CONDITIONAL: 38390182 7.67804%
BRANCH_DIRECT_CALL: 11400957 2.28019%
BRANCH_INDIRECT_CALL: 32988 0.0065976%
BRANCH_RETURN: 11433940 2.28679%
BRANCH_OTHER: 0 0%

