
*** ChampSim Multicore Out-of-Order Simulator ***

Warmup Instructions: 1000000
Prefetch Warmup Instructions: 10000000
Simulation Instructions: 500000000
Stat Printing Period: 1000000
Number of CPUs: 1
LLC sets: 2048
LLC ways: 16
Off-chip DRAM Size: 32768 MB Channels: 2 Width: 64-bit Data Rate: 1024 MT/s

CPU 0 runs /scratch/cluster/cmolder/ML-DPC/ChampSimTraces/spec17/620.omnetpp-s1.trace.xz
Read seed: 229
Heartbeat CPU 0 instructions: 1000000 cycles: 560395 heartbeat IPC: 1.78446 cumulative IPC: 1.78446 (Simulation time: 0 hr 0 min 6 sec) 

Warmup complete CPU 0 instructions: 1000002 cycles: 560396 (Simulation time: 0 hr 0 min 6 sec) 

Heartbeat CPU 0 instructions: 2000003 cycles: 3105603 heartbeat IPC: 0.392896 cumulative IPC: 0.392896 (Simulation time: 0 hr 0 min 13 sec) 
Heartbeat CPU 0 instructions: 3000000 cycles: 5759997 heartbeat IPC: 0.376733 cumulative IPC: 0.384645 (Simulation time: 0 hr 0 min 21 sec) 
Heartbeat CPU 0 instructions: 4000002 cycles: 8542475 heartbeat IPC: 0.359393 cumulative IPC: 0.375842 (Simulation time: 0 hr 0 min 28 sec) 
Heartbeat CPU 0 instructions: 5000000 cycles: 11236849 heartbeat IPC: 0.371143 cumulative IPC: 0.374656 (Simulation time: 0 hr 0 min 36 sec) 
Heartbeat CPU 0 instructions: 6000000 cycles: 13930487 heartbeat IPC: 0.371245 cumulative IPC: 0.373969 (Simulation time: 0 hr 0 min 43 sec) 
Heartbeat CPU 0 instructions: 7000000 cycles: 16772443 heartbeat IPC: 0.35187 cumulative IPC: 0.370095 (Simulation time: 0 hr 0 min 51 sec) 
Heartbeat CPU 0 instructions: 8000000 cycles: 19387784 heartbeat IPC: 0.382359 cumulative IPC: 0.371799 (Simulation time: 0 hr 0 min 59 sec) 
Heartbeat CPU 0 instructions: 9000000 cycles: 22079099 heartbeat IPC: 0.371566 cumulative IPC: 0.37177 (Simulation time: 0 hr 1 min 6 sec) 
Heartbeat CPU 0 instructions: 10000001 cycles: 24835497 heartbeat IPC: 0.362793 cumulative IPC: 0.37075 (Simulation time: 0 hr 1 min 14 sec) 

Warmup complete CPU 0 instructions: 10000001 cycles: 24835497 (Simulation time: 0 hr 1 min 14 sec) 

Heartbeat CPU 0 instructions: 11000000 cycles: 27510484 heartbeat IPC: 0.373833 cumulative IPC: 0.373833 (Simulation time: 0 hr 1 min 21 sec) 
Heartbeat CPU 0 instructions: 12000001 cycles: 30224491 heartbeat IPC: 0.368459 cumulative IPC: 0.371127 (Simulation time: 0 hr 1 min 29 sec) 
Heartbeat CPU 0 instructions: 13000002 cycles: 32815662 heartbeat IPC: 0.385926 cumulative IPC: 0.375932 (Simulation time: 0 hr 1 min 36 sec) 
Heartbeat CPU 0 instructions: 14000000 cycles: 35513660 heartbeat IPC: 0.370644 cumulative IPC: 0.374596 (Simulation time: 0 hr 1 min 44 sec) 
Heartbeat CPU 0 instructions: 15000001 cycles: 38022851 heartbeat IPC: 0.398535 cumulative IPC: 0.379151 (Simulation time: 0 hr 1 min 51 sec) 
Heartbeat CPU 0 instructions: 16000003 cycles: 40570156 heartbeat IPC: 0.392573 cumulative IPC: 0.381324 (Simulation time: 0 hr 1 min 59 sec) 
Heartbeat CPU 0 instructions: 17000002 cycles: 43245771 heartbeat IPC: 0.373745 cumulative IPC: 0.380223 (Simulation time: 0 hr 2 min 6 sec) 
Heartbeat CPU 0 instructions: 18000002 cycles: 45900070 heartbeat IPC: 0.376747 cumulative IPC: 0.379785 (Simulation time: 0 hr 2 min 14 sec) 
Heartbeat CPU 0 instructions: 19000000 cycles: 48697162 heartbeat IPC: 0.357513 cumulative IPC: 0.377174 (Simulation time: 0 hr 2 min 21 sec) 
Heartbeat CPU 0 instructions: 20000000 cycles: 51501061 heartbeat IPC: 0.356646 cumulative IPC: 0.375015 (Simulation time: 0 hr 2 min 29 sec) 
Heartbeat CPU 0 instructions: 21000002 cycles: 54142078 heartbeat IPC: 0.378643 cumulative IPC: 0.375342 (Simulation time: 0 hr 2 min 36 sec) 
Heartbeat CPU 0 instructions: 22000000 cycles: 56731917 heartbeat IPC: 0.386124 cumulative IPC: 0.376218 (Simulation time: 0 hr 2 min 44 sec) 
Heartbeat CPU 0 instructions: 23000002 cycles: 59645013 heartbeat IPC: 0.343278 cumulative IPC: 0.373461 (Simulation time: 0 hr 2 min 52 sec) 
Heartbeat CPU 0 instructions: 24000002 cycles: 62315293 heartbeat IPC: 0.374493 cumulative IPC: 0.373535 (Simulation time: 0 hr 2 min 59 sec) 
Heartbeat CPU 0 instructions: 25000000 cycles: 64851572 heartbeat IPC: 0.394278 cumulative IPC: 0.374849 (Simulation time: 0 hr 3 min 7 sec) 
Heartbeat CPU 0 instructions: 26000001 cycles: 67712448 heartbeat IPC: 0.349544 cumulative IPC: 0.373161 (Simulation time: 0 hr 3 min 15 sec) 
Heartbeat CPU 0 instructions: 27000000 cycles: 70248789 heartbeat IPC: 0.394268 cumulative IPC: 0.37434 (Simulation time: 0 hr 3 min 22 sec) 
Heartbeat CPU 0 instructions: 28000002 cycles: 73050202 heartbeat IPC: 0.356963 cumulative IPC: 0.37333 (Simulation time: 0 hr 3 min 30 sec) 
Heartbeat CPU 0 instructions: 29000003 cycles: 75797573 heartbeat IPC: 0.363985 cumulative IPC: 0.372826 (Simulation time: 0 hr 3 min 37 sec) 
Heartbeat CPU 0 instructions: 30000002 cycles: 78720914 heartbeat IPC: 0.342074 cumulative IPC: 0.371158 (Simulation time: 0 hr 3 min 45 sec) 
Heartbeat CPU 0 instructions: 31000000 cycles: 81448750 heartbeat IPC: 0.36659 cumulative IPC: 0.370938 (Simulation time: 0 hr 3 min 53 sec) 
Heartbeat CPU 0 instructions: 32000000 cycles: 84265426 heartbeat IPC: 0.355028 cumulative IPC: 0.370184 (Simulation time: 0 hr 4 min 1 sec) 
Heartbeat CPU 0 instructions: 33000000 cycles: 86805932 heartbeat IPC: 0.393622 cumulative IPC: 0.371145 (Simulation time: 0 hr 4 min 8 sec) 
Heartbeat CPU 0 instructions: 34000000 cycles: 89419686 heartbeat IPC: 0.382591 cumulative IPC: 0.371608 (Simulation time: 0 hr 4 min 16 sec) 
Heartbeat CPU 0 instructions: 35000000 cycles: 92292224 heartbeat IPC: 0.348124 cumulative IPC: 0.370608 (Simulation time: 0 hr 4 min 23 sec) 
Heartbeat CPU 0 instructions: 36000000 cycles: 94983843 heartbeat IPC: 0.371524 cumulative IPC: 0.370643 (Simulation time: 0 hr 4 min 30 sec) 
Heartbeat CPU 0 instructions: 37000003 cycles: 97835899 heartbeat IPC: 0.350625 cumulative IPC: 0.369861 (Simulation time: 0 hr 4 min 37 sec) 
Heartbeat CPU 0 instructions: 38000001 cycles: 100834926 heartbeat IPC: 0.333441 cumulative IPC: 0.368424 (Simulation time: 0 hr 4 min 45 sec) 
Heartbeat CPU 0 instructions: 39000003 cycles: 103687455 heartbeat IPC: 0.350567 cumulative IPC: 0.367778 (Simulation time: 0 hr 4 min 52 sec) 
Heartbeat CPU 0 instructions: 40000000 cycles: 106169033 heartbeat IPC: 0.402968 cumulative IPC: 0.368852 (Simulation time: 0 hr 4 min 59 sec) 
Heartbeat CPU 0 instructions: 41000001 cycles: 108683608 heartbeat IPC: 0.397682 cumulative IPC: 0.369716 (Simulation time: 0 hr 5 min 6 sec) 
Heartbeat CPU 0 instructions: 42000002 cycles: 111483009 heartbeat IPC: 0.35722 cumulative IPC: 0.369312 (Simulation time: 0 hr 5 min 13 sec) 
Heartbeat CPU 0 instructions: 43000001 cycles: 114277178 heartbeat IPC: 0.357888 cumulative IPC: 0.368955 (Simulation time: 0 hr 5 min 21 sec) 
Heartbeat CPU 0 instructions: 44000000 cycles: 117035687 heartbeat IPC: 0.362514 cumulative IPC: 0.368763 (Simulation time: 0 hr 5 min 28 sec) 
Heartbeat CPU 0 instructions: 45000001 cycles: 119891984 heartbeat IPC: 0.350104 cumulative IPC: 0.368202 (Simulation time: 0 hr 5 min 35 sec) 
Heartbeat CPU 0 instructions: 46000000 cycles: 122545070 heartbeat IPC: 0.376919 cumulative IPC: 0.368439 (Simulation time: 0 hr 5 min 42 sec) 
Heartbeat CPU 0 instructions: 47000001 cycles: 125426808 heartbeat IPC: 0.347013 cumulative IPC: 0.367825 (Simulation time: 0 hr 5 min 49 sec) 
Heartbeat CPU 0 instructions: 48000002 cycles: 128360140 heartbeat IPC: 0.34091 cumulative IPC: 0.367062 (Simulation time: 0 hr 5 min 57 sec) 
Heartbeat CPU 0 instructions: 49000003 cycles: 130941556 heartbeat IPC: 0.387385 cumulative IPC: 0.367557 (Simulation time: 0 hr 6 min 4 sec) 
Heartbeat CPU 0 instructions: 50000000 cycles: 133668469 heartbeat IPC: 0.366714 cumulative IPC: 0.367536 (Simulation time: 0 hr 6 min 11 sec) 
Heartbeat CPU 0 instructions: 51000000 cycles: 136196454 heartbeat IPC: 0.395572 cumulative IPC: 0.368172 (Simulation time: 0 hr 6 min 18 sec) 
Heartbeat CPU 0 instructions: 52000000 cycles: 139018455 heartbeat IPC: 0.354358 cumulative IPC: 0.367831 (Simulation time: 0 hr 6 min 25 sec) 
Heartbeat CPU 0 instructions: 53000000 cycles: 141810847 heartbeat IPC: 0.358116 cumulative IPC: 0.367599 (Simulation time: 0 hr 6 min 32 sec) 
Heartbeat CPU 0 instructions: 54000000 cycles: 143997546 heartbeat IPC: 0.45731 cumulative IPC: 0.369245 (Simulation time: 0 hr 6 min 39 sec) 
Heartbeat CPU 0 instructions: 55000000 cycles: 146264919 heartbeat IPC: 0.441039 cumulative IPC: 0.370586 (Simulation time: 0 hr 6 min 46 sec) 
Heartbeat CPU 0 instructions: 56000001 cycles: 148581485 heartbeat IPC: 0.431674 cumulative IPC: 0.371729 (Simulation time: 0 hr 6 min 53 sec) 
Heartbeat CPU 0 instructions: 57000000 cycles: 150814437 heartbeat IPC: 0.447837 cumulative IPC: 0.373078 (Simulation time: 0 hr 6 min 59 sec) 
Heartbeat CPU 0 instructions: 58000000 cycles: 152998485 heartbeat IPC: 0.457865 cumulative IPC: 0.374523 (Simulation time: 0 hr 7 min 6 sec) 
Heartbeat CPU 0 instructions: 59000003 cycles: 155300445 heartbeat IPC: 0.434414 cumulative IPC: 0.37558 (Simulation time: 0 hr 7 min 13 sec) 
Heartbeat CPU 0 instructions: 60000001 cycles: 157415134 heartbeat IPC: 0.472882 cumulative IPC: 0.377132 (Simulation time: 0 hr 7 min 19 sec) 
Heartbeat CPU 0 instructions: 61000000 cycles: 159646061 heartbeat IPC: 0.448244 cumulative IPC: 0.378309 (Simulation time: 0 hr 7 min 26 sec) 
Heartbeat CPU 0 instructions: 62000001 cycles: 161944821 heartbeat IPC: 0.435018 cumulative IPC: 0.379259 (Simulation time: 0 hr 7 min 33 sec) 
Heartbeat CPU 0 instructions: 63000003 cycles: 164199353 heartbeat IPC: 0.443552 cumulative IPC: 0.380299 (Simulation time: 0 hr 7 min 39 sec) 
Heartbeat CPU 0 instructions: 64000003 cycles: 166366937 heartbeat IPC: 0.461343 cumulative IPC: 0.381541 (Simulation time: 0 hr 7 min 46 sec) 
Heartbeat CPU 0 instructions: 65000001 cycles: 168623237 heartbeat IPC: 0.443203 cumulative IPC: 0.382508 (Simulation time: 0 hr 7 min 52 sec) 
Heartbeat CPU 0 instructions: 66000000 cycles: 170675261 heartbeat IPC: 0.487323 cumulative IPC: 0.383983 (Simulation time: 0 hr 7 min 59 sec) 
Heartbeat CPU 0 instructions: 67000002 cycles: 173015146 heartbeat IPC: 0.427372 cumulative IPC: 0.384668 (Simulation time: 0 hr 8 min 6 sec) 
Heartbeat CPU 0 instructions: 68000000 cycles: 175081867 heartbeat IPC: 0.483857 cumulative IPC: 0.386033 (Simulation time: 0 hr 8 min 13 sec) 
Heartbeat CPU 0 instructions: 69000000 cycles: 177448437 heartbeat IPC: 0.422552 cumulative IPC: 0.386599 (Simulation time: 0 hr 8 min 20 sec) 
Heartbeat CPU 0 instructions: 70000001 cycles: 179603017 heartbeat IPC: 0.464128 cumulative IPC: 0.387678 (Simulation time: 0 hr 8 min 27 sec) 
Heartbeat CPU 0 instructions: 71000001 cycles: 181725144 heartbeat IPC: 0.471225 cumulative IPC: 0.388808 (Simulation time: 0 hr 8 min 34 sec) 
Heartbeat CPU 0 instructions: 72000003 cycles: 183955222 heartbeat IPC: 0.448416 cumulative IPC: 0.389644 (Simulation time: 0 hr 8 min 41 sec) 
Heartbeat CPU 0 instructions: 73000000 cycles: 186289377 heartbeat IPC: 0.428419 cumulative IPC: 0.390204 (Simulation time: 0 hr 8 min 48 sec) 
Heartbeat CPU 0 instructions: 74000000 cycles: 188682704 heartbeat IPC: 0.417828 cumulative IPC: 0.390608 (Simulation time: 0 hr 8 min 55 sec) 
Heartbeat CPU 0 instructions: 75000000 cycles: 190890645 heartbeat IPC: 0.452911 cumulative IPC: 0.391436 (Simulation time: 0 hr 9 min 2 sec) 
Heartbeat CPU 0 instructions: 76000002 cycles: 193200065 heartbeat IPC: 0.43301 cumulative IPC: 0.392006 (Simulation time: 0 hr 9 min 10 sec) 
Heartbeat CPU 0 instructions: 77000000 cycles: 195437905 heartbeat IPC: 0.446859 cumulative IPC: 0.392726 (Simulation time: 0 hr 9 min 17 sec) 
Heartbeat CPU 0 instructions: 78000001 cycles: 197582966 heartbeat IPC: 0.466188 cumulative IPC: 0.393638 (Simulation time: 0 hr 9 min 24 sec) 
Heartbeat CPU 0 instructions: 79000000 cycles: 199882453 heartbeat IPC: 0.434879 cumulative IPC: 0.39418 (Simulation time: 0 hr 9 min 31 sec) 
Heartbeat CPU 0 instructions: 80000002 cycles: 202092013 heartbeat IPC: 0.45258 cumulative IPC: 0.394908 (Simulation time: 0 hr 9 min 38 sec) 
Heartbeat CPU 0 instructions: 81000003 cycles: 204299062 heartbeat IPC: 0.453094 cumulative IPC: 0.395624 (Simulation time: 0 hr 9 min 45 sec) 
Heartbeat CPU 0 instructions: 82000001 cycles: 206534007 heartbeat IPC: 0.447437 cumulative IPC: 0.396261 (Simulation time: 0 hr 9 min 52 sec) 
Heartbeat CPU 0 instructions: 83000002 cycles: 208800224 heartbeat IPC: 0.441264 cumulative IPC: 0.396815 (Simulation time: 0 hr 9 min 59 sec) 
Heartbeat CPU 0 instructions: 84000000 cycles: 211139964 heartbeat IPC: 0.427397 cumulative IPC: 0.397199 (Simulation time: 0 hr 10 min 5 sec) 
Heartbeat CPU 0 instructions: 85000000 cycles: 213267835 heartbeat IPC: 0.469953 cumulative IPC: 0.398021 (Simulation time: 0 hr 10 min 12 sec) 
Heartbeat CPU 0 instructions: 86000001 cycles: 215499579 heartbeat IPC: 0.448081 cumulative IPC: 0.398607 (Simulation time: 0 hr 10 min 19 sec) 
Heartbeat CPU 0 instructions: 87000001 cycles: 217480437 heartbeat IPC: 0.504832 cumulative IPC: 0.399699 (Simulation time: 0 hr 10 min 26 sec) 
Heartbeat CPU 0 instructions: 88000000 cycles: 219587026 heartbeat IPC: 0.474701 cumulative IPC: 0.40051 (Simulation time: 0 hr 10 min 32 sec) 
Heartbeat CPU 0 instructions: 89000001 cycles: 221548675 heartbeat IPC: 0.509776 cumulative IPC: 0.4016 (Simulation time: 0 hr 10 min 39 sec) 
Heartbeat CPU 0 instructions: 90000003 cycles: 224060166 heartbeat IPC: 0.398171 cumulative IPC: 0.401557 (Simulation time: 0 hr 10 min 46 sec) 
Heartbeat CPU 0 instructions: 91000000 cycles: 226120028 heartbeat IPC: 0.485468 cumulative IPC: 0.402415 (Simulation time: 0 hr 10 min 53 sec) 
Heartbeat CPU 0 instructions: 92000002 cycles: 228517838 heartbeat IPC: 0.417048 cumulative IPC: 0.402588 (Simulation time: 0 hr 11 min 1 sec) 
Heartbeat CPU 0 instructions: 93000003 cycles: 230849691 heartbeat IPC: 0.428844 cumulative IPC: 0.402885 (Simulation time: 0 hr 11 min 8 sec) 
Heartbeat CPU 0 instructions: 94000000 cycles: 233273102 heartbeat IPC: 0.41264 cumulative IPC: 0.402998 (Simulation time: 0 hr 11 min 15 sec) 
Heartbeat CPU 0 instructions: 95000003 cycles: 235365704 heartbeat IPC: 0.477875 cumulative IPC: 0.403743 (Simulation time: 0 hr 11 min 22 sec) 
Heartbeat CPU 0 instructions: 96000002 cycles: 237533802 heartbeat IPC: 0.461233 cumulative IPC: 0.404329 (Simulation time: 0 hr 11 min 29 sec) 
Heartbeat CPU 0 instructions: 97000000 cycles: 240077021 heartbeat IPC: 0.393202 cumulative IPC: 0.404197 (Simulation time: 0 hr 11 min 36 sec) 
Heartbeat CPU 0 instructions: 98000001 cycles: 242322092 heartbeat IPC: 0.445421 cumulative IPC: 0.404623 (Simulation time: 0 hr 11 min 43 sec) 
Heartbeat CPU 0 instructions: 99000000 cycles: 244637802 heartbeat IPC: 0.431833 cumulative IPC: 0.404909 (Simulation time: 0 hr 11 min 50 sec) 
Heartbeat CPU 0 instructions: 100000000 cycles: 246816156 heartbeat IPC: 0.459062 cumulative IPC: 0.405441 (Simulation time: 0 hr 11 min 57 sec) 
Heartbeat CPU 0 instructions: 101000002 cycles: 249073261 heartbeat IPC: 0.443046 cumulative IPC: 0.405819 (Simulation time: 0 hr 12 min 4 sec) 
Heartbeat CPU 0 instructions: 102000000 cycles: 251454193 heartbeat IPC: 0.420003 cumulative IPC: 0.405968 (Simulation time: 0 hr 12 min 11 sec) 
Heartbeat CPU 0 instructions: 103000000 cycles: 253521716 heartbeat IPC: 0.483671 cumulative IPC: 0.406671 (Simulation time: 0 hr 12 min 18 sec) 
Heartbeat CPU 0 instructions: 104000002 cycles: 255894621 heartbeat IPC: 0.421425 cumulative IPC: 0.406822 (Simulation time: 0 hr 12 min 25 sec) 
Heartbeat CPU 0 instructions: 105000000 cycles: 258006026 heartbeat IPC: 0.473617 cumulative IPC: 0.407427 (Simulation time: 0 hr 12 min 31 sec) 
Heartbeat CPU 0 instructions: 106000000 cycles: 260347744 heartbeat IPC: 0.427037 cumulative IPC: 0.407622 (Simulation time: 0 hr 12 min 39 sec) 
Heartbeat CPU 0 instructions: 107000000 cycles: 262724620 heartbeat IPC: 0.42072 cumulative IPC: 0.407753 (Simulation time: 0 hr 12 min 46 sec) 
Heartbeat CPU 0 instructions: 108000002 cycles: 264769832 heartbeat IPC: 0.488948 cumulative IPC: 0.408445 (Simulation time: 0 hr 12 min 53 sec) 
Heartbeat CPU 0 instructions: 109000000 cycles: 266712975 heartbeat IPC: 0.514629 cumulative IPC: 0.409298 (Simulation time: 0 hr 12 min 59 sec) 
Heartbeat CPU 0 instructions: 110000000 cycles: 268840553 heartbeat IPC: 0.470018 cumulative IPC: 0.409828 (Simulation time: 0 hr 13 min 6 sec) 
Heartbeat CPU 0 instructions: 111000000 cycles: 271134609 heartbeat IPC: 0.435909 cumulative IPC: 0.410071 (Simulation time: 0 hr 13 min 13 sec) 
Heartbeat CPU 0 instructions: 112000000 cycles: 273286841 heartbeat IPC: 0.464634 cumulative IPC: 0.410543 (Simulation time: 0 hr 13 min 20 sec) 
Heartbeat CPU 0 instructions: 113000001 cycles: 275669168 heartbeat IPC: 0.419758 cumulative IPC: 0.410631 (Simulation time: 0 hr 13 min 27 sec) 
Heartbeat CPU 0 instructions: 114000001 cycles: 277923588 heartbeat IPC: 0.443573 cumulative IPC: 0.410924 (Simulation time: 0 hr 13 min 34 sec) 
Heartbeat CPU 0 instructions: 115000003 cycles: 279982737 heartbeat IPC: 0.485638 cumulative IPC: 0.411527 (Simulation time: 0 hr 13 min 41 sec) 
Heartbeat CPU 0 instructions: 116000000 cycles: 282168300 heartbeat IPC: 0.457547 cumulative IPC: 0.411918 (Simulation time: 0 hr 13 min 47 sec) 
Heartbeat CPU 0 instructions: 117000002 cycles: 284519695 heartbeat IPC: 0.42528 cumulative IPC: 0.412039 (Simulation time: 0 hr 13 min 54 sec) 
Heartbeat CPU 0 instructions: 118000000 cycles: 286716765 heartbeat IPC: 0.455151 cumulative IPC: 0.412401 (Simulation time: 0 hr 14 min 1 sec) 
Heartbeat CPU 0 instructions: 119000000 cycles: 288880665 heartbeat IPC: 0.462129 cumulative IPC: 0.412808 (Simulation time: 0 hr 14 min 8 sec) 
Heartbeat CPU 0 instructions: 120000003 cycles: 291118388 heartbeat IPC: 0.446884 cumulative IPC: 0.413095 (Simulation time: 0 hr 14 min 15 sec) 
Heartbeat CPU 0 instructions: 121000000 cycles: 293310968 heartbeat IPC: 0.456082 cumulative IPC: 0.413446 (Simulation time: 0 hr 14 min 22 sec) 
Heartbeat CPU 0 instructions: 122000001 cycles: 295677821 heartbeat IPC: 0.422502 cumulative IPC: 0.413525 (Simulation time: 0 hr 14 min 29 sec) 
Heartbeat CPU 0 instructions: 123000003 cycles: 297804917 heartbeat IPC: 0.470125 cumulative IPC: 0.413966 (Simulation time: 0 hr 14 min 36 sec) 
Heartbeat CPU 0 instructions: 124000000 cycles: 300255654 heartbeat IPC: 0.408039 cumulative IPC: 0.413913 (Simulation time: 0 hr 14 min 43 sec) 
Heartbeat CPU 0 instructions: 125000000 cycles: 302382928 heartbeat IPC: 0.470085 cumulative IPC: 0.414344 (Simulation time: 0 hr 14 min 50 sec) 
Heartbeat CPU 0 instructions: 126000002 cycles: 304611824 heartbeat IPC: 0.448653 cumulative IPC: 0.414617 (Simulation time: 0 hr 14 min 56 sec) 
Heartbeat CPU 0 instructions: 127000000 cycles: 306777340 heartbeat IPC: 0.461783 cumulative IPC: 0.414979 (Simulation time: 0 hr 15 min 3 sec) 
Heartbeat CPU 0 instructions: 128000003 cycles: 308936939 heartbeat IPC: 0.46305 cumulative IPC: 0.415345 (Simulation time: 0 hr 15 min 10 sec) 
Heartbeat CPU 0 instructions: 129000000 cycles: 311342337 heartbeat IPC: 0.41573 cumulative IPC: 0.415348 (Simulation time: 0 hr 15 min 17 sec) 
Heartbeat CPU 0 instructions: 130000000 cycles: 313752871 heartbeat IPC: 0.414846 cumulative IPC: 0.415344 (Simulation time: 0 hr 15 min 24 sec) 
Heartbeat CPU 0 instructions: 131000002 cycles: 315832664 heartbeat IPC: 0.480818 cumulative IPC: 0.415812 (Simulation time: 0 hr 15 min 31 sec) 
Heartbeat CPU 0 instructions: 132000000 cycles: 318168861 heartbeat IPC: 0.428045 cumulative IPC: 0.415909 (Simulation time: 0 hr 15 min 38 sec) 
Heartbeat CPU 0 instructions: 133000003 cycles: 320446586 heartbeat IPC: 0.439036 cumulative IPC: 0.416087 (Simulation time: 0 hr 15 min 45 sec) 
Heartbeat CPU 0 instructions: 134000002 cycles: 322660451 heartbeat IPC: 0.451698 cumulative IPC: 0.416352 (Simulation time: 0 hr 15 min 52 sec) 
Heartbeat CPU 0 instructions: 135000000 cycles: 324892032 heartbeat IPC: 0.448112 cumulative IPC: 0.416588 (Simulation time: 0 hr 15 min 59 sec) 
Heartbeat CPU 0 instructions: 136000001 cycles: 327105159 heartbeat IPC: 0.45185 cumulative IPC: 0.416846 (Simulation time: 0 hr 16 min 6 sec) 
Heartbeat CPU 0 instructions: 137000003 cycles: 329222644 heartbeat IPC: 0.472259 cumulative IPC: 0.417232 (Simulation time: 0 hr 16 min 13 sec) 
Heartbeat CPU 0 instructions: 138000000 cycles: 331486679 heartbeat IPC: 0.441688 cumulative IPC: 0.417412 (Simulation time: 0 hr 16 min 19 sec) 
Heartbeat CPU 0 instructions: 139000000 cycles: 334106668 heartbeat IPC: 0.381681 cumulative IPC: 0.41711 (Simulation time: 0 hr 16 min 27 sec) 
Heartbeat CPU 0 instructions: 140000001 cycles: 336082999 heartbeat IPC: 0.505989 cumulative IPC: 0.417674 (Simulation time: 0 hr 16 min 33 sec) 
Heartbeat CPU 0 instructions: 141000001 cycles: 338377287 heartbeat IPC: 0.435865 cumulative IPC: 0.417807 (Simulation time: 0 hr 16 min 40 sec) 
Heartbeat CPU 0 instructions: 142000001 cycles: 340484404 heartbeat IPC: 0.474582 cumulative IPC: 0.418186 (Simulation time: 0 hr 16 min 47 sec) 
Heartbeat CPU 0 instructions: 143000000 cycles: 342786784 heartbeat IPC: 0.434333 cumulative IPC: 0.418303 (Simulation time: 0 hr 16 min 54 sec) 
Heartbeat CPU 0 instructions: 144000000 cycles: 345046913 heartbeat IPC: 0.442453 cumulative IPC: 0.418474 (Simulation time: 0 hr 17 min 1 sec) 
Heartbeat CPU 0 instructions: 145000001 cycles: 347344759 heartbeat IPC: 0.435191 cumulative IPC: 0.418593 (Simulation time: 0 hr 17 min 7 sec) 
Heartbeat CPU 0 instructions: 146000000 cycles: 349641780 heartbeat IPC: 0.435346 cumulative IPC: 0.418711 (Simulation time: 0 hr 17 min 14 sec) 
Heartbeat CPU 0 instructions: 147000003 cycles: 351884641 heartbeat IPC: 0.44586 cumulative IPC: 0.418897 (Simulation time: 0 hr 17 min 21 sec) 
Heartbeat CPU 0 instructions: 148000003 cycles: 354240371 heartbeat IPC: 0.424497 cumulative IPC: 0.418937 (Simulation time: 0 hr 17 min 28 sec) 
Heartbeat CPU 0 instructions: 149000001 cycles: 356468290 heartbeat IPC: 0.448848 cumulative IPC: 0.419138 (Simulation time: 0 hr 17 min 35 sec) 
Heartbeat CPU 0 instructions: 150000002 cycles: 358622554 heartbeat IPC: 0.464196 cumulative IPC: 0.419429 (Simulation time: 0 hr 17 min 41 sec) 
Heartbeat CPU 0 instructions: 151000001 cycles: 361016395 heartbeat IPC: 0.417738 cumulative IPC: 0.419417 (Simulation time: 0 hr 17 min 48 sec) 
Heartbeat CPU 0 instructions: 152000000 cycles: 363281354 heartbeat IPC: 0.441509 cumulative IPC: 0.419565 (Simulation time: 0 hr 17 min 55 sec) 
Heartbeat CPU 0 instructions: 153000001 cycles: 365506890 heartbeat IPC: 0.44933 cumulative IPC: 0.419759 (Simulation time: 0 hr 18 min 2 sec) 
Heartbeat CPU 0 instructions: 154000000 cycles: 367712673 heartbeat IPC: 0.453353 cumulative IPC: 0.419975 (Simulation time: 0 hr 18 min 9 sec) 
Heartbeat CPU 0 instructions: 155000003 cycles: 370156607 heartbeat IPC: 0.409178 cumulative IPC: 0.419899 (Simulation time: 0 hr 18 min 16 sec) 
Heartbeat CPU 0 instructions: 156000002 cycles: 372454806 heartbeat IPC: 0.435123 cumulative IPC: 0.42 (Simulation time: 0 hr 18 min 23 sec) 
Heartbeat CPU 0 instructions: 157000000 cycles: 374562407 heartbeat IPC: 0.474472 cumulative IPC: 0.420328 (Simulation time: 0 hr 18 min 30 sec) 
Heartbeat CPU 0 instructions: 158000002 cycles: 376898642 heartbeat IPC: 0.42804 cumulative IPC: 0.420379 (Simulation time: 0 hr 18 min 37 sec) 
Heartbeat CPU 0 instructions: 159000001 cycles: 378910917 heartbeat IPC: 0.496949 cumulative IPC: 0.420814 (Simulation time: 0 hr 18 min 43 sec) 
Heartbeat CPU 0 instructions: 160000000 cycles: 381190174 heartbeat IPC: 0.438739 cumulative IPC: 0.420929 (Simulation time: 0 hr 18 min 50 sec) 
Heartbeat CPU 0 instructions: 161000002 cycles: 383515257 heartbeat IPC: 0.430093 cumulative IPC: 0.420988 (Simulation time: 0 hr 18 min 57 sec) 
Heartbeat CPU 0 instructions: 162000001 cycles: 385314662 heartbeat IPC: 0.555739 cumulative IPC: 0.421661 (Simulation time: 0 hr 19 min 4 sec) 
Heartbeat CPU 0 instructions: 163000001 cycles: 387531842 heartbeat IPC: 0.451023 cumulative IPC: 0.42184 (Simulation time: 0 hr 19 min 11 sec) 
Heartbeat CPU 0 instructions: 164000001 cycles: 389706349 heartbeat IPC: 0.459874 cumulative IPC: 0.422067 (Simulation time: 0 hr 19 min 18 sec) 
Heartbeat CPU 0 instructions: 165000000 cycles: 391978262 heartbeat IPC: 0.440157 cumulative IPC: 0.422179 (Simulation time: 0 hr 19 min 25 sec) 
Heartbeat CPU 0 instructions: 166000003 cycles: 394241900 heartbeat IPC: 0.441768 cumulative IPC: 0.422299 (Simulation time: 0 hr 19 min 31 sec) 
Heartbeat CPU 0 instructions: 167000000 cycles: 396496674 heartbeat IPC: 0.443502 cumulative IPC: 0.422428 (Simulation time: 0 hr 19 min 38 sec) 
Heartbeat CPU 0 instructions: 168000001 cycles: 398703881 heartbeat IPC: 0.453062 cumulative IPC: 0.422609 (Simulation time: 0 hr 19 min 45 sec) 
Heartbeat CPU 0 instructions: 169000000 cycles: 401035884 heartbeat IPC: 0.428815 cumulative IPC: 0.422647 (Simulation time: 0 hr 19 min 52 sec) 
Heartbeat CPU 0 instructions: 170000000 cycles: 403132885 heartbeat IPC: 0.476871 cumulative IPC: 0.422948 (Simulation time: 0 hr 19 min 59 sec) 
Heartbeat CPU 0 instructions: 171000001 cycles: 405378668 heartbeat IPC: 0.445279 cumulative IPC: 0.423079 (Simulation time: 0 hr 20 min 6 sec) 
Heartbeat CPU 0 instructions: 172000003 cycles: 407607302 heartbeat IPC: 0.448706 cumulative IPC: 0.423229 (Simulation time: 0 hr 20 min 13 sec) 
Heartbeat CPU 0 instructions: 173000000 cycles: 409743202 heartbeat IPC: 0.468185 cumulative IPC: 0.423478 (Simulation time: 0 hr 20 min 19 sec) 
Heartbeat CPU 0 instructions: 174000002 cycles: 412132124 heartbeat IPC: 0.4186 cumulative IPC: 0.423448 (Simulation time: 0 hr 20 min 27 sec) 
Heartbeat CPU 0 instructions: 175000000 cycles: 414355052 heartbeat IPC: 0.449856 cumulative IPC: 0.423599 (Simulation time: 0 hr 20 min 33 sec) 
Heartbeat CPU 0 instructions: 176000000 cycles: 416629952 heartbeat IPC: 0.43958 cumulative IPC: 0.423692 (Simulation time: 0 hr 20 min 40 sec) 
Heartbeat CPU 0 instructions: 177000001 cycles: 418879867 heartbeat IPC: 0.444462 cumulative IPC: 0.42381 (Simulation time: 0 hr 20 min 47 sec) 
Heartbeat CPU 0 instructions: 178000000 cycles: 420923373 heartbeat IPC: 0.489355 cumulative IPC: 0.424148 (Simulation time: 0 hr 20 min 54 sec) 
Heartbeat CPU 0 instructions: 179000002 cycles: 423337094 heartbeat IPC: 0.414299 cumulative IPC: 0.424089 (Simulation time: 0 hr 21 min 1 sec) 
Heartbeat CPU 0 instructions: 180000000 cycles: 425502364 heartbeat IPC: 0.461835 cumulative IPC: 0.424293 (Simulation time: 0 hr 21 min 8 sec) 
Heartbeat CPU 0 instructions: 181000000 cycles: 427826159 heartbeat IPC: 0.430331 cumulative IPC: 0.424327 (Simulation time: 0 hr 21 min 15 sec) 
Heartbeat CPU 0 instructions: 182000002 cycles: 430007947 heartbeat IPC: 0.458341 cumulative IPC: 0.424511 (Simulation time: 0 hr 21 min 22 sec) 
Heartbeat CPU 0 instructions: 183000002 cycles: 432117224 heartbeat IPC: 0.474096 cumulative IPC: 0.424767 (Simulation time: 0 hr 21 min 29 sec) 
Heartbeat CPU 0 instructions: 184000000 cycles: 434395303 heartbeat IPC: 0.438965 cumulative IPC: 0.424846 (Simulation time: 0 hr 21 min 36 sec) 
Heartbeat CPU 0 instructions: 185000001 cycles: 436750336 heartbeat IPC: 0.424623 cumulative IPC: 0.424845 (Simulation time: 0 hr 21 min 44 sec) 
Heartbeat CPU 0 instructions: 186000001 cycles: 439193587 heartbeat IPC: 0.409291 cumulative IPC: 0.424753 (Simulation time: 0 hr 21 min 51 sec) 
Heartbeat CPU 0 instructions: 187000000 cycles: 441438192 heartbeat IPC: 0.445512 cumulative IPC: 0.424865 (Simulation time: 0 hr 21 min 58 sec) 
Heartbeat CPU 0 instructions: 188000003 cycles: 443601672 heartbeat IPC: 0.46222 cumulative IPC: 0.425058 (Simulation time: 0 hr 22 min 5 sec) 
Heartbeat CPU 0 instructions: 189000001 cycles: 445902060 heartbeat IPC: 0.434708 cumulative IPC: 0.425111 (Simulation time: 0 hr 22 min 12 sec) 
Heartbeat CPU 0 instructions: 190000003 cycles: 448066860 heartbeat IPC: 0.461937 cumulative IPC: 0.425299 (Simulation time: 0 hr 22 min 19 sec) 
Heartbeat CPU 0 instructions: 191000000 cycles: 450261052 heartbeat IPC: 0.455747 cumulative IPC: 0.425456 (Simulation time: 0 hr 22 min 26 sec) 
Heartbeat CPU 0 instructions: 192000000 cycles: 452551035 heartbeat IPC: 0.436684 cumulative IPC: 0.425516 (Simulation time: 0 hr 22 min 33 sec) 
Heartbeat CPU 0 instructions: 193000000 cycles: 454758094 heartbeat IPC: 0.453092 cumulative IPC: 0.425658 (Simulation time: 0 hr 22 min 39 sec) 
Heartbeat CPU 0 instructions: 194000000 cycles: 456951174 heartbeat IPC: 0.45598 cumulative IPC: 0.425812 (Simulation time: 0 hr 22 min 46 sec) 
Heartbeat CPU 0 instructions: 195000002 cycles: 459251096 heartbeat IPC: 0.434798 cumulative IPC: 0.425859 (Simulation time: 0 hr 22 min 53 sec) 
Heartbeat CPU 0 instructions: 196000003 cycles: 461565108 heartbeat IPC: 0.43215 cumulative IPC: 0.425893 (Simulation time: 0 hr 23 min 0 sec) 
Heartbeat CPU 0 instructions: 197000000 cycles: 463650458 heartbeat IPC: 0.479534 cumulative IPC: 0.426148 (Simulation time: 0 hr 23 min 7 sec) 
Heartbeat CPU 0 instructions: 198000000 cycles: 465974426 heartbeat IPC: 0.430299 cumulative IPC: 0.42617 (Simulation time: 0 hr 23 min 14 sec) 
Heartbeat CPU 0 instructions: 199000002 cycles: 468169318 heartbeat IPC: 0.455604 cumulative IPC: 0.426315 (Simulation time: 0 hr 23 min 21 sec) 
Heartbeat CPU 0 instructions: 200000000 cycles: 470378576 heartbeat IPC: 0.45264 cumulative IPC: 0.426446 (Simulation time: 0 hr 23 min 28 sec) 
Heartbeat CPU 0 instructions: 201000000 cycles: 472663684 heartbeat IPC: 0.437616 cumulative IPC: 0.426503 (Simulation time: 0 hr 23 min 35 sec) 
Heartbeat CPU 0 instructions: 202000002 cycles: 474808950 heartbeat IPC: 0.466144 cumulative IPC: 0.426692 (Simulation time: 0 hr 23 min 42 sec) 
Heartbeat CPU 0 instructions: 203000000 cycles: 477023659 heartbeat IPC: 0.451526 cumulative IPC: 0.426813 (Simulation time: 0 hr 23 min 50 sec) 
Heartbeat CPU 0 instructions: 204000003 cycles: 479342647 heartbeat IPC: 0.431224 cumulative IPC: 0.426836 (Simulation time: 0 hr 23 min 57 sec) 
Heartbeat CPU 0 instructions: 205000002 cycles: 481480666 heartbeat IPC: 0.467722 cumulative IPC: 0.427027 (Simulation time: 0 hr 24 min 4 sec) 
Heartbeat CPU 0 instructions: 206000002 cycles: 483640457 heartbeat IPC: 0.463008 cumulative IPC: 0.427197 (Simulation time: 0 hr 24 min 11 sec) 
Heartbeat CPU 0 instructions: 207000002 cycles: 486109419 heartbeat IPC: 0.405029 cumulative IPC: 0.427078 (Simulation time: 0 hr 24 min 18 sec) 
Heartbeat CPU 0 instructions: 208000000 cycles: 488433579 heartbeat IPC: 0.430262 cumulative IPC: 0.427094 (Simulation time: 0 hr 24 min 25 sec) 
Heartbeat CPU 0 instructions: 209000000 cycles: 490509392 heartbeat IPC: 0.481739 cumulative IPC: 0.427338 (Simulation time: 0 hr 24 min 32 sec) 
Heartbeat CPU 0 instructions: 210000000 cycles: 492744909 heartbeat IPC: 0.447324 cumulative IPC: 0.427433 (Simulation time: 0 hr 24 min 39 sec) 
Heartbeat CPU 0 instructions: 211000003 cycles: 495179989 heartbeat IPC: 0.410665 cumulative IPC: 0.427346 (Simulation time: 0 hr 24 min 46 sec) 
Heartbeat CPU 0 instructions: 212000000 cycles: 497380992 heartbeat IPC: 0.454337 cumulative IPC: 0.427472 (Simulation time: 0 hr 24 min 53 sec) 
Heartbeat CPU 0 instructions: 213000003 cycles: 499509690 heartbeat IPC: 0.469772 cumulative IPC: 0.427662 (Simulation time: 0 hr 25 min 0 sec) 
Heartbeat CPU 0 instructions: 214000002 cycles: 501751925 heartbeat IPC: 0.445983 cumulative IPC: 0.427748 (Simulation time: 0 hr 25 min 7 sec) 
Heartbeat CPU 0 instructions: 215000000 cycles: 503954385 heartbeat IPC: 0.454037 cumulative IPC: 0.427869 (Simulation time: 0 hr 25 min 14 sec) 
Heartbeat CPU 0 instructions: 216000003 cycles: 506234336 heartbeat IPC: 0.438607 cumulative IPC: 0.42792 (Simulation time: 0 hr 25 min 21 sec) 
Heartbeat CPU 0 instructions: 217000000 cycles: 508657248 heartbeat IPC: 0.412725 cumulative IPC: 0.427844 (Simulation time: 0 hr 25 min 28 sec) 
Heartbeat CPU 0 instructions: 218000000 cycles: 510348358 heartbeat IPC: 0.591328 cumulative IPC: 0.428413 (Simulation time: 0 hr 25 min 35 sec) 
Heartbeat CPU 0 instructions: 219000003 cycles: 512591360 heartbeat IPC: 0.445832 cumulative IPC: 0.428493 (Simulation time: 0 hr 25 min 42 sec) 
Heartbeat CPU 0 instructions: 220000000 cycles: 514860606 heartbeat IPC: 0.440674 cumulative IPC: 0.428549 (Simulation time: 0 hr 25 min 49 sec) 
Heartbeat CPU 0 instructions: 221000000 cycles: 517101627 heartbeat IPC: 0.446225 cumulative IPC: 0.42863 (Simulation time: 0 hr 25 min 56 sec) 
Heartbeat CPU 0 instructions: 222000003 cycles: 519067303 heartbeat IPC: 0.508732 cumulative IPC: 0.428949 (Simulation time: 0 hr 26 min 3 sec) 
Heartbeat CPU 0 instructions: 223000001 cycles: 521311097 heartbeat IPC: 0.445673 cumulative IPC: 0.429024 (Simulation time: 0 hr 26 min 10 sec) 
Heartbeat CPU 0 instructions: 224000003 cycles: 523533718 heartbeat IPC: 0.44992 cumulative IPC: 0.429117 (Simulation time: 0 hr 26 min 17 sec) 
Heartbeat CPU 0 instructions: 225000000 cycles: 525820554 heartbeat IPC: 0.437284 cumulative IPC: 0.429155 (Simulation time: 0 hr 26 min 24 sec) 
Heartbeat CPU 0 instructions: 226000000 cycles: 527901556 heartbeat IPC: 0.480538 cumulative IPC: 0.429367 (Simulation time: 0 hr 26 min 31 sec) 
Heartbeat CPU 0 instructions: 227000001 cycles: 530193831 heartbeat IPC: 0.436248 cumulative IPC: 0.429398 (Simulation time: 0 hr 26 min 38 sec) 
Heartbeat CPU 0 instructions: 228000000 cycles: 532484277 heartbeat IPC: 0.436596 cumulative IPC: 0.429431 (Simulation time: 0 hr 26 min 45 sec) 
Heartbeat CPU 0 instructions: 229000001 cycles: 534714924 heartbeat IPC: 0.448301 cumulative IPC: 0.429513 (Simulation time: 0 hr 26 min 52 sec) 
Heartbeat CPU 0 instructions: 230000002 cycles: 536954582 heartbeat IPC: 0.446497 cumulative IPC: 0.429588 (Simulation time: 0 hr 26 min 59 sec) 
Heartbeat CPU 0 instructions: 231000000 cycles: 539234632 heartbeat IPC: 0.438586 cumulative IPC: 0.429627 (Simulation time: 0 hr 27 min 6 sec) 
Heartbeat CPU 0 instructions: 232000003 cycles: 541482920 heartbeat IPC: 0.444784 cumulative IPC: 0.429693 (Simulation time: 0 hr 27 min 13 sec) 
Heartbeat CPU 0 instructions: 233000002 cycles: 543756623 heartbeat IPC: 0.439811 cumulative IPC: 0.429738 (Simulation time: 0 hr 27 min 20 sec) 
Heartbeat CPU 0 instructions: 234000002 cycles: 546017488 heartbeat IPC: 0.442309 cumulative IPC: 0.429792 (Simulation time: 0 hr 27 min 27 sec) 
Heartbeat CPU 0 instructions: 235000003 cycles: 548227322 heartbeat IPC: 0.452523 cumulative IPC: 0.429888 (Simulation time: 0 hr 27 min 34 sec) 
Heartbeat CPU 0 instructions: 236000003 cycles: 550521194 heartbeat IPC: 0.435944 cumulative IPC: 0.429915 (Simulation time: 0 hr 27 min 41 sec) 
Heartbeat CPU 0 instructions: 237000000 cycles: 552668089 heartbeat IPC: 0.465788 cumulative IPC: 0.430061 (Simulation time: 0 hr 27 min 48 sec) 
Heartbeat CPU 0 instructions: 238000000 cycles: 555023855 heartbeat IPC: 0.42449 cumulative IPC: 0.430036 (Simulation time: 0 hr 27 min 55 sec) 
Heartbeat CPU 0 instructions: 239000001 cycles: 557197959 heartbeat IPC: 0.45996 cumulative IPC: 0.430158 (Simulation time: 0 hr 28 min 2 sec) 
Heartbeat CPU 0 instructions: 240000001 cycles: 559415044 heartbeat IPC: 0.451043 cumulative IPC: 0.430245 (Simulation time: 0 hr 28 min 8 sec) 
Heartbeat CPU 0 instructions: 241000003 cycles: 561747907 heartbeat IPC: 0.428659 cumulative IPC: 0.430238 (Simulation time: 0 hr 28 min 15 sec) 
Heartbeat CPU 0 instructions: 242000000 cycles: 564076179 heartbeat IPC: 0.429502 cumulative IPC: 0.430235 (Simulation time: 0 hr 28 min 22 sec) 
Heartbeat CPU 0 instructions: 243000003 cycles: 566270470 heartbeat IPC: 0.455729 cumulative IPC: 0.430338 (Simulation time: 0 hr 28 min 29 sec) 
Heartbeat CPU 0 instructions: 244000000 cycles: 568506194 heartbeat IPC: 0.447281 cumulative IPC: 0.430408 (Simulation time: 0 hr 28 min 36 sec) 
Heartbeat CPU 0 instructions: 245000000 cycles: 570858407 heartbeat IPC: 0.425132 cumulative IPC: 0.430385 (Simulation time: 0 hr 28 min 43 sec) 
Heartbeat CPU 0 instructions: 246000000 cycles: 572987104 heartbeat IPC: 0.469771 cumulative IPC: 0.430538 (Simulation time: 0 hr 28 min 50 sec) 
Heartbeat CPU 0 instructions: 247000001 cycles: 575226929 heartbeat IPC: 0.446464 cumulative IPC: 0.430603 (Simulation time: 0 hr 28 min 57 sec) 
Heartbeat CPU 0 instructions: 248000000 cycles: 577499289 heartbeat IPC: 0.440071 cumulative IPC: 0.430642 (Simulation time: 0 hr 29 min 4 sec) 
Heartbeat CPU 0 instructions: 249000001 cycles: 579656034 heartbeat IPC: 0.463662 cumulative IPC: 0.43077 (Simulation time: 0 hr 29 min 11 sec) 
Heartbeat CPU 0 instructions: 250000000 cycles: 581859796 heartbeat IPC: 0.453769 cumulative IPC: 0.430861 (Simulation time: 0 hr 29 min 18 sec) 
Heartbeat CPU 0 instructions: 251000002 cycles: 584059015 heartbeat IPC: 0.454708 cumulative IPC: 0.430955 (Simulation time: 0 hr 29 min 25 sec) 
Heartbeat CPU 0 instructions: 252000000 cycles: 586331496 heartbeat IPC: 0.440047 cumulative IPC: 0.430992 (Simulation time: 0 hr 29 min 32 sec) 
Heartbeat CPU 0 instructions: 253000000 cycles: 588505583 heartbeat IPC: 0.459963 cumulative IPC: 0.431103 (Simulation time: 0 hr 29 min 39 sec) 
Heartbeat CPU 0 instructions: 254000001 cycles: 590945313 heartbeat IPC: 0.409882 cumulative IPC: 0.431012 (Simulation time: 0 hr 29 min 46 sec) 
Heartbeat CPU 0 instructions: 255000003 cycles: 593210973 heartbeat IPC: 0.441373 cumulative IPC: 0.431053 (Simulation time: 0 hr 29 min 53 sec) 
Heartbeat CPU 0 instructions: 256000003 cycles: 595192174 heartbeat IPC: 0.504744 cumulative IPC: 0.431309 (Simulation time: 0 hr 29 min 59 sec) 
Heartbeat CPU 0 instructions: 257000000 cycles: 597503845 heartbeat IPC: 0.432586 cumulative IPC: 0.431314 (Simulation time: 0 hr 30 min 7 sec) 
Heartbeat CPU 0 instructions: 258000002 cycles: 599736826 heartbeat IPC: 0.447833 cumulative IPC: 0.431378 (Simulation time: 0 hr 30 min 14 sec) 
Heartbeat CPU 0 instructions: 259000001 cycles: 602041011 heartbeat IPC: 0.433993 cumulative IPC: 0.431389 (Simulation time: 0 hr 30 min 21 sec) 
Heartbeat CPU 0 instructions: 260000000 cycles: 604184457 heartbeat IPC: 0.466538 cumulative IPC: 0.431519 (Simulation time: 0 hr 30 min 29 sec) 
Heartbeat CPU 0 instructions: 261000000 cycles: 606314935 heartbeat IPC: 0.469378 cumulative IPC: 0.431658 (Simulation time: 0 hr 30 min 36 sec) 
Heartbeat CPU 0 instructions: 262000001 cycles: 608767522 heartbeat IPC: 0.407733 cumulative IPC: 0.431557 (Simulation time: 0 hr 30 min 43 sec) 
Heartbeat CPU 0 instructions: 263000003 cycles: 611020031 heartbeat IPC: 0.44395 cumulative IPC: 0.431605 (Simulation time: 0 hr 30 min 50 sec) 
Heartbeat CPU 0 instructions: 264000000 cycles: 613169289 heartbeat IPC: 0.465275 cumulative IPC: 0.431728 (Simulation time: 0 hr 30 min 58 sec) 
Heartbeat CPU 0 instructions: 265000000 cycles: 615514492 heartbeat IPC: 0.426402 cumulative IPC: 0.431707 (Simulation time: 0 hr 31 min 5 sec) 
Heartbeat CPU 0 instructions: 266000001 cycles: 617797863 heartbeat IPC: 0.437949 cumulative IPC: 0.431731 (Simulation time: 0 hr 31 min 12 sec) 
Heartbeat CPU 0 instructions: 267000001 cycles: 619997868 heartbeat IPC: 0.454544 cumulative IPC: 0.431815 (Simulation time: 0 hr 31 min 19 sec) 
Heartbeat CPU 0 instructions: 268000000 cycles: 622211690 heartbeat IPC: 0.451707 cumulative IPC: 0.431889 (Simulation time: 0 hr 31 min 27 sec) 
Heartbeat CPU 0 instructions: 269000002 cycles: 624458503 heartbeat IPC: 0.445076 cumulative IPC: 0.431938 (Simulation time: 0 hr 31 min 34 sec) 
Heartbeat CPU 0 instructions: 270000000 cycles: 626754386 heartbeat IPC: 0.435561 cumulative IPC: 0.431952 (Simulation time: 0 hr 31 min 41 sec) 
Heartbeat CPU 0 instructions: 271000001 cycles: 628968059 heartbeat IPC: 0.451738 cumulative IPC: 0.432024 (Simulation time: 0 hr 31 min 48 sec) 
Heartbeat CPU 0 instructions: 272000003 cycles: 631365802 heartbeat IPC: 0.41706 cumulative IPC: 0.431965 (Simulation time: 0 hr 31 min 56 sec) 
Heartbeat CPU 0 instructions: 273000002 cycles: 633115542 heartbeat IPC: 0.571513 cumulative IPC: 0.432367 (Simulation time: 0 hr 32 min 3 sec) 
Heartbeat CPU 0 instructions: 274000001 cycles: 635427069 heartbeat IPC: 0.432614 cumulative IPC: 0.432368 (Simulation time: 0 hr 32 min 10 sec) 
Heartbeat CPU 0 instructions: 275000000 cycles: 637609884 heartbeat IPC: 0.458124 cumulative IPC: 0.432459 (Simulation time: 0 hr 32 min 17 sec) 
Heartbeat CPU 0 instructions: 276000000 cycles: 640010016 heartbeat IPC: 0.416644 cumulative IPC: 0.432398 (Simulation time: 0 hr 32 min 24 sec) 
Heartbeat CPU 0 instructions: 277000000 cycles: 642223156 heartbeat IPC: 0.451847 cumulative IPC: 0.432467 (Simulation time: 0 hr 32 min 31 sec) 
Heartbeat CPU 0 instructions: 278000000 cycles: 644523989 heartbeat IPC: 0.434625 cumulative IPC: 0.432475 (Simulation time: 0 hr 32 min 39 sec) 
Heartbeat CPU 0 instructions: 279000001 cycles: 646603466 heartbeat IPC: 0.480891 cumulative IPC: 0.432637 (Simulation time: 0 hr 32 min 46 sec) 
Heartbeat CPU 0 instructions: 280000001 cycles: 648915687 heartbeat IPC: 0.432485 cumulative IPC: 0.432637 (Simulation time: 0 hr 32 min 53 sec) 
Heartbeat CPU 0 instructions: 281000001 cycles: 651158654 heartbeat IPC: 0.445838 cumulative IPC: 0.432684 (Simulation time: 0 hr 33 min 1 sec) 
Heartbeat CPU 0 instructions: 282000001 cycles: 653550846 heartbeat IPC: 0.418027 cumulative IPC: 0.432628 (Simulation time: 0 hr 33 min 8 sec) 
Heartbeat CPU 0 instructions: 283000000 cycles: 655753738 heartbeat IPC: 0.453948 cumulative IPC: 0.432703 (Simulation time: 0 hr 33 min 15 sec) 
Heartbeat CPU 0 instructions: 284000003 cycles: 657951607 heartbeat IPC: 0.454988 cumulative IPC: 0.43278 (Simulation time: 0 hr 33 min 22 sec) 
Heartbeat CPU 0 instructions: 285000000 cycles: 660114815 heartbeat IPC: 0.462275 cumulative IPC: 0.43288 (Simulation time: 0 hr 33 min 29 sec) 
Heartbeat CPU 0 instructions: 286000000 cycles: 662423148 heartbeat IPC: 0.433213 cumulative IPC: 0.432882 (Simulation time: 0 hr 33 min 37 sec) 
Heartbeat CPU 0 instructions: 287000002 cycles: 664668508 heartbeat IPC: 0.445364 cumulative IPC: 0.432925 (Simulation time: 0 hr 33 min 44 sec) 
Heartbeat CPU 0 instructions: 288000000 cycles: 666840758 heartbeat IPC: 0.460351 cumulative IPC: 0.433018 (Simulation time: 0 hr 33 min 51 sec) 
Heartbeat CPU 0 instructions: 289000001 cycles: 669170873 heartbeat IPC: 0.429164 cumulative IPC: 0.433004 (Simulation time: 0 hr 33 min 58 sec) 
Heartbeat CPU 0 instructions: 290000000 cycles: 671398708 heartbeat IPC: 0.448866 cumulative IPC: 0.433059 (Simulation time: 0 hr 34 min 6 sec) 
Heartbeat CPU 0 instructions: 291000002 cycles: 673564298 heartbeat IPC: 0.461769 cumulative IPC: 0.433155 (Simulation time: 0 hr 34 min 13 sec) 
Heartbeat CPU 0 instructions: 292000001 cycles: 675761274 heartbeat IPC: 0.455171 cumulative IPC: 0.433229 (Simulation time: 0 hr 34 min 20 sec) 
Heartbeat CPU 0 instructions: 293000003 cycles: 678115714 heartbeat IPC: 0.42473 cumulative IPC: 0.433198 (Simulation time: 0 hr 34 min 28 sec) 
Heartbeat CPU 0 instructions: 294000001 cycles: 680468030 heartbeat IPC: 0.425112 cumulative IPC: 0.433169 (Simulation time: 0 hr 34 min 35 sec) 
Heartbeat CPU 0 instructions: 295000000 cycles: 682761074 heartbeat IPC: 0.436101 cumulative IPC: 0.43318 (Simulation time: 0 hr 34 min 42 sec) 
Heartbeat CPU 0 instructions: 296000000 cycles: 684933071 heartbeat IPC: 0.460406 cumulative IPC: 0.433269 (Simulation time: 0 hr 34 min 49 sec) 
Heartbeat CPU 0 instructions: 297000000 cycles: 687203183 heartbeat IPC: 0.440507 cumulative IPC: 0.433294 (Simulation time: 0 hr 34 min 56 sec) 
Heartbeat CPU 0 instructions: 298000003 cycles: 689532937 heartbeat IPC: 0.429231 cumulative IPC: 0.43328 (Simulation time: 0 hr 35 min 4 sec) 
Heartbeat CPU 0 instructions: 299000003 cycles: 691728910 heartbeat IPC: 0.455379 cumulative IPC: 0.433353 (Simulation time: 0 hr 35 min 11 sec) 
Heartbeat CPU 0 instructions: 300000000 cycles: 693812548 heartbeat IPC: 0.479928 cumulative IPC: 0.433498 (Simulation time: 0 hr 35 min 18 sec) 
Heartbeat CPU 0 instructions: 301000003 cycles: 696086113 heartbeat IPC: 0.439839 cumulative IPC: 0.433519 (Simulation time: 0 hr 35 min 26 sec) 
Heartbeat CPU 0 instructions: 302000000 cycles: 698222258 heartbeat IPC: 0.468132 cumulative IPC: 0.433629 (Simulation time: 0 hr 35 min 33 sec) 
Heartbeat CPU 0 instructions: 303000001 cycles: 700511985 heartbeat IPC: 0.436734 cumulative IPC: 0.433639 (Simulation time: 0 hr 35 min 40 sec) 
Heartbeat CPU 0 instructions: 304000000 cycles: 702557064 heartbeat IPC: 0.488978 cumulative IPC: 0.433806 (Simulation time: 0 hr 35 min 47 sec) 
Heartbeat CPU 0 instructions: 305000000 cycles: 704904274 heartbeat IPC: 0.426038 cumulative IPC: 0.43378 (Simulation time: 0 hr 35 min 54 sec) 
Heartbeat CPU 0 instructions: 306000001 cycles: 707032270 heartbeat IPC: 0.469926 cumulative IPC: 0.433892 (Simulation time: 0 hr 36 min 1 sec) 
Heartbeat CPU 0 instructions: 307000000 cycles: 709285689 heartbeat IPC: 0.44377 cumulative IPC: 0.433925 (Simulation time: 0 hr 36 min 9 sec) 
Heartbeat CPU 0 instructions: 308000000 cycles: 711604055 heartbeat IPC: 0.431338 cumulative IPC: 0.433916 (Simulation time: 0 hr 36 min 16 sec) 
Heartbeat CPU 0 instructions: 309000000 cycles: 713737914 heartbeat IPC: 0.468635 cumulative IPC: 0.434024 (Simulation time: 0 hr 36 min 23 sec) 
Heartbeat CPU 0 instructions: 310000000 cycles: 715980951 heartbeat IPC: 0.445824 cumulative IPC: 0.434062 (Simulation time: 0 hr 36 min 31 sec) 
Heartbeat CPU 0 instructions: 311000000 cycles: 718237382 heartbeat IPC: 0.443178 cumulative IPC: 0.434092 (Simulation time: 0 hr 36 min 38 sec) 
Heartbeat CPU 0 instructions: 312000002 cycles: 720537985 heartbeat IPC: 0.43467 cumulative IPC: 0.434094 (Simulation time: 0 hr 36 min 45 sec) 
Heartbeat CPU 0 instructions: 313000001 cycles: 722523672 heartbeat IPC: 0.503604 cumulative IPC: 0.434291 (Simulation time: 0 hr 36 min 52 sec) 
Heartbeat CPU 0 instructions: 314000000 cycles: 724915927 heartbeat IPC: 0.418015 cumulative IPC: 0.434236 (Simulation time: 0 hr 36 min 59 sec) 
Heartbeat CPU 0 instructions: 315000000 cycles: 727039390 heartbeat IPC: 0.470929 cumulative IPC: 0.434347 (Simulation time: 0 hr 37 min 6 sec) 
Heartbeat CPU 0 instructions: 316000001 cycles: 729134908 heartbeat IPC: 0.477209 cumulative IPC: 0.434474 (Simulation time: 0 hr 37 min 14 sec) 
Heartbeat CPU 0 instructions: 317000003 cycles: 731555751 heartbeat IPC: 0.41308 cumulative IPC: 0.434401 (Simulation time: 0 hr 37 min 21 sec) 
Heartbeat CPU 0 instructions: 318000000 cycles: 733685109 heartbeat IPC: 0.469624 cumulative IPC: 0.434507 (Simulation time: 0 hr 37 min 28 sec) 
Heartbeat CPU 0 instructions: 319000000 cycles: 736076308 heartbeat IPC: 0.4182 cumulative IPC: 0.434452 (Simulation time: 0 hr 37 min 35 sec) 
Heartbeat CPU 0 instructions: 320000001 cycles: 738358864 heartbeat IPC: 0.438106 cumulative IPC: 0.434464 (Simulation time: 0 hr 37 min 43 sec) 
Heartbeat CPU 0 instructions: 321000003 cycles: 740449974 heartbeat IPC: 0.478216 cumulative IPC: 0.434592 (Simulation time: 0 hr 37 min 50 sec) 
Heartbeat CPU 0 instructions: 322000002 cycles: 742693540 heartbeat IPC: 0.445719 cumulative IPC: 0.434626 (Simulation time: 0 hr 37 min 57 sec) 
Heartbeat CPU 0 instructions: 323000000 cycles: 745062015 heartbeat IPC: 0.422212 cumulative IPC: 0.434585 (Simulation time: 0 hr 38 min 5 sec) 
Heartbeat CPU 0 instructions: 324000000 cycles: 747156677 heartbeat IPC: 0.477404 cumulative IPC: 0.43471 (Simulation time: 0 hr 38 min 12 sec) 
Heartbeat CPU 0 instructions: 325000002 cycles: 749501782 heartbeat IPC: 0.426421 cumulative IPC: 0.434683 (Simulation time: 0 hr 38 min 19 sec) 
Heartbeat CPU 0 instructions: 326000000 cycles: 751677445 heartbeat IPC: 0.459629 cumulative IPC: 0.434758 (Simulation time: 0 hr 38 min 27 sec) 
Heartbeat CPU 0 instructions: 327000002 cycles: 754012275 heartbeat IPC: 0.428298 cumulative IPC: 0.434737 (Simulation time: 0 hr 38 min 34 sec) 
Heartbeat CPU 0 instructions: 328000000 cycles: 756393287 heartbeat IPC: 0.419989 cumulative IPC: 0.434689 (Simulation time: 0 hr 38 min 41 sec) 
Heartbeat CPU 0 instructions: 329000001 cycles: 758204627 heartbeat IPC: 0.552078 cumulative IPC: 0.434979 (Simulation time: 0 hr 38 min 48 sec) 
Heartbeat CPU 0 instructions: 330000000 cycles: 760613684 heartbeat IPC: 0.4151 cumulative IPC: 0.434914 (Simulation time: 0 hr 38 min 55 sec) 
Heartbeat CPU 0 instructions: 331000000 cycles: 762840898 heartbeat IPC: 0.448991 cumulative IPC: 0.434956 (Simulation time: 0 hr 39 min 2 sec) 
Heartbeat CPU 0 instructions: 332000000 cycles: 765006943 heartbeat IPC: 0.461671 cumulative IPC: 0.435034 (Simulation time: 0 hr 39 min 9 sec) 
Heartbeat CPU 0 instructions: 333000003 cycles: 767180447 heartbeat IPC: 0.460088 cumulative IPC: 0.435108 (Simulation time: 0 hr 39 min 16 sec) 
Heartbeat CPU 0 instructions: 334000000 cycles: 769483641 heartbeat IPC: 0.434178 cumulative IPC: 0.435105 (Simulation time: 0 hr 39 min 23 sec) 
Heartbeat CPU 0 instructions: 335000000 cycles: 771850726 heartbeat IPC: 0.422461 cumulative IPC: 0.435065 (Simulation time: 0 hr 39 min 30 sec) 
Heartbeat CPU 0 instructions: 336000000 cycles: 774142079 heartbeat IPC: 0.436423 cumulative IPC: 0.435069 (Simulation time: 0 hr 39 min 37 sec) 
Heartbeat CPU 0 instructions: 337000001 cycles: 776305737 heartbeat IPC: 0.462181 cumulative IPC: 0.435147 (Simulation time: 0 hr 39 min 44 sec) 
Heartbeat CPU 0 instructions: 338000000 cycles: 778535385 heartbeat IPC: 0.448501 cumulative IPC: 0.435186 (Simulation time: 0 hr 39 min 51 sec) 
Heartbeat CPU 0 instructions: 339000001 cycles: 780839034 heartbeat IPC: 0.434094 cumulative IPC: 0.435183 (Simulation time: 0 hr 39 min 58 sec) 
Heartbeat CPU 0 instructions: 340000001 cycles: 783071125 heartbeat IPC: 0.44801 cumulative IPC: 0.435221 (Simulation time: 0 hr 40 min 5 sec) 
Heartbeat CPU 0 instructions: 341000000 cycles: 785253761 heartbeat IPC: 0.458161 cumulative IPC: 0.435287 (Simulation time: 0 hr 40 min 12 sec) 
Heartbeat CPU 0 instructions: 342000001 cycles: 787446945 heartbeat IPC: 0.455959 cumulative IPC: 0.435346 (Simulation time: 0 hr 40 min 19 sec) 
Heartbeat CPU 0 instructions: 343000002 cycles: 789711412 heartbeat IPC: 0.441605 cumulative IPC: 0.435365 (Simulation time: 0 hr 40 min 26 sec) 
Heartbeat CPU 0 instructions: 344000002 cycles: 792106739 heartbeat IPC: 0.41748 cumulative IPC: 0.435309 (Simulation time: 0 hr 40 min 33 sec) 
Heartbeat CPU 0 instructions: 345000002 cycles: 794507825 heartbeat IPC: 0.416478 cumulative IPC: 0.43525 (Simulation time: 0 hr 40 min 41 sec) 
Heartbeat CPU 0 instructions: 346000000 cycles: 796258360 heartbeat IPC: 0.571253 cumulative IPC: 0.435559 (Simulation time: 0 hr 40 min 47 sec) 
Heartbeat CPU 0 instructions: 347000001 cycles: 798653408 heartbeat IPC: 0.417529 cumulative IPC: 0.435503 (Simulation time: 0 hr 40 min 54 sec) 
Heartbeat CPU 0 instructions: 348000000 cycles: 800952306 heartbeat IPC: 0.434991 cumulative IPC: 0.435501 (Simulation time: 0 hr 41 min 1 sec) 
Heartbeat CPU 0 instructions: 349000002 cycles: 803157196 heartbeat IPC: 0.453538 cumulative IPC: 0.435553 (Simulation time: 0 hr 41 min 8 sec) 
Heartbeat CPU 0 instructions: 350000000 cycles: 805529230 heartbeat IPC: 0.421578 cumulative IPC: 0.43551 (Simulation time: 0 hr 41 min 15 sec) 
Heartbeat CPU 0 instructions: 351000002 cycles: 807848716 heartbeat IPC: 0.431131 cumulative IPC: 0.435497 (Simulation time: 0 hr 41 min 22 sec) 
Heartbeat CPU 0 instructions: 352000000 cycles: 810046022 heartbeat IPC: 0.455102 cumulative IPC: 0.435552 (Simulation time: 0 hr 41 min 29 sec) 
Heartbeat CPU 0 instructions: 353000002 cycles: 812377828 heartbeat IPC: 0.428853 cumulative IPC: 0.435532 (Simulation time: 0 hr 41 min 36 sec) 
Heartbeat CPU 0 instructions: 354000001 cycles: 814663424 heartbeat IPC: 0.437522 cumulative IPC: 0.435538 (Simulation time: 0 hr 41 min 43 sec) 
Heartbeat CPU 0 instructions: 355000001 cycles: 816956934 heartbeat IPC: 0.436013 cumulative IPC: 0.435539 (Simulation time: 0 hr 41 min 50 sec) 
Heartbeat CPU 0 instructions: 356000000 cycles: 819150609 heartbeat IPC: 0.455856 cumulative IPC: 0.435595 (Simulation time: 0 hr 41 min 57 sec) 
Heartbeat CPU 0 instructions: 357000002 cycles: 821470858 heartbeat IPC: 0.430989 cumulative IPC: 0.435582 (Simulation time: 0 hr 42 min 4 sec) 
Heartbeat CPU 0 instructions: 358000000 cycles: 823857355 heartbeat IPC: 0.419023 cumulative IPC: 0.435533 (Simulation time: 0 hr 42 min 12 sec) 
Heartbeat CPU 0 instructions: 359000000 cycles: 825961489 heartbeat IPC: 0.475255 cumulative IPC: 0.435637 (Simulation time: 0 hr 42 min 18 sec) 
Heartbeat CPU 0 instructions: 360000003 cycles: 828088460 heartbeat IPC: 0.470154 cumulative IPC: 0.435728 (Simulation time: 0 hr 42 min 25 sec) 
Heartbeat CPU 0 instructions: 361000000 cycles: 830361074 heartbeat IPC: 0.440021 cumulative IPC: 0.43574 (Simulation time: 0 hr 42 min 32 sec) 
Heartbeat CPU 0 instructions: 362000001 cycles: 832545639 heartbeat IPC: 0.457758 cumulative IPC: 0.4358 (Simulation time: 0 hr 42 min 39 sec) 
Heartbeat CPU 0 instructions: 363000000 cycles: 834878309 heartbeat IPC: 0.428693 cumulative IPC: 0.435779 (Simulation time: 0 hr 42 min 46 sec) 
Heartbeat CPU 0 instructions: 364000000 cycles: 836993833 heartbeat IPC: 0.472696 cumulative IPC: 0.435876 (Simulation time: 0 hr 42 min 53 sec) 
Heartbeat CPU 0 instructions: 365000000 cycles: 839338166 heartbeat IPC: 0.426561 cumulative IPC: 0.435849 (Simulation time: 0 hr 43 min 0 sec) 
Heartbeat CPU 0 instructions: 366000000 cycles: 841602306 heartbeat IPC: 0.441669 cumulative IPC: 0.435865 (Simulation time: 0 hr 43 min 7 sec) 
Heartbeat CPU 0 instructions: 367000000 cycles: 843826978 heartbeat IPC: 0.449504 cumulative IPC: 0.435902 (Simulation time: 0 hr 43 min 14 sec) 
Heartbeat CPU 0 instructions: 368000001 cycles: 846092006 heartbeat IPC: 0.441496 cumulative IPC: 0.435917 (Simulation time: 0 hr 43 min 21 sec) 
Heartbeat CPU 0 instructions: 369000001 cycles: 848353536 heartbeat IPC: 0.442179 cumulative IPC: 0.435935 (Simulation time: 0 hr 43 min 28 sec) 
Heartbeat CPU 0 instructions: 370000000 cycles: 850614023 heartbeat IPC: 0.442382 cumulative IPC: 0.435952 (Simulation time: 0 hr 43 min 35 sec) 
Heartbeat CPU 0 instructions: 371000000 cycles: 852915213 heartbeat IPC: 0.434558 cumulative IPC: 0.435948 (Simulation time: 0 hr 43 min 42 sec) 
Heartbeat CPU 0 instructions: 372000003 cycles: 855163180 heartbeat IPC: 0.444848 cumulative IPC: 0.435972 (Simulation time: 0 hr 43 min 49 sec) 
Heartbeat CPU 0 instructions: 373000000 cycles: 857444258 heartbeat IPC: 0.438388 cumulative IPC: 0.435979 (Simulation time: 0 hr 43 min 56 sec) 
Heartbeat CPU 0 instructions: 374000000 cycles: 859717111 heartbeat IPC: 0.439976 cumulative IPC: 0.43599 (Simulation time: 0 hr 44 min 3 sec) 
Heartbeat CPU 0 instructions: 375000000 cycles: 861812053 heartbeat IPC: 0.47734 cumulative IPC: 0.436093 (Simulation time: 0 hr 44 min 10 sec) 
Heartbeat CPU 0 instructions: 376000002 cycles: 863884280 heartbeat IPC: 0.482574 cumulative IPC: 0.436208 (Simulation time: 0 hr 44 min 17 sec) 
Heartbeat CPU 0 instructions: 377000000 cycles: 866222585 heartbeat IPC: 0.427659 cumulative IPC: 0.436184 (Simulation time: 0 hr 44 min 24 sec) 
Heartbeat CPU 0 instructions: 378000000 cycles: 868531964 heartbeat IPC: 0.433017 cumulative IPC: 0.436176 (Simulation time: 0 hr 44 min 31 sec) 
Heartbeat CPU 0 instructions: 379000001 cycles: 870763366 heartbeat IPC: 0.448149 cumulative IPC: 0.436207 (Simulation time: 0 hr 44 min 38 sec) 
Heartbeat CPU 0 instructions: 380000001 cycles: 873100648 heartbeat IPC: 0.427847 cumulative IPC: 0.436184 (Simulation time: 0 hr 44 min 45 sec) 
Heartbeat CPU 0 instructions: 381000001 cycles: 875093132 heartbeat IPC: 0.501886 cumulative IPC: 0.436338 (Simulation time: 0 hr 44 min 52 sec) 
Heartbeat CPU 0 instructions: 382000001 cycles: 877366494 heartbeat IPC: 0.439877 cumulative IPC: 0.436348 (Simulation time: 0 hr 44 min 59 sec) 
Heartbeat CPU 0 instructions: 383000000 cycles: 879474547 heartbeat IPC: 0.474371 cumulative IPC: 0.436442 (Simulation time: 0 hr 45 min 6 sec) 
Heartbeat CPU 0 instructions: 384000000 cycles: 881856255 heartbeat IPC: 0.419867 cumulative IPC: 0.436395 (Simulation time: 0 hr 45 min 13 sec) 
Heartbeat CPU 0 instructions: 385000000 cycles: 884031242 heartbeat IPC: 0.459773 cumulative IPC: 0.436455 (Simulation time: 0 hr 45 min 20 sec) 
Heartbeat CPU 0 instructions: 386000000 cycles: 886293198 heartbeat IPC: 0.442095 cumulative IPC: 0.436469 (Simulation time: 0 hr 45 min 27 sec) 
Heartbeat CPU 0 instructions: 387000002 cycles: 888568436 heartbeat IPC: 0.439515 cumulative IPC: 0.436478 (Simulation time: 0 hr 45 min 34 sec) 
Heartbeat CPU 0 instructions: 388000000 cycles: 890756877 heartbeat IPC: 0.456945 cumulative IPC: 0.436529 (Simulation time: 0 hr 45 min 41 sec) 
Heartbeat CPU 0 instructions: 389000002 cycles: 892935524 heartbeat IPC: 0.459001 cumulative IPC: 0.436586 (Simulation time: 0 hr 45 min 48 sec) 
Heartbeat CPU 0 instructions: 390000003 cycles: 895211276 heartbeat IPC: 0.439416 cumulative IPC: 0.436593 (Simulation time: 0 hr 45 min 55 sec) 
Heartbeat CPU 0 instructions: 391000003 cycles: 897480602 heartbeat IPC: 0.440659 cumulative IPC: 0.436604 (Simulation time: 0 hr 46 min 2 sec) 
Heartbeat CPU 0 instructions: 392000000 cycles: 899696062 heartbeat IPC: 0.451372 cumulative IPC: 0.436641 (Simulation time: 0 hr 46 min 9 sec) 
Heartbeat CPU 0 instructions: 393000000 cycles: 901970830 heartbeat IPC: 0.439605 cumulative IPC: 0.436649 (Simulation time: 0 hr 46 min 16 sec) 
Heartbeat CPU 0 instructions: 394000002 cycles: 904152210 heartbeat IPC: 0.458426 cumulative IPC: 0.436703 (Simulation time: 0 hr 46 min 23 sec) 
Heartbeat CPU 0 instructions: 395000002 cycles: 906516957 heartbeat IPC: 0.422878 cumulative IPC: 0.436666 (Simulation time: 0 hr 46 min 30 sec) 
Heartbeat CPU 0 instructions: 396000000 cycles: 908871609 heartbeat IPC: 0.42469 cumulative IPC: 0.436634 (Simulation time: 0 hr 46 min 37 sec) 
Heartbeat CPU 0 instructions: 397000000 cycles: 911083804 heartbeat IPC: 0.45204 cumulative IPC: 0.436672 (Simulation time: 0 hr 46 min 44 sec) 
Heartbeat CPU 0 instructions: 398000000 cycles: 913338726 heartbeat IPC: 0.443474 cumulative IPC: 0.436689 (Simulation time: 0 hr 46 min 52 sec) 
Heartbeat CPU 0 instructions: 399000000 cycles: 915671444 heartbeat IPC: 0.428684 cumulative IPC: 0.436669 (Simulation time: 0 hr 46 min 59 sec) 
Heartbeat CPU 0 instructions: 400000000 cycles: 917846056 heartbeat IPC: 0.459852 cumulative IPC: 0.436725 (Simulation time: 0 hr 47 min 6 sec) 
Heartbeat CPU 0 instructions: 401000001 cycles: 920074455 heartbeat IPC: 0.448753 cumulative IPC: 0.436755 (Simulation time: 0 hr 47 min 13 sec) 
Heartbeat CPU 0 instructions: 402000003 cycles: 922315351 heartbeat IPC: 0.446251 cumulative IPC: 0.436779 (Simulation time: 0 hr 47 min 20 sec) 
Heartbeat CPU 0 instructions: 403000001 cycles: 924660806 heartbeat IPC: 0.426356 cumulative IPC: 0.436751 (Simulation time: 0 hr 47 min 27 sec) 
Heartbeat CPU 0 instructions: 404000002 cycles: 926963399 heartbeat IPC: 0.434293 cumulative IPC: 0.436745 (Simulation time: 0 hr 47 min 34 sec) 
Heartbeat CPU 0 instructions: 405000002 cycles: 929209119 heartbeat IPC: 0.445291 cumulative IPC: 0.436766 (Simulation time: 0 hr 47 min 41 sec) 
Heartbeat CPU 0 instructions: 406000000 cycles: 931320537 heartbeat IPC: 0.473614 cumulative IPC: 0.436852 (Simulation time: 0 hr 47 min 48 sec) 
Heartbeat CPU 0 instructions: 407000000 cycles: 933693298 heartbeat IPC: 0.42145 cumulative IPC: 0.436812 (Simulation time: 0 hr 47 min 56 sec) 
Heartbeat CPU 0 instructions: 408000001 cycles: 935928190 heartbeat IPC: 0.447449 cumulative IPC: 0.436838 (Simulation time: 0 hr 48 min 3 sec) 
Heartbeat CPU 0 instructions: 409000003 cycles: 938124979 heartbeat IPC: 0.455211 cumulative IPC: 0.436882 (Simulation time: 0 hr 48 min 10 sec) 
Heartbeat CPU 0 instructions: 410000001 cycles: 940318152 heartbeat IPC: 0.455959 cumulative IPC: 0.436928 (Simulation time: 0 hr 48 min 17 sec) 
Heartbeat CPU 0 instructions: 411000003 cycles: 942695364 heartbeat IPC: 0.420662 cumulative IPC: 0.436886 (Simulation time: 0 hr 48 min 24 sec) 
Heartbeat CPU 0 instructions: 412000000 cycles: 945012587 heartbeat IPC: 0.43155 cumulative IPC: 0.436872 (Simulation time: 0 hr 48 min 31 sec) 
Heartbeat CPU 0 instructions: 413000003 cycles: 947181546 heartbeat IPC: 0.461052 cumulative IPC: 0.436929 (Simulation time: 0 hr 48 min 38 sec) 
Heartbeat CPU 0 instructions: 414000000 cycles: 948999476 heartbeat IPC: 0.550075 cumulative IPC: 0.437152 (Simulation time: 0 hr 48 min 45 sec) 
Heartbeat CPU 0 instructions: 415000001 cycles: 951271729 heartbeat IPC: 0.440092 cumulative IPC: 0.437159 (Simulation time: 0 hr 48 min 52 sec) 
Heartbeat CPU 0 instructions: 416000003 cycles: 953547559 heartbeat IPC: 0.439401 cumulative IPC: 0.437165 (Simulation time: 0 hr 48 min 59 sec) 
Heartbeat CPU 0 instructions: 417000001 cycles: 955810497 heartbeat IPC: 0.441903 cumulative IPC: 0.437176 (Simulation time: 0 hr 49 min 6 sec) 
Heartbeat CPU 0 instructions: 418000000 cycles: 958030564 heartbeat IPC: 0.450436 cumulative IPC: 0.437208 (Simulation time: 0 hr 49 min 13 sec) 
Heartbeat CPU 0 instructions: 419000002 cycles: 960233821 heartbeat IPC: 0.453874 cumulative IPC: 0.437247 (Simulation time: 0 hr 49 min 20 sec) 
Heartbeat CPU 0 instructions: 420000000 cycles: 962481114 heartbeat IPC: 0.444979 cumulative IPC: 0.437265 (Simulation time: 0 hr 49 min 27 sec) 
Heartbeat CPU 0 instructions: 421000002 cycles: 964764907 heartbeat IPC: 0.437869 cumulative IPC: 0.437267 (Simulation time: 0 hr 49 min 34 sec) 
Heartbeat CPU 0 instructions: 422000000 cycles: 966943195 heartbeat IPC: 0.459075 cumulative IPC: 0.437317 (Simulation time: 0 hr 49 min 41 sec) 
Heartbeat CPU 0 instructions: 423000001 cycles: 969143769 heartbeat IPC: 0.454427 cumulative IPC: 0.437357 (Simulation time: 0 hr 49 min 49 sec) 
Heartbeat CPU 0 instructions: 424000003 cycles: 971596174 heartbeat IPC: 0.407764 cumulative IPC: 0.437281 (Simulation time: 0 hr 49 min 56 sec) 
Heartbeat CPU 0 instructions: 425000003 cycles: 973766122 heartbeat IPC: 0.460841 cumulative IPC: 0.437334 (Simulation time: 0 hr 50 min 3 sec) 
Heartbeat CPU 0 instructions: 426000000 cycles: 976130095 heartbeat IPC: 0.423015 cumulative IPC: 0.437299 (Simulation time: 0 hr 50 min 10 sec) 
Heartbeat CPU 0 instructions: 427000000 cycles: 978223262 heartbeat IPC: 0.477745 cumulative IPC: 0.437388 (Simulation time: 0 hr 50 min 17 sec) 
Heartbeat CPU 0 instructions: 428000000 cycles: 980669377 heartbeat IPC: 0.408812 cumulative IPC: 0.437314 (Simulation time: 0 hr 50 min 24 sec) 
Heartbeat CPU 0 instructions: 429000000 cycles: 982840073 heartbeat IPC: 0.460682 cumulative IPC: 0.437367 (Simulation time: 0 hr 50 min 31 sec) 
Heartbeat CPU 0 instructions: 430000000 cycles: 985048515 heartbeat IPC: 0.452808 cumulative IPC: 0.437403 (Simulation time: 0 hr 50 min 38 sec) 
Heartbeat CPU 0 instructions: 431000001 cycles: 987301317 heartbeat IPC: 0.443892 cumulative IPC: 0.437418 (Simulation time: 0 hr 50 min 45 sec) 
Heartbeat CPU 0 instructions: 432000003 cycles: 989528065 heartbeat IPC: 0.449086 cumulative IPC: 0.437445 (Simulation time: 0 hr 50 min 52 sec) 
Heartbeat CPU 0 instructions: 433000001 cycles: 991743161 heartbeat IPC: 0.451447 cumulative IPC: 0.437477 (Simulation time: 0 hr 50 min 59 sec) 
Heartbeat CPU 0 instructions: 434000002 cycles: 993926444 heartbeat IPC: 0.458026 cumulative IPC: 0.437523 (Simulation time: 0 hr 51 min 6 sec) 
Heartbeat CPU 0 instructions: 435000002 cycles: 996154801 heartbeat IPC: 0.448761 cumulative IPC: 0.437549 (Simulation time: 0 hr 51 min 13 sec) 
Heartbeat CPU 0 instructions: 436000000 cycles: 998358188 heartbeat IPC: 0.453846 cumulative IPC: 0.437586 (Simulation time: 0 hr 51 min 20 sec) 
Heartbeat CPU 0 instructions: 437000002 cycles: 1000676449 heartbeat IPC: 0.431359 cumulative IPC: 0.437571 (Simulation time: 0 hr 51 min 27 sec) 
Heartbeat CPU 0 instructions: 438000000 cycles: 1002939712 heartbeat IPC: 0.441839 cumulative IPC: 0.437581 (Simulation time: 0 hr 51 min 34 sec) 
Heartbeat CPU 0 instructions: 439000002 cycles: 1004993167 heartbeat IPC: 0.486985 cumulative IPC: 0.437685 (Simulation time: 0 hr 51 min 41 sec) 
Heartbeat CPU 0 instructions: 440000000 cycles: 1007284454 heartbeat IPC: 0.436435 cumulative IPC: 0.437682 (Simulation time: 0 hr 51 min 48 sec) 
Heartbeat CPU 0 instructions: 441000000 cycles: 1009578253 heartbeat IPC: 0.435958 cumulative IPC: 0.437678 (Simulation time: 0 hr 51 min 55 sec) 
Heartbeat CPU 0 instructions: 442000001 cycles: 1011768757 heartbeat IPC: 0.456516 cumulative IPC: 0.43772 (Simulation time: 0 hr 52 min 3 sec) 
Heartbeat CPU 0 instructions: 443000001 cycles: 1013998096 heartbeat IPC: 0.448563 cumulative IPC: 0.437744 (Simulation time: 0 hr 52 min 10 sec) 
Heartbeat CPU 0 instructions: 444000003 cycles: 1016359047 heartbeat IPC: 0.423559 cumulative IPC: 0.43771 (Simulation time: 0 hr 52 min 17 sec) 
Heartbeat CPU 0 instructions: 445000000 cycles: 1018607815 heartbeat IPC: 0.444687 cumulative IPC: 0.437726 (Simulation time: 0 hr 52 min 24 sec) 
Heartbeat CPU 0 instructions: 446000000 cycles: 1020795513 heartbeat IPC: 0.457101 cumulative IPC: 0.437769 (Simulation time: 0 hr 52 min 31 sec) 
Heartbeat CPU 0 instructions: 447000000 cycles: 1023046173 heartbeat IPC: 0.444314 cumulative IPC: 0.437783 (Simulation time: 0 hr 52 min 38 sec) 
Heartbeat CPU 0 instructions: 448000000 cycles: 1025290652 heartbeat IPC: 0.445538 cumulative IPC: 0.437801 (Simulation time: 0 hr 52 min 45 sec) 
Heartbeat CPU 0 instructions: 449000000 cycles: 1027617865 heartbeat IPC: 0.429699 cumulative IPC: 0.437782 (Simulation time: 0 hr 52 min 52 sec) 
Heartbeat CPU 0 instructions: 450000001 cycles: 1029803409 heartbeat IPC: 0.457552 cumulative IPC: 0.437825 (Simulation time: 0 hr 52 min 59 sec) 
Heartbeat CPU 0 instructions: 451000000 cycles: 1032013541 heartbeat IPC: 0.452461 cumulative IPC: 0.437857 (Simulation time: 0 hr 53 min 6 sec) 
Heartbeat CPU 0 instructions: 452000000 cycles: 1034057504 heartbeat IPC: 0.489246 cumulative IPC: 0.437961 (Simulation time: 0 hr 53 min 13 sec) 
Heartbeat CPU 0 instructions: 453000000 cycles: 1036373633 heartbeat IPC: 0.431755 cumulative IPC: 0.437947 (Simulation time: 0 hr 53 min 20 sec) 
Heartbeat CPU 0 instructions: 454000001 cycles: 1038483092 heartbeat IPC: 0.474056 cumulative IPC: 0.438022 (Simulation time: 0 hr 53 min 27 sec) 
Heartbeat CPU 0 instructions: 455000000 cycles: 1040741616 heartbeat IPC: 0.442767 cumulative IPC: 0.438033 (Simulation time: 0 hr 53 min 34 sec) 
Heartbeat CPU 0 instructions: 456000003 cycles: 1042812171 heartbeat IPC: 0.482964 cumulative IPC: 0.438124 (Simulation time: 0 hr 53 min 41 sec) 
Heartbeat CPU 0 instructions: 457000001 cycles: 1045002318 heartbeat IPC: 0.456589 cumulative IPC: 0.438164 (Simulation time: 0 hr 53 min 48 sec) 
Heartbeat CPU 0 instructions: 458000002 cycles: 1047374265 heartbeat IPC: 0.421595 cumulative IPC: 0.438125 (Simulation time: 0 hr 53 min 55 sec) 
Heartbeat CPU 0 instructions: 459000000 cycles: 1049686017 heartbeat IPC: 0.432572 cumulative IPC: 0.438113 (Simulation time: 0 hr 54 min 3 sec) 
Heartbeat CPU 0 instructions: 460000000 cycles: 1051901857 heartbeat IPC: 0.451296 cumulative IPC: 0.438141 (Simulation time: 0 hr 54 min 10 sec) 
Heartbeat CPU 0 instructions: 461000000 cycles: 1054071881 heartbeat IPC: 0.460824 cumulative IPC: 0.438189 (Simulation time: 0 hr 54 min 17 sec) 
Heartbeat CPU 0 instructions: 462000000 cycles: 1056400607 heartbeat IPC: 0.429419 cumulative IPC: 0.438169 (Simulation time: 0 hr 54 min 24 sec) 
Heartbeat CPU 0 instructions: 463000002 cycles: 1058740415 heartbeat IPC: 0.427386 cumulative IPC: 0.438145 (Simulation time: 0 hr 54 min 31 sec) 
Heartbeat CPU 0 instructions: 464000002 cycles: 1060996992 heartbeat IPC: 0.443149 cumulative IPC: 0.438156 (Simulation time: 0 hr 54 min 38 sec) 
Heartbeat CPU 0 instructions: 465000000 cycles: 1063276302 heartbeat IPC: 0.438728 cumulative IPC: 0.438157 (Simulation time: 0 hr 54 min 45 sec) 
Heartbeat CPU 0 instructions: 466000000 cycles: 1065604266 heartbeat IPC: 0.42956 cumulative IPC: 0.438138 (Simulation time: 0 hr 54 min 52 sec) 
Heartbeat CPU 0 instructions: 467000001 cycles: 1067718462 heartbeat IPC: 0.472994 cumulative IPC: 0.438208 (Simulation time: 0 hr 54 min 59 sec) 
Heartbeat CPU 0 instructions: 468000002 cycles: 1069942127 heartbeat IPC: 0.449708 cumulative IPC: 0.438233 (Simulation time: 0 hr 55 min 6 sec) 
Heartbeat CPU 0 instructions: 469000001 cycles: 1072254506 heartbeat IPC: 0.432455 cumulative IPC: 0.43822 (Simulation time: 0 hr 55 min 13 sec) 
Heartbeat CPU 0 instructions: 470000002 cycles: 1074449573 heartbeat IPC: 0.455567 cumulative IPC: 0.438256 (Simulation time: 0 hr 55 min 21 sec) 
Heartbeat CPU 0 instructions: 471000002 cycles: 1076558571 heartbeat IPC: 0.474159 cumulative IPC: 0.438328 (Simulation time: 0 hr 55 min 28 sec) 
Heartbeat CPU 0 instructions: 472000000 cycles: 1078871436 heartbeat IPC: 0.432363 cumulative IPC: 0.438315 (Simulation time: 0 hr 55 min 35 sec) 
Heartbeat CPU 0 instructions: 473000000 cycles: 1080592153 heartbeat IPC: 0.581153 cumulative IPC: 0.438548 (Simulation time: 0 hr 55 min 42 sec) 
Heartbeat CPU 0 instructions: 474000000 cycles: 1082814487 heartbeat IPC: 0.449977 cumulative IPC: 0.438572 (Simulation time: 0 hr 55 min 49 sec) 
Heartbeat CPU 0 instructions: 475000000 cycles: 1085098264 heartbeat IPC: 0.437871 cumulative IPC: 0.438571 (Simulation time: 0 hr 55 min 56 sec) 
Heartbeat CPU 0 instructions: 476000002 cycles: 1087444999 heartbeat IPC: 0.426125 cumulative IPC: 0.438543 (Simulation time: 0 hr 56 min 3 sec) 
Heartbeat CPU 0 instructions: 477000001 cycles: 1089707755 heartbeat IPC: 0.441938 cumulative IPC: 0.43855 (Simulation time: 0 hr 56 min 10 sec) 
Heartbeat CPU 0 instructions: 478000000 cycles: 1091788836 heartbeat IPC: 0.480519 cumulative IPC: 0.438632 (Simulation time: 0 hr 56 min 17 sec) 
Heartbeat CPU 0 instructions: 479000000 cycles: 1094326728 heartbeat IPC: 0.394028 cumulative IPC: 0.438526 (Simulation time: 0 hr 56 min 24 sec) 
Heartbeat CPU 0 instructions: 480000000 cycles: 1096588817 heartbeat IPC: 0.442069 cumulative IPC: 0.438534 (Simulation time: 0 hr 56 min 31 sec) 
Heartbeat CPU 0 instructions: 481000000 cycles: 1098805245 heartbeat IPC: 0.451176 cumulative IPC: 0.43856 (Simulation time: 0 hr 56 min 38 sec) 
Heartbeat CPU 0 instructions: 482000002 cycles: 1101046275 heartbeat IPC: 0.446224 cumulative IPC: 0.438576 (Simulation time: 0 hr 56 min 45 sec) 
Heartbeat CPU 0 instructions: 483000000 cycles: 1103336783 heartbeat IPC: 0.436583 cumulative IPC: 0.438572 (Simulation time: 0 hr 56 min 52 sec) 
Heartbeat CPU 0 instructions: 484000000 cycles: 1105601533 heartbeat IPC: 0.44155 cumulative IPC: 0.438578 (Simulation time: 0 hr 57 min 0 sec) 
Heartbeat CPU 0 instructions: 485000002 cycles: 1107906033 heartbeat IPC: 0.433934 cumulative IPC: 0.438568 (Simulation time: 0 hr 57 min 6 sec) 
Heartbeat CPU 0 instructions: 486000001 cycles: 1110032447 heartbeat IPC: 0.470275 cumulative IPC: 0.43863 (Simulation time: 0 hr 57 min 13 sec) 
Heartbeat CPU 0 instructions: 487000003 cycles: 1112362997 heartbeat IPC: 0.429084 cumulative IPC: 0.43861 (Simulation time: 0 hr 57 min 20 sec) 
Heartbeat CPU 0 instructions: 488000000 cycles: 1114532653 heartbeat IPC: 0.460901 cumulative IPC: 0.438654 (Simulation time: 0 hr 57 min 27 sec) 
Heartbeat CPU 0 instructions: 489000002 cycles: 1116617631 heartbeat IPC: 0.479622 cumulative IPC: 0.438732 (Simulation time: 0 hr 57 min 34 sec) 
Heartbeat CPU 0 instructions: 490000000 cycles: 1118938242 heartbeat IPC: 0.43092 cumulative IPC: 0.438716 (Simulation time: 0 hr 57 min 41 sec) 
Heartbeat CPU 0 instructions: 491000002 cycles: 1121169895 heartbeat IPC: 0.448099 cumulative IPC: 0.438735 (Simulation time: 0 hr 57 min 48 sec) 
Heartbeat CPU 0 instructions: 492000000 cycles: 1123349381 heartbeat IPC: 0.458823 cumulative IPC: 0.438775 (Simulation time: 0 hr 57 min 56 sec) 
Heartbeat CPU 0 instructions: 493000002 cycles: 1125617384 heartbeat IPC: 0.440917 cumulative IPC: 0.438779 (Simulation time: 0 hr 58 min 3 sec) 
Heartbeat CPU 0 instructions: 494000000 cycles: 1127856592 heartbeat IPC: 0.446586 cumulative IPC: 0.438795 (Simulation time: 0 hr 58 min 10 sec) 
Heartbeat CPU 0 instructions: 495000000 cycles: 1130027368 heartbeat IPC: 0.460665 cumulative IPC: 0.438838 (Simulation time: 0 hr 58 min 18 sec) 
Heartbeat CPU 0 instructions: 496000001 cycles: 1132349491 heartbeat IPC: 0.430641 cumulative IPC: 0.438821 (Simulation time: 0 hr 58 min 25 sec) 
Heartbeat CPU 0 instructions: 497000001 cycles: 1134667926 heartbeat IPC: 0.431325 cumulative IPC: 0.438805 (Simulation time: 0 hr 58 min 32 sec) 
Heartbeat CPU 0 instructions: 498000001 cycles: 1136827619 heartbeat IPC: 0.463029 cumulative IPC: 0.438852 (Simulation time: 0 hr 58 min 39 sec) 
Heartbeat CPU 0 instructions: 499000001 cycles: 1139072743 heartbeat IPC: 0.44541 cumulative IPC: 0.438865 (Simulation time: 0 hr 58 min 46 sec) 
Heartbeat CPU 0 instructions: 500000003 cycles: 1141164382 heartbeat IPC: 0.478095 cumulative IPC: 0.438939 (Simulation time: 0 hr 58 min 53 sec) 
Heartbeat CPU 0 instructions: 501000001 cycles: 1143451636 heartbeat IPC: 0.437205 cumulative IPC: 0.438935 (Simulation time: 0 hr 59 min 0 sec) 
Heartbeat CPU 0 instructions: 502000002 cycles: 1145560078 heartbeat IPC: 0.474284 cumulative IPC: 0.439002 (Simulation time: 0 hr 59 min 7 sec) 
Heartbeat CPU 0 instructions: 503000002 cycles: 1147824891 heartbeat IPC: 0.441538 cumulative IPC: 0.439007 (Simulation time: 0 hr 59 min 15 sec) 
Heartbeat CPU 0 instructions: 504000000 cycles: 1150140396 heartbeat IPC: 0.43187 cumulative IPC: 0.438992 (Simulation time: 0 hr 59 min 22 sec) 
Heartbeat CPU 0 instructions: 505000002 cycles: 1152430713 heartbeat IPC: 0.436622 cumulative IPC: 0.438987 (Simulation time: 0 hr 59 min 29 sec) 
Heartbeat CPU 0 instructions: 506000000 cycles: 1154559828 heartbeat IPC: 0.469678 cumulative IPC: 0.439045 (Simulation time: 0 hr 59 min 36 sec) 
Heartbeat CPU 0 instructions: 507000002 cycles: 1156809178 heartbeat IPC: 0.444574 cumulative IPC: 0.439056 (Simulation time: 0 hr 59 min 43 sec) 
Heartbeat CPU 0 instructions: 508000001 cycles: 1159036739 heartbeat IPC: 0.448921 cumulative IPC: 0.439076 (Simulation time: 0 hr 59 min 50 sec) 
Heartbeat CPU 0 instructions: 509000001 cycles: 1161270596 heartbeat IPC: 0.447656 cumulative IPC: 0.439092 (Simulation time: 0 hr 59 min 57 sec) 
Heartbeat CPU 0 instructions: 510000003 cycles: 1163474537 heartbeat IPC: 0.453734 cumulative IPC: 0.439121 (Simulation time: 1 hr 0 min 4 sec) 
Finished CPU 0 instructions: 500000002 cycles: 1138639040 cumulative IPC: 0.439121 (Simulation time: 1 hr 0 min 4 sec) 

ChampSim completed all CPUs

Region of Interest Statistics

CPU 0 cumulative IPC: 0.439121 instructions: 500000002 cycles: 1138639040
L1D TOTAL     ACCESS:  209283628  HIT:  200361524  MISS:    8922104
L1D LOAD      ACCESS:  119503020  HIT:  111763176  MISS:    7739844
L1D RFO       ACCESS:   89780608  HIT:   88598348  MISS:    1182260
L1D PREFETCH  ACCESS:          0  HIT:          0  MISS:          0
L1D WRITEBACK ACCESS:          0  HIT:          0  MISS:          0
L1D PREFETCH  REQUESTED:          0  ISSUED:          0  USEFUL:          0  USELESS:          0  UAC CORRECT:          0
L1D AVERAGE MISS LATENCY: 95.811 cycles
L1I TOTAL     ACCESS:  114272868  HIT:  114245248  MISS:      27620
L1I LOAD      ACCESS:  114272868  HIT:  114245248  MISS:      27620
L1I RFO       ACCESS:          0  HIT:          0  MISS:          0
L1I PREFETCH  ACCESS:          0  HIT:          0  MISS:          0
L1I WRITEBACK ACCESS:          0  HIT:          0  MISS:          0
L1I PREFETCH  REQUESTED:          0  ISSUED:          0  USEFUL:          0  USELESS:          0  UAC CORRECT:          0
L1I AVERAGE MISS LATENCY: 38.8176 cycles
L2C TOTAL     ACCESS:   13374241  HIT:    7289387  MISS:    6084854
L2C LOAD      ACCESS:    7767128  HIT:    2476528  MISS:    5290600
L2C RFO       ACCESS:    1182196  HIT:     394443  MISS:     787753
L2C PREFETCH  ACCESS:          0  HIT:          0  MISS:          0
L2C WRITEBACK ACCESS:    4424917  HIT:    4418416  MISS:       6501
L2C PREFETCH  REQUESTED:          0  ISSUED:          0  USEFUL:          0  USELESS:          0  UAC CORRECT:          0
L2C AVERAGE MISS LATENCY: 112.002 cycles
LLC TOTAL     ACCESS:   13795755  HIT:    8569601  MISS:    5226154
LLC LOAD      ACCESS:    5290592  HIT:    3593961  MISS:    1696631
LLC RFO       ACCESS:     787752  HIT:     365179  MISS:     422573
LLC PREFETCH  ACCESS:    4692473  HIT:    1600339  MISS:    3092134
LLC WRITEBACK ACCESS:    3024938  HIT:    3010122  MISS:      14816
LLC PREFETCH  REQUESTED:    4974701  ISSUED:    4974701  USEFUL:    2449803  USELESS:     638475  UAC CORRECT:    2292389
LLC AVERAGE MISS LATENCY: 223.541 cycles
Major fault: 0 Minor fault: 48749
performance stats:
mapping cache size: 393633
divergence: 2445264

DRAM Statistics
 CHANNEL 0
 RQ ROW_BUFFER_HIT:     568084  ROW_BUFFER_MISS:    2038375
 DBUS_CONGESTED:    1881467
 WQ ROW_BUFFER_HIT:     287308  ROW_BUFFER_MISS:     799919  FULL:          0

 CHANNEL 1
 RQ ROW_BUFFER_HIT:     570331  ROW_BUFFER_MISS:    2034514
 DBUS_CONGESTED:    1881467
 WQ ROW_BUFFER_HIT:     287743  ROW_BUFFER_MISS:     795498  FULL:          0

 AVG_CONGESTED_CYCLE: 17

CPU 0 Branch Prediction Accuracy: 98.2046% MPKI: 3.73425 Average ROB Occupancy at Mispredict: 93.3551

Branch types
NOT_BRANCH: 396005582 79.2011%
BRANCH_DIRECT_JUMP: 5699804 1.13996%
BRANCH_INDIRECT: 1681218 0.336244%
BRANCH_CONDITIONAL: 66868017 13.3736%
BRANCH_DIRECT_CALL: 8897757 1.77955%
BRANCH_INDIRECT_CALL: 5974801 1.19496%
BRANCH_RETURN: 14872558 2.97451%
BRANCH_OTHER: 0 0%

