
*** ChampSim Multicore Out-of-Order Simulator ***

Warmup Instructions: 1000000
Prefetch Warmup Instructions: 10000000
Simulation Instructions: 500000000
Stat Printing Period: 1000000
Number of CPUs: 1
LLC sets: 2048
LLC ways: 16
Off-chip DRAM Size: 32768 MB Channels: 2 Width: 64-bit Data Rate: 1024 MT/s

CPU 0 runs /scratch/cluster/cmolder/ML-DPC/ChampSimTraces/spec17/620.omnetpp-s0.trace.xz
Read seed: 216
Heartbeat CPU 0 instructions: 1000001 cycles: 553794 heartbeat IPC: 1.80573 cumulative IPC: 1.80573 (Simulation time: 0 hr 0 min 3 sec) 

Warmup complete CPU 0 instructions: 1000001 cycles: 553794 (Simulation time: 0 hr 0 min 3 sec) 

Heartbeat CPU 0 instructions: 2000000 cycles: 3430397 heartbeat IPC: 0.347632 cumulative IPC: 0.347632 (Simulation time: 0 hr 0 min 7 sec) 
Heartbeat CPU 0 instructions: 3000002 cycles: 6142379 heartbeat IPC: 0.368735 cumulative IPC: 0.357873 (Simulation time: 0 hr 0 min 11 sec) 
Heartbeat CPU 0 instructions: 4000003 cycles: 9227645 heartbeat IPC: 0.324121 cumulative IPC: 0.345867 (Simulation time: 0 hr 0 min 16 sec) 
Heartbeat CPU 0 instructions: 5000002 cycles: 12278668 heartbeat IPC: 0.327759 cumulative IPC: 0.341155 (Simulation time: 0 hr 0 min 20 sec) 
Heartbeat CPU 0 instructions: 6000001 cycles: 15164212 heartbeat IPC: 0.346555 cumulative IPC: 0.342222 (Simulation time: 0 hr 0 min 24 sec) 
Heartbeat CPU 0 instructions: 7000003 cycles: 18096593 heartbeat IPC: 0.34102 cumulative IPC: 0.342021 (Simulation time: 0 hr 0 min 29 sec) 
Heartbeat CPU 0 instructions: 8000002 cycles: 20810056 heartbeat IPC: 0.368532 cumulative IPC: 0.345572 (Simulation time: 0 hr 0 min 33 sec) 
Heartbeat CPU 0 instructions: 9000000 cycles: 23771205 heartbeat IPC: 0.337706 cumulative IPC: 0.344569 (Simulation time: 0 hr 0 min 37 sec) 
Heartbeat CPU 0 instructions: 10000001 cycles: 26814683 heartbeat IPC: 0.328572 cumulative IPC: 0.342715 (Simulation time: 0 hr 0 min 41 sec) 

Warmup complete CPU 0 instructions: 10000001 cycles: 26814683 (Simulation time: 0 hr 0 min 41 sec) 

Heartbeat CPU 0 instructions: 11000000 cycles: 29782872 heartbeat IPC: 0.336905 cumulative IPC: 0.336905 (Simulation time: 0 hr 0 min 46 sec) 
Heartbeat CPU 0 instructions: 12000002 cycles: 32874290 heartbeat IPC: 0.323477 cumulative IPC: 0.330055 (Simulation time: 0 hr 0 min 50 sec) 
Heartbeat CPU 0 instructions: 13000001 cycles: 35631119 heartbeat IPC: 0.362735 cumulative IPC: 0.340274 (Simulation time: 0 hr 0 min 54 sec) 
Heartbeat CPU 0 instructions: 14000003 cycles: 38571014 heartbeat IPC: 0.340149 cumulative IPC: 0.340242 (Simulation time: 0 hr 0 min 59 sec) 
Heartbeat CPU 0 instructions: 15000001 cycles: 41558249 heartbeat IPC: 0.334757 cumulative IPC: 0.339131 (Simulation time: 0 hr 1 min 3 sec) 
Heartbeat CPU 0 instructions: 16000002 cycles: 44534650 heartbeat IPC: 0.335977 cumulative IPC: 0.338601 (Simulation time: 0 hr 1 min 7 sec) 
Heartbeat CPU 0 instructions: 17000001 cycles: 47385722 heartbeat IPC: 0.350745 cumulative IPC: 0.340284 (Simulation time: 0 hr 1 min 12 sec) 
Heartbeat CPU 0 instructions: 18000003 cycles: 50352916 heartbeat IPC: 0.337019 cumulative IPC: 0.339873 (Simulation time: 0 hr 1 min 16 sec) 
Heartbeat CPU 0 instructions: 19000000 cycles: 53622589 heartbeat IPC: 0.30584 cumulative IPC: 0.335722 (Simulation time: 0 hr 1 min 20 sec) 
Heartbeat CPU 0 instructions: 20000003 cycles: 56686561 heartbeat IPC: 0.326375 cumulative IPC: 0.334763 (Simulation time: 0 hr 1 min 25 sec) 
Heartbeat CPU 0 instructions: 21000000 cycles: 59826609 heartbeat IPC: 0.318466 cumulative IPC: 0.333213 (Simulation time: 0 hr 1 min 29 sec) 
Heartbeat CPU 0 instructions: 22000000 cycles: 62729502 heartbeat IPC: 0.344484 cumulative IPC: 0.334124 (Simulation time: 0 hr 1 min 33 sec) 
Heartbeat CPU 0 instructions: 23000000 cycles: 65680975 heartbeat IPC: 0.338814 cumulative IPC: 0.33448 (Simulation time: 0 hr 1 min 38 sec) 
Heartbeat CPU 0 instructions: 24000000 cycles: 68622746 heartbeat IPC: 0.339931 cumulative IPC: 0.334864 (Simulation time: 0 hr 1 min 42 sec) 
Heartbeat CPU 0 instructions: 25000000 cycles: 71692724 heartbeat IPC: 0.325735 cumulative IPC: 0.334239 (Simulation time: 0 hr 1 min 46 sec) 
Heartbeat CPU 0 instructions: 26000003 cycles: 74612854 heartbeat IPC: 0.342452 cumulative IPC: 0.334741 (Simulation time: 0 hr 1 min 51 sec) 
Heartbeat CPU 0 instructions: 27000001 cycles: 77620292 heartbeat IPC: 0.332508 cumulative IPC: 0.334609 (Simulation time: 0 hr 1 min 55 sec) 
Heartbeat CPU 0 instructions: 28000003 cycles: 80300621 heartbeat IPC: 0.373089 cumulative IPC: 0.336537 (Simulation time: 0 hr 1 min 59 sec) 
Heartbeat CPU 0 instructions: 29000000 cycles: 83348219 heartbeat IPC: 0.328126 cumulative IPC: 0.336084 (Simulation time: 0 hr 2 min 4 sec) 
Heartbeat CPU 0 instructions: 30000000 cycles: 86108770 heartbeat IPC: 0.362247 cumulative IPC: 0.337302 (Simulation time: 0 hr 2 min 8 sec) 
Heartbeat CPU 0 instructions: 31000000 cycles: 89010070 heartbeat IPC: 0.344673 cumulative IPC: 0.337646 (Simulation time: 0 hr 2 min 12 sec) 
Heartbeat CPU 0 instructions: 32000003 cycles: 92211315 heartbeat IPC: 0.312379 cumulative IPC: 0.336409 (Simulation time: 0 hr 2 min 17 sec) 
Heartbeat CPU 0 instructions: 33000000 cycles: 95137810 heartbeat IPC: 0.341705 cumulative IPC: 0.336636 (Simulation time: 0 hr 2 min 21 sec) 
Heartbeat CPU 0 instructions: 34000000 cycles: 98253803 heartbeat IPC: 0.320925 cumulative IPC: 0.33595 (Simulation time: 0 hr 2 min 25 sec) 
Heartbeat CPU 0 instructions: 35000003 cycles: 101217383 heartbeat IPC: 0.337431 cumulative IPC: 0.336009 (Simulation time: 0 hr 2 min 30 sec) 
Heartbeat CPU 0 instructions: 36000003 cycles: 104052639 heartbeat IPC: 0.352702 cumulative IPC: 0.336622 (Simulation time: 0 hr 2 min 34 sec) 
Heartbeat CPU 0 instructions: 37000000 cycles: 106990402 heartbeat IPC: 0.340394 cumulative IPC: 0.33676 (Simulation time: 0 hr 2 min 38 sec) 
Heartbeat CPU 0 instructions: 38000000 cycles: 109781317 heartbeat IPC: 0.358305 cumulative IPC: 0.337485 (Simulation time: 0 hr 2 min 42 sec) 
Heartbeat CPU 0 instructions: 39000000 cycles: 112759446 heartbeat IPC: 0.335781 cumulative IPC: 0.337426 (Simulation time: 0 hr 2 min 47 sec) 
Heartbeat CPU 0 instructions: 40000000 cycles: 115820866 heartbeat IPC: 0.326646 cumulative IPC: 0.337055 (Simulation time: 0 hr 2 min 51 sec) 
Heartbeat CPU 0 instructions: 41000003 cycles: 118527110 heartbeat IPC: 0.369517 cumulative IPC: 0.338013 (Simulation time: 0 hr 2 min 55 sec) 
Heartbeat CPU 0 instructions: 42000000 cycles: 121603183 heartbeat IPC: 0.325089 cumulative IPC: 0.337594 (Simulation time: 0 hr 2 min 59 sec) 
Heartbeat CPU 0 instructions: 43000000 cycles: 124384807 heartbeat IPC: 0.359502 cumulative IPC: 0.338218 (Simulation time: 0 hr 3 min 3 sec) 
Heartbeat CPU 0 instructions: 44000000 cycles: 127257001 heartbeat IPC: 0.348166 cumulative IPC: 0.338503 (Simulation time: 0 hr 3 min 7 sec) 
Heartbeat CPU 0 instructions: 45000003 cycles: 130354132 heartbeat IPC: 0.32288 cumulative IPC: 0.338035 (Simulation time: 0 hr 3 min 11 sec) 
Heartbeat CPU 0 instructions: 46000002 cycles: 133260168 heartbeat IPC: 0.344111 cumulative IPC: 0.338201 (Simulation time: 0 hr 3 min 15 sec) 
Heartbeat CPU 0 instructions: 47000000 cycles: 136103296 heartbeat IPC: 0.351725 cumulative IPC: 0.338553 (Simulation time: 0 hr 3 min 19 sec) 
Heartbeat CPU 0 instructions: 48000000 cycles: 138818291 heartbeat IPC: 0.368325 cumulative IPC: 0.339275 (Simulation time: 0 hr 3 min 24 sec) 
Heartbeat CPU 0 instructions: 49000000 cycles: 141839220 heartbeat IPC: 0.331024 cumulative IPC: 0.339058 (Simulation time: 0 hr 3 min 28 sec) 
Heartbeat CPU 0 instructions: 50000003 cycles: 145342242 heartbeat IPC: 0.285469 cumulative IPC: 0.337474 (Simulation time: 0 hr 3 min 32 sec) 
Heartbeat CPU 0 instructions: 51000001 cycles: 148037562 heartbeat IPC: 0.371013 cumulative IPC: 0.33822 (Simulation time: 0 hr 3 min 37 sec) 
Heartbeat CPU 0 instructions: 52000000 cycles: 150974960 heartbeat IPC: 0.340437 cumulative IPC: 0.338272 (Simulation time: 0 hr 3 min 41 sec) 
Heartbeat CPU 0 instructions: 53000001 cycles: 153755327 heartbeat IPC: 0.359665 cumulative IPC: 0.338741 (Simulation time: 0 hr 3 min 45 sec) 
Heartbeat CPU 0 instructions: 54000003 cycles: 156135593 heartbeat IPC: 0.420122 cumulative IPC: 0.340239 (Simulation time: 0 hr 3 min 49 sec) 
Heartbeat CPU 0 instructions: 55000000 cycles: 159025178 heartbeat IPC: 0.346069 cumulative IPC: 0.340366 (Simulation time: 0 hr 3 min 53 sec) 
Heartbeat CPU 0 instructions: 56000000 cycles: 162062881 heartbeat IPC: 0.329196 cumulative IPC: 0.340115 (Simulation time: 0 hr 3 min 58 sec) 
Heartbeat CPU 0 instructions: 57000000 cycles: 165029941 heartbeat IPC: 0.337034 cumulative IPC: 0.340049 (Simulation time: 0 hr 4 min 1 sec) 
Heartbeat CPU 0 instructions: 58000003 cycles: 167820162 heartbeat IPC: 0.358396 cumulative IPC: 0.340412 (Simulation time: 0 hr 4 min 5 sec) 
Heartbeat CPU 0 instructions: 59000003 cycles: 170790811 heartbeat IPC: 0.336627 cumulative IPC: 0.340334 (Simulation time: 0 hr 4 min 9 sec) 
Heartbeat CPU 0 instructions: 60000001 cycles: 173681418 heartbeat IPC: 0.345947 cumulative IPC: 0.340445 (Simulation time: 0 hr 4 min 13 sec) 
Heartbeat CPU 0 instructions: 61000001 cycles: 176636717 heartbeat IPC: 0.338375 cumulative IPC: 0.340404 (Simulation time: 0 hr 4 min 17 sec) 
Heartbeat CPU 0 instructions: 62000001 cycles: 179505169 heartbeat IPC: 0.34862 cumulative IPC: 0.340558 (Simulation time: 0 hr 4 min 21 sec) 
Heartbeat CPU 0 instructions: 63000000 cycles: 182437585 heartbeat IPC: 0.341015 cumulative IPC: 0.340567 (Simulation time: 0 hr 4 min 25 sec) 
Heartbeat CPU 0 instructions: 64000000 cycles: 185186269 heartbeat IPC: 0.36381 cumulative IPC: 0.34097 (Simulation time: 0 hr 4 min 29 sec) 
Heartbeat CPU 0 instructions: 65000000 cycles: 188219389 heartbeat IPC: 0.329694 cumulative IPC: 0.340758 (Simulation time: 0 hr 4 min 34 sec) 
Heartbeat CPU 0 instructions: 66000000 cycles: 191069993 heartbeat IPC: 0.350803 cumulative IPC: 0.340933 (Simulation time: 0 hr 4 min 38 sec) 
Heartbeat CPU 0 instructions: 67000001 cycles: 193960370 heartbeat IPC: 0.345976 cumulative IPC: 0.34102 (Simulation time: 0 hr 4 min 42 sec) 
Heartbeat CPU 0 instructions: 68000000 cycles: 196782288 heartbeat IPC: 0.354369 cumulative IPC: 0.341241 (Simulation time: 0 hr 4 min 46 sec) 
Heartbeat CPU 0 instructions: 69000001 cycles: 199636850 heartbeat IPC: 0.350317 cumulative IPC: 0.341391 (Simulation time: 0 hr 4 min 50 sec) 
Heartbeat CPU 0 instructions: 70000000 cycles: 202248346 heartbeat IPC: 0.382922 cumulative IPC: 0.34201 (Simulation time: 0 hr 4 min 54 sec) 
Heartbeat CPU 0 instructions: 71000002 cycles: 204969956 heartbeat IPC: 0.36743 cumulative IPC: 0.342398 (Simulation time: 0 hr 4 min 58 sec) 
Heartbeat CPU 0 instructions: 72000002 cycles: 207755558 heartbeat IPC: 0.358989 cumulative IPC: 0.342653 (Simulation time: 0 hr 5 min 3 sec) 
Heartbeat CPU 0 instructions: 73000001 cycles: 210537856 heartbeat IPC: 0.359415 cumulative IPC: 0.342907 (Simulation time: 0 hr 5 min 7 sec) 
Heartbeat CPU 0 instructions: 74000001 cycles: 213337323 heartbeat IPC: 0.357211 cumulative IPC: 0.343122 (Simulation time: 0 hr 5 min 11 sec) 
Heartbeat CPU 0 instructions: 75000003 cycles: 216074835 heartbeat IPC: 0.365296 cumulative IPC: 0.343443 (Simulation time: 0 hr 5 min 15 sec) 
Heartbeat CPU 0 instructions: 76000001 cycles: 218989074 heartbeat IPC: 0.343142 cumulative IPC: 0.343438 (Simulation time: 0 hr 5 min 19 sec) 
Heartbeat CPU 0 instructions: 77000000 cycles: 221656217 heartbeat IPC: 0.374933 cumulative IPC: 0.343869 (Simulation time: 0 hr 5 min 23 sec) 
Heartbeat CPU 0 instructions: 78000000 cycles: 224381794 heartbeat IPC: 0.366895 cumulative IPC: 0.344187 (Simulation time: 0 hr 5 min 27 sec) 
Heartbeat CPU 0 instructions: 79000001 cycles: 227305284 heartbeat IPC: 0.342057 cumulative IPC: 0.344156 (Simulation time: 0 hr 5 min 31 sec) 
Heartbeat CPU 0 instructions: 80000000 cycles: 229926178 heartbeat IPC: 0.381549 cumulative IPC: 0.344638 (Simulation time: 0 hr 5 min 36 sec) 
Heartbeat CPU 0 instructions: 81000000 cycles: 232835607 heartbeat IPC: 0.34371 cumulative IPC: 0.344625 (Simulation time: 0 hr 5 min 40 sec) 
Heartbeat CPU 0 instructions: 82000000 cycles: 235527460 heartbeat IPC: 0.371491 cumulative IPC: 0.344972 (Simulation time: 0 hr 5 min 44 sec) 
Heartbeat CPU 0 instructions: 83000000 cycles: 238355952 heartbeat IPC: 0.353545 cumulative IPC: 0.345086 (Simulation time: 0 hr 5 min 48 sec) 
Heartbeat CPU 0 instructions: 84000001 cycles: 240967084 heartbeat IPC: 0.382976 cumulative IPC: 0.345548 (Simulation time: 0 hr 5 min 52 sec) 
Heartbeat CPU 0 instructions: 85000003 cycles: 243787707 heartbeat IPC: 0.354532 cumulative IPC: 0.345665 (Simulation time: 0 hr 5 min 57 sec) 
Heartbeat CPU 0 instructions: 86000003 cycles: 246413169 heartbeat IPC: 0.380885 cumulative IPC: 0.346086 (Simulation time: 0 hr 6 min 1 sec) 
Heartbeat CPU 0 instructions: 87000000 cycles: 249367492 heartbeat IPC: 0.338486 cumulative IPC: 0.345985 (Simulation time: 0 hr 6 min 5 sec) 
Heartbeat CPU 0 instructions: 88000000 cycles: 252072236 heartbeat IPC: 0.369721 cumulative IPC: 0.34627 (Simulation time: 0 hr 6 min 9 sec) 
Heartbeat CPU 0 instructions: 89000000 cycles: 254636697 heartbeat IPC: 0.389945 cumulative IPC: 0.346762 (Simulation time: 0 hr 6 min 13 sec) 
Heartbeat CPU 0 instructions: 90000003 cycles: 257428770 heartbeat IPC: 0.358158 cumulative IPC: 0.3469 (Simulation time: 0 hr 6 min 17 sec) 
Heartbeat CPU 0 instructions: 91000001 cycles: 260044965 heartbeat IPC: 0.382234 cumulative IPC: 0.347296 (Simulation time: 0 hr 6 min 21 sec) 
Heartbeat CPU 0 instructions: 92000003 cycles: 262816158 heartbeat IPC: 0.360856 cumulative IPC: 0.347455 (Simulation time: 0 hr 6 min 26 sec) 
Heartbeat CPU 0 instructions: 93000002 cycles: 265589355 heartbeat IPC: 0.360594 cumulative IPC: 0.347608 (Simulation time: 0 hr 6 min 30 sec) 
Heartbeat CPU 0 instructions: 94000003 cycles: 268345872 heartbeat IPC: 0.362777 cumulative IPC: 0.347781 (Simulation time: 0 hr 6 min 34 sec) 
Heartbeat CPU 0 instructions: 95000002 cycles: 271091877 heartbeat IPC: 0.364165 cumulative IPC: 0.347965 (Simulation time: 0 hr 6 min 38 sec) 
Heartbeat CPU 0 instructions: 96000000 cycles: 273765130 heartbeat IPC: 0.374075 cumulative IPC: 0.348248 (Simulation time: 0 hr 6 min 42 sec) 
Heartbeat CPU 0 instructions: 97000000 cycles: 276576129 heartbeat IPC: 0.355745 cumulative IPC: 0.348332 (Simulation time: 0 hr 6 min 46 sec) 
Heartbeat CPU 0 instructions: 98000003 cycles: 279302207 heartbeat IPC: 0.366828 cumulative IPC: 0.348532 (Simulation time: 0 hr 6 min 50 sec) 
Heartbeat CPU 0 instructions: 99000000 cycles: 281990314 heartbeat IPC: 0.372008 cumulative IPC: 0.348779 (Simulation time: 0 hr 6 min 54 sec) 
Heartbeat CPU 0 instructions: 100000002 cycles: 284802295 heartbeat IPC: 0.355622 cumulative IPC: 0.348854 (Simulation time: 0 hr 6 min 59 sec) 
Heartbeat CPU 0 instructions: 101000001 cycles: 287590745 heartbeat IPC: 0.358622 cumulative IPC: 0.348958 (Simulation time: 0 hr 7 min 3 sec) 
Heartbeat CPU 0 instructions: 102000003 cycles: 290058636 heartbeat IPC: 0.405205 cumulative IPC: 0.349486 (Simulation time: 0 hr 7 min 7 sec) 
Heartbeat CPU 0 instructions: 103000001 cycles: 292821727 heartbeat IPC: 0.361913 cumulative IPC: 0.349615 (Simulation time: 0 hr 7 min 11 sec) 
Heartbeat CPU 0 instructions: 104000000 cycles: 295584805 heartbeat IPC: 0.361915 cumulative IPC: 0.349741 (Simulation time: 0 hr 7 min 15 sec) 
Heartbeat CPU 0 instructions: 105000000 cycles: 298370670 heartbeat IPC: 0.358955 cumulative IPC: 0.349836 (Simulation time: 0 hr 7 min 20 sec) 
Heartbeat CPU 0 instructions: 106000003 cycles: 301108395 heartbeat IPC: 0.365268 cumulative IPC: 0.34999 (Simulation time: 0 hr 7 min 24 sec) 
Heartbeat CPU 0 instructions: 107000002 cycles: 303747779 heartbeat IPC: 0.378876 cumulative IPC: 0.350265 (Simulation time: 0 hr 7 min 28 sec) 
Heartbeat CPU 0 instructions: 108000002 cycles: 306473379 heartbeat IPC: 0.366892 cumulative IPC: 0.350427 (Simulation time: 0 hr 7 min 32 sec) 
Heartbeat CPU 0 instructions: 109000000 cycles: 309412460 heartbeat IPC: 0.340242 cumulative IPC: 0.350321 (Simulation time: 0 hr 7 min 36 sec) 
Heartbeat CPU 0 instructions: 110000000 cycles: 312184814 heartbeat IPC: 0.360704 cumulative IPC: 0.350422 (Simulation time: 0 hr 7 min 41 sec) 
Heartbeat CPU 0 instructions: 111000000 cycles: 314734277 heartbeat IPC: 0.392239 cumulative IPC: 0.350792 (Simulation time: 0 hr 7 min 45 sec) 
Heartbeat CPU 0 instructions: 112000003 cycles: 317485327 heartbeat IPC: 0.363499 cumulative IPC: 0.350913 (Simulation time: 0 hr 7 min 49 sec) 
Heartbeat CPU 0 instructions: 113000002 cycles: 320144181 heartbeat IPC: 0.376101 cumulative IPC: 0.351141 (Simulation time: 0 hr 7 min 53 sec) 
Heartbeat CPU 0 instructions: 114000000 cycles: 322850411 heartbeat IPC: 0.369517 cumulative IPC: 0.351309 (Simulation time: 0 hr 7 min 57 sec) 
Heartbeat CPU 0 instructions: 115000000 cycles: 325747164 heartbeat IPC: 0.345214 cumulative IPC: 0.35125 (Simulation time: 0 hr 8 min 1 sec) 
Heartbeat CPU 0 instructions: 116000000 cycles: 328284169 heartbeat IPC: 0.394166 cumulative IPC: 0.351611 (Simulation time: 0 hr 8 min 6 sec) 
Heartbeat CPU 0 instructions: 117000000 cycles: 331201198 heartbeat IPC: 0.342815 cumulative IPC: 0.351527 (Simulation time: 0 hr 8 min 10 sec) 
Heartbeat CPU 0 instructions: 118000000 cycles: 333882409 heartbeat IPC: 0.372966 cumulative IPC: 0.351714 (Simulation time: 0 hr 8 min 14 sec) 
Heartbeat CPU 0 instructions: 119000000 cycles: 336708099 heartbeat IPC: 0.353896 cumulative IPC: 0.351734 (Simulation time: 0 hr 8 min 18 sec) 
Heartbeat CPU 0 instructions: 120000001 cycles: 339307724 heartbeat IPC: 0.384671 cumulative IPC: 0.352008 (Simulation time: 0 hr 8 min 22 sec) 
Heartbeat CPU 0 instructions: 121000000 cycles: 341881108 heartbeat IPC: 0.388593 cumulative IPC: 0.352307 (Simulation time: 0 hr 8 min 26 sec) 
Heartbeat CPU 0 instructions: 122000002 cycles: 344599820 heartbeat IPC: 0.367822 cumulative IPC: 0.352439 (Simulation time: 0 hr 8 min 30 sec) 
Heartbeat CPU 0 instructions: 123000000 cycles: 347236923 heartbeat IPC: 0.379203 cumulative IPC: 0.35266 (Simulation time: 0 hr 8 min 34 sec) 
Heartbeat CPU 0 instructions: 124000001 cycles: 350027091 heartbeat IPC: 0.358402 cumulative IPC: 0.352709 (Simulation time: 0 hr 8 min 39 sec) 
Heartbeat CPU 0 instructions: 125000001 cycles: 352970266 heartbeat IPC: 0.339769 cumulative IPC: 0.352592 (Simulation time: 0 hr 8 min 43 sec) 
Heartbeat CPU 0 instructions: 126000001 cycles: 355935741 heartbeat IPC: 0.337214 cumulative IPC: 0.352454 (Simulation time: 0 hr 8 min 47 sec) 
Heartbeat CPU 0 instructions: 127000002 cycles: 358521759 heartbeat IPC: 0.386695 cumulative IPC: 0.352721 (Simulation time: 0 hr 8 min 51 sec) 
Heartbeat CPU 0 instructions: 128000002 cycles: 361104613 heartbeat IPC: 0.387169 cumulative IPC: 0.352987 (Simulation time: 0 hr 8 min 55 sec) 
Heartbeat CPU 0 instructions: 129000002 cycles: 363795068 heartbeat IPC: 0.371684 cumulative IPC: 0.353136 (Simulation time: 0 hr 8 min 59 sec) 
Heartbeat CPU 0 instructions: 130000000 cycles: 365955814 heartbeat IPC: 0.462802 cumulative IPC: 0.353835 (Simulation time: 0 hr 9 min 3 sec) 
Heartbeat CPU 0 instructions: 131000000 cycles: 368489873 heartbeat IPC: 0.394624 cumulative IPC: 0.354138 (Simulation time: 0 hr 9 min 7 sec) 
Heartbeat CPU 0 instructions: 132000000 cycles: 371290761 heartbeat IPC: 0.35703 cumulative IPC: 0.354161 (Simulation time: 0 hr 9 min 11 sec) 
Heartbeat CPU 0 instructions: 133000000 cycles: 373925809 heartbeat IPC: 0.3795 cumulative IPC: 0.354353 (Simulation time: 0 hr 9 min 15 sec) 
Heartbeat CPU 0 instructions: 134000001 cycles: 376677511 heartbeat IPC: 0.363412 cumulative IPC: 0.354425 (Simulation time: 0 hr 9 min 19 sec) 
Heartbeat CPU 0 instructions: 135000003 cycles: 379379706 heartbeat IPC: 0.37007 cumulative IPC: 0.354545 (Simulation time: 0 hr 9 min 23 sec) 
Heartbeat CPU 0 instructions: 136000000 cycles: 382135211 heartbeat IPC: 0.362909 cumulative IPC: 0.354609 (Simulation time: 0 hr 9 min 27 sec) 
Heartbeat CPU 0 instructions: 137000002 cycles: 384937053 heartbeat IPC: 0.356909 cumulative IPC: 0.354627 (Simulation time: 0 hr 9 min 31 sec) 
Heartbeat CPU 0 instructions: 138000002 cycles: 387615076 heartbeat IPC: 0.37341 cumulative IPC: 0.354767 (Simulation time: 0 hr 9 min 34 sec) 
Heartbeat CPU 0 instructions: 139000000 cycles: 390292746 heartbeat IPC: 0.373458 cumulative IPC: 0.354905 (Simulation time: 0 hr 9 min 38 sec) 
Heartbeat CPU 0 instructions: 140000000 cycles: 393094189 heartbeat IPC: 0.356959 cumulative IPC: 0.35492 (Simulation time: 0 hr 9 min 42 sec) 
Heartbeat CPU 0 instructions: 141000002 cycles: 396159384 heartbeat IPC: 0.326244 cumulative IPC: 0.354682 (Simulation time: 0 hr 9 min 46 sec) 
Heartbeat CPU 0 instructions: 142000001 cycles: 398750791 heartbeat IPC: 0.38589 cumulative IPC: 0.3549 (Simulation time: 0 hr 9 min 50 sec) 
Heartbeat CPU 0 instructions: 143000000 cycles: 401631568 heartbeat IPC: 0.347128 cumulative IPC: 0.35484 (Simulation time: 0 hr 9 min 54 sec) 
Heartbeat CPU 0 instructions: 144000001 cycles: 404157829 heartbeat IPC: 0.395842 cumulative IPC: 0.355114 (Simulation time: 0 hr 9 min 58 sec) 
Heartbeat CPU 0 instructions: 145000003 cycles: 407090911 heartbeat IPC: 0.340939 cumulative IPC: 0.355005 (Simulation time: 0 hr 10 min 2 sec) 
Heartbeat CPU 0 instructions: 146000000 cycles: 409851324 heartbeat IPC: 0.362264 cumulative IPC: 0.355057 (Simulation time: 0 hr 10 min 6 sec) 
Heartbeat CPU 0 instructions: 147000000 cycles: 412887824 heartbeat IPC: 0.329327 cumulative IPC: 0.354855 (Simulation time: 0 hr 10 min 10 sec) 
Heartbeat CPU 0 instructions: 148000003 cycles: 415455686 heartbeat IPC: 0.38943 cumulative IPC: 0.355083 (Simulation time: 0 hr 10 min 13 sec) 
Heartbeat CPU 0 instructions: 149000001 cycles: 418237662 heartbeat IPC: 0.359456 cumulative IPC: 0.355115 (Simulation time: 0 hr 10 min 17 sec) 
Heartbeat CPU 0 instructions: 150000002 cycles: 420939404 heartbeat IPC: 0.370132 cumulative IPC: 0.355218 (Simulation time: 0 hr 10 min 21 sec) 
Heartbeat CPU 0 instructions: 151000002 cycles: 423794307 heartbeat IPC: 0.350275 cumulative IPC: 0.355182 (Simulation time: 0 hr 10 min 25 sec) 
Heartbeat CPU 0 instructions: 152000001 cycles: 426650037 heartbeat IPC: 0.350173 cumulative IPC: 0.355146 (Simulation time: 0 hr 10 min 29 sec) 
Heartbeat CPU 0 instructions: 153000002 cycles: 429431973 heartbeat IPC: 0.359462 cumulative IPC: 0.355176 (Simulation time: 0 hr 10 min 33 sec) 
Heartbeat CPU 0 instructions: 154000000 cycles: 432058381 heartbeat IPC: 0.380747 cumulative IPC: 0.355342 (Simulation time: 0 hr 10 min 37 sec) 
Heartbeat CPU 0 instructions: 155000003 cycles: 434969784 heartbeat IPC: 0.343478 cumulative IPC: 0.355257 (Simulation time: 0 hr 10 min 41 sec) 
Heartbeat CPU 0 instructions: 156000002 cycles: 437643957 heartbeat IPC: 0.373947 cumulative IPC: 0.355379 (Simulation time: 0 hr 10 min 45 sec) 
Heartbeat CPU 0 instructions: 157000001 cycles: 440347469 heartbeat IPC: 0.369889 cumulative IPC: 0.355474 (Simulation time: 0 hr 10 min 49 sec) 
Heartbeat CPU 0 instructions: 158000003 cycles: 443087537 heartbeat IPC: 0.364955 cumulative IPC: 0.355536 (Simulation time: 0 hr 10 min 53 sec) 
Heartbeat CPU 0 instructions: 159000003 cycles: 445878507 heartbeat IPC: 0.358298 cumulative IPC: 0.355554 (Simulation time: 0 hr 10 min 56 sec) 
Heartbeat CPU 0 instructions: 160000001 cycles: 448484867 heartbeat IPC: 0.383676 cumulative IPC: 0.355728 (Simulation time: 0 hr 11 min 0 sec) 
Heartbeat CPU 0 instructions: 161000003 cycles: 451100156 heartbeat IPC: 0.382368 cumulative IPC: 0.355892 (Simulation time: 0 hr 11 min 5 sec) 
Heartbeat CPU 0 instructions: 162000003 cycles: 454020162 heartbeat IPC: 0.342465 cumulative IPC: 0.355801 (Simulation time: 0 hr 11 min 12 sec) 
Heartbeat CPU 0 instructions: 163000000 cycles: 456710506 heartbeat IPC: 0.371699 cumulative IPC: 0.3559 (Simulation time: 0 hr 11 min 18 sec) 
Heartbeat CPU 0 instructions: 164000000 cycles: 459488750 heartbeat IPC: 0.35994 cumulative IPC: 0.355926 (Simulation time: 0 hr 11 min 25 sec) 
Heartbeat CPU 0 instructions: 165000000 cycles: 462081214 heartbeat IPC: 0.385733 cumulative IPC: 0.356104 (Simulation time: 0 hr 11 min 31 sec) 
Heartbeat CPU 0 instructions: 166000001 cycles: 464671099 heartbeat IPC: 0.386118 cumulative IPC: 0.356281 (Simulation time: 0 hr 11 min 38 sec) 
Heartbeat CPU 0 instructions: 167000003 cycles: 467519436 heartbeat IPC: 0.351083 cumulative IPC: 0.356248 (Simulation time: 0 hr 11 min 45 sec) 
Heartbeat CPU 0 instructions: 168000002 cycles: 470067743 heartbeat IPC: 0.392417 cumulative IPC: 0.356456 (Simulation time: 0 hr 11 min 51 sec) 
Heartbeat CPU 0 instructions: 169000001 cycles: 472824128 heartbeat IPC: 0.362794 cumulative IPC: 0.356495 (Simulation time: 0 hr 11 min 58 sec) 
Heartbeat CPU 0 instructions: 170000001 cycles: 475549067 heartbeat IPC: 0.366981 cumulative IPC: 0.356558 (Simulation time: 0 hr 12 min 5 sec) 
Heartbeat CPU 0 instructions: 171000002 cycles: 478229246 heartbeat IPC: 0.37311 cumulative IPC: 0.356657 (Simulation time: 0 hr 12 min 12 sec) 
Heartbeat CPU 0 instructions: 172000001 cycles: 481101663 heartbeat IPC: 0.348139 cumulative IPC: 0.356603 (Simulation time: 0 hr 12 min 19 sec) 
Heartbeat CPU 0 instructions: 173000003 cycles: 483839739 heartbeat IPC: 0.365221 cumulative IPC: 0.356654 (Simulation time: 0 hr 12 min 26 sec) 
Heartbeat CPU 0 instructions: 174000000 cycles: 486824859 heartbeat IPC: 0.334994 cumulative IPC: 0.356514 (Simulation time: 0 hr 12 min 33 sec) 
Heartbeat CPU 0 instructions: 175000002 cycles: 489362066 heartbeat IPC: 0.394135 cumulative IPC: 0.35672 (Simulation time: 0 hr 12 min 40 sec) 
Heartbeat CPU 0 instructions: 176000000 cycles: 491868321 heartbeat IPC: 0.399001 cumulative IPC: 0.356948 (Simulation time: 0 hr 12 min 46 sec) 
Heartbeat CPU 0 instructions: 177000001 cycles: 494731616 heartbeat IPC: 0.349248 cumulative IPC: 0.356901 (Simulation time: 0 hr 12 min 53 sec) 
Heartbeat CPU 0 instructions: 178000000 cycles: 497150290 heartbeat IPC: 0.413449 cumulative IPC: 0.357192 (Simulation time: 0 hr 12 min 59 sec) 
Heartbeat CPU 0 instructions: 179000000 cycles: 499922219 heartbeat IPC: 0.36076 cumulative IPC: 0.357213 (Simulation time: 0 hr 13 min 6 sec) 
Heartbeat CPU 0 instructions: 180000000 cycles: 502686950 heartbeat IPC: 0.361699 cumulative IPC: 0.357239 (Simulation time: 0 hr 13 min 13 sec) 
Heartbeat CPU 0 instructions: 181000000 cycles: 505600410 heartbeat IPC: 0.343235 cumulative IPC: 0.357154 (Simulation time: 0 hr 13 min 20 sec) 
Heartbeat CPU 0 instructions: 182000002 cycles: 508283691 heartbeat IPC: 0.372679 cumulative IPC: 0.35724 (Simulation time: 0 hr 13 min 26 sec) 
Heartbeat CPU 0 instructions: 183000001 cycles: 510881697 heartbeat IPC: 0.38491 cumulative IPC: 0.357389 (Simulation time: 0 hr 13 min 33 sec) 
Heartbeat CPU 0 instructions: 184000000 cycles: 513523816 heartbeat IPC: 0.378484 cumulative IPC: 0.357503 (Simulation time: 0 hr 13 min 39 sec) 
Heartbeat CPU 0 instructions: 185000002 cycles: 516261628 heartbeat IPC: 0.365256 cumulative IPC: 0.357546 (Simulation time: 0 hr 13 min 46 sec) 
Heartbeat CPU 0 instructions: 186000000 cycles: 519253632 heartbeat IPC: 0.334223 cumulative IPC: 0.357405 (Simulation time: 0 hr 13 min 53 sec) 
Heartbeat CPU 0 instructions: 187000000 cycles: 521885377 heartbeat IPC: 0.379976 cumulative IPC: 0.357525 (Simulation time: 0 hr 13 min 59 sec) 
Heartbeat CPU 0 instructions: 188000002 cycles: 524499972 heartbeat IPC: 0.382469 cumulative IPC: 0.357656 (Simulation time: 0 hr 14 min 6 sec) 
Heartbeat CPU 0 instructions: 189000001 cycles: 526965107 heartbeat IPC: 0.405657 cumulative IPC: 0.357892 (Simulation time: 0 hr 14 min 13 sec) 
Heartbeat CPU 0 instructions: 190000000 cycles: 529707208 heartbeat IPC: 0.364684 cumulative IPC: 0.357929 (Simulation time: 0 hr 14 min 20 sec) 
Heartbeat CPU 0 instructions: 191000000 cycles: 532502015 heartbeat IPC: 0.357806 cumulative IPC: 0.357929 (Simulation time: 0 hr 14 min 26 sec) 
Heartbeat CPU 0 instructions: 192000002 cycles: 535431858 heartbeat IPC: 0.341316 cumulative IPC: 0.357833 (Simulation time: 0 hr 14 min 33 sec) 
Heartbeat CPU 0 instructions: 193000001 cycles: 537970230 heartbeat IPC: 0.393953 cumulative IPC: 0.358012 (Simulation time: 0 hr 14 min 39 sec) 
Heartbeat CPU 0 instructions: 194000003 cycles: 540866655 heartbeat IPC: 0.345254 cumulative IPC: 0.35794 (Simulation time: 0 hr 14 min 46 sec) 
Heartbeat CPU 0 instructions: 195000001 cycles: 543660736 heartbeat IPC: 0.357899 cumulative IPC: 0.35794 (Simulation time: 0 hr 14 min 53 sec) 
Heartbeat CPU 0 instructions: 196000000 cycles: 546402147 heartbeat IPC: 0.364775 cumulative IPC: 0.357976 (Simulation time: 0 hr 14 min 59 sec) 
Heartbeat CPU 0 instructions: 197000000 cycles: 549262551 heartbeat IPC: 0.349601 cumulative IPC: 0.35793 (Simulation time: 0 hr 15 min 6 sec) 
Heartbeat CPU 0 instructions: 198000000 cycles: 551880474 heartbeat IPC: 0.381982 cumulative IPC: 0.35805 (Simulation time: 0 hr 15 min 13 sec) 
Heartbeat CPU 0 instructions: 199000003 cycles: 554707358 heartbeat IPC: 0.353747 cumulative IPC: 0.358027 (Simulation time: 0 hr 15 min 19 sec) 
Heartbeat CPU 0 instructions: 200000000 cycles: 557641094 heartbeat IPC: 0.340861 cumulative IPC: 0.357932 (Simulation time: 0 hr 15 min 26 sec) 
Heartbeat CPU 0 instructions: 201000000 cycles: 560111293 heartbeat IPC: 0.404826 cumulative IPC: 0.35815 (Simulation time: 0 hr 15 min 33 sec) 
Heartbeat CPU 0 instructions: 202000003 cycles: 563042849 heartbeat IPC: 0.341117 cumulative IPC: 0.358057 (Simulation time: 0 hr 15 min 39 sec) 
Heartbeat CPU 0 instructions: 203000003 cycles: 565675668 heartbeat IPC: 0.379821 cumulative IPC: 0.358163 (Simulation time: 0 hr 15 min 46 sec) 
Heartbeat CPU 0 instructions: 204000001 cycles: 568335954 heartbeat IPC: 0.375899 cumulative IPC: 0.35825 (Simulation time: 0 hr 15 min 53 sec) 
Heartbeat CPU 0 instructions: 205000000 cycles: 571175309 heartbeat IPC: 0.352192 cumulative IPC: 0.358218 (Simulation time: 0 hr 16 min 0 sec) 
Heartbeat CPU 0 instructions: 206000002 cycles: 574031649 heartbeat IPC: 0.350099 cumulative IPC: 0.358176 (Simulation time: 0 hr 16 min 7 sec) 
Heartbeat CPU 0 instructions: 207000002 cycles: 576732423 heartbeat IPC: 0.370264 cumulative IPC: 0.358235 (Simulation time: 0 hr 16 min 14 sec) 
Heartbeat CPU 0 instructions: 208000000 cycles: 579551126 heartbeat IPC: 0.354772 cumulative IPC: 0.358218 (Simulation time: 0 hr 16 min 21 sec) 
Heartbeat CPU 0 instructions: 209000000 cycles: 582416235 heartbeat IPC: 0.349027 cumulative IPC: 0.35817 (Simulation time: 0 hr 16 min 28 sec) 
Heartbeat CPU 0 instructions: 210000000 cycles: 584867968 heartbeat IPC: 0.407875 cumulative IPC: 0.358389 (Simulation time: 0 hr 16 min 36 sec) 
Heartbeat CPU 0 instructions: 211000001 cycles: 587219735 heartbeat IPC: 0.425213 cumulative IPC: 0.358669 (Simulation time: 0 hr 16 min 43 sec) 
Heartbeat CPU 0 instructions: 212000001 cycles: 590100169 heartbeat IPC: 0.34717 cumulative IPC: 0.35861 (Simulation time: 0 hr 16 min 50 sec) 
Heartbeat CPU 0 instructions: 213000000 cycles: 592913876 heartbeat IPC: 0.355403 cumulative IPC: 0.358594 (Simulation time: 0 hr 16 min 57 sec) 
Heartbeat CPU 0 instructions: 214000000 cycles: 595642846 heartbeat IPC: 0.366439 cumulative IPC: 0.358632 (Simulation time: 0 hr 17 min 4 sec) 
Heartbeat CPU 0 instructions: 215000000 cycles: 598441801 heartbeat IPC: 0.357276 cumulative IPC: 0.358625 (Simulation time: 0 hr 17 min 11 sec) 
Heartbeat CPU 0 instructions: 216000001 cycles: 601177193 heartbeat IPC: 0.365579 cumulative IPC: 0.358658 (Simulation time: 0 hr 17 min 18 sec) 
Heartbeat CPU 0 instructions: 217000001 cycles: 604026420 heartbeat IPC: 0.350972 cumulative IPC: 0.358621 (Simulation time: 0 hr 17 min 25 sec) 
Heartbeat CPU 0 instructions: 218000002 cycles: 607088303 heartbeat IPC: 0.326597 cumulative IPC: 0.358452 (Simulation time: 0 hr 17 min 32 sec) 
Heartbeat CPU 0 instructions: 219000001 cycles: 609916304 heartbeat IPC: 0.353606 cumulative IPC: 0.358428 (Simulation time: 0 hr 17 min 39 sec) 
Heartbeat CPU 0 instructions: 220000000 cycles: 612766387 heartbeat IPC: 0.350867 cumulative IPC: 0.358391 (Simulation time: 0 hr 17 min 47 sec) 
Heartbeat CPU 0 instructions: 221000000 cycles: 615648541 heartbeat IPC: 0.346963 cumulative IPC: 0.358335 (Simulation time: 0 hr 17 min 54 sec) 
Heartbeat CPU 0 instructions: 222000002 cycles: 618264628 heartbeat IPC: 0.382251 cumulative IPC: 0.358441 (Simulation time: 0 hr 18 min 0 sec) 
Heartbeat CPU 0 instructions: 223000003 cycles: 621035596 heartbeat IPC: 0.360885 cumulative IPC: 0.358453 (Simulation time: 0 hr 18 min 7 sec) 
Heartbeat CPU 0 instructions: 224000000 cycles: 623668916 heartbeat IPC: 0.379748 cumulative IPC: 0.358546 (Simulation time: 0 hr 18 min 14 sec) 
Heartbeat CPU 0 instructions: 225000000 cycles: 626427761 heartbeat IPC: 0.362471 cumulative IPC: 0.358565 (Simulation time: 0 hr 18 min 22 sec) 
Heartbeat CPU 0 instructions: 226000000 cycles: 629187599 heartbeat IPC: 0.36234 cumulative IPC: 0.358582 (Simulation time: 0 hr 18 min 29 sec) 
Heartbeat CPU 0 instructions: 227000001 cycles: 631820973 heartbeat IPC: 0.379741 cumulative IPC: 0.358674 (Simulation time: 0 hr 18 min 36 sec) 
Heartbeat CPU 0 instructions: 228000000 cycles: 634594245 heartbeat IPC: 0.360585 cumulative IPC: 0.358683 (Simulation time: 0 hr 18 min 43 sec) 
Heartbeat CPU 0 instructions: 229000000 cycles: 637454946 heartbeat IPC: 0.349565 cumulative IPC: 0.35864 (Simulation time: 0 hr 18 min 50 sec) 
Heartbeat CPU 0 instructions: 230000001 cycles: 640060889 heartbeat IPC: 0.383739 cumulative IPC: 0.358747 (Simulation time: 0 hr 18 min 57 sec) 
Heartbeat CPU 0 instructions: 231000000 cycles: 642862060 heartbeat IPC: 0.356993 cumulative IPC: 0.358739 (Simulation time: 0 hr 19 min 4 sec) 
Heartbeat CPU 0 instructions: 232000000 cycles: 645531534 heartbeat IPC: 0.374606 cumulative IPC: 0.358807 (Simulation time: 0 hr 19 min 11 sec) 
Heartbeat CPU 0 instructions: 233000000 cycles: 648539132 heartbeat IPC: 0.332491 cumulative IPC: 0.35868 (Simulation time: 0 hr 19 min 18 sec) 
Heartbeat CPU 0 instructions: 234000003 cycles: 651311401 heartbeat IPC: 0.360716 cumulative IPC: 0.358689 (Simulation time: 0 hr 19 min 25 sec) 
Heartbeat CPU 0 instructions: 235000001 cycles: 653846594 heartbeat IPC: 0.394446 cumulative IPC: 0.358833 (Simulation time: 0 hr 19 min 32 sec) 
Heartbeat CPU 0 instructions: 236000000 cycles: 656502804 heartbeat IPC: 0.376476 cumulative IPC: 0.358908 (Simulation time: 0 hr 19 min 39 sec) 
Heartbeat CPU 0 instructions: 237000000 cycles: 659101459 heartbeat IPC: 0.384814 cumulative IPC: 0.359014 (Simulation time: 0 hr 19 min 46 sec) 
Heartbeat CPU 0 instructions: 238000000 cycles: 661871662 heartbeat IPC: 0.360984 cumulative IPC: 0.359023 (Simulation time: 0 hr 19 min 53 sec) 
Heartbeat CPU 0 instructions: 239000000 cycles: 664795001 heartbeat IPC: 0.342075 cumulative IPC: 0.358945 (Simulation time: 0 hr 20 min 1 sec) 
Heartbeat CPU 0 instructions: 240000001 cycles: 667554314 heartbeat IPC: 0.362409 cumulative IPC: 0.35896 (Simulation time: 0 hr 20 min 7 sec) 
Heartbeat CPU 0 instructions: 241000000 cycles: 670388812 heartbeat IPC: 0.352796 cumulative IPC: 0.358933 (Simulation time: 0 hr 20 min 15 sec) 
Heartbeat CPU 0 instructions: 242000000 cycles: 673001768 heartbeat IPC: 0.382708 cumulative IPC: 0.359029 (Simulation time: 0 hr 20 min 21 sec) 
Heartbeat CPU 0 instructions: 243000000 cycles: 675317848 heartbeat IPC: 0.431764 cumulative IPC: 0.359289 (Simulation time: 0 hr 20 min 28 sec) 
Heartbeat CPU 0 instructions: 244000000 cycles: 677904611 heartbeat IPC: 0.386584 cumulative IPC: 0.359397 (Simulation time: 0 hr 20 min 35 sec) 
Heartbeat CPU 0 instructions: 245000000 cycles: 680563879 heartbeat IPC: 0.376043 cumulative IPC: 0.359465 (Simulation time: 0 hr 20 min 42 sec) 
Heartbeat CPU 0 instructions: 246000003 cycles: 683199496 heartbeat IPC: 0.379419 cumulative IPC: 0.359545 (Simulation time: 0 hr 20 min 49 sec) 
Heartbeat CPU 0 instructions: 247000000 cycles: 685981834 heartbeat IPC: 0.359409 cumulative IPC: 0.359545 (Simulation time: 0 hr 20 min 56 sec) 
Heartbeat CPU 0 instructions: 248000003 cycles: 688565115 heartbeat IPC: 0.387106 cumulative IPC: 0.359652 (Simulation time: 0 hr 21 min 3 sec) 
Heartbeat CPU 0 instructions: 249000001 cycles: 691392365 heartbeat IPC: 0.3537 cumulative IPC: 0.359627 (Simulation time: 0 hr 21 min 11 sec) 
Heartbeat CPU 0 instructions: 250000000 cycles: 694011326 heartbeat IPC: 0.38183 cumulative IPC: 0.359714 (Simulation time: 0 hr 21 min 18 sec) 
Heartbeat CPU 0 instructions: 251000000 cycles: 696668471 heartbeat IPC: 0.376344 cumulative IPC: 0.35978 (Simulation time: 0 hr 21 min 25 sec) 
Heartbeat CPU 0 instructions: 252000000 cycles: 699490358 heartbeat IPC: 0.354373 cumulative IPC: 0.359757 (Simulation time: 0 hr 21 min 32 sec) 
Heartbeat CPU 0 instructions: 253000000 cycles: 702198998 heartbeat IPC: 0.369189 cumulative IPC: 0.359795 (Simulation time: 0 hr 21 min 39 sec) 
Heartbeat CPU 0 instructions: 254000003 cycles: 705081284 heartbeat IPC: 0.346948 cumulative IPC: 0.359741 (Simulation time: 0 hr 21 min 47 sec) 
Heartbeat CPU 0 instructions: 255000000 cycles: 707584301 heartbeat IPC: 0.399517 cumulative IPC: 0.359887 (Simulation time: 0 hr 21 min 54 sec) 
Heartbeat CPU 0 instructions: 256000000 cycles: 709967855 heartbeat IPC: 0.419542 cumulative IPC: 0.360095 (Simulation time: 0 hr 22 min 0 sec) 
Heartbeat CPU 0 instructions: 257000003 cycles: 712764513 heartbeat IPC: 0.357571 cumulative IPC: 0.360085 (Simulation time: 0 hr 22 min 8 sec) 
Heartbeat CPU 0 instructions: 258000000 cycles: 715525233 heartbeat IPC: 0.362223 cumulative IPC: 0.360093 (Simulation time: 0 hr 22 min 15 sec) 
Heartbeat CPU 0 instructions: 259000000 cycles: 718302930 heartbeat IPC: 0.36001 cumulative IPC: 0.360093 (Simulation time: 0 hr 22 min 22 sec) 
Heartbeat CPU 0 instructions: 260000001 cycles: 720973372 heartbeat IPC: 0.37447 cumulative IPC: 0.360148 (Simulation time: 0 hr 22 min 29 sec) 
Heartbeat CPU 0 instructions: 261000003 cycles: 723902071 heartbeat IPC: 0.341449 cumulative IPC: 0.36007 (Simulation time: 0 hr 22 min 36 sec) 
Heartbeat CPU 0 instructions: 262000000 cycles: 726574935 heartbeat IPC: 0.374129 cumulative IPC: 0.360123 (Simulation time: 0 hr 22 min 44 sec) 
Heartbeat CPU 0 instructions: 263000000 cycles: 729443550 heartbeat IPC: 0.3486 cumulative IPC: 0.360076 (Simulation time: 0 hr 22 min 51 sec) 
Heartbeat CPU 0 instructions: 264000000 cycles: 732329711 heartbeat IPC: 0.346481 cumulative IPC: 0.360021 (Simulation time: 0 hr 22 min 58 sec) 
Heartbeat CPU 0 instructions: 265000001 cycles: 734797062 heartbeat IPC: 0.405293 cumulative IPC: 0.360178 (Simulation time: 0 hr 23 min 5 sec) 
Heartbeat CPU 0 instructions: 266000000 cycles: 737423641 heartbeat IPC: 0.380723 cumulative IPC: 0.360254 (Simulation time: 0 hr 23 min 12 sec) 
Heartbeat CPU 0 instructions: 267000002 cycles: 740203555 heartbeat IPC: 0.359724 cumulative IPC: 0.360252 (Simulation time: 0 hr 23 min 20 sec) 
Heartbeat CPU 0 instructions: 268000000 cycles: 742928216 heartbeat IPC: 0.367017 cumulative IPC: 0.360278 (Simulation time: 0 hr 23 min 27 sec) 
Heartbeat CPU 0 instructions: 269000001 cycles: 745864165 heartbeat IPC: 0.340606 cumulative IPC: 0.360198 (Simulation time: 0 hr 23 min 34 sec) 
Heartbeat CPU 0 instructions: 270000000 cycles: 748475512 heartbeat IPC: 0.382944 cumulative IPC: 0.36028 (Simulation time: 0 hr 23 min 41 sec) 
Heartbeat CPU 0 instructions: 271000000 cycles: 751722134 heartbeat IPC: 0.308012 cumulative IPC: 0.360046 (Simulation time: 0 hr 23 min 48 sec) 
Heartbeat CPU 0 instructions: 272000001 cycles: 754400976 heartbeat IPC: 0.373296 cumulative IPC: 0.360095 (Simulation time: 0 hr 23 min 55 sec) 
Heartbeat CPU 0 instructions: 273000000 cycles: 757336150 heartbeat IPC: 0.340695 cumulative IPC: 0.360017 (Simulation time: 0 hr 24 min 2 sec) 
Heartbeat CPU 0 instructions: 274000002 cycles: 760395603 heartbeat IPC: 0.326856 cumulative IPC: 0.359879 (Simulation time: 0 hr 24 min 10 sec) 
Heartbeat CPU 0 instructions: 275000000 cycles: 763000876 heartbeat IPC: 0.383836 cumulative IPC: 0.359963 (Simulation time: 0 hr 24 min 16 sec) 
Heartbeat CPU 0 instructions: 276000001 cycles: 765767113 heartbeat IPC: 0.361502 cumulative IPC: 0.359969 (Simulation time: 0 hr 24 min 23 sec) 
Heartbeat CPU 0 instructions: 277000000 cycles: 768307600 heartbeat IPC: 0.393625 cumulative IPC: 0.360084 (Simulation time: 0 hr 24 min 30 sec) 
Heartbeat CPU 0 instructions: 278000000 cycles: 771265511 heartbeat IPC: 0.338076 cumulative IPC: 0.359997 (Simulation time: 0 hr 24 min 37 sec) 
Heartbeat CPU 0 instructions: 279000002 cycles: 773913191 heartbeat IPC: 0.37769 cumulative IPC: 0.36006 (Simulation time: 0 hr 24 min 44 sec) 
Heartbeat CPU 0 instructions: 280000000 cycles: 776719650 heartbeat IPC: 0.35632 cumulative IPC: 0.360046 (Simulation time: 0 hr 24 min 52 sec) 
Heartbeat CPU 0 instructions: 281000001 cycles: 779557846 heartbeat IPC: 0.352337 cumulative IPC: 0.360017 (Simulation time: 0 hr 24 min 59 sec) 
Heartbeat CPU 0 instructions: 282000002 cycles: 782230789 heartbeat IPC: 0.37412 cumulative IPC: 0.360066 (Simulation time: 0 hr 25 min 6 sec) 
Heartbeat CPU 0 instructions: 283000000 cycles: 784835628 heartbeat IPC: 0.3839 cumulative IPC: 0.360148 (Simulation time: 0 hr 25 min 13 sec) 
Heartbeat CPU 0 instructions: 284000000 cycles: 787351387 heartbeat IPC: 0.397494 cumulative IPC: 0.360272 (Simulation time: 0 hr 25 min 20 sec) 
Heartbeat CPU 0 instructions: 285000000 cycles: 790255596 heartbeat IPC: 0.344328 cumulative IPC: 0.360211 (Simulation time: 0 hr 25 min 27 sec) 
Heartbeat CPU 0 instructions: 286000000 cycles: 792939446 heartbeat IPC: 0.372599 cumulative IPC: 0.360255 (Simulation time: 0 hr 25 min 34 sec) 
Heartbeat CPU 0 instructions: 287000001 cycles: 795659429 heartbeat IPC: 0.36765 cumulative IPC: 0.360281 (Simulation time: 0 hr 25 min 41 sec) 
Heartbeat CPU 0 instructions: 288000001 cycles: 798356168 heartbeat IPC: 0.370818 cumulative IPC: 0.360318 (Simulation time: 0 hr 25 min 48 sec) 
Heartbeat CPU 0 instructions: 289000000 cycles: 801056491 heartbeat IPC: 0.370326 cumulative IPC: 0.360353 (Simulation time: 0 hr 25 min 55 sec) 
Heartbeat CPU 0 instructions: 290000003 cycles: 803944219 heartbeat IPC: 0.346294 cumulative IPC: 0.3603 (Simulation time: 0 hr 26 min 3 sec) 
Heartbeat CPU 0 instructions: 291000000 cycles: 806104888 heartbeat IPC: 0.462818 cumulative IPC: 0.360585 (Simulation time: 0 hr 26 min 9 sec) 
Heartbeat CPU 0 instructions: 292000000 cycles: 808791055 heartbeat IPC: 0.372278 cumulative IPC: 0.360625 (Simulation time: 0 hr 26 min 16 sec) 
Heartbeat CPU 0 instructions: 293000000 cycles: 811445208 heartbeat IPC: 0.376768 cumulative IPC: 0.360679 (Simulation time: 0 hr 26 min 23 sec) 
Heartbeat CPU 0 instructions: 294000000 cycles: 814166890 heartbeat IPC: 0.36742 cumulative IPC: 0.360703 (Simulation time: 0 hr 26 min 31 sec) 
Heartbeat CPU 0 instructions: 295000000 cycles: 816934053 heartbeat IPC: 0.361381 cumulative IPC: 0.360705 (Simulation time: 0 hr 26 min 38 sec) 
Heartbeat CPU 0 instructions: 296000001 cycles: 819779861 heartbeat IPC: 0.351394 cumulative IPC: 0.360672 (Simulation time: 0 hr 26 min 45 sec) 
Heartbeat CPU 0 instructions: 297000000 cycles: 822398194 heartbeat IPC: 0.381922 cumulative IPC: 0.360742 (Simulation time: 0 hr 26 min 52 sec) 
Heartbeat CPU 0 instructions: 298000001 cycles: 825107129 heartbeat IPC: 0.369149 cumulative IPC: 0.36077 (Simulation time: 0 hr 26 min 59 sec) 
Heartbeat CPU 0 instructions: 299000000 cycles: 827800687 heartbeat IPC: 0.371256 cumulative IPC: 0.360805 (Simulation time: 0 hr 27 min 6 sec) 
Heartbeat CPU 0 instructions: 300000000 cycles: 830255579 heartbeat IPC: 0.40735 cumulative IPC: 0.360948 (Simulation time: 0 hr 27 min 12 sec) 
Heartbeat CPU 0 instructions: 301000000 cycles: 833125463 heartbeat IPC: 0.348446 cumulative IPC: 0.360903 (Simulation time: 0 hr 27 min 20 sec) 
Heartbeat CPU 0 instructions: 302000002 cycles: 835614965 heartbeat IPC: 0.401688 cumulative IPC: 0.361029 (Simulation time: 0 hr 27 min 26 sec) 
Heartbeat CPU 0 instructions: 303000001 cycles: 838404883 heartbeat IPC: 0.358433 cumulative IPC: 0.36102 (Simulation time: 0 hr 27 min 33 sec) 
Heartbeat CPU 0 instructions: 304000001 cycles: 841097376 heartbeat IPC: 0.371403 cumulative IPC: 0.361054 (Simulation time: 0 hr 27 min 40 sec) 
Heartbeat CPU 0 instructions: 305000002 cycles: 843792515 heartbeat IPC: 0.371039 cumulative IPC: 0.361087 (Simulation time: 0 hr 27 min 47 sec) 
Heartbeat CPU 0 instructions: 306000003 cycles: 846483712 heartbeat IPC: 0.371582 cumulative IPC: 0.361121 (Simulation time: 0 hr 27 min 54 sec) 
Heartbeat CPU 0 instructions: 307000002 cycles: 849278141 heartbeat IPC: 0.357855 cumulative IPC: 0.36111 (Simulation time: 0 hr 28 min 2 sec) 
Heartbeat CPU 0 instructions: 308000000 cycles: 851906615 heartbeat IPC: 0.380448 cumulative IPC: 0.361172 (Simulation time: 0 hr 28 min 9 sec) 
Heartbeat CPU 0 instructions: 309000002 cycles: 854810364 heartbeat IPC: 0.344383 cumulative IPC: 0.361113 (Simulation time: 0 hr 28 min 16 sec) 
Heartbeat CPU 0 instructions: 310000000 cycles: 857620661 heartbeat IPC: 0.355834 cumulative IPC: 0.361095 (Simulation time: 0 hr 28 min 23 sec) 
Heartbeat CPU 0 instructions: 311000001 cycles: 860408630 heartbeat IPC: 0.358684 cumulative IPC: 0.361087 (Simulation time: 0 hr 28 min 30 sec) 
Heartbeat CPU 0 instructions: 312000000 cycles: 862990551 heartbeat IPC: 0.387308 cumulative IPC: 0.361168 (Simulation time: 0 hr 28 min 37 sec) 
Heartbeat CPU 0 instructions: 313000003 cycles: 865597443 heartbeat IPC: 0.3836 cumulative IPC: 0.361238 (Simulation time: 0 hr 28 min 44 sec) 
Heartbeat CPU 0 instructions: 314000001 cycles: 868411113 heartbeat IPC: 0.355407 cumulative IPC: 0.361218 (Simulation time: 0 hr 28 min 51 sec) 
Heartbeat CPU 0 instructions: 315000000 cycles: 871062458 heartbeat IPC: 0.377167 cumulative IPC: 0.361268 (Simulation time: 0 hr 28 min 58 sec) 
Heartbeat CPU 0 instructions: 316000000 cycles: 873670475 heartbeat IPC: 0.383433 cumulative IPC: 0.361337 (Simulation time: 0 hr 29 min 5 sec) 
Heartbeat CPU 0 instructions: 317000001 cycles: 876467131 heartbeat IPC: 0.35757 cumulative IPC: 0.361324 (Simulation time: 0 hr 29 min 12 sec) 
Heartbeat CPU 0 instructions: 318000003 cycles: 879285633 heartbeat IPC: 0.354799 cumulative IPC: 0.361303 (Simulation time: 0 hr 29 min 19 sec) 
Heartbeat CPU 0 instructions: 319000000 cycles: 881910098 heartbeat IPC: 0.381029 cumulative IPC: 0.361363 (Simulation time: 0 hr 29 min 26 sec) 
Heartbeat CPU 0 instructions: 320000000 cycles: 884669549 heartbeat IPC: 0.362391 cumulative IPC: 0.361366 (Simulation time: 0 hr 29 min 33 sec) 
Heartbeat CPU 0 instructions: 321000002 cycles: 887390709 heartbeat IPC: 0.367491 cumulative IPC: 0.361386 (Simulation time: 0 hr 29 min 40 sec) 
Heartbeat CPU 0 instructions: 322000001 cycles: 890061663 heartbeat IPC: 0.374398 cumulative IPC: 0.361426 (Simulation time: 0 hr 29 min 47 sec) 
Heartbeat CPU 0 instructions: 323000000 cycles: 892795907 heartbeat IPC: 0.365731 cumulative IPC: 0.36144 (Simulation time: 0 hr 29 min 54 sec) 
Heartbeat CPU 0 instructions: 324000001 cycles: 895355798 heartbeat IPC: 0.390642 cumulative IPC: 0.361526 (Simulation time: 0 hr 30 min 1 sec) 
Heartbeat CPU 0 instructions: 325000000 cycles: 898058112 heartbeat IPC: 0.370053 cumulative IPC: 0.361552 (Simulation time: 0 hr 30 min 8 sec) 
Heartbeat CPU 0 instructions: 326000003 cycles: 900749698 heartbeat IPC: 0.371529 cumulative IPC: 0.361583 (Simulation time: 0 hr 30 min 15 sec) 
Heartbeat CPU 0 instructions: 327000000 cycles: 903606938 heartbeat IPC: 0.349987 cumulative IPC: 0.361545 (Simulation time: 0 hr 30 min 23 sec) 
Heartbeat CPU 0 instructions: 328000001 cycles: 906428988 heartbeat IPC: 0.354353 cumulative IPC: 0.361522 (Simulation time: 0 hr 30 min 30 sec) 
Heartbeat CPU 0 instructions: 329000002 cycles: 909159767 heartbeat IPC: 0.366196 cumulative IPC: 0.361537 (Simulation time: 0 hr 30 min 37 sec) 
Heartbeat CPU 0 instructions: 330000000 cycles: 911328355 heartbeat IPC: 0.461129 cumulative IPC: 0.361781 (Simulation time: 0 hr 30 min 43 sec) 
Heartbeat CPU 0 instructions: 331000000 cycles: 913351647 heartbeat IPC: 0.494244 cumulative IPC: 0.362083 (Simulation time: 0 hr 30 min 50 sec) 
Heartbeat CPU 0 instructions: 332000000 cycles: 916134428 heartbeat IPC: 0.359353 cumulative IPC: 0.362074 (Simulation time: 0 hr 30 min 57 sec) 
Heartbeat CPU 0 instructions: 333000001 cycles: 918765381 heartbeat IPC: 0.380091 cumulative IPC: 0.362128 (Simulation time: 0 hr 31 min 5 sec) 
Heartbeat CPU 0 instructions: 334000003 cycles: 921093068 heartbeat IPC: 0.429612 cumulative IPC: 0.362303 (Simulation time: 0 hr 31 min 12 sec) 
Heartbeat CPU 0 instructions: 335000000 cycles: 923277201 heartbeat IPC: 0.457846 cumulative IPC: 0.362536 (Simulation time: 0 hr 31 min 19 sec) 
Heartbeat CPU 0 instructions: 336000003 cycles: 925652636 heartbeat IPC: 0.420977 cumulative IPC: 0.362691 (Simulation time: 0 hr 31 min 25 sec) 
Heartbeat CPU 0 instructions: 337000000 cycles: 928270583 heartbeat IPC: 0.381978 cumulative IPC: 0.362747 (Simulation time: 0 hr 31 min 32 sec) 
Heartbeat CPU 0 instructions: 338000000 cycles: 931024448 heartbeat IPC: 0.363126 cumulative IPC: 0.362748 (Simulation time: 0 hr 31 min 40 sec) 
Heartbeat CPU 0 instructions: 339000002 cycles: 933740510 heartbeat IPC: 0.368181 cumulative IPC: 0.362764 (Simulation time: 0 hr 31 min 47 sec) 
Heartbeat CPU 0 instructions: 340000000 cycles: 936421636 heartbeat IPC: 0.372977 cumulative IPC: 0.362794 (Simulation time: 0 hr 31 min 54 sec) 
Heartbeat CPU 0 instructions: 341000000 cycles: 939159190 heartbeat IPC: 0.36529 cumulative IPC: 0.362802 (Simulation time: 0 hr 32 min 1 sec) 
Heartbeat CPU 0 instructions: 342000003 cycles: 941929036 heartbeat IPC: 0.361032 cumulative IPC: 0.362796 (Simulation time: 0 hr 32 min 9 sec) 
Heartbeat CPU 0 instructions: 343000002 cycles: 944440598 heartbeat IPC: 0.398158 cumulative IPC: 0.362893 (Simulation time: 0 hr 32 min 16 sec) 
Heartbeat CPU 0 instructions: 344000003 cycles: 947354591 heartbeat IPC: 0.343172 cumulative IPC: 0.362831 (Simulation time: 0 hr 32 min 23 sec) 
Heartbeat CPU 0 instructions: 345000001 cycles: 950037046 heartbeat IPC: 0.372792 cumulative IPC: 0.362859 (Simulation time: 0 hr 32 min 30 sec) 
Heartbeat CPU 0 instructions: 346000000 cycles: 952804720 heartbeat IPC: 0.361314 cumulative IPC: 0.362855 (Simulation time: 0 hr 32 min 37 sec) 
Heartbeat CPU 0 instructions: 347000000 cycles: 955562706 heartbeat IPC: 0.362583 cumulative IPC: 0.362854 (Simulation time: 0 hr 32 min 45 sec) 
Heartbeat CPU 0 instructions: 348000002 cycles: 958309030 heartbeat IPC: 0.364124 cumulative IPC: 0.362858 (Simulation time: 0 hr 32 min 52 sec) 
Heartbeat CPU 0 instructions: 349000000 cycles: 961137601 heartbeat IPC: 0.353535 cumulative IPC: 0.36283 (Simulation time: 0 hr 32 min 59 sec) 
Heartbeat CPU 0 instructions: 350000001 cycles: 963852189 heartbeat IPC: 0.36838 cumulative IPC: 0.362846 (Simulation time: 0 hr 33 min 7 sec) 
Heartbeat CPU 0 instructions: 351000003 cycles: 966348664 heartbeat IPC: 0.400566 cumulative IPC: 0.362946 (Simulation time: 0 hr 33 min 14 sec) 
Heartbeat CPU 0 instructions: 352000000 cycles: 969134805 heartbeat IPC: 0.358918 cumulative IPC: 0.362934 (Simulation time: 0 hr 33 min 22 sec) 
Heartbeat CPU 0 instructions: 353000000 cycles: 971859991 heartbeat IPC: 0.366947 cumulative IPC: 0.362946 (Simulation time: 0 hr 33 min 29 sec) 
Heartbeat CPU 0 instructions: 354000002 cycles: 974661381 heartbeat IPC: 0.356966 cumulative IPC: 0.362928 (Simulation time: 0 hr 33 min 37 sec) 
Heartbeat CPU 0 instructions: 355000000 cycles: 977361026 heartbeat IPC: 0.370418 cumulative IPC: 0.362949 (Simulation time: 0 hr 33 min 44 sec) 
Heartbeat CPU 0 instructions: 356000001 cycles: 980164720 heartbeat IPC: 0.356673 cumulative IPC: 0.362931 (Simulation time: 0 hr 33 min 51 sec) 
Heartbeat CPU 0 instructions: 357000002 cycles: 982816554 heartbeat IPC: 0.377098 cumulative IPC: 0.36297 (Simulation time: 0 hr 33 min 58 sec) 
Heartbeat CPU 0 instructions: 358000002 cycles: 985510477 heartbeat IPC: 0.371206 cumulative IPC: 0.362993 (Simulation time: 0 hr 34 min 6 sec) 
Heartbeat CPU 0 instructions: 359000000 cycles: 988275411 heartbeat IPC: 0.361672 cumulative IPC: 0.362989 (Simulation time: 0 hr 34 min 13 sec) 
Heartbeat CPU 0 instructions: 360000001 cycles: 991052708 heartbeat IPC: 0.360063 cumulative IPC: 0.362981 (Simulation time: 0 hr 34 min 21 sec) 
Heartbeat CPU 0 instructions: 361000001 cycles: 993771266 heartbeat IPC: 0.367842 cumulative IPC: 0.362995 (Simulation time: 0 hr 34 min 28 sec) 
Heartbeat CPU 0 instructions: 362000000 cycles: 996595949 heartbeat IPC: 0.354022 cumulative IPC: 0.362968 (Simulation time: 0 hr 34 min 35 sec) 
Heartbeat CPU 0 instructions: 363000000 cycles: 999116882 heartbeat IPC: 0.396679 cumulative IPC: 0.363056 (Simulation time: 0 hr 34 min 42 sec) 
Heartbeat CPU 0 instructions: 364000000 cycles: 1001769250 heartbeat IPC: 0.377022 cumulative IPC: 0.363094 (Simulation time: 0 hr 34 min 49 sec) 
Heartbeat CPU 0 instructions: 365000000 cycles: 1004434155 heartbeat IPC: 0.375248 cumulative IPC: 0.363127 (Simulation time: 0 hr 34 min 57 sec) 
Heartbeat CPU 0 instructions: 366000003 cycles: 1007176308 heartbeat IPC: 0.364678 cumulative IPC: 0.363131 (Simulation time: 0 hr 35 min 4 sec) 
Heartbeat CPU 0 instructions: 367000000 cycles: 1009915063 heartbeat IPC: 0.365128 cumulative IPC: 0.363137 (Simulation time: 0 hr 35 min 11 sec) 
Heartbeat CPU 0 instructions: 368000001 cycles: 1012775781 heartbeat IPC: 0.349563 cumulative IPC: 0.363097 (Simulation time: 0 hr 35 min 18 sec) 
Heartbeat CPU 0 instructions: 369000000 cycles: 1015410021 heartbeat IPC: 0.379616 cumulative IPC: 0.363142 (Simulation time: 0 hr 35 min 26 sec) 
Heartbeat CPU 0 instructions: 370000003 cycles: 1018029345 heartbeat IPC: 0.381779 cumulative IPC: 0.363191 (Simulation time: 0 hr 35 min 33 sec) 
Heartbeat CPU 0 instructions: 371000002 cycles: 1020820837 heartbeat IPC: 0.358231 cumulative IPC: 0.363177 (Simulation time: 0 hr 35 min 40 sec) 
Heartbeat CPU 0 instructions: 372000000 cycles: 1023543563 heartbeat IPC: 0.367278 cumulative IPC: 0.363188 (Simulation time: 0 hr 35 min 48 sec) 
Heartbeat CPU 0 instructions: 373000003 cycles: 1026348193 heartbeat IPC: 0.356554 cumulative IPC: 0.363169 (Simulation time: 0 hr 35 min 55 sec) 
Heartbeat CPU 0 instructions: 374000000 cycles: 1029119610 heartbeat IPC: 0.360825 cumulative IPC: 0.363163 (Simulation time: 0 hr 36 min 2 sec) 
Heartbeat CPU 0 instructions: 375000000 cycles: 1031951468 heartbeat IPC: 0.353125 cumulative IPC: 0.363135 (Simulation time: 0 hr 36 min 9 sec) 
Heartbeat CPU 0 instructions: 376000000 cycles: 1034557513 heartbeat IPC: 0.383723 cumulative IPC: 0.363188 (Simulation time: 0 hr 36 min 17 sec) 
Heartbeat CPU 0 instructions: 377000001 cycles: 1037244128 heartbeat IPC: 0.372216 cumulative IPC: 0.363212 (Simulation time: 0 hr 36 min 24 sec) 
Heartbeat CPU 0 instructions: 378000003 cycles: 1040021735 heartbeat IPC: 0.360023 cumulative IPC: 0.363203 (Simulation time: 0 hr 36 min 31 sec) 
Heartbeat CPU 0 instructions: 379000002 cycles: 1042782562 heartbeat IPC: 0.36221 cumulative IPC: 0.3632 (Simulation time: 0 hr 36 min 38 sec) 
Heartbeat CPU 0 instructions: 380000000 cycles: 1045503417 heartbeat IPC: 0.367531 cumulative IPC: 0.363212 (Simulation time: 0 hr 36 min 46 sec) 
Heartbeat CPU 0 instructions: 381000001 cycles: 1048227345 heartbeat IPC: 0.367117 cumulative IPC: 0.363222 (Simulation time: 0 hr 36 min 53 sec) 
Heartbeat CPU 0 instructions: 382000003 cycles: 1050996279 heartbeat IPC: 0.361151 cumulative IPC: 0.363217 (Simulation time: 0 hr 37 min 0 sec) 
Heartbeat CPU 0 instructions: 383000000 cycles: 1053712942 heartbeat IPC: 0.368098 cumulative IPC: 0.36323 (Simulation time: 0 hr 37 min 7 sec) 
Heartbeat CPU 0 instructions: 384000001 cycles: 1056347522 heartbeat IPC: 0.379568 cumulative IPC: 0.363272 (Simulation time: 0 hr 37 min 15 sec) 
Heartbeat CPU 0 instructions: 385000000 cycles: 1059165545 heartbeat IPC: 0.354858 cumulative IPC: 0.363249 (Simulation time: 0 hr 37 min 22 sec) 
Heartbeat CPU 0 instructions: 386000000 cycles: 1061970480 heartbeat IPC: 0.356515 cumulative IPC: 0.36323 (Simulation time: 0 hr 37 min 29 sec) 
Heartbeat CPU 0 instructions: 387000000 cycles: 1064549470 heartbeat IPC: 0.387749 cumulative IPC: 0.363291 (Simulation time: 0 hr 37 min 36 sec) 
Heartbeat CPU 0 instructions: 388000000 cycles: 1067409665 heartbeat IPC: 0.349627 cumulative IPC: 0.363254 (Simulation time: 0 hr 37 min 43 sec) 
Heartbeat CPU 0 instructions: 389000000 cycles: 1069943876 heartbeat IPC: 0.3946 cumulative IPC: 0.36333 (Simulation time: 0 hr 37 min 51 sec) 
Heartbeat CPU 0 instructions: 390000000 cycles: 1072721029 heartbeat IPC: 0.360081 cumulative IPC: 0.363321 (Simulation time: 0 hr 37 min 58 sec) 
Heartbeat CPU 0 instructions: 391000003 cycles: 1075513313 heartbeat IPC: 0.358131 cumulative IPC: 0.363307 (Simulation time: 0 hr 38 min 5 sec) 
Heartbeat CPU 0 instructions: 392000002 cycles: 1078273273 heartbeat IPC: 0.362324 cumulative IPC: 0.363305 (Simulation time: 0 hr 38 min 13 sec) 
Heartbeat CPU 0 instructions: 393000000 cycles: 1080774558 heartbeat IPC: 0.399794 cumulative IPC: 0.363391 (Simulation time: 0 hr 38 min 20 sec) 
Heartbeat CPU 0 instructions: 394000000 cycles: 1083420506 heartbeat IPC: 0.377936 cumulative IPC: 0.363428 (Simulation time: 0 hr 38 min 27 sec) 
Heartbeat CPU 0 instructions: 395000002 cycles: 1086109587 heartbeat IPC: 0.371875 cumulative IPC: 0.363449 (Simulation time: 0 hr 38 min 34 sec) 
Heartbeat CPU 0 instructions: 396000000 cycles: 1088870093 heartbeat IPC: 0.362252 cumulative IPC: 0.363446 (Simulation time: 0 hr 38 min 41 sec) 
Heartbeat CPU 0 instructions: 397000000 cycles: 1091626408 heartbeat IPC: 0.362803 cumulative IPC: 0.363445 (Simulation time: 0 hr 38 min 49 sec) 
Heartbeat CPU 0 instructions: 398000001 cycles: 1094444294 heartbeat IPC: 0.354876 cumulative IPC: 0.363422 (Simulation time: 0 hr 38 min 56 sec) 
Heartbeat CPU 0 instructions: 399000001 cycles: 1097150382 heartbeat IPC: 0.369537 cumulative IPC: 0.363437 (Simulation time: 0 hr 39 min 3 sec) 
Heartbeat CPU 0 instructions: 400000001 cycles: 1099914070 heartbeat IPC: 0.361835 cumulative IPC: 0.363433 (Simulation time: 0 hr 39 min 11 sec) 
Heartbeat CPU 0 instructions: 401000002 cycles: 1102681705 heartbeat IPC: 0.36132 cumulative IPC: 0.363428 (Simulation time: 0 hr 39 min 18 sec) 
Heartbeat CPU 0 instructions: 402000002 cycles: 1105590143 heartbeat IPC: 0.343827 cumulative IPC: 0.363375 (Simulation time: 0 hr 39 min 25 sec) 
Heartbeat CPU 0 instructions: 403000000 cycles: 1108258783 heartbeat IPC: 0.374722 cumulative IPC: 0.363403 (Simulation time: 0 hr 39 min 33 sec) 
Heartbeat CPU 0 instructions: 404000001 cycles: 1111102149 heartbeat IPC: 0.351696 cumulative IPC: 0.363372 (Simulation time: 0 hr 39 min 40 sec) 
Heartbeat CPU 0 instructions: 405000000 cycles: 1113903313 heartbeat IPC: 0.356994 cumulative IPC: 0.363356 (Simulation time: 0 hr 39 min 48 sec) 
Heartbeat CPU 0 instructions: 406000001 cycles: 1116584984 heartbeat IPC: 0.372902 cumulative IPC: 0.363379 (Simulation time: 0 hr 39 min 55 sec) 
Heartbeat CPU 0 instructions: 407000000 cycles: 1119352403 heartbeat IPC: 0.361347 cumulative IPC: 0.363374 (Simulation time: 0 hr 40 min 2 sec) 
Heartbeat CPU 0 instructions: 408000000 cycles: 1121928503 heartbeat IPC: 0.388184 cumulative IPC: 0.363433 (Simulation time: 0 hr 40 min 10 sec) 
Heartbeat CPU 0 instructions: 409000000 cycles: 1124272894 heartbeat IPC: 0.42655 cumulative IPC: 0.363567 (Simulation time: 0 hr 40 min 17 sec) 
Heartbeat CPU 0 instructions: 410000001 cycles: 1126242634 heartbeat IPC: 0.507682 cumulative IPC: 0.363826 (Simulation time: 0 hr 40 min 24 sec) 
Heartbeat CPU 0 instructions: 411000000 cycles: 1129080174 heartbeat IPC: 0.352418 cumulative IPC: 0.363796 (Simulation time: 0 hr 40 min 31 sec) 
Heartbeat CPU 0 instructions: 412000002 cycles: 1131901241 heartbeat IPC: 0.354477 cumulative IPC: 0.363772 (Simulation time: 0 hr 40 min 38 sec) 
Heartbeat CPU 0 instructions: 413000002 cycles: 1134126520 heartbeat IPC: 0.449382 cumulative IPC: 0.363944 (Simulation time: 0 hr 40 min 45 sec) 
Heartbeat CPU 0 instructions: 414000002 cycles: 1136820301 heartbeat IPC: 0.371225 cumulative IPC: 0.363962 (Simulation time: 0 hr 40 min 53 sec) 
Heartbeat CPU 0 instructions: 415000002 cycles: 1139302684 heartbeat IPC: 0.402839 cumulative IPC: 0.364049 (Simulation time: 0 hr 41 min 0 sec) 
Heartbeat CPU 0 instructions: 416000000 cycles: 1142056281 heartbeat IPC: 0.363161 cumulative IPC: 0.364047 (Simulation time: 0 hr 41 min 7 sec) 
Heartbeat CPU 0 instructions: 417000002 cycles: 1144791557 heartbeat IPC: 0.365595 cumulative IPC: 0.36405 (Simulation time: 0 hr 41 min 15 sec) 
Heartbeat CPU 0 instructions: 418000000 cycles: 1147551166 heartbeat IPC: 0.362369 cumulative IPC: 0.364046 (Simulation time: 0 hr 41 min 22 sec) 
Heartbeat CPU 0 instructions: 419000000 cycles: 1150278838 heartbeat IPC: 0.366613 cumulative IPC: 0.364053 (Simulation time: 0 hr 41 min 29 sec) 
Heartbeat CPU 0 instructions: 420000002 cycles: 1152878299 heartbeat IPC: 0.384696 cumulative IPC: 0.3641 (Simulation time: 0 hr 41 min 36 sec) 
Heartbeat CPU 0 instructions: 421000001 cycles: 1155619636 heartbeat IPC: 0.364785 cumulative IPC: 0.364102 (Simulation time: 0 hr 41 min 43 sec) 
Heartbeat CPU 0 instructions: 422000000 cycles: 1158398906 heartbeat IPC: 0.359806 cumulative IPC: 0.364091 (Simulation time: 0 hr 41 min 51 sec) 
Heartbeat CPU 0 instructions: 423000003 cycles: 1161175302 heartbeat IPC: 0.36018 cumulative IPC: 0.364082 (Simulation time: 0 hr 41 min 58 sec) 
Heartbeat CPU 0 instructions: 424000001 cycles: 1163758477 heartbeat IPC: 0.38712 cumulative IPC: 0.364134 (Simulation time: 0 hr 42 min 5 sec) 
Heartbeat CPU 0 instructions: 425000001 cycles: 1166457378 heartbeat IPC: 0.370521 cumulative IPC: 0.364149 (Simulation time: 0 hr 42 min 12 sec) 
Heartbeat CPU 0 instructions: 426000000 cycles: 1169238659 heartbeat IPC: 0.359546 cumulative IPC: 0.364138 (Simulation time: 0 hr 42 min 20 sec) 
Heartbeat CPU 0 instructions: 427000000 cycles: 1172238677 heartbeat IPC: 0.333331 cumulative IPC: 0.364057 (Simulation time: 0 hr 42 min 27 sec) 
Heartbeat CPU 0 instructions: 428000001 cycles: 1174852863 heartbeat IPC: 0.382529 cumulative IPC: 0.364099 (Simulation time: 0 hr 42 min 34 sec) 
Heartbeat CPU 0 instructions: 429000000 cycles: 1177743745 heartbeat IPC: 0.345915 cumulative IPC: 0.364054 (Simulation time: 0 hr 42 min 42 sec) 
Heartbeat CPU 0 instructions: 430000000 cycles: 1180204837 heartbeat IPC: 0.406324 cumulative IPC: 0.364144 (Simulation time: 0 hr 42 min 49 sec) 
Heartbeat CPU 0 instructions: 431000000 cycles: 1183100996 heartbeat IPC: 0.345285 cumulative IPC: 0.364097 (Simulation time: 0 hr 42 min 56 sec) 
Heartbeat CPU 0 instructions: 432000000 cycles: 1185663396 heartbeat IPC: 0.390259 cumulative IPC: 0.364155 (Simulation time: 0 hr 43 min 3 sec) 
Heartbeat CPU 0 instructions: 433000002 cycles: 1188440362 heartbeat IPC: 0.360106 cumulative IPC: 0.364145 (Simulation time: 0 hr 43 min 11 sec) 
Heartbeat CPU 0 instructions: 434000000 cycles: 1191344489 heartbeat IPC: 0.344337 cumulative IPC: 0.364095 (Simulation time: 0 hr 43 min 18 sec) 
Heartbeat CPU 0 instructions: 435000000 cycles: 1194054477 heartbeat IPC: 0.369005 cumulative IPC: 0.364107 (Simulation time: 0 hr 43 min 25 sec) 
Heartbeat CPU 0 instructions: 436000003 cycles: 1196737651 heartbeat IPC: 0.372694 cumulative IPC: 0.364127 (Simulation time: 0 hr 43 min 33 sec) 
Heartbeat CPU 0 instructions: 437000001 cycles: 1199184848 heartbeat IPC: 0.40863 cumulative IPC: 0.364219 (Simulation time: 0 hr 43 min 40 sec) 
Heartbeat CPU 0 instructions: 438000001 cycles: 1201844623 heartbeat IPC: 0.375972 cumulative IPC: 0.364246 (Simulation time: 0 hr 43 min 47 sec) 
Heartbeat CPU 0 instructions: 439000003 cycles: 1204644511 heartbeat IPC: 0.357158 cumulative IPC: 0.364229 (Simulation time: 0 hr 43 min 54 sec) 
Heartbeat CPU 0 instructions: 440000000 cycles: 1207459447 heartbeat IPC: 0.355247 cumulative IPC: 0.364208 (Simulation time: 0 hr 44 min 2 sec) 
Heartbeat CPU 0 instructions: 441000000 cycles: 1210253272 heartbeat IPC: 0.357932 cumulative IPC: 0.364193 (Simulation time: 0 hr 44 min 9 sec) 
Heartbeat CPU 0 instructions: 442000000 cycles: 1212987061 heartbeat IPC: 0.365793 cumulative IPC: 0.364197 (Simulation time: 0 hr 44 min 16 sec) 
Heartbeat CPU 0 instructions: 443000003 cycles: 1215785686 heartbeat IPC: 0.357319 cumulative IPC: 0.36418 (Simulation time: 0 hr 44 min 24 sec) 
Heartbeat CPU 0 instructions: 444000001 cycles: 1218555291 heartbeat IPC: 0.361062 cumulative IPC: 0.364173 (Simulation time: 0 hr 44 min 31 sec) 
Heartbeat CPU 0 instructions: 445000001 cycles: 1221198933 heartbeat IPC: 0.378266 cumulative IPC: 0.364204 (Simulation time: 0 hr 44 min 38 sec) 
Heartbeat CPU 0 instructions: 446000000 cycles: 1223952685 heartbeat IPC: 0.363141 cumulative IPC: 0.364202 (Simulation time: 0 hr 44 min 46 sec) 
Heartbeat CPU 0 instructions: 447000001 cycles: 1226807774 heartbeat IPC: 0.350252 cumulative IPC: 0.364169 (Simulation time: 0 hr 44 min 53 sec) 
Heartbeat CPU 0 instructions: 448000000 cycles: 1229488479 heartbeat IPC: 0.373036 cumulative IPC: 0.364189 (Simulation time: 0 hr 45 min 0 sec) 
Heartbeat CPU 0 instructions: 449000001 cycles: 1232133949 heartbeat IPC: 0.378005 cumulative IPC: 0.364219 (Simulation time: 0 hr 45 min 8 sec) 
Heartbeat CPU 0 instructions: 450000002 cycles: 1234791038 heartbeat IPC: 0.376352 cumulative IPC: 0.364246 (Simulation time: 0 hr 45 min 15 sec) 
Heartbeat CPU 0 instructions: 451000000 cycles: 1237480000 heartbeat IPC: 0.37189 cumulative IPC: 0.364263 (Simulation time: 0 hr 45 min 22 sec) 
Heartbeat CPU 0 instructions: 452000002 cycles: 1240394027 heartbeat IPC: 0.343168 cumulative IPC: 0.364212 (Simulation time: 0 hr 45 min 29 sec) 
Heartbeat CPU 0 instructions: 453000002 cycles: 1243119812 heartbeat IPC: 0.366867 cumulative IPC: 0.364218 (Simulation time: 0 hr 45 min 36 sec) 
Heartbeat CPU 0 instructions: 454000003 cycles: 1245862107 heartbeat IPC: 0.364658 cumulative IPC: 0.364219 (Simulation time: 0 hr 45 min 44 sec) 
Heartbeat CPU 0 instructions: 455000001 cycles: 1248592043 heartbeat IPC: 0.366308 cumulative IPC: 0.364223 (Simulation time: 0 hr 45 min 51 sec) 
Heartbeat CPU 0 instructions: 456000001 cycles: 1251263185 heartbeat IPC: 0.374372 cumulative IPC: 0.364246 (Simulation time: 0 hr 45 min 58 sec) 
Heartbeat CPU 0 instructions: 457000001 cycles: 1253970126 heartbeat IPC: 0.369421 cumulative IPC: 0.364257 (Simulation time: 0 hr 46 min 6 sec) 
Heartbeat CPU 0 instructions: 458000000 cycles: 1256737880 heartbeat IPC: 0.361303 cumulative IPC: 0.36425 (Simulation time: 0 hr 46 min 13 sec) 
Heartbeat CPU 0 instructions: 459000001 cycles: 1259629730 heartbeat IPC: 0.3458 cumulative IPC: 0.364207 (Simulation time: 0 hr 46 min 21 sec) 
Heartbeat CPU 0 instructions: 460000000 cycles: 1262479286 heartbeat IPC: 0.350932 cumulative IPC: 0.364176 (Simulation time: 0 hr 46 min 28 sec) 
Heartbeat CPU 0 instructions: 461000000 cycles: 1265231845 heartbeat IPC: 0.363298 cumulative IPC: 0.364175 (Simulation time: 0 hr 46 min 36 sec) 
Heartbeat CPU 0 instructions: 462000000 cycles: 1268302188 heartbeat IPC: 0.325696 cumulative IPC: 0.364079 (Simulation time: 0 hr 46 min 43 sec) 
Heartbeat CPU 0 instructions: 463000000 cycles: 1270755919 heartbeat IPC: 0.407543 cumulative IPC: 0.364165 (Simulation time: 0 hr 46 min 50 sec) 
Heartbeat CPU 0 instructions: 464000000 cycles: 1273635088 heartbeat IPC: 0.347322 cumulative IPC: 0.364126 (Simulation time: 0 hr 46 min 58 sec) 
Heartbeat CPU 0 instructions: 465000002 cycles: 1276287378 heartbeat IPC: 0.377033 cumulative IPC: 0.364154 (Simulation time: 0 hr 47 min 5 sec) 
Heartbeat CPU 0 instructions: 466000000 cycles: 1278995092 heartbeat IPC: 0.369314 cumulative IPC: 0.364165 (Simulation time: 0 hr 47 min 12 sec) 
Heartbeat CPU 0 instructions: 467000000 cycles: 1281725376 heartbeat IPC: 0.366262 cumulative IPC: 0.364169 (Simulation time: 0 hr 47 min 20 sec) 
Heartbeat CPU 0 instructions: 468000003 cycles: 1284503748 heartbeat IPC: 0.359924 cumulative IPC: 0.36416 (Simulation time: 0 hr 47 min 27 sec) 
Heartbeat CPU 0 instructions: 469000003 cycles: 1287353140 heartbeat IPC: 0.350952 cumulative IPC: 0.36413 (Simulation time: 0 hr 47 min 35 sec) 
Heartbeat CPU 0 instructions: 470000001 cycles: 1289986686 heartbeat IPC: 0.379715 cumulative IPC: 0.364163 (Simulation time: 0 hr 47 min 42 sec) 
Heartbeat CPU 0 instructions: 471000002 cycles: 1292629771 heartbeat IPC: 0.378346 cumulative IPC: 0.364192 (Simulation time: 0 hr 47 min 49 sec) 
Heartbeat CPU 0 instructions: 472000000 cycles: 1295443441 heartbeat IPC: 0.355407 cumulative IPC: 0.364173 (Simulation time: 0 hr 47 min 57 sec) 
Heartbeat CPU 0 instructions: 473000000 cycles: 1298219281 heartbeat IPC: 0.360251 cumulative IPC: 0.364164 (Simulation time: 0 hr 48 min 4 sec) 
Heartbeat CPU 0 instructions: 474000001 cycles: 1301178889 heartbeat IPC: 0.337883 cumulative IPC: 0.364103 (Simulation time: 0 hr 48 min 12 sec) 
Heartbeat CPU 0 instructions: 475000001 cycles: 1303733176 heartbeat IPC: 0.391499 cumulative IPC: 0.364158 (Simulation time: 0 hr 48 min 19 sec) 
Heartbeat CPU 0 instructions: 476000001 cycles: 1306618215 heartbeat IPC: 0.346616 cumulative IPC: 0.364118 (Simulation time: 0 hr 48 min 26 sec) 
Heartbeat CPU 0 instructions: 477000002 cycles: 1309201652 heartbeat IPC: 0.387082 cumulative IPC: 0.364165 (Simulation time: 0 hr 48 min 34 sec) 
Heartbeat CPU 0 instructions: 478000001 cycles: 1311965148 heartbeat IPC: 0.36186 cumulative IPC: 0.36416 (Simulation time: 0 hr 48 min 41 sec) 
Heartbeat CPU 0 instructions: 479000000 cycles: 1314726886 heartbeat IPC: 0.36209 cumulative IPC: 0.364155 (Simulation time: 0 hr 48 min 48 sec) 
Heartbeat CPU 0 instructions: 480000003 cycles: 1317572316 heartbeat IPC: 0.351442 cumulative IPC: 0.364127 (Simulation time: 0 hr 48 min 56 sec) 
Heartbeat CPU 0 instructions: 481000000 cycles: 1320491745 heartbeat IPC: 0.342532 cumulative IPC: 0.364078 (Simulation time: 0 hr 49 min 3 sec) 
Heartbeat CPU 0 instructions: 482000003 cycles: 1323291033 heartbeat IPC: 0.357235 cumulative IPC: 0.364064 (Simulation time: 0 hr 49 min 11 sec) 
Heartbeat CPU 0 instructions: 483000001 cycles: 1326267977 heartbeat IPC: 0.335914 cumulative IPC: 0.363999 (Simulation time: 0 hr 49 min 18 sec) 
Heartbeat CPU 0 instructions: 484000000 cycles: 1328988056 heartbeat IPC: 0.367636 cumulative IPC: 0.364007 (Simulation time: 0 hr 49 min 26 sec) 
Heartbeat CPU 0 instructions: 485000000 cycles: 1332005838 heartbeat IPC: 0.331369 cumulative IPC: 0.363931 (Simulation time: 0 hr 49 min 33 sec) 
Heartbeat CPU 0 instructions: 486000000 cycles: 1334815181 heartbeat IPC: 0.355955 cumulative IPC: 0.363914 (Simulation time: 0 hr 49 min 41 sec) 
Heartbeat CPU 0 instructions: 487000000 cycles: 1337395428 heartbeat IPC: 0.38756 cumulative IPC: 0.363961 (Simulation time: 0 hr 49 min 48 sec) 
Heartbeat CPU 0 instructions: 488000002 cycles: 1340169518 heartbeat IPC: 0.360479 cumulative IPC: 0.363953 (Simulation time: 0 hr 49 min 55 sec) 
Heartbeat CPU 0 instructions: 489000003 cycles: 1343068028 heartbeat IPC: 0.345005 cumulative IPC: 0.363912 (Simulation time: 0 hr 50 min 3 sec) 
Heartbeat CPU 0 instructions: 490000002 cycles: 1345910384 heartbeat IPC: 0.35182 cumulative IPC: 0.363886 (Simulation time: 0 hr 50 min 10 sec) 
Heartbeat CPU 0 instructions: 491000001 cycles: 1348377388 heartbeat IPC: 0.40535 cumulative IPC: 0.363963 (Simulation time: 0 hr 50 min 17 sec) 
Heartbeat CPU 0 instructions: 492000002 cycles: 1351129049 heartbeat IPC: 0.363417 cumulative IPC: 0.363962 (Simulation time: 0 hr 50 min 25 sec) 
Heartbeat CPU 0 instructions: 493000003 cycles: 1353849032 heartbeat IPC: 0.36765 cumulative IPC: 0.363969 (Simulation time: 0 hr 50 min 32 sec) 
Heartbeat CPU 0 instructions: 494000003 cycles: 1356737446 heartbeat IPC: 0.346211 cumulative IPC: 0.363931 (Simulation time: 0 hr 50 min 39 sec) 
Heartbeat CPU 0 instructions: 495000000 cycles: 1359484542 heartbeat IPC: 0.36402 cumulative IPC: 0.363931 (Simulation time: 0 hr 50 min 46 sec) 
Heartbeat CPU 0 instructions: 496000001 cycles: 1362109700 heartbeat IPC: 0.38093 cumulative IPC: 0.363964 (Simulation time: 0 hr 50 min 54 sec) 
Heartbeat CPU 0 instructions: 497000000 cycles: 1364792230 heartbeat IPC: 0.372782 cumulative IPC: 0.363982 (Simulation time: 0 hr 51 min 1 sec) 
Heartbeat CPU 0 instructions: 498000001 cycles: 1367678900 heartbeat IPC: 0.34642 cumulative IPC: 0.363944 (Simulation time: 0 hr 51 min 8 sec) 
Heartbeat CPU 0 instructions: 499000003 cycles: 1370354741 heartbeat IPC: 0.373715 cumulative IPC: 0.363964 (Simulation time: 0 hr 51 min 16 sec) 
Heartbeat CPU 0 instructions: 500000001 cycles: 1373179058 heartbeat IPC: 0.354067 cumulative IPC: 0.363943 (Simulation time: 0 hr 51 min 23 sec) 
Heartbeat CPU 0 instructions: 501000001 cycles: 1376120152 heartbeat IPC: 0.34001 cumulative IPC: 0.363891 (Simulation time: 0 hr 51 min 31 sec) 
Heartbeat CPU 0 instructions: 502000003 cycles: 1378958528 heartbeat IPC: 0.352315 cumulative IPC: 0.363867 (Simulation time: 0 hr 51 min 38 sec) 
Heartbeat CPU 0 instructions: 503000000 cycles: 1381621914 heartbeat IPC: 0.375461 cumulative IPC: 0.363889 (Simulation time: 0 hr 51 min 45 sec) 
Heartbeat CPU 0 instructions: 504000001 cycles: 1384277741 heartbeat IPC: 0.376531 cumulative IPC: 0.363914 (Simulation time: 0 hr 51 min 53 sec) 
Heartbeat CPU 0 instructions: 505000000 cycles: 1387087232 heartbeat IPC: 0.355936 cumulative IPC: 0.363898 (Simulation time: 0 hr 52 min 0 sec) 
Heartbeat CPU 0 instructions: 506000000 cycles: 1390040395 heartbeat IPC: 0.33862 cumulative IPC: 0.363843 (Simulation time: 0 hr 52 min 8 sec) 
Heartbeat CPU 0 instructions: 507000000 cycles: 1392858981 heartbeat IPC: 0.354788 cumulative IPC: 0.363824 (Simulation time: 0 hr 52 min 15 sec) 
Heartbeat CPU 0 instructions: 508000000 cycles: 1395614090 heartbeat IPC: 0.362962 cumulative IPC: 0.363822 (Simulation time: 0 hr 52 min 22 sec) 
Heartbeat CPU 0 instructions: 509000000 cycles: 1398331909 heartbeat IPC: 0.367942 cumulative IPC: 0.363831 (Simulation time: 0 hr 52 min 30 sec) 
Heartbeat CPU 0 instructions: 510000001 cycles: 1401048291 heartbeat IPC: 0.368137 cumulative IPC: 0.363839 (Simulation time: 0 hr 52 min 37 sec) 
Finished CPU 0 instructions: 500000000 cycles: 1374233608 cumulative IPC: 0.363839 (Simulation time: 0 hr 52 min 37 sec) 

ChampSim completed all CPUs

Region of Interest Statistics

CPU 0 cumulative IPC: 0.363839 instructions: 500000000 cycles: 1374233608
L1D TOTAL     ACCESS:  209313595  HIT:  200188568  MISS:    9125027
L1D LOAD      ACCESS:  120191894  HIT:  112202073  MISS:    7989821
L1D RFO       ACCESS:   89121701  HIT:   87986495  MISS:    1135206
L1D PREFETCH  ACCESS:          0  HIT:          0  MISS:          0
L1D WRITEBACK ACCESS:          0  HIT:          0  MISS:          0
L1D PREFETCH  REQUESTED:          0  ISSUED:          0  USEFUL:          0  USELESS:          0
L1D AVERAGE MISS LATENCY: 139.179 cycles
L1I TOTAL     ACCESS:  113553060  HIT:  113532333  MISS:      20727
L1I LOAD      ACCESS:  113553060  HIT:  113532333  MISS:      20727
L1I RFO       ACCESS:          0  HIT:          0  MISS:          0
L1I PREFETCH  ACCESS:          0  HIT:          0  MISS:          0
L1I WRITEBACK ACCESS:          0  HIT:          0  MISS:          0
L1I PREFETCH  REQUESTED:          0  ISSUED:          0  USEFUL:          0  USELESS:          0
L1I AVERAGE MISS LATENCY: 65.7827 cycles
L2C TOTAL     ACCESS:   13610874  HIT:    6817312  MISS:    6793562
L2C LOAD      ACCESS:    8010144  HIT:    2125182  MISS:    5884962
L2C RFO       ACCESS:    1135127  HIT:     233932  MISS:     901195
L2C PREFETCH  ACCESS:          0  HIT:          0  MISS:          0
L2C WRITEBACK ACCESS:    4465603  HIT:    4458198  MISS:       7405
L2C PREFETCH  REQUESTED:          0  ISSUED:          0  USEFUL:          0  USELESS:          0
L2C AVERAGE MISS LATENCY: 159.486 cycles
LLC TOTAL     ACCESS:   15259935  HIT:    8073071  MISS:    7186864
LLC LOAD      ACCESS:    5884955  HIT:    2866800  MISS:    3018155
LLC RFO       ACCESS:     901195  HIT:     324034  MISS:     577161
LLC PREFETCH  ACCESS:    5127688  HIT:    1562742  MISS:    3564946
LLC WRITEBACK ACCESS:    3346097  HIT:    3319495  MISS:      26602
LLC PREFETCH  REQUESTED:    5394044  ISSUED:    5394044  USEFUL:    1727214  USELESS:    1829587
LLC AVERAGE MISS LATENCY: 241.43 cycles
Major fault: 0 Minor fault: 54775
performance stats:
mapping cache size: 574040
divergence: 3660925

DRAM Statistics
 CHANNEL 0
 RQ ROW_BUFFER_HIT:     453971  ROW_BUFFER_MISS:    3127104
 DBUS_CONGESTED:    2817912
 WQ ROW_BUFFER_HIT:     381978  ROW_BUFFER_MISS:     881506  FULL:          0

 CHANNEL 1
 RQ ROW_BUFFER_HIT:     458721  ROW_BUFFER_MISS:    3120439
 DBUS_CONGESTED:    2817912
 WQ ROW_BUFFER_HIT:     379905  ROW_BUFFER_MISS:     879329  FULL:          0

 AVG_CONGESTED_CYCLE: 15

CPU 0 Branch Prediction Accuracy: 98.1618% MPKI: 3.86097 Average ROB Occupancy at Mispredict: 98.8583

Branch types
NOT_BRANCH: 394978947 78.9958%
BRANCH_DIRECT_JUMP: 5858727 1.17175%
BRANCH_INDIRECT: 1687951 0.33759%
BRANCH_CONDITIONAL: 67127291 13.4255%
BRANCH_DIRECT_CALL: 9229933 1.84599%
BRANCH_INDIRECT_CALL: 5943778 1.18876%
BRANCH_RETURN: 15173711 3.03474%
BRANCH_OTHER: 0 0%

