
*** ChampSim Multicore Out-of-Order Simulator ***

Warmup Instructions: 1000000
Prefetch Warmup Instructions: 10000000
Simulation Instructions: 500000000
Stat Printing Period: 1000000
Number of CPUs: 1
LLC sets: 2048
LLC ways: 16
Off-chip DRAM Size: 32768 MB Channels: 2 Width: 64-bit Data Rate: 1024 MT/s

CPU 0 runs /scratch/cluster/cmolder/ML-DPC/ChampSimTraces/spec17/620.omnetpp-s1.trace.xz
Read seed: 229
Heartbeat CPU 0 instructions: 1000000 cycles: 560395 heartbeat IPC: 1.78446 cumulative IPC: 1.78446 (Simulation time: 0 hr 0 min 6 sec) 

Warmup complete CPU 0 instructions: 1000002 cycles: 560396 (Simulation time: 0 hr 0 min 6 sec) 

Heartbeat CPU 0 instructions: 2000003 cycles: 3105603 heartbeat IPC: 0.392896 cumulative IPC: 0.392896 (Simulation time: 0 hr 0 min 13 sec) 
Heartbeat CPU 0 instructions: 3000000 cycles: 5759997 heartbeat IPC: 0.376733 cumulative IPC: 0.384645 (Simulation time: 0 hr 0 min 20 sec) 
Heartbeat CPU 0 instructions: 4000002 cycles: 8542475 heartbeat IPC: 0.359393 cumulative IPC: 0.375842 (Simulation time: 0 hr 0 min 27 sec) 
Heartbeat CPU 0 instructions: 5000000 cycles: 11236849 heartbeat IPC: 0.371143 cumulative IPC: 0.374656 (Simulation time: 0 hr 0 min 34 sec) 
Heartbeat CPU 0 instructions: 6000000 cycles: 13930487 heartbeat IPC: 0.371245 cumulative IPC: 0.373969 (Simulation time: 0 hr 0 min 42 sec) 
Heartbeat CPU 0 instructions: 7000000 cycles: 16772443 heartbeat IPC: 0.35187 cumulative IPC: 0.370095 (Simulation time: 0 hr 0 min 49 sec) 
Heartbeat CPU 0 instructions: 8000000 cycles: 19387784 heartbeat IPC: 0.382359 cumulative IPC: 0.371799 (Simulation time: 0 hr 0 min 56 sec) 
Heartbeat CPU 0 instructions: 9000000 cycles: 22079099 heartbeat IPC: 0.371566 cumulative IPC: 0.37177 (Simulation time: 0 hr 1 min 2 sec) 
Heartbeat CPU 0 instructions: 10000001 cycles: 24835497 heartbeat IPC: 0.362793 cumulative IPC: 0.37075 (Simulation time: 0 hr 1 min 9 sec) 

Warmup complete CPU 0 instructions: 10000001 cycles: 24835497 (Simulation time: 0 hr 1 min 9 sec) 

Heartbeat CPU 0 instructions: 11000000 cycles: 27510484 heartbeat IPC: 0.373833 cumulative IPC: 0.373833 (Simulation time: 0 hr 1 min 17 sec) 
Heartbeat CPU 0 instructions: 12000001 cycles: 30169648 heartbeat IPC: 0.376058 cumulative IPC: 0.374943 (Simulation time: 0 hr 1 min 23 sec) 
Heartbeat CPU 0 instructions: 13000002 cycles: 32719875 heartbeat IPC: 0.392122 cumulative IPC: 0.380499 (Simulation time: 0 hr 1 min 30 sec) 
Heartbeat CPU 0 instructions: 14000000 cycles: 35421702 heartbeat IPC: 0.370119 cumulative IPC: 0.37785 (Simulation time: 0 hr 1 min 38 sec) 
Heartbeat CPU 0 instructions: 15000001 cycles: 37934393 heartbeat IPC: 0.39798 cumulative IPC: 0.381712 (Simulation time: 0 hr 1 min 45 sec) 
Heartbeat CPU 0 instructions: 16000003 cycles: 40428310 heartbeat IPC: 0.400976 cumulative IPC: 0.384793 (Simulation time: 0 hr 1 min 51 sec) 
Heartbeat CPU 0 instructions: 17000002 cycles: 43075027 heartbeat IPC: 0.377826 cumulative IPC: 0.383782 (Simulation time: 0 hr 1 min 58 sec) 
Heartbeat CPU 0 instructions: 18000002 cycles: 45633209 heartbeat IPC: 0.390903 cumulative IPC: 0.384658 (Simulation time: 0 hr 2 min 5 sec) 
Heartbeat CPU 0 instructions: 19000000 cycles: 48342598 heartbeat IPC: 0.369086 cumulative IPC: 0.382863 (Simulation time: 0 hr 2 min 12 sec) 
Heartbeat CPU 0 instructions: 20000000 cycles: 51058835 heartbeat IPC: 0.368156 cumulative IPC: 0.38134 (Simulation time: 0 hr 2 min 19 sec) 
Heartbeat CPU 0 instructions: 21000002 cycles: 53666871 heartbeat IPC: 0.383431 cumulative IPC: 0.381529 (Simulation time: 0 hr 2 min 26 sec) 
Heartbeat CPU 0 instructions: 22000000 cycles: 56267440 heartbeat IPC: 0.38453 cumulative IPC: 0.381777 (Simulation time: 0 hr 2 min 33 sec) 
Heartbeat CPU 0 instructions: 23000002 cycles: 59096485 heartbeat IPC: 0.353477 cumulative IPC: 0.37944 (Simulation time: 0 hr 2 min 40 sec) 
Heartbeat CPU 0 instructions: 24000002 cycles: 61759215 heartbeat IPC: 0.375554 cumulative IPC: 0.37916 (Simulation time: 0 hr 2 min 47 sec) 
Heartbeat CPU 0 instructions: 25000000 cycles: 64300840 heartbeat IPC: 0.393448 cumulative IPC: 0.38008 (Simulation time: 0 hr 2 min 54 sec) 
Heartbeat CPU 0 instructions: 26000001 cycles: 67133285 heartbeat IPC: 0.353052 cumulative IPC: 0.37827 (Simulation time: 0 hr 3 min 1 sec) 
Heartbeat CPU 0 instructions: 27000000 cycles: 69655074 heartbeat IPC: 0.396543 cumulative IPC: 0.379299 (Simulation time: 0 hr 3 min 8 sec) 
Heartbeat CPU 0 instructions: 28000002 cycles: 72353731 heartbeat IPC: 0.370555 cumulative IPC: 0.378802 (Simulation time: 0 hr 3 min 15 sec) 
Heartbeat CPU 0 instructions: 29000003 cycles: 75113158 heartbeat IPC: 0.362394 cumulative IPC: 0.377901 (Simulation time: 0 hr 3 min 22 sec) 
Heartbeat CPU 0 instructions: 30000002 cycles: 77980970 heartbeat IPC: 0.348698 cumulative IPC: 0.376326 (Simulation time: 0 hr 3 min 29 sec) 
Heartbeat CPU 0 instructions: 31000000 cycles: 80691014 heartbeat IPC: 0.368997 cumulative IPC: 0.37597 (Simulation time: 0 hr 3 min 37 sec) 
Heartbeat CPU 0 instructions: 32000000 cycles: 83433956 heartbeat IPC: 0.364572 cumulative IPC: 0.375436 (Simulation time: 0 hr 3 min 44 sec) 
Heartbeat CPU 0 instructions: 33000000 cycles: 85926132 heartbeat IPC: 0.401256 cumulative IPC: 0.37649 (Simulation time: 0 hr 3 min 51 sec) 
Heartbeat CPU 0 instructions: 34000000 cycles: 88478657 heartbeat IPC: 0.391769 cumulative IPC: 0.377103 (Simulation time: 0 hr 3 min 58 sec) 
Heartbeat CPU 0 instructions: 35000000 cycles: 91367653 heartbeat IPC: 0.346141 cumulative IPC: 0.375758 (Simulation time: 0 hr 4 min 5 sec) 
Heartbeat CPU 0 instructions: 36000000 cycles: 94018311 heartbeat IPC: 0.377265 cumulative IPC: 0.375816 (Simulation time: 0 hr 4 min 12 sec) 
Heartbeat CPU 0 instructions: 37000003 cycles: 96837676 heartbeat IPC: 0.354691 cumulative IPC: 0.374989 (Simulation time: 0 hr 4 min 19 sec) 
Heartbeat CPU 0 instructions: 38000001 cycles: 99707920 heartbeat IPC: 0.348402 cumulative IPC: 0.373969 (Simulation time: 0 hr 4 min 26 sec) 
Heartbeat CPU 0 instructions: 39000003 cycles: 102466556 heartbeat IPC: 0.362499 cumulative IPC: 0.373562 (Simulation time: 0 hr 4 min 34 sec) 
Heartbeat CPU 0 instructions: 40000000 cycles: 104891683 heartbeat IPC: 0.412348 cumulative IPC: 0.374737 (Simulation time: 0 hr 4 min 41 sec) 
Heartbeat CPU 0 instructions: 41000001 cycles: 107380896 heartbeat IPC: 0.401734 cumulative IPC: 0.375551 (Simulation time: 0 hr 4 min 47 sec) 
Heartbeat CPU 0 instructions: 42000002 cycles: 110192027 heartbeat IPC: 0.355729 cumulative IPC: 0.374898 (Simulation time: 0 hr 4 min 55 sec) 
Heartbeat CPU 0 instructions: 43000001 cycles: 112992511 heartbeat IPC: 0.357081 cumulative IPC: 0.374332 (Simulation time: 0 hr 5 min 2 sec) 
Heartbeat CPU 0 instructions: 44000000 cycles: 115752948 heartbeat IPC: 0.362261 cumulative IPC: 0.373966 (Simulation time: 0 hr 5 min 9 sec) 
Heartbeat CPU 0 instructions: 45000001 cycles: 118496102 heartbeat IPC: 0.364544 cumulative IPC: 0.37369 (Simulation time: 0 hr 5 min 16 sec) 
Heartbeat CPU 0 instructions: 46000000 cycles: 121069193 heartbeat IPC: 0.388637 cumulative IPC: 0.374089 (Simulation time: 0 hr 5 min 23 sec) 
Heartbeat CPU 0 instructions: 47000001 cycles: 123892290 heartbeat IPC: 0.354221 cumulative IPC: 0.373523 (Simulation time: 0 hr 5 min 30 sec) 
Heartbeat CPU 0 instructions: 48000002 cycles: 126698879 heartbeat IPC: 0.356305 cumulative IPC: 0.373049 (Simulation time: 0 hr 5 min 38 sec) 
Heartbeat CPU 0 instructions: 49000003 cycles: 129278494 heartbeat IPC: 0.387655 cumulative IPC: 0.373409 (Simulation time: 0 hr 5 min 45 sec) 
Heartbeat CPU 0 instructions: 50000000 cycles: 131956405 heartbeat IPC: 0.373424 cumulative IPC: 0.37341 (Simulation time: 0 hr 5 min 52 sec) 
Heartbeat CPU 0 instructions: 51000000 cycles: 134457427 heartbeat IPC: 0.399837 cumulative IPC: 0.374013 (Simulation time: 0 hr 5 min 59 sec) 
Heartbeat CPU 0 instructions: 52000000 cycles: 137205324 heartbeat IPC: 0.363915 cumulative IPC: 0.373766 (Simulation time: 0 hr 6 min 6 sec) 
Heartbeat CPU 0 instructions: 53000000 cycles: 139961903 heartbeat IPC: 0.362769 cumulative IPC: 0.373502 (Simulation time: 0 hr 6 min 13 sec) 
Heartbeat CPU 0 instructions: 54000000 cycles: 142164481 heartbeat IPC: 0.454013 cumulative IPC: 0.375014 (Simulation time: 0 hr 6 min 20 sec) 
Heartbeat CPU 0 instructions: 55000000 cycles: 144422085 heartbeat IPC: 0.442947 cumulative IPC: 0.376296 (Simulation time: 0 hr 6 min 27 sec) 
Heartbeat CPU 0 instructions: 56000001 cycles: 146730487 heartbeat IPC: 0.433201 cumulative IPC: 0.377374 (Simulation time: 0 hr 6 min 34 sec) 
Heartbeat CPU 0 instructions: 57000000 cycles: 148961544 heartbeat IPC: 0.448218 cumulative IPC: 0.378647 (Simulation time: 0 hr 6 min 41 sec) 
Heartbeat CPU 0 instructions: 58000000 cycles: 151145141 heartbeat IPC: 0.45796 cumulative IPC: 0.380018 (Simulation time: 0 hr 6 min 48 sec) 
Heartbeat CPU 0 instructions: 59000003 cycles: 153445912 heartbeat IPC: 0.434638 cumulative IPC: 0.380996 (Simulation time: 0 hr 6 min 55 sec) 
Heartbeat CPU 0 instructions: 60000001 cycles: 155559719 heartbeat IPC: 0.473079 cumulative IPC: 0.382485 (Simulation time: 0 hr 7 min 2 sec) 
Heartbeat CPU 0 instructions: 61000000 cycles: 157789937 heartbeat IPC: 0.448386 cumulative IPC: 0.38359 (Simulation time: 0 hr 7 min 8 sec) 
Heartbeat CPU 0 instructions: 62000001 cycles: 160085963 heartbeat IPC: 0.435536 cumulative IPC: 0.384472 (Simulation time: 0 hr 7 min 16 sec) 
Heartbeat CPU 0 instructions: 63000003 cycles: 162325294 heartbeat IPC: 0.446563 cumulative IPC: 0.385483 (Simulation time: 0 hr 7 min 23 sec) 
Heartbeat CPU 0 instructions: 64000003 cycles: 164495737 heartbeat IPC: 0.460735 cumulative IPC: 0.386653 (Simulation time: 0 hr 7 min 30 sec) 
Heartbeat CPU 0 instructions: 65000001 cycles: 166751935 heartbeat IPC: 0.443223 cumulative IPC: 0.387552 (Simulation time: 0 hr 7 min 37 sec) 
Heartbeat CPU 0 instructions: 66000000 cycles: 168802449 heartbeat IPC: 0.487682 cumulative IPC: 0.388978 (Simulation time: 0 hr 7 min 43 sec) 
Heartbeat CPU 0 instructions: 67000002 cycles: 171138492 heartbeat IPC: 0.428075 cumulative IPC: 0.389602 (Simulation time: 0 hr 7 min 50 sec) 
Heartbeat CPU 0 instructions: 68000000 cycles: 173201879 heartbeat IPC: 0.484639 cumulative IPC: 0.390924 (Simulation time: 0 hr 7 min 57 sec) 
Heartbeat CPU 0 instructions: 69000000 cycles: 175566261 heartbeat IPC: 0.422944 cumulative IPC: 0.391426 (Simulation time: 0 hr 8 min 4 sec) 
Heartbeat CPU 0 instructions: 70000001 cycles: 177714462 heartbeat IPC: 0.465506 cumulative IPC: 0.392467 (Simulation time: 0 hr 8 min 11 sec) 
Heartbeat CPU 0 instructions: 71000001 cycles: 179835997 heartbeat IPC: 0.471357 cumulative IPC: 0.393547 (Simulation time: 0 hr 8 min 18 sec) 
Heartbeat CPU 0 instructions: 72000003 cycles: 182066492 heartbeat IPC: 0.448332 cumulative IPC: 0.394324 (Simulation time: 0 hr 8 min 25 sec) 
Heartbeat CPU 0 instructions: 73000000 cycles: 184399577 heartbeat IPC: 0.428616 cumulative IPC: 0.394826 (Simulation time: 0 hr 8 min 32 sec) 
Heartbeat CPU 0 instructions: 74000000 cycles: 186789521 heartbeat IPC: 0.41842 cumulative IPC: 0.395174 (Simulation time: 0 hr 8 min 39 sec) 
Heartbeat CPU 0 instructions: 75000000 cycles: 188998596 heartbeat IPC: 0.452678 cumulative IPC: 0.395948 (Simulation time: 0 hr 8 min 46 sec) 
Heartbeat CPU 0 instructions: 76000002 cycles: 191307579 heartbeat IPC: 0.433092 cumulative IPC: 0.396463 (Simulation time: 0 hr 8 min 53 sec) 
Heartbeat CPU 0 instructions: 77000000 cycles: 193546782 heartbeat IPC: 0.446587 cumulative IPC: 0.397128 (Simulation time: 0 hr 9 min 0 sec) 
Heartbeat CPU 0 instructions: 78000001 cycles: 195690824 heartbeat IPC: 0.466409 cumulative IPC: 0.397998 (Simulation time: 0 hr 9 min 7 sec) 
Heartbeat CPU 0 instructions: 79000000 cycles: 197990443 heartbeat IPC: 0.434854 cumulative IPC: 0.398487 (Simulation time: 0 hr 9 min 15 sec) 
Heartbeat CPU 0 instructions: 80000002 cycles: 200200508 heartbeat IPC: 0.452476 cumulative IPC: 0.399167 (Simulation time: 0 hr 9 min 22 sec) 
Heartbeat CPU 0 instructions: 81000003 cycles: 202407275 heartbeat IPC: 0.453152 cumulative IPC: 0.399838 (Simulation time: 0 hr 9 min 28 sec) 
Heartbeat CPU 0 instructions: 82000001 cycles: 204641681 heartbeat IPC: 0.447545 cumulative IPC: 0.400431 (Simulation time: 0 hr 9 min 36 sec) 
Heartbeat CPU 0 instructions: 83000002 cycles: 206907389 heartbeat IPC: 0.441364 cumulative IPC: 0.400941 (Simulation time: 0 hr 9 min 43 sec) 
Heartbeat CPU 0 instructions: 84000000 cycles: 209247984 heartbeat IPC: 0.427241 cumulative IPC: 0.401274 (Simulation time: 0 hr 9 min 50 sec) 
Heartbeat CPU 0 instructions: 85000000 cycles: 211375754 heartbeat IPC: 0.469976 cumulative IPC: 0.402058 (Simulation time: 0 hr 9 min 56 sec) 
Heartbeat CPU 0 instructions: 86000001 cycles: 213603476 heartbeat IPC: 0.448889 cumulative IPC: 0.402611 (Simulation time: 0 hr 10 min 3 sec) 
Heartbeat CPU 0 instructions: 87000001 cycles: 215585547 heartbeat IPC: 0.504523 cumulative IPC: 0.40367 (Simulation time: 0 hr 10 min 10 sec) 
Heartbeat CPU 0 instructions: 88000000 cycles: 217693665 heartbeat IPC: 0.474356 cumulative IPC: 0.404442 (Simulation time: 0 hr 10 min 17 sec) 
Heartbeat CPU 0 instructions: 89000001 cycles: 219655248 heartbeat IPC: 0.509793 cumulative IPC: 0.405503 (Simulation time: 0 hr 10 min 24 sec) 
Heartbeat CPU 0 instructions: 90000003 cycles: 222164907 heartbeat IPC: 0.398461 cumulative IPC: 0.405413 (Simulation time: 0 hr 10 min 31 sec) 
Heartbeat CPU 0 instructions: 91000000 cycles: 224224723 heartbeat IPC: 0.485479 cumulative IPC: 0.406241 (Simulation time: 0 hr 10 min 38 sec) 
Heartbeat CPU 0 instructions: 92000002 cycles: 226615833 heartbeat IPC: 0.418217 cumulative IPC: 0.406383 (Simulation time: 0 hr 10 min 45 sec) 
Heartbeat CPU 0 instructions: 93000003 cycles: 228948553 heartbeat IPC: 0.428685 cumulative IPC: 0.406637 (Simulation time: 0 hr 10 min 52 sec) 
Heartbeat CPU 0 instructions: 94000000 cycles: 231371656 heartbeat IPC: 0.412693 cumulative IPC: 0.406708 (Simulation time: 0 hr 10 min 59 sec) 
Heartbeat CPU 0 instructions: 95000003 cycles: 233463862 heartbeat IPC: 0.477966 cumulative IPC: 0.407423 (Simulation time: 0 hr 11 min 6 sec) 
Heartbeat CPU 0 instructions: 96000002 cycles: 235632576 heartbeat IPC: 0.461102 cumulative IPC: 0.407975 (Simulation time: 0 hr 11 min 13 sec) 
Heartbeat CPU 0 instructions: 97000000 cycles: 238174612 heartbeat IPC: 0.393385 cumulative IPC: 0.407801 (Simulation time: 0 hr 11 min 20 sec) 
Heartbeat CPU 0 instructions: 98000001 cycles: 240419094 heartbeat IPC: 0.445538 cumulative IPC: 0.408194 (Simulation time: 0 hr 11 min 27 sec) 
Heartbeat CPU 0 instructions: 99000000 cycles: 242735784 heartbeat IPC: 0.43165 cumulative IPC: 0.408444 (Simulation time: 0 hr 11 min 34 sec) 
Heartbeat CPU 0 instructions: 100000000 cycles: 244915251 heartbeat IPC: 0.458828 cumulative IPC: 0.408943 (Simulation time: 0 hr 11 min 42 sec) 
Heartbeat CPU 0 instructions: 101000002 cycles: 247171226 heartbeat IPC: 0.443268 cumulative IPC: 0.409291 (Simulation time: 0 hr 11 min 49 sec) 
Heartbeat CPU 0 instructions: 102000000 cycles: 249552560 heartbeat IPC: 0.419932 cumulative IPC: 0.409404 (Simulation time: 0 hr 11 min 56 sec) 
Heartbeat CPU 0 instructions: 103000000 cycles: 251617394 heartbeat IPC: 0.4843 cumulative IPC: 0.410086 (Simulation time: 0 hr 12 min 3 sec) 
Heartbeat CPU 0 instructions: 104000002 cycles: 253988721 heartbeat IPC: 0.421706 cumulative IPC: 0.410206 (Simulation time: 0 hr 12 min 10 sec) 
Heartbeat CPU 0 instructions: 105000000 cycles: 256100751 heartbeat IPC: 0.473477 cumulative IPC: 0.410784 (Simulation time: 0 hr 12 min 17 sec) 
Heartbeat CPU 0 instructions: 106000000 cycles: 258441757 heartbeat IPC: 0.427167 cumulative IPC: 0.410948 (Simulation time: 0 hr 12 min 24 sec) 
Heartbeat CPU 0 instructions: 107000000 cycles: 260818515 heartbeat IPC: 0.420741 cumulative IPC: 0.411047 (Simulation time: 0 hr 12 min 32 sec) 
Heartbeat CPU 0 instructions: 108000002 cycles: 262865095 heartbeat IPC: 0.488621 cumulative IPC: 0.411714 (Simulation time: 0 hr 12 min 39 sec) 
Heartbeat CPU 0 instructions: 109000000 cycles: 264808002 heartbeat IPC: 0.514692 cumulative IPC: 0.412547 (Simulation time: 0 hr 12 min 46 sec) 
Heartbeat CPU 0 instructions: 110000000 cycles: 266934739 heartbeat IPC: 0.470204 cumulative IPC: 0.413054 (Simulation time: 0 hr 12 min 53 sec) 
Heartbeat CPU 0 instructions: 111000000 cycles: 269230066 heartbeat IPC: 0.435668 cumulative IPC: 0.413266 (Simulation time: 0 hr 13 min 0 sec) 
Heartbeat CPU 0 instructions: 112000000 cycles: 271382800 heartbeat IPC: 0.464526 cumulative IPC: 0.413714 (Simulation time: 0 hr 13 min 8 sec) 
Heartbeat CPU 0 instructions: 113000001 cycles: 273765257 heartbeat IPC: 0.419735 cumulative IPC: 0.413771 (Simulation time: 0 hr 13 min 15 sec) 
Heartbeat CPU 0 instructions: 114000001 cycles: 276020346 heartbeat IPC: 0.443441 cumulative IPC: 0.414038 (Simulation time: 0 hr 13 min 22 sec) 
Heartbeat CPU 0 instructions: 115000003 cycles: 278079516 heartbeat IPC: 0.485634 cumulative IPC: 0.41462 (Simulation time: 0 hr 13 min 29 sec) 
Heartbeat CPU 0 instructions: 116000000 cycles: 280264327 heartbeat IPC: 0.457704 cumulative IPC: 0.414988 (Simulation time: 0 hr 13 min 36 sec) 
Heartbeat CPU 0 instructions: 117000002 cycles: 282613222 heartbeat IPC: 0.425733 cumulative IPC: 0.415086 (Simulation time: 0 hr 13 min 43 sec) 
Heartbeat CPU 0 instructions: 118000000 cycles: 284807494 heartbeat IPC: 0.455731 cumulative IPC: 0.415429 (Simulation time: 0 hr 13 min 51 sec) 
Heartbeat CPU 0 instructions: 119000000 cycles: 286969345 heartbeat IPC: 0.462567 cumulative IPC: 0.415818 (Simulation time: 0 hr 13 min 58 sec) 
Heartbeat CPU 0 instructions: 120000003 cycles: 289205876 heartbeat IPC: 0.447122 cumulative IPC: 0.416083 (Simulation time: 0 hr 14 min 5 sec) 
Heartbeat CPU 0 instructions: 121000000 cycles: 291395738 heartbeat IPC: 0.456648 cumulative IPC: 0.416416 (Simulation time: 0 hr 14 min 12 sec) 
Heartbeat CPU 0 instructions: 122000001 cycles: 293764314 heartbeat IPC: 0.422195 cumulative IPC: 0.416467 (Simulation time: 0 hr 14 min 19 sec) 
Heartbeat CPU 0 instructions: 123000003 cycles: 295891433 heartbeat IPC: 0.47012 cumulative IPC: 0.416888 (Simulation time: 0 hr 14 min 26 sec) 
Heartbeat CPU 0 instructions: 124000000 cycles: 298340511 heartbeat IPC: 0.408316 cumulative IPC: 0.416811 (Simulation time: 0 hr 14 min 34 sec) 
Heartbeat CPU 0 instructions: 125000000 cycles: 300467225 heartbeat IPC: 0.470209 cumulative IPC: 0.417223 (Simulation time: 0 hr 14 min 41 sec) 
Heartbeat CPU 0 instructions: 126000002 cycles: 302695250 heartbeat IPC: 0.448829 cumulative IPC: 0.417477 (Simulation time: 0 hr 14 min 48 sec) 
Heartbeat CPU 0 instructions: 127000000 cycles: 304859510 heartbeat IPC: 0.462051 cumulative IPC: 0.417821 (Simulation time: 0 hr 14 min 55 sec) 
Heartbeat CPU 0 instructions: 128000003 cycles: 307018705 heartbeat IPC: 0.463137 cumulative IPC: 0.418168 (Simulation time: 0 hr 15 min 2 sec) 
Heartbeat CPU 0 instructions: 129000000 cycles: 309424443 heartbeat IPC: 0.415672 cumulative IPC: 0.418147 (Simulation time: 0 hr 15 min 9 sec) 
Heartbeat CPU 0 instructions: 130000000 cycles: 311835843 heartbeat IPC: 0.414697 cumulative IPC: 0.418118 (Simulation time: 0 hr 15 min 16 sec) 
Heartbeat CPU 0 instructions: 131000002 cycles: 313915122 heartbeat IPC: 0.480937 cumulative IPC: 0.41857 (Simulation time: 0 hr 15 min 23 sec) 
Heartbeat CPU 0 instructions: 132000000 cycles: 316251954 heartbeat IPC: 0.427929 cumulative IPC: 0.418645 (Simulation time: 0 hr 15 min 31 sec) 
Heartbeat CPU 0 instructions: 133000003 cycles: 318529703 heartbeat IPC: 0.439031 cumulative IPC: 0.418803 (Simulation time: 0 hr 15 min 38 sec) 
Heartbeat CPU 0 instructions: 134000002 cycles: 320741904 heartbeat IPC: 0.452038 cumulative IPC: 0.419051 (Simulation time: 0 hr 15 min 45 sec) 
Heartbeat CPU 0 instructions: 135000000 cycles: 322974217 heartbeat IPC: 0.447965 cumulative IPC: 0.419268 (Simulation time: 0 hr 15 min 53 sec) 
Heartbeat CPU 0 instructions: 136000001 cycles: 325186212 heartbeat IPC: 0.452081 cumulative IPC: 0.41951 (Simulation time: 0 hr 16 min 0 sec) 
Heartbeat CPU 0 instructions: 137000003 cycles: 327302905 heartbeat IPC: 0.472436 cumulative IPC: 0.41988 (Simulation time: 0 hr 16 min 7 sec) 
Heartbeat CPU 0 instructions: 138000000 cycles: 329561906 heartbeat IPC: 0.442672 cumulative IPC: 0.420049 (Simulation time: 0 hr 16 min 15 sec) 
Heartbeat CPU 0 instructions: 139000000 cycles: 332181622 heartbeat IPC: 0.381721 cumulative IPC: 0.419722 (Simulation time: 0 hr 16 min 22 sec) 
Heartbeat CPU 0 instructions: 140000001 cycles: 334158240 heartbeat IPC: 0.505915 cumulative IPC: 0.420273 (Simulation time: 0 hr 16 min 29 sec) 
Heartbeat CPU 0 instructions: 141000001 cycles: 336452488 heartbeat IPC: 0.435873 cumulative IPC: 0.420388 (Simulation time: 0 hr 16 min 37 sec) 
Heartbeat CPU 0 instructions: 142000001 cycles: 338559918 heartbeat IPC: 0.474512 cumulative IPC: 0.420751 (Simulation time: 0 hr 16 min 44 sec) 
Heartbeat CPU 0 instructions: 143000000 cycles: 340862601 heartbeat IPC: 0.434276 cumulative IPC: 0.42085 (Simulation time: 0 hr 16 min 52 sec) 
Heartbeat CPU 0 instructions: 144000000 cycles: 343122806 heartbeat IPC: 0.442438 cumulative IPC: 0.421003 (Simulation time: 0 hr 16 min 59 sec) 
Heartbeat CPU 0 instructions: 145000001 cycles: 345422215 heartbeat IPC: 0.434895 cumulative IPC: 0.421103 (Simulation time: 0 hr 17 min 6 sec) 
Heartbeat CPU 0 instructions: 146000000 cycles: 347719574 heartbeat IPC: 0.435282 cumulative IPC: 0.421204 (Simulation time: 0 hr 17 min 14 sec) 
Heartbeat CPU 0 instructions: 147000003 cycles: 349962852 heartbeat IPC: 0.445778 cumulative IPC: 0.421373 (Simulation time: 0 hr 17 min 21 sec) 
Heartbeat CPU 0 instructions: 148000003 cycles: 352319504 heartbeat IPC: 0.424331 cumulative IPC: 0.421395 (Simulation time: 0 hr 17 min 29 sec) 
Heartbeat CPU 0 instructions: 149000001 cycles: 354550375 heartbeat IPC: 0.448255 cumulative IPC: 0.421576 (Simulation time: 0 hr 17 min 36 sec) 
Heartbeat CPU 0 instructions: 150000002 cycles: 356705363 heartbeat IPC: 0.46404 cumulative IPC: 0.421852 (Simulation time: 0 hr 17 min 43 sec) 
Heartbeat CPU 0 instructions: 151000001 cycles: 359099056 heartbeat IPC: 0.417764 cumulative IPC: 0.421823 (Simulation time: 0 hr 17 min 51 sec) 
Heartbeat CPU 0 instructions: 152000000 cycles: 361365797 heartbeat IPC: 0.441162 cumulative IPC: 0.421953 (Simulation time: 0 hr 17 min 58 sec) 
Heartbeat CPU 0 instructions: 153000001 cycles: 363592544 heartbeat IPC: 0.449086 cumulative IPC: 0.422131 (Simulation time: 0 hr 18 min 6 sec) 
Heartbeat CPU 0 instructions: 154000000 cycles: 365798893 heartbeat IPC: 0.453237 cumulative IPC: 0.422333 (Simulation time: 0 hr 18 min 13 sec) 
Heartbeat CPU 0 instructions: 155000003 cycles: 368242232 heartbeat IPC: 0.409277 cumulative IPC: 0.42224 (Simulation time: 0 hr 18 min 21 sec) 
Heartbeat CPU 0 instructions: 156000002 cycles: 370539792 heartbeat IPC: 0.435244 cumulative IPC: 0.422326 (Simulation time: 0 hr 18 min 28 sec) 
Heartbeat CPU 0 instructions: 157000000 cycles: 372648305 heartbeat IPC: 0.474267 cumulative IPC: 0.422641 (Simulation time: 0 hr 18 min 35 sec) 
Heartbeat CPU 0 instructions: 158000002 cycles: 374985627 heartbeat IPC: 0.427841 cumulative IPC: 0.422676 (Simulation time: 0 hr 18 min 42 sec) 
Heartbeat CPU 0 instructions: 159000001 cycles: 376997970 heartbeat IPC: 0.496933 cumulative IPC: 0.4231 (Simulation time: 0 hr 18 min 50 sec) 
Heartbeat CPU 0 instructions: 160000000 cycles: 379277672 heartbeat IPC: 0.438653 cumulative IPC: 0.4232 (Simulation time: 0 hr 18 min 57 sec) 
Heartbeat CPU 0 instructions: 161000002 cycles: 381604128 heartbeat IPC: 0.429839 cumulative IPC: 0.423243 (Simulation time: 0 hr 19 min 4 sec) 
Heartbeat CPU 0 instructions: 162000001 cycles: 383404840 heartbeat IPC: 0.555335 cumulative IPC: 0.423907 (Simulation time: 0 hr 19 min 12 sec) 
Heartbeat CPU 0 instructions: 163000001 cycles: 385622759 heartbeat IPC: 0.450873 cumulative IPC: 0.424073 (Simulation time: 0 hr 19 min 19 sec) 
Heartbeat CPU 0 instructions: 164000001 cycles: 387797345 heartbeat IPC: 0.459858 cumulative IPC: 0.424287 (Simulation time: 0 hr 19 min 26 sec) 
Heartbeat CPU 0 instructions: 165000000 cycles: 390069722 heartbeat IPC: 0.440067 cumulative IPC: 0.424385 (Simulation time: 0 hr 19 min 34 sec) 
Heartbeat CPU 0 instructions: 166000003 cycles: 392335071 heartbeat IPC: 0.441434 cumulative IPC: 0.42449 (Simulation time: 0 hr 19 min 41 sec) 
Heartbeat CPU 0 instructions: 167000000 cycles: 394590466 heartbeat IPC: 0.44338 cumulative IPC: 0.424606 (Simulation time: 0 hr 19 min 48 sec) 
Heartbeat CPU 0 instructions: 168000001 cycles: 396797323 heartbeat IPC: 0.453134 cumulative IPC: 0.424775 (Simulation time: 0 hr 19 min 56 sec) 
Heartbeat CPU 0 instructions: 169000000 cycles: 399129501 heartbeat IPC: 0.428783 cumulative IPC: 0.4248 (Simulation time: 0 hr 20 min 3 sec) 
Heartbeat CPU 0 instructions: 170000000 cycles: 401227250 heartbeat IPC: 0.476701 cumulative IPC: 0.425089 (Simulation time: 0 hr 20 min 10 sec) 
Heartbeat CPU 0 instructions: 171000001 cycles: 403474653 heartbeat IPC: 0.444958 cumulative IPC: 0.425207 (Simulation time: 0 hr 20 min 18 sec) 
Heartbeat CPU 0 instructions: 172000003 cycles: 405704416 heartbeat IPC: 0.448479 cumulative IPC: 0.425343 (Simulation time: 0 hr 20 min 25 sec) 
Heartbeat CPU 0 instructions: 173000000 cycles: 407840930 heartbeat IPC: 0.468051 cumulative IPC: 0.425581 (Simulation time: 0 hr 20 min 32 sec) 
Heartbeat CPU 0 instructions: 174000002 cycles: 410231269 heartbeat IPC: 0.418352 cumulative IPC: 0.425537 (Simulation time: 0 hr 20 min 39 sec) 
Heartbeat CPU 0 instructions: 175000000 cycles: 412455904 heartbeat IPC: 0.449511 cumulative IPC: 0.425674 (Simulation time: 0 hr 20 min 47 sec) 
Heartbeat CPU 0 instructions: 176000000 cycles: 414731040 heartbeat IPC: 0.439534 cumulative IPC: 0.425755 (Simulation time: 0 hr 20 min 54 sec) 
Heartbeat CPU 0 instructions: 177000001 cycles: 416980629 heartbeat IPC: 0.444526 cumulative IPC: 0.425863 (Simulation time: 0 hr 21 min 1 sec) 
Heartbeat CPU 0 instructions: 178000000 cycles: 419025550 heartbeat IPC: 0.489016 cumulative IPC: 0.42619 (Simulation time: 0 hr 21 min 8 sec) 
Heartbeat CPU 0 instructions: 179000002 cycles: 421439527 heartbeat IPC: 0.414255 cumulative IPC: 0.426118 (Simulation time: 0 hr 21 min 15 sec) 
Heartbeat CPU 0 instructions: 180000000 cycles: 423606010 heartbeat IPC: 0.461577 cumulative IPC: 0.42631 (Simulation time: 0 hr 21 min 23 sec) 
Heartbeat CPU 0 instructions: 181000000 cycles: 425930265 heartbeat IPC: 0.430245 cumulative IPC: 0.426333 (Simulation time: 0 hr 21 min 30 sec) 
Heartbeat CPU 0 instructions: 182000002 cycles: 428112412 heartbeat IPC: 0.458265 cumulative IPC: 0.426506 (Simulation time: 0 hr 21 min 37 sec) 
Heartbeat CPU 0 instructions: 183000002 cycles: 430222769 heartbeat IPC: 0.473853 cumulative IPC: 0.426752 (Simulation time: 0 hr 21 min 44 sec) 
Heartbeat CPU 0 instructions: 184000000 cycles: 432502879 heartbeat IPC: 0.438574 cumulative IPC: 0.426819 (Simulation time: 0 hr 21 min 52 sec) 
Heartbeat CPU 0 instructions: 185000001 cycles: 434856284 heartbeat IPC: 0.424917 cumulative IPC: 0.426808 (Simulation time: 0 hr 21 min 59 sec) 
Heartbeat CPU 0 instructions: 186000001 cycles: 437300549 heartbeat IPC: 0.409121 cumulative IPC: 0.426703 (Simulation time: 0 hr 22 min 6 sec) 
Heartbeat CPU 0 instructions: 187000000 cycles: 439544167 heartbeat IPC: 0.445708 cumulative IPC: 0.426806 (Simulation time: 0 hr 22 min 14 sec) 
Heartbeat CPU 0 instructions: 188000003 cycles: 441706472 heartbeat IPC: 0.462471 cumulative IPC: 0.426991 (Simulation time: 0 hr 22 min 21 sec) 
Heartbeat CPU 0 instructions: 189000001 cycles: 444005202 heartbeat IPC: 0.435022 cumulative IPC: 0.427035 (Simulation time: 0 hr 22 min 28 sec) 
Heartbeat CPU 0 instructions: 190000003 cycles: 446169037 heartbeat IPC: 0.462143 cumulative IPC: 0.427215 (Simulation time: 0 hr 22 min 36 sec) 
Heartbeat CPU 0 instructions: 191000000 cycles: 448361568 heartbeat IPC: 0.456093 cumulative IPC: 0.427364 (Simulation time: 0 hr 22 min 43 sec) 
Heartbeat CPU 0 instructions: 192000000 cycles: 450652656 heartbeat IPC: 0.436474 cumulative IPC: 0.427413 (Simulation time: 0 hr 22 min 50 sec) 
Heartbeat CPU 0 instructions: 193000000 cycles: 452858566 heartbeat IPC: 0.453328 cumulative IPC: 0.427547 (Simulation time: 0 hr 22 min 57 sec) 
Heartbeat CPU 0 instructions: 194000000 cycles: 455051218 heartbeat IPC: 0.456069 cumulative IPC: 0.427692 (Simulation time: 0 hr 23 min 5 sec) 
Heartbeat CPU 0 instructions: 195000002 cycles: 457350861 heartbeat IPC: 0.434851 cumulative IPC: 0.42773 (Simulation time: 0 hr 23 min 12 sec) 
Heartbeat CPU 0 instructions: 196000003 cycles: 459664656 heartbeat IPC: 0.432191 cumulative IPC: 0.427754 (Simulation time: 0 hr 23 min 19 sec) 
Heartbeat CPU 0 instructions: 197000000 cycles: 461750190 heartbeat IPC: 0.479492 cumulative IPC: 0.428001 (Simulation time: 0 hr 23 min 26 sec) 
Heartbeat CPU 0 instructions: 198000000 cycles: 464073548 heartbeat IPC: 0.430411 cumulative IPC: 0.428014 (Simulation time: 0 hr 23 min 33 sec) 
Heartbeat CPU 0 instructions: 199000002 cycles: 466268961 heartbeat IPC: 0.455496 cumulative IPC: 0.428151 (Simulation time: 0 hr 23 min 41 sec) 
Heartbeat CPU 0 instructions: 200000000 cycles: 468477395 heartbeat IPC: 0.452809 cumulative IPC: 0.428273 (Simulation time: 0 hr 23 min 48 sec) 
Heartbeat CPU 0 instructions: 201000000 cycles: 470760232 heartbeat IPC: 0.438051 cumulative IPC: 0.428323 (Simulation time: 0 hr 23 min 56 sec) 
Heartbeat CPU 0 instructions: 202000002 cycles: 472904169 heartbeat IPC: 0.466433 cumulative IPC: 0.428506 (Simulation time: 0 hr 24 min 3 sec) 
Heartbeat CPU 0 instructions: 203000000 cycles: 475117899 heartbeat IPC: 0.451725 cumulative IPC: 0.42862 (Simulation time: 0 hr 24 min 10 sec) 
Heartbeat CPU 0 instructions: 204000003 cycles: 477437370 heartbeat IPC: 0.431134 cumulative IPC: 0.428633 (Simulation time: 0 hr 24 min 18 sec) 
Heartbeat CPU 0 instructions: 205000002 cycles: 479575883 heartbeat IPC: 0.467614 cumulative IPC: 0.428816 (Simulation time: 0 hr 24 min 25 sec) 
Heartbeat CPU 0 instructions: 206000002 cycles: 481735503 heartbeat IPC: 0.463044 cumulative IPC: 0.428978 (Simulation time: 0 hr 24 min 32 sec) 
Heartbeat CPU 0 instructions: 207000002 cycles: 484203879 heartbeat IPC: 0.405125 cumulative IPC: 0.42885 (Simulation time: 0 hr 24 min 40 sec) 
Heartbeat CPU 0 instructions: 208000000 cycles: 486526984 heartbeat IPC: 0.430458 cumulative IPC: 0.428858 (Simulation time: 0 hr 24 min 47 sec) 
Heartbeat CPU 0 instructions: 209000000 cycles: 488602835 heartbeat IPC: 0.48173 cumulative IPC: 0.429094 (Simulation time: 0 hr 24 min 54 sec) 
Heartbeat CPU 0 instructions: 210000000 cycles: 490837448 heartbeat IPC: 0.447505 cumulative IPC: 0.429183 (Simulation time: 0 hr 25 min 1 sec) 
Heartbeat CPU 0 instructions: 211000003 cycles: 493270244 heartbeat IPC: 0.411051 cumulative IPC: 0.429089 (Simulation time: 0 hr 25 min 9 sec) 
Heartbeat CPU 0 instructions: 212000000 cycles: 495472699 heartbeat IPC: 0.454037 cumulative IPC: 0.429205 (Simulation time: 0 hr 25 min 16 sec) 
Heartbeat CPU 0 instructions: 213000003 cycles: 497601717 heartbeat IPC: 0.469702 cumulative IPC: 0.429388 (Simulation time: 0 hr 25 min 23 sec) 
Heartbeat CPU 0 instructions: 214000002 cycles: 499842817 heartbeat IPC: 0.446209 cumulative IPC: 0.429467 (Simulation time: 0 hr 25 min 31 sec) 
Heartbeat CPU 0 instructions: 215000000 cycles: 502044709 heartbeat IPC: 0.454154 cumulative IPC: 0.429581 (Simulation time: 0 hr 25 min 38 sec) 
Heartbeat CPU 0 instructions: 216000003 cycles: 504325184 heartbeat IPC: 0.438506 cumulative IPC: 0.429623 (Simulation time: 0 hr 25 min 45 sec) 
Heartbeat CPU 0 instructions: 217000000 cycles: 506748807 heartbeat IPC: 0.412604 cumulative IPC: 0.429538 (Simulation time: 0 hr 25 min 53 sec) 
Heartbeat CPU 0 instructions: 218000000 cycles: 508440080 heartbeat IPC: 0.591271 cumulative IPC: 0.430103 (Simulation time: 0 hr 26 min 0 sec) 
Heartbeat CPU 0 instructions: 219000003 cycles: 510683225 heartbeat IPC: 0.445804 cumulative IPC: 0.430176 (Simulation time: 0 hr 26 min 7 sec) 
Heartbeat CPU 0 instructions: 220000000 cycles: 512951802 heartbeat IPC: 0.440804 cumulative IPC: 0.430225 (Simulation time: 0 hr 26 min 15 sec) 
Heartbeat CPU 0 instructions: 221000000 cycles: 515191351 heartbeat IPC: 0.446518 cumulative IPC: 0.4303 (Simulation time: 0 hr 26 min 22 sec) 
Heartbeat CPU 0 instructions: 222000003 cycles: 517156163 heartbeat IPC: 0.508956 cumulative IPC: 0.430614 (Simulation time: 0 hr 26 min 29 sec) 
Heartbeat CPU 0 instructions: 223000001 cycles: 519400077 heartbeat IPC: 0.445649 cumulative IPC: 0.430682 (Simulation time: 0 hr 26 min 36 sec) 
Heartbeat CPU 0 instructions: 224000003 cycles: 521622549 heartbeat IPC: 0.44995 cumulative IPC: 0.430768 (Simulation time: 0 hr 26 min 44 sec) 
Heartbeat CPU 0 instructions: 225000000 cycles: 523909758 heartbeat IPC: 0.437213 cumulative IPC: 0.430798 (Simulation time: 0 hr 26 min 51 sec) 
Heartbeat CPU 0 instructions: 226000000 cycles: 525988667 heartbeat IPC: 0.481022 cumulative IPC: 0.431006 (Simulation time: 0 hr 26 min 58 sec) 
Heartbeat CPU 0 instructions: 227000001 cycles: 528281477 heartbeat IPC: 0.436146 cumulative IPC: 0.431029 (Simulation time: 0 hr 27 min 5 sec) 
Heartbeat CPU 0 instructions: 228000000 cycles: 530569569 heartbeat IPC: 0.437045 cumulative IPC: 0.431057 (Simulation time: 0 hr 27 min 13 sec) 
Heartbeat CPU 0 instructions: 229000001 cycles: 532799457 heartbeat IPC: 0.448453 cumulative IPC: 0.431133 (Simulation time: 0 hr 27 min 20 sec) 
Heartbeat CPU 0 instructions: 230000002 cycles: 535037464 heartbeat IPC: 0.446827 cumulative IPC: 0.431202 (Simulation time: 0 hr 27 min 27 sec) 
Heartbeat CPU 0 instructions: 231000000 cycles: 537318078 heartbeat IPC: 0.438478 cumulative IPC: 0.431234 (Simulation time: 0 hr 27 min 35 sec) 
Heartbeat CPU 0 instructions: 232000003 cycles: 539564569 heartbeat IPC: 0.44514 cumulative IPC: 0.431295 (Simulation time: 0 hr 27 min 42 sec) 
Heartbeat CPU 0 instructions: 233000002 cycles: 541836895 heartbeat IPC: 0.440077 cumulative IPC: 0.431333 (Simulation time: 0 hr 27 min 50 sec) 
Heartbeat CPU 0 instructions: 234000002 cycles: 544099082 heartbeat IPC: 0.44205 cumulative IPC: 0.43138 (Simulation time: 0 hr 27 min 57 sec) 
Heartbeat CPU 0 instructions: 235000003 cycles: 546308577 heartbeat IPC: 0.452593 cumulative IPC: 0.43147 (Simulation time: 0 hr 28 min 4 sec) 
Heartbeat CPU 0 instructions: 236000003 cycles: 548602019 heartbeat IPC: 0.436026 cumulative IPC: 0.43149 (Simulation time: 0 hr 28 min 12 sec) 
Heartbeat CPU 0 instructions: 237000000 cycles: 550747994 heartbeat IPC: 0.465987 cumulative IPC: 0.431631 (Simulation time: 0 hr 28 min 19 sec) 
Heartbeat CPU 0 instructions: 238000000 cycles: 553103688 heartbeat IPC: 0.424503 cumulative IPC: 0.431599 (Simulation time: 0 hr 28 min 26 sec) 
Heartbeat CPU 0 instructions: 239000001 cycles: 555278598 heartbeat IPC: 0.45979 cumulative IPC: 0.431715 (Simulation time: 0 hr 28 min 33 sec) 
Heartbeat CPU 0 instructions: 240000001 cycles: 557494381 heartbeat IPC: 0.451308 cumulative IPC: 0.431796 (Simulation time: 0 hr 28 min 41 sec) 
Heartbeat CPU 0 instructions: 241000003 cycles: 559826277 heartbeat IPC: 0.428836 cumulative IPC: 0.431783 (Simulation time: 0 hr 28 min 48 sec) 
Heartbeat CPU 0 instructions: 242000000 cycles: 562153738 heartbeat IPC: 0.429651 cumulative IPC: 0.431774 (Simulation time: 0 hr 28 min 55 sec) 
Heartbeat CPU 0 instructions: 243000003 cycles: 564347360 heartbeat IPC: 0.455868 cumulative IPC: 0.431872 (Simulation time: 0 hr 29 min 2 sec) 
Heartbeat CPU 0 instructions: 244000000 cycles: 566580925 heartbeat IPC: 0.447713 cumulative IPC: 0.431937 (Simulation time: 0 hr 29 min 9 sec) 
Heartbeat CPU 0 instructions: 245000000 cycles: 568933650 heartbeat IPC: 0.425039 cumulative IPC: 0.431907 (Simulation time: 0 hr 29 min 17 sec) 
Heartbeat CPU 0 instructions: 246000000 cycles: 571062383 heartbeat IPC: 0.469763 cumulative IPC: 0.432055 (Simulation time: 0 hr 29 min 24 sec) 
Heartbeat CPU 0 instructions: 247000001 cycles: 573301399 heartbeat IPC: 0.446625 cumulative IPC: 0.432114 (Simulation time: 0 hr 29 min 32 sec) 
Heartbeat CPU 0 instructions: 248000000 cycles: 575573704 heartbeat IPC: 0.440081 cumulative IPC: 0.432147 (Simulation time: 0 hr 29 min 39 sec) 
Heartbeat CPU 0 instructions: 249000001 cycles: 577730188 heartbeat IPC: 0.463718 cumulative IPC: 0.43227 (Simulation time: 0 hr 29 min 46 sec) 
Heartbeat CPU 0 instructions: 250000000 cycles: 579934166 heartbeat IPC: 0.453725 cumulative IPC: 0.432356 (Simulation time: 0 hr 29 min 53 sec) 
Heartbeat CPU 0 instructions: 251000002 cycles: 582132772 heartbeat IPC: 0.454835 cumulative IPC: 0.432444 (Simulation time: 0 hr 30 min 1 sec) 
Heartbeat CPU 0 instructions: 252000000 cycles: 584405777 heartbeat IPC: 0.439945 cumulative IPC: 0.432475 (Simulation time: 0 hr 30 min 8 sec) 
Heartbeat CPU 0 instructions: 253000000 cycles: 586578005 heartbeat IPC: 0.460357 cumulative IPC: 0.432583 (Simulation time: 0 hr 30 min 15 sec) 
Heartbeat CPU 0 instructions: 254000001 cycles: 589016351 heartbeat IPC: 0.410114 cumulative IPC: 0.432485 (Simulation time: 0 hr 30 min 23 sec) 
Heartbeat CPU 0 instructions: 255000003 cycles: 591282425 heartbeat IPC: 0.441293 cumulative IPC: 0.432521 (Simulation time: 0 hr 30 min 30 sec) 
Heartbeat CPU 0 instructions: 256000003 cycles: 593261129 heartbeat IPC: 0.505381 cumulative IPC: 0.432774 (Simulation time: 0 hr 30 min 37 sec) 
Heartbeat CPU 0 instructions: 257000000 cycles: 595571211 heartbeat IPC: 0.432884 cumulative IPC: 0.432775 (Simulation time: 0 hr 30 min 45 sec) 
Heartbeat CPU 0 instructions: 258000002 cycles: 597803214 heartbeat IPC: 0.448029 cumulative IPC: 0.432834 (Simulation time: 0 hr 30 min 52 sec) 
Heartbeat CPU 0 instructions: 259000001 cycles: 600106677 heartbeat IPC: 0.434129 cumulative IPC: 0.432839 (Simulation time: 0 hr 30 min 59 sec) 
Heartbeat CPU 0 instructions: 260000000 cycles: 602250192 heartbeat IPC: 0.466523 cumulative IPC: 0.432964 (Simulation time: 0 hr 31 min 6 sec) 
Heartbeat CPU 0 instructions: 261000000 cycles: 604380261 heartbeat IPC: 0.469468 cumulative IPC: 0.433099 (Simulation time: 0 hr 31 min 14 sec) 
Heartbeat CPU 0 instructions: 262000001 cycles: 606831661 heartbeat IPC: 0.407931 cumulative IPC: 0.432993 (Simulation time: 0 hr 31 min 21 sec) 
Heartbeat CPU 0 instructions: 263000003 cycles: 609082716 heartbeat IPC: 0.444237 cumulative IPC: 0.433036 (Simulation time: 0 hr 31 min 28 sec) 
Heartbeat CPU 0 instructions: 264000000 cycles: 611231041 heartbeat IPC: 0.465478 cumulative IPC: 0.433155 (Simulation time: 0 hr 31 min 36 sec) 
Heartbeat CPU 0 instructions: 265000000 cycles: 613574156 heartbeat IPC: 0.426782 cumulative IPC: 0.433129 (Simulation time: 0 hr 31 min 43 sec) 
Heartbeat CPU 0 instructions: 266000001 cycles: 615858033 heartbeat IPC: 0.437852 cumulative IPC: 0.433148 (Simulation time: 0 hr 31 min 50 sec) 
Heartbeat CPU 0 instructions: 267000001 cycles: 618059267 heartbeat IPC: 0.454291 cumulative IPC: 0.433226 (Simulation time: 0 hr 31 min 58 sec) 
Heartbeat CPU 0 instructions: 268000000 cycles: 620270252 heartbeat IPC: 0.452287 cumulative IPC: 0.433297 (Simulation time: 0 hr 32 min 5 sec) 
Heartbeat CPU 0 instructions: 269000002 cycles: 622515645 heartbeat IPC: 0.445357 cumulative IPC: 0.433342 (Simulation time: 0 hr 32 min 13 sec) 
Heartbeat CPU 0 instructions: 270000000 cycles: 624809665 heartbeat IPC: 0.435915 cumulative IPC: 0.433352 (Simulation time: 0 hr 32 min 20 sec) 
Heartbeat CPU 0 instructions: 271000001 cycles: 627022642 heartbeat IPC: 0.45188 cumulative IPC: 0.43342 (Simulation time: 0 hr 32 min 28 sec) 
Heartbeat CPU 0 instructions: 272000003 cycles: 629421434 heartbeat IPC: 0.416877 cumulative IPC: 0.433354 (Simulation time: 0 hr 32 min 35 sec) 
Heartbeat CPU 0 instructions: 273000002 cycles: 631171144 heartbeat IPC: 0.571523 cumulative IPC: 0.433753 (Simulation time: 0 hr 32 min 43 sec) 
Heartbeat CPU 0 instructions: 274000001 cycles: 633482229 heartbeat IPC: 0.432697 cumulative IPC: 0.433749 (Simulation time: 0 hr 32 min 50 sec) 
Heartbeat CPU 0 instructions: 275000000 cycles: 635663096 heartbeat IPC: 0.458533 cumulative IPC: 0.433838 (Simulation time: 0 hr 32 min 57 sec) 
Heartbeat CPU 0 instructions: 276000000 cycles: 638062729 heartbeat IPC: 0.41673 cumulative IPC: 0.433771 (Simulation time: 0 hr 33 min 5 sec) 
Heartbeat CPU 0 instructions: 277000000 cycles: 640275963 heartbeat IPC: 0.451827 cumulative IPC: 0.433836 (Simulation time: 0 hr 33 min 12 sec) 
Heartbeat CPU 0 instructions: 278000000 cycles: 642575803 heartbeat IPC: 0.434813 cumulative IPC: 0.433839 (Simulation time: 0 hr 33 min 20 sec) 
Heartbeat CPU 0 instructions: 279000001 cycles: 644655194 heartbeat IPC: 0.480911 cumulative IPC: 0.433997 (Simulation time: 0 hr 33 min 27 sec) 
Heartbeat CPU 0 instructions: 280000001 cycles: 646965982 heartbeat IPC: 0.432753 cumulative IPC: 0.433993 (Simulation time: 0 hr 33 min 34 sec) 
Heartbeat CPU 0 instructions: 281000001 cycles: 649207721 heartbeat IPC: 0.446082 cumulative IPC: 0.434036 (Simulation time: 0 hr 33 min 42 sec) 
Heartbeat CPU 0 instructions: 282000001 cycles: 651599240 heartbeat IPC: 0.418144 cumulative IPC: 0.433975 (Simulation time: 0 hr 33 min 49 sec) 
Heartbeat CPU 0 instructions: 283000000 cycles: 653802396 heartbeat IPC: 0.453894 cumulative IPC: 0.434045 (Simulation time: 0 hr 33 min 57 sec) 
Heartbeat CPU 0 instructions: 284000003 cycles: 655999581 heartbeat IPC: 0.455129 cumulative IPC: 0.434119 (Simulation time: 0 hr 34 min 4 sec) 
Heartbeat CPU 0 instructions: 285000000 cycles: 658162388 heartbeat IPC: 0.462361 cumulative IPC: 0.434215 (Simulation time: 0 hr 34 min 11 sec) 
Heartbeat CPU 0 instructions: 286000000 cycles: 660469762 heartbeat IPC: 0.433393 cumulative IPC: 0.434212 (Simulation time: 0 hr 34 min 18 sec) 
Heartbeat CPU 0 instructions: 287000002 cycles: 662715222 heartbeat IPC: 0.445344 cumulative IPC: 0.434251 (Simulation time: 0 hr 34 min 25 sec) 
Heartbeat CPU 0 instructions: 288000000 cycles: 664885970 heartbeat IPC: 0.46067 cumulative IPC: 0.434341 (Simulation time: 0 hr 34 min 32 sec) 
Heartbeat CPU 0 instructions: 289000001 cycles: 667216167 heartbeat IPC: 0.429149 cumulative IPC: 0.434322 (Simulation time: 0 hr 34 min 39 sec) 
Heartbeat CPU 0 instructions: 290000000 cycles: 669443461 heartbeat IPC: 0.448975 cumulative IPC: 0.434373 (Simulation time: 0 hr 34 min 47 sec) 
Heartbeat CPU 0 instructions: 291000002 cycles: 671606553 heartbeat IPC: 0.462302 cumulative IPC: 0.434466 (Simulation time: 0 hr 34 min 54 sec) 
Heartbeat CPU 0 instructions: 292000001 cycles: 673801935 heartbeat IPC: 0.455501 cumulative IPC: 0.434537 (Simulation time: 0 hr 35 min 2 sec) 
Heartbeat CPU 0 instructions: 293000003 cycles: 676155003 heartbeat IPC: 0.424978 cumulative IPC: 0.434503 (Simulation time: 0 hr 35 min 9 sec) 
Heartbeat CPU 0 instructions: 294000001 cycles: 678506386 heartbeat IPC: 0.425281 cumulative IPC: 0.434469 (Simulation time: 0 hr 35 min 16 sec) 
Heartbeat CPU 0 instructions: 295000000 cycles: 680798665 heartbeat IPC: 0.436247 cumulative IPC: 0.434476 (Simulation time: 0 hr 35 min 24 sec) 
Heartbeat CPU 0 instructions: 296000000 cycles: 682967728 heartbeat IPC: 0.461029 cumulative IPC: 0.434563 (Simulation time: 0 hr 35 min 31 sec) 
Heartbeat CPU 0 instructions: 297000000 cycles: 685237103 heartbeat IPC: 0.44065 cumulative IPC: 0.434584 (Simulation time: 0 hr 35 min 38 sec) 
Heartbeat CPU 0 instructions: 298000003 cycles: 687566649 heartbeat IPC: 0.429269 cumulative IPC: 0.434565 (Simulation time: 0 hr 35 min 45 sec) 
Heartbeat CPU 0 instructions: 299000003 cycles: 689761338 heartbeat IPC: 0.455645 cumulative IPC: 0.434635 (Simulation time: 0 hr 35 min 53 sec) 
Heartbeat CPU 0 instructions: 300000000 cycles: 691843332 heartbeat IPC: 0.480307 cumulative IPC: 0.434777 (Simulation time: 0 hr 35 min 59 sec) 
Heartbeat CPU 0 instructions: 301000003 cycles: 694117501 heartbeat IPC: 0.439722 cumulative IPC: 0.434794 (Simulation time: 0 hr 36 min 7 sec) 
Heartbeat CPU 0 instructions: 302000000 cycles: 696251895 heartbeat IPC: 0.468516 cumulative IPC: 0.434902 (Simulation time: 0 hr 36 min 14 sec) 
Heartbeat CPU 0 instructions: 303000001 cycles: 698541617 heartbeat IPC: 0.436735 cumulative IPC: 0.434908 (Simulation time: 0 hr 36 min 21 sec) 
Heartbeat CPU 0 instructions: 304000000 cycles: 700585455 heartbeat IPC: 0.489275 cumulative IPC: 0.435072 (Simulation time: 0 hr 36 min 28 sec) 
Heartbeat CPU 0 instructions: 305000000 cycles: 702932445 heartbeat IPC: 0.426078 cumulative IPC: 0.435041 (Simulation time: 0 hr 36 min 36 sec) 
Heartbeat CPU 0 instructions: 306000001 cycles: 705060147 heartbeat IPC: 0.469991 cumulative IPC: 0.43515 (Simulation time: 0 hr 36 min 43 sec) 
Heartbeat CPU 0 instructions: 307000000 cycles: 707314103 heartbeat IPC: 0.443664 cumulative IPC: 0.435178 (Simulation time: 0 hr 36 min 50 sec) 
Heartbeat CPU 0 instructions: 308000000 cycles: 709632101 heartbeat IPC: 0.431407 cumulative IPC: 0.435166 (Simulation time: 0 hr 36 min 57 sec) 
Heartbeat CPU 0 instructions: 309000000 cycles: 711764127 heartbeat IPC: 0.469037 cumulative IPC: 0.435271 (Simulation time: 0 hr 37 min 4 sec) 
Heartbeat CPU 0 instructions: 310000000 cycles: 714005871 heartbeat IPC: 0.446081 cumulative IPC: 0.435306 (Simulation time: 0 hr 37 min 11 sec) 
Heartbeat CPU 0 instructions: 311000000 cycles: 716262483 heartbeat IPC: 0.443142 cumulative IPC: 0.435332 (Simulation time: 0 hr 37 min 18 sec) 
Heartbeat CPU 0 instructions: 312000002 cycles: 718564042 heartbeat IPC: 0.434489 cumulative IPC: 0.435329 (Simulation time: 0 hr 37 min 26 sec) 
Heartbeat CPU 0 instructions: 313000001 cycles: 720550041 heartbeat IPC: 0.503524 cumulative IPC: 0.435523 (Simulation time: 0 hr 37 min 33 sec) 
Heartbeat CPU 0 instructions: 314000000 cycles: 722941589 heartbeat IPC: 0.418139 cumulative IPC: 0.435464 (Simulation time: 0 hr 37 min 40 sec) 
Heartbeat CPU 0 instructions: 315000000 cycles: 725064821 heartbeat IPC: 0.47098 cumulative IPC: 0.435572 (Simulation time: 0 hr 37 min 47 sec) 
Heartbeat CPU 0 instructions: 316000001 cycles: 727159647 heartbeat IPC: 0.477367 cumulative IPC: 0.435696 (Simulation time: 0 hr 37 min 54 sec) 
Heartbeat CPU 0 instructions: 317000003 cycles: 729581059 heartbeat IPC: 0.412983 cumulative IPC: 0.435618 (Simulation time: 0 hr 38 min 1 sec) 
Heartbeat CPU 0 instructions: 318000000 cycles: 731711196 heartbeat IPC: 0.469452 cumulative IPC: 0.43572 (Simulation time: 0 hr 38 min 8 sec) 
Heartbeat CPU 0 instructions: 319000000 cycles: 734102922 heartbeat IPC: 0.418108 cumulative IPC: 0.435661 (Simulation time: 0 hr 38 min 16 sec) 
Heartbeat CPU 0 instructions: 320000001 cycles: 736385303 heartbeat IPC: 0.438139 cumulative IPC: 0.435669 (Simulation time: 0 hr 38 min 23 sec) 
Heartbeat CPU 0 instructions: 321000003 cycles: 738473074 heartbeat IPC: 0.478981 cumulative IPC: 0.435795 (Simulation time: 0 hr 38 min 30 sec) 
Heartbeat CPU 0 instructions: 322000002 cycles: 740716517 heartbeat IPC: 0.445743 cumulative IPC: 0.435827 (Simulation time: 0 hr 38 min 37 sec) 
Heartbeat CPU 0 instructions: 323000000 cycles: 743086019 heartbeat IPC: 0.422029 cumulative IPC: 0.435781 (Simulation time: 0 hr 38 min 44 sec) 
Heartbeat CPU 0 instructions: 324000000 cycles: 745178706 heartbeat IPC: 0.477855 cumulative IPC: 0.435903 (Simulation time: 0 hr 38 min 51 sec) 
Heartbeat CPU 0 instructions: 325000002 cycles: 747523905 heartbeat IPC: 0.426404 cumulative IPC: 0.435872 (Simulation time: 0 hr 38 min 59 sec) 
Heartbeat CPU 0 instructions: 326000000 cycles: 749699179 heartbeat IPC: 0.459711 cumulative IPC: 0.435944 (Simulation time: 0 hr 39 min 6 sec) 
Heartbeat CPU 0 instructions: 327000002 cycles: 752034147 heartbeat IPC: 0.428272 cumulative IPC: 0.435919 (Simulation time: 0 hr 39 min 13 sec) 
Heartbeat CPU 0 instructions: 328000000 cycles: 754414719 heartbeat IPC: 0.420066 cumulative IPC: 0.435868 (Simulation time: 0 hr 39 min 20 sec) 
Heartbeat CPU 0 instructions: 329000001 cycles: 756226209 heartbeat IPC: 0.552032 cumulative IPC: 0.436155 (Simulation time: 0 hr 39 min 27 sec) 
Heartbeat CPU 0 instructions: 330000000 cycles: 758634783 heartbeat IPC: 0.415183 cumulative IPC: 0.436087 (Simulation time: 0 hr 39 min 35 sec) 
Heartbeat CPU 0 instructions: 331000000 cycles: 760861198 heartbeat IPC: 0.449153 cumulative IPC: 0.436126 (Simulation time: 0 hr 39 min 42 sec) 
Heartbeat CPU 0 instructions: 332000000 cycles: 763027327 heartbeat IPC: 0.461653 cumulative IPC: 0.436201 (Simulation time: 0 hr 39 min 49 sec) 
Heartbeat CPU 0 instructions: 333000003 cycles: 765200295 heartbeat IPC: 0.460201 cumulative IPC: 0.436271 (Simulation time: 0 hr 39 min 56 sec) 
Heartbeat CPU 0 instructions: 334000000 cycles: 767503310 heartbeat IPC: 0.434212 cumulative IPC: 0.436265 (Simulation time: 0 hr 40 min 4 sec) 
Heartbeat CPU 0 instructions: 335000000 cycles: 769869563 heartbeat IPC: 0.422609 cumulative IPC: 0.436222 (Simulation time: 0 hr 40 min 11 sec) 
Heartbeat CPU 0 instructions: 336000000 cycles: 772159678 heartbeat IPC: 0.436659 cumulative IPC: 0.436223 (Simulation time: 0 hr 40 min 18 sec) 
Heartbeat CPU 0 instructions: 337000001 cycles: 774322747 heartbeat IPC: 0.462307 cumulative IPC: 0.436298 (Simulation time: 0 hr 40 min 25 sec) 
Heartbeat CPU 0 instructions: 338000000 cycles: 776551235 heartbeat IPC: 0.448734 cumulative IPC: 0.436335 (Simulation time: 0 hr 40 min 32 sec) 
Heartbeat CPU 0 instructions: 339000001 cycles: 778854229 heartbeat IPC: 0.434218 cumulative IPC: 0.436329 (Simulation time: 0 hr 40 min 40 sec) 
Heartbeat CPU 0 instructions: 340000001 cycles: 781085326 heartbeat IPC: 0.44821 cumulative IPC: 0.436364 (Simulation time: 0 hr 40 min 47 sec) 
Heartbeat CPU 0 instructions: 341000000 cycles: 783266013 heartbeat IPC: 0.458571 cumulative IPC: 0.436428 (Simulation time: 0 hr 40 min 54 sec) 
Heartbeat CPU 0 instructions: 342000001 cycles: 785457438 heartbeat IPC: 0.456325 cumulative IPC: 0.436485 (Simulation time: 0 hr 41 min 1 sec) 
Heartbeat CPU 0 instructions: 343000002 cycles: 787721192 heartbeat IPC: 0.441745 cumulative IPC: 0.436501 (Simulation time: 0 hr 41 min 8 sec) 
Heartbeat CPU 0 instructions: 344000002 cycles: 790116441 heartbeat IPC: 0.417493 cumulative IPC: 0.436441 (Simulation time: 0 hr 41 min 15 sec) 
Heartbeat CPU 0 instructions: 345000002 cycles: 792517652 heartbeat IPC: 0.416457 cumulative IPC: 0.436379 (Simulation time: 0 hr 41 min 23 sec) 
Heartbeat CPU 0 instructions: 346000000 cycles: 794268259 heartbeat IPC: 0.571229 cumulative IPC: 0.436685 (Simulation time: 0 hr 41 min 30 sec) 
Heartbeat CPU 0 instructions: 347000001 cycles: 796663294 heartbeat IPC: 0.417531 cumulative IPC: 0.436626 (Simulation time: 0 hr 41 min 37 sec) 
Heartbeat CPU 0 instructions: 348000000 cycles: 798961394 heartbeat IPC: 0.435142 cumulative IPC: 0.436621 (Simulation time: 0 hr 41 min 45 sec) 
Heartbeat CPU 0 instructions: 349000002 cycles: 801166668 heartbeat IPC: 0.453459 cumulative IPC: 0.436669 (Simulation time: 0 hr 41 min 52 sec) 
Heartbeat CPU 0 instructions: 350000000 cycles: 803537288 heartbeat IPC: 0.42183 cumulative IPC: 0.436624 (Simulation time: 0 hr 41 min 59 sec) 
Heartbeat CPU 0 instructions: 351000002 cycles: 805855667 heartbeat IPC: 0.431337 cumulative IPC: 0.436608 (Simulation time: 0 hr 42 min 6 sec) 
Heartbeat CPU 0 instructions: 352000000 cycles: 808052640 heartbeat IPC: 0.455171 cumulative IPC: 0.43666 (Simulation time: 0 hr 42 min 14 sec) 
Heartbeat CPU 0 instructions: 353000002 cycles: 810384571 heartbeat IPC: 0.42883 cumulative IPC: 0.436637 (Simulation time: 0 hr 42 min 21 sec) 
Heartbeat CPU 0 instructions: 354000001 cycles: 812669511 heartbeat IPC: 0.437648 cumulative IPC: 0.43664 (Simulation time: 0 hr 42 min 28 sec) 
Heartbeat CPU 0 instructions: 355000001 cycles: 814963209 heartbeat IPC: 0.435977 cumulative IPC: 0.436638 (Simulation time: 0 hr 42 min 35 sec) 
Heartbeat CPU 0 instructions: 356000000 cycles: 817155359 heartbeat IPC: 0.456173 cumulative IPC: 0.436692 (Simulation time: 0 hr 42 min 42 sec) 
Heartbeat CPU 0 instructions: 357000002 cycles: 819474600 heartbeat IPC: 0.431176 cumulative IPC: 0.436676 (Simulation time: 0 hr 42 min 49 sec) 
Heartbeat CPU 0 instructions: 358000000 cycles: 821860854 heartbeat IPC: 0.419066 cumulative IPC: 0.436623 (Simulation time: 0 hr 42 min 57 sec) 
Heartbeat CPU 0 instructions: 359000000 cycles: 823963759 heartbeat IPC: 0.475533 cumulative IPC: 0.436726 (Simulation time: 0 hr 43 min 4 sec) 
Heartbeat CPU 0 instructions: 360000003 cycles: 826090584 heartbeat IPC: 0.470186 cumulative IPC: 0.436815 (Simulation time: 0 hr 43 min 11 sec) 
Heartbeat CPU 0 instructions: 361000000 cycles: 828363554 heartbeat IPC: 0.439952 cumulative IPC: 0.436824 (Simulation time: 0 hr 43 min 19 sec) 
Heartbeat CPU 0 instructions: 362000001 cycles: 830546982 heartbeat IPC: 0.457996 cumulative IPC: 0.436881 (Simulation time: 0 hr 43 min 26 sec) 
Heartbeat CPU 0 instructions: 363000000 cycles: 832879724 heartbeat IPC: 0.42868 cumulative IPC: 0.436857 (Simulation time: 0 hr 43 min 33 sec) 
Heartbeat CPU 0 instructions: 364000000 cycles: 834994064 heartbeat IPC: 0.472961 cumulative IPC: 0.436951 (Simulation time: 0 hr 43 min 40 sec) 
Heartbeat CPU 0 instructions: 365000000 cycles: 837336897 heartbeat IPC: 0.426834 cumulative IPC: 0.436922 (Simulation time: 0 hr 43 min 47 sec) 
Heartbeat CPU 0 instructions: 366000000 cycles: 839599427 heartbeat IPC: 0.441983 cumulative IPC: 0.436936 (Simulation time: 0 hr 43 min 54 sec) 
Heartbeat CPU 0 instructions: 367000000 cycles: 841820191 heartbeat IPC: 0.450295 cumulative IPC: 0.436973 (Simulation time: 0 hr 44 min 1 sec) 
Heartbeat CPU 0 instructions: 368000001 cycles: 844083620 heartbeat IPC: 0.441808 cumulative IPC: 0.436986 (Simulation time: 0 hr 44 min 9 sec) 
Heartbeat CPU 0 instructions: 369000001 cycles: 846342135 heartbeat IPC: 0.442769 cumulative IPC: 0.437002 (Simulation time: 0 hr 44 min 16 sec) 
Heartbeat CPU 0 instructions: 370000000 cycles: 848602076 heartbeat IPC: 0.442489 cumulative IPC: 0.437017 (Simulation time: 0 hr 44 min 23 sec) 
Heartbeat CPU 0 instructions: 371000000 cycles: 850903461 heartbeat IPC: 0.434521 cumulative IPC: 0.43701 (Simulation time: 0 hr 44 min 30 sec) 
Heartbeat CPU 0 instructions: 372000003 cycles: 853150177 heartbeat IPC: 0.445095 cumulative IPC: 0.437032 (Simulation time: 0 hr 44 min 37 sec) 
Heartbeat CPU 0 instructions: 373000000 cycles: 855430270 heartbeat IPC: 0.438577 cumulative IPC: 0.437036 (Simulation time: 0 hr 44 min 45 sec) 
Heartbeat CPU 0 instructions: 374000000 cycles: 857702285 heartbeat IPC: 0.440138 cumulative IPC: 0.437045 (Simulation time: 0 hr 44 min 52 sec) 
Heartbeat CPU 0 instructions: 375000000 cycles: 859797519 heartbeat IPC: 0.477274 cumulative IPC: 0.437146 (Simulation time: 0 hr 44 min 59 sec) 
Heartbeat CPU 0 instructions: 376000002 cycles: 861868395 heartbeat IPC: 0.482888 cumulative IPC: 0.437259 (Simulation time: 0 hr 45 min 6 sec) 
Heartbeat CPU 0 instructions: 377000000 cycles: 864206680 heartbeat IPC: 0.427663 cumulative IPC: 0.437232 (Simulation time: 0 hr 45 min 14 sec) 
Heartbeat CPU 0 instructions: 378000000 cycles: 866516342 heartbeat IPC: 0.432964 cumulative IPC: 0.43722 (Simulation time: 0 hr 45 min 22 sec) 
Heartbeat CPU 0 instructions: 379000001 cycles: 868747411 heartbeat IPC: 0.448216 cumulative IPC: 0.437249 (Simulation time: 0 hr 45 min 30 sec) 
Heartbeat CPU 0 instructions: 380000001 cycles: 871083122 heartbeat IPC: 0.428135 cumulative IPC: 0.437224 (Simulation time: 0 hr 45 min 38 sec) 
Heartbeat CPU 0 instructions: 381000001 cycles: 873074878 heartbeat IPC: 0.50207 cumulative IPC: 0.437377 (Simulation time: 0 hr 45 min 45 sec) 
Heartbeat CPU 0 instructions: 382000001 cycles: 875347927 heartbeat IPC: 0.439938 cumulative IPC: 0.437383 (Simulation time: 0 hr 45 min 52 sec) 
Heartbeat CPU 0 instructions: 383000000 cycles: 877455094 heartbeat IPC: 0.47457 cumulative IPC: 0.437475 (Simulation time: 0 hr 45 min 59 sec) 
Heartbeat CPU 0 instructions: 384000000 cycles: 879836002 heartbeat IPC: 0.420008 cumulative IPC: 0.437427 (Simulation time: 0 hr 46 min 6 sec) 
Heartbeat CPU 0 instructions: 385000000 cycles: 882009641 heartbeat IPC: 0.460058 cumulative IPC: 0.437484 (Simulation time: 0 hr 46 min 13 sec) 
Heartbeat CPU 0 instructions: 386000000 cycles: 884271317 heartbeat IPC: 0.44215 cumulative IPC: 0.437496 (Simulation time: 0 hr 46 min 20 sec) 
Heartbeat CPU 0 instructions: 387000002 cycles: 886546120 heartbeat IPC: 0.439599 cumulative IPC: 0.437502 (Simulation time: 0 hr 46 min 27 sec) 
Heartbeat CPU 0 instructions: 388000000 cycles: 888732260 heartbeat IPC: 0.457426 cumulative IPC: 0.437552 (Simulation time: 0 hr 46 min 35 sec) 
Heartbeat CPU 0 instructions: 389000002 cycles: 890911261 heartbeat IPC: 0.458927 cumulative IPC: 0.437606 (Simulation time: 0 hr 46 min 42 sec) 
Heartbeat CPU 0 instructions: 390000003 cycles: 893186683 heartbeat IPC: 0.439479 cumulative IPC: 0.437611 (Simulation time: 0 hr 46 min 48 sec) 
Heartbeat CPU 0 instructions: 391000003 cycles: 895455416 heartbeat IPC: 0.440775 cumulative IPC: 0.437619 (Simulation time: 0 hr 46 min 55 sec) 
Heartbeat CPU 0 instructions: 392000000 cycles: 897670976 heartbeat IPC: 0.451352 cumulative IPC: 0.437654 (Simulation time: 0 hr 47 min 3 sec) 
Heartbeat CPU 0 instructions: 393000000 cycles: 899945652 heartbeat IPC: 0.439623 cumulative IPC: 0.437659 (Simulation time: 0 hr 47 min 10 sec) 
Heartbeat CPU 0 instructions: 394000002 cycles: 902126266 heartbeat IPC: 0.458587 cumulative IPC: 0.437711 (Simulation time: 0 hr 47 min 17 sec) 
Heartbeat CPU 0 instructions: 395000002 cycles: 904490202 heartbeat IPC: 0.423023 cumulative IPC: 0.437672 (Simulation time: 0 hr 47 min 24 sec) 
Heartbeat CPU 0 instructions: 396000000 cycles: 906844780 heartbeat IPC: 0.424704 cumulative IPC: 0.437637 (Simulation time: 0 hr 47 min 32 sec) 
Heartbeat CPU 0 instructions: 397000000 cycles: 909055886 heartbeat IPC: 0.452262 cumulative IPC: 0.437674 (Simulation time: 0 hr 47 min 39 sec) 
Heartbeat CPU 0 instructions: 398000000 cycles: 911308928 heartbeat IPC: 0.443844 cumulative IPC: 0.437689 (Simulation time: 0 hr 47 min 46 sec) 
Heartbeat CPU 0 instructions: 399000000 cycles: 913640739 heartbeat IPC: 0.428851 cumulative IPC: 0.437666 (Simulation time: 0 hr 47 min 53 sec) 
Heartbeat CPU 0 instructions: 400000000 cycles: 915815590 heartbeat IPC: 0.459802 cumulative IPC: 0.43772 (Simulation time: 0 hr 48 min 0 sec) 
Heartbeat CPU 0 instructions: 401000001 cycles: 918041618 heartbeat IPC: 0.449231 cumulative IPC: 0.437749 (Simulation time: 0 hr 48 min 7 sec) 
Heartbeat CPU 0 instructions: 402000003 cycles: 920282233 heartbeat IPC: 0.446307 cumulative IPC: 0.43777 (Simulation time: 0 hr 48 min 14 sec) 
Heartbeat CPU 0 instructions: 403000001 cycles: 922628000 heartbeat IPC: 0.426299 cumulative IPC: 0.43774 (Simulation time: 0 hr 48 min 22 sec) 
Heartbeat CPU 0 instructions: 404000002 cycles: 924929379 heartbeat IPC: 0.434523 cumulative IPC: 0.437732 (Simulation time: 0 hr 48 min 29 sec) 
Heartbeat CPU 0 instructions: 405000002 cycles: 927174052 heartbeat IPC: 0.445499 cumulative IPC: 0.437751 (Simulation time: 0 hr 48 min 36 sec) 
Heartbeat CPU 0 instructions: 406000000 cycles: 929285871 heartbeat IPC: 0.473524 cumulative IPC: 0.437835 (Simulation time: 0 hr 48 min 43 sec) 
Heartbeat CPU 0 instructions: 407000000 cycles: 931658728 heartbeat IPC: 0.421433 cumulative IPC: 0.437792 (Simulation time: 0 hr 48 min 51 sec) 
Heartbeat CPU 0 instructions: 408000001 cycles: 933892423 heartbeat IPC: 0.447689 cumulative IPC: 0.437816 (Simulation time: 0 hr 48 min 58 sec) 
Heartbeat CPU 0 instructions: 409000003 cycles: 936088136 heartbeat IPC: 0.455434 cumulative IPC: 0.437859 (Simulation time: 0 hr 49 min 5 sec) 
Heartbeat CPU 0 instructions: 410000001 cycles: 938280214 heartbeat IPC: 0.456187 cumulative IPC: 0.437903 (Simulation time: 0 hr 49 min 12 sec) 
Heartbeat CPU 0 instructions: 411000003 cycles: 940657752 heartbeat IPC: 0.420604 cumulative IPC: 0.437858 (Simulation time: 0 hr 49 min 19 sec) 
Heartbeat CPU 0 instructions: 412000000 cycles: 942973940 heartbeat IPC: 0.431743 cumulative IPC: 0.437842 (Simulation time: 0 hr 49 min 27 sec) 
Heartbeat CPU 0 instructions: 413000003 cycles: 945142970 heartbeat IPC: 0.461037 cumulative IPC: 0.437897 (Simulation time: 0 hr 49 min 34 sec) 
Heartbeat CPU 0 instructions: 414000000 cycles: 946960932 heartbeat IPC: 0.550065 cumulative IPC: 0.438118 (Simulation time: 0 hr 49 min 41 sec) 
Heartbeat CPU 0 instructions: 415000001 cycles: 949232588 heartbeat IPC: 0.440208 cumulative IPC: 0.438123 (Simulation time: 0 hr 49 min 48 sec) 
Heartbeat CPU 0 instructions: 416000003 cycles: 951506196 heartbeat IPC: 0.43983 cumulative IPC: 0.438128 (Simulation time: 0 hr 49 min 55 sec) 
Heartbeat CPU 0 instructions: 417000001 cycles: 953768066 heartbeat IPC: 0.442111 cumulative IPC: 0.438137 (Simulation time: 0 hr 50 min 2 sec) 
Heartbeat CPU 0 instructions: 418000000 cycles: 955986921 heartbeat IPC: 0.450682 cumulative IPC: 0.438167 (Simulation time: 0 hr 50 min 9 sec) 
Heartbeat CPU 0 instructions: 419000002 cycles: 958190114 heartbeat IPC: 0.453888 cumulative IPC: 0.438204 (Simulation time: 0 hr 50 min 16 sec) 
Heartbeat CPU 0 instructions: 420000000 cycles: 960436000 heartbeat IPC: 0.445258 cumulative IPC: 0.438221 (Simulation time: 0 hr 50 min 24 sec) 
Heartbeat CPU 0 instructions: 421000002 cycles: 962718685 heartbeat IPC: 0.438081 cumulative IPC: 0.438221 (Simulation time: 0 hr 50 min 31 sec) 
Heartbeat CPU 0 instructions: 422000000 cycles: 964896456 heartbeat IPC: 0.459184 cumulative IPC: 0.438269 (Simulation time: 0 hr 50 min 38 sec) 
Heartbeat CPU 0 instructions: 423000001 cycles: 967096127 heartbeat IPC: 0.454614 cumulative IPC: 0.438308 (Simulation time: 0 hr 50 min 45 sec) 
Heartbeat CPU 0 instructions: 424000003 cycles: 969548562 heartbeat IPC: 0.407759 cumulative IPC: 0.438228 (Simulation time: 0 hr 50 min 52 sec) 
Heartbeat CPU 0 instructions: 425000003 cycles: 971717122 heartbeat IPC: 0.461136 cumulative IPC: 0.438281 (Simulation time: 0 hr 50 min 59 sec) 
Heartbeat CPU 0 instructions: 426000000 cycles: 974081360 heartbeat IPC: 0.422968 cumulative IPC: 0.438243 (Simulation time: 0 hr 51 min 7 sec) 
Heartbeat CPU 0 instructions: 427000000 cycles: 976173355 heartbeat IPC: 0.478013 cumulative IPC: 0.43833 (Simulation time: 0 hr 51 min 14 sec) 
Heartbeat CPU 0 instructions: 428000000 cycles: 978620385 heartbeat IPC: 0.408659 cumulative IPC: 0.438254 (Simulation time: 0 hr 51 min 21 sec) 
Heartbeat CPU 0 instructions: 429000000 cycles: 980791326 heartbeat IPC: 0.46063 cumulative IPC: 0.438305 (Simulation time: 0 hr 51 min 28 sec) 
Heartbeat CPU 0 instructions: 430000000 cycles: 982998896 heartbeat IPC: 0.452987 cumulative IPC: 0.438339 (Simulation time: 0 hr 51 min 35 sec) 
Heartbeat CPU 0 instructions: 431000001 cycles: 985251801 heartbeat IPC: 0.443872 cumulative IPC: 0.438352 (Simulation time: 0 hr 51 min 42 sec) 
Heartbeat CPU 0 instructions: 432000003 cycles: 987478704 heartbeat IPC: 0.449055 cumulative IPC: 0.438376 (Simulation time: 0 hr 51 min 49 sec) 
Heartbeat CPU 0 instructions: 433000001 cycles: 989693565 heartbeat IPC: 0.451495 cumulative IPC: 0.438406 (Simulation time: 0 hr 51 min 56 sec) 
Heartbeat CPU 0 instructions: 434000002 cycles: 991876568 heartbeat IPC: 0.458085 cumulative IPC: 0.438451 (Simulation time: 0 hr 52 min 3 sec) 
Heartbeat CPU 0 instructions: 435000002 cycles: 994104156 heartbeat IPC: 0.448916 cumulative IPC: 0.438475 (Simulation time: 0 hr 52 min 11 sec) 
Heartbeat CPU 0 instructions: 436000000 cycles: 996306899 heartbeat IPC: 0.453979 cumulative IPC: 0.43851 (Simulation time: 0 hr 52 min 18 sec) 
Heartbeat CPU 0 instructions: 437000002 cycles: 998623796 heartbeat IPC: 0.431613 cumulative IPC: 0.438494 (Simulation time: 0 hr 52 min 25 sec) 
Heartbeat CPU 0 instructions: 438000000 cycles: 1000886439 heartbeat IPC: 0.44196 cumulative IPC: 0.438502 (Simulation time: 0 hr 52 min 32 sec) 
Heartbeat CPU 0 instructions: 439000002 cycles: 1002939401 heartbeat IPC: 0.487102 cumulative IPC: 0.438604 (Simulation time: 0 hr 52 min 39 sec) 
Heartbeat CPU 0 instructions: 440000000 cycles: 1005230063 heartbeat IPC: 0.436554 cumulative IPC: 0.438599 (Simulation time: 0 hr 52 min 46 sec) 
Heartbeat CPU 0 instructions: 441000000 cycles: 1007523248 heartbeat IPC: 0.436075 cumulative IPC: 0.438593 (Simulation time: 0 hr 52 min 53 sec) 
Heartbeat CPU 0 instructions: 442000001 cycles: 1009713331 heartbeat IPC: 0.456604 cumulative IPC: 0.438633 (Simulation time: 0 hr 53 min 0 sec) 
Heartbeat CPU 0 instructions: 443000001 cycles: 1011941827 heartbeat IPC: 0.448733 cumulative IPC: 0.438656 (Simulation time: 0 hr 53 min 7 sec) 
Heartbeat CPU 0 instructions: 444000003 cycles: 1014303781 heartbeat IPC: 0.423379 cumulative IPC: 0.438619 (Simulation time: 0 hr 53 min 14 sec) 
Heartbeat CPU 0 instructions: 445000000 cycles: 1016552432 heartbeat IPC: 0.44471 cumulative IPC: 0.438633 (Simulation time: 0 hr 53 min 22 sec) 
Heartbeat CPU 0 instructions: 446000000 cycles: 1018739918 heartbeat IPC: 0.457146 cumulative IPC: 0.438674 (Simulation time: 0 hr 53 min 29 sec) 
Heartbeat CPU 0 instructions: 447000000 cycles: 1020989994 heartbeat IPC: 0.444429 cumulative IPC: 0.438687 (Simulation time: 0 hr 53 min 36 sec) 
Heartbeat CPU 0 instructions: 448000000 cycles: 1023234053 heartbeat IPC: 0.445621 cumulative IPC: 0.438703 (Simulation time: 0 hr 53 min 43 sec) 
Heartbeat CPU 0 instructions: 449000000 cycles: 1025560836 heartbeat IPC: 0.429778 cumulative IPC: 0.438682 (Simulation time: 0 hr 53 min 50 sec) 
Heartbeat CPU 0 instructions: 450000001 cycles: 1027746536 heartbeat IPC: 0.45752 cumulative IPC: 0.438723 (Simulation time: 0 hr 53 min 57 sec) 
Heartbeat CPU 0 instructions: 451000000 cycles: 1029955974 heartbeat IPC: 0.452603 cumulative IPC: 0.438753 (Simulation time: 0 hr 54 min 5 sec) 
Heartbeat CPU 0 instructions: 452000000 cycles: 1031999669 heartbeat IPC: 0.48931 cumulative IPC: 0.438856 (Simulation time: 0 hr 54 min 12 sec) 
Heartbeat CPU 0 instructions: 453000000 cycles: 1034315667 heartbeat IPC: 0.431779 cumulative IPC: 0.43884 (Simulation time: 0 hr 54 min 19 sec) 
Heartbeat CPU 0 instructions: 454000001 cycles: 1036424756 heartbeat IPC: 0.474139 cumulative IPC: 0.438913 (Simulation time: 0 hr 54 min 26 sec) 
Heartbeat CPU 0 instructions: 455000000 cycles: 1038682539 heartbeat IPC: 0.442912 cumulative IPC: 0.438922 (Simulation time: 0 hr 54 min 33 sec) 
Heartbeat CPU 0 instructions: 456000003 cycles: 1040753003 heartbeat IPC: 0.482985 cumulative IPC: 0.439012 (Simulation time: 0 hr 54 min 40 sec) 
Heartbeat CPU 0 instructions: 457000001 cycles: 1042942723 heartbeat IPC: 0.456678 cumulative IPC: 0.43905 (Simulation time: 0 hr 54 min 47 sec) 
Heartbeat CPU 0 instructions: 458000002 cycles: 1045315212 heartbeat IPC: 0.421499 cumulative IPC: 0.439009 (Simulation time: 0 hr 54 min 54 sec) 
Heartbeat CPU 0 instructions: 459000000 cycles: 1047625600 heartbeat IPC: 0.432827 cumulative IPC: 0.438995 (Simulation time: 0 hr 55 min 2 sec) 
Heartbeat CPU 0 instructions: 460000000 cycles: 1049839465 heartbeat IPC: 0.451699 cumulative IPC: 0.439023 (Simulation time: 0 hr 55 min 9 sec) 
Heartbeat CPU 0 instructions: 461000000 cycles: 1052009687 heartbeat IPC: 0.460782 cumulative IPC: 0.439069 (Simulation time: 0 hr 55 min 16 sec) 
Heartbeat CPU 0 instructions: 462000000 cycles: 1054339399 heartbeat IPC: 0.429238 cumulative IPC: 0.439046 (Simulation time: 0 hr 55 min 23 sec) 
Heartbeat CPU 0 instructions: 463000002 cycles: 1056677787 heartbeat IPC: 0.427646 cumulative IPC: 0.439021 (Simulation time: 0 hr 55 min 30 sec) 
Heartbeat CPU 0 instructions: 464000002 cycles: 1058934619 heartbeat IPC: 0.443099 cumulative IPC: 0.439029 (Simulation time: 0 hr 55 min 37 sec) 
Heartbeat CPU 0 instructions: 465000000 cycles: 1061214054 heartbeat IPC: 0.438704 cumulative IPC: 0.439029 (Simulation time: 0 hr 55 min 44 sec) 
Heartbeat CPU 0 instructions: 466000000 cycles: 1063541607 heartbeat IPC: 0.429636 cumulative IPC: 0.439008 (Simulation time: 0 hr 55 min 51 sec) 
Heartbeat CPU 0 instructions: 467000001 cycles: 1065655611 heartbeat IPC: 0.473036 cumulative IPC: 0.439077 (Simulation time: 0 hr 55 min 59 sec) 
Heartbeat CPU 0 instructions: 468000002 cycles: 1067878443 heartbeat IPC: 0.449877 cumulative IPC: 0.4391 (Simulation time: 0 hr 56 min 6 sec) 
Heartbeat CPU 0 instructions: 469000001 cycles: 1070190330 heartbeat IPC: 0.432547 cumulative IPC: 0.439085 (Simulation time: 0 hr 56 min 12 sec) 
Heartbeat CPU 0 instructions: 470000002 cycles: 1072382192 heartbeat IPC: 0.456234 cumulative IPC: 0.439121 (Simulation time: 0 hr 56 min 20 sec) 
Heartbeat CPU 0 instructions: 471000002 cycles: 1074490935 heartbeat IPC: 0.474216 cumulative IPC: 0.439192 (Simulation time: 0 hr 56 min 27 sec) 
Heartbeat CPU 0 instructions: 472000000 cycles: 1076804098 heartbeat IPC: 0.432308 cumulative IPC: 0.439177 (Simulation time: 0 hr 56 min 34 sec) 
Heartbeat CPU 0 instructions: 473000000 cycles: 1078525461 heartbeat IPC: 0.580935 cumulative IPC: 0.439408 (Simulation time: 0 hr 56 min 41 sec) 
Heartbeat CPU 0 instructions: 474000000 cycles: 1080747210 heartbeat IPC: 0.450096 cumulative IPC: 0.439431 (Simulation time: 0 hr 56 min 48 sec) 
Heartbeat CPU 0 instructions: 475000000 cycles: 1083030156 heartbeat IPC: 0.438031 cumulative IPC: 0.439428 (Simulation time: 0 hr 56 min 55 sec) 
Heartbeat CPU 0 instructions: 476000002 cycles: 1085375295 heartbeat IPC: 0.426415 cumulative IPC: 0.439399 (Simulation time: 0 hr 57 min 2 sec) 
Heartbeat CPU 0 instructions: 477000001 cycles: 1087638726 heartbeat IPC: 0.441807 cumulative IPC: 0.439404 (Simulation time: 0 hr 57 min 10 sec) 
Heartbeat CPU 0 instructions: 478000000 cycles: 1089719517 heartbeat IPC: 0.480586 cumulative IPC: 0.439484 (Simulation time: 0 hr 57 min 17 sec) 
Heartbeat CPU 0 instructions: 479000000 cycles: 1092257157 heartbeat IPC: 0.394067 cumulative IPC: 0.439377 (Simulation time: 0 hr 57 min 24 sec) 
Heartbeat CPU 0 instructions: 480000000 cycles: 1094519087 heartbeat IPC: 0.4421 cumulative IPC: 0.439382 (Simulation time: 0 hr 57 min 31 sec) 
Heartbeat CPU 0 instructions: 481000000 cycles: 1096734073 heartbeat IPC: 0.45147 cumulative IPC: 0.439407 (Simulation time: 0 hr 57 min 38 sec) 
Heartbeat CPU 0 instructions: 482000002 cycles: 1098974609 heartbeat IPC: 0.446323 cumulative IPC: 0.439422 (Simulation time: 0 hr 57 min 45 sec) 
Heartbeat CPU 0 instructions: 483000000 cycles: 1101263282 heartbeat IPC: 0.436934 cumulative IPC: 0.439416 (Simulation time: 0 hr 57 min 53 sec) 
Heartbeat CPU 0 instructions: 484000000 cycles: 1103526797 heartbeat IPC: 0.441791 cumulative IPC: 0.439421 (Simulation time: 0 hr 58 min 0 sec) 
Heartbeat CPU 0 instructions: 485000002 cycles: 1105832410 heartbeat IPC: 0.433725 cumulative IPC: 0.439409 (Simulation time: 0 hr 58 min 7 sec) 
Heartbeat CPU 0 instructions: 486000001 cycles: 1107957481 heartbeat IPC: 0.470572 cumulative IPC: 0.43947 (Simulation time: 0 hr 58 min 14 sec) 
Heartbeat CPU 0 instructions: 487000003 cycles: 1110288326 heartbeat IPC: 0.42903 cumulative IPC: 0.439448 (Simulation time: 0 hr 58 min 21 sec) 
Heartbeat CPU 0 instructions: 488000000 cycles: 1112457288 heartbeat IPC: 0.461049 cumulative IPC: 0.439491 (Simulation time: 0 hr 58 min 28 sec) 
Heartbeat CPU 0 instructions: 489000002 cycles: 1114540214 heartbeat IPC: 0.480095 cumulative IPC: 0.439569 (Simulation time: 0 hr 58 min 35 sec) 
Heartbeat CPU 0 instructions: 490000000 cycles: 1116859624 heartbeat IPC: 0.431143 cumulative IPC: 0.439551 (Simulation time: 0 hr 58 min 43 sec) 
Heartbeat CPU 0 instructions: 491000002 cycles: 1119089905 heartbeat IPC: 0.448375 cumulative IPC: 0.439569 (Simulation time: 0 hr 58 min 50 sec) 
Heartbeat CPU 0 instructions: 492000000 cycles: 1121269536 heartbeat IPC: 0.458792 cumulative IPC: 0.439607 (Simulation time: 0 hr 58 min 57 sec) 
Heartbeat CPU 0 instructions: 493000002 cycles: 1123536947 heartbeat IPC: 0.441033 cumulative IPC: 0.43961 (Simulation time: 0 hr 59 min 4 sec) 
Heartbeat CPU 0 instructions: 494000000 cycles: 1125777098 heartbeat IPC: 0.446398 cumulative IPC: 0.439624 (Simulation time: 0 hr 59 min 11 sec) 
Heartbeat CPU 0 instructions: 495000000 cycles: 1127931955 heartbeat IPC: 0.464068 cumulative IPC: 0.439671 (Simulation time: 0 hr 59 min 18 sec) 
Heartbeat CPU 0 instructions: 496000001 cycles: 1130256231 heartbeat IPC: 0.430242 cumulative IPC: 0.439652 (Simulation time: 0 hr 59 min 26 sec) 
Heartbeat CPU 0 instructions: 497000001 cycles: 1132574508 heartbeat IPC: 0.431355 cumulative IPC: 0.439634 (Simulation time: 0 hr 59 min 33 sec) 
Heartbeat CPU 0 instructions: 498000001 cycles: 1134732758 heartbeat IPC: 0.463338 cumulative IPC: 0.43968 (Simulation time: 0 hr 59 min 40 sec) 
Heartbeat CPU 0 instructions: 499000001 cycles: 1136977399 heartbeat IPC: 0.445506 cumulative IPC: 0.439692 (Simulation time: 0 hr 59 min 47 sec) 
Heartbeat CPU 0 instructions: 500000003 cycles: 1139066129 heartbeat IPC: 0.478761 cumulative IPC: 0.439765 (Simulation time: 0 hr 59 min 54 sec) 
Heartbeat CPU 0 instructions: 501000001 cycles: 1141352127 heartbeat IPC: 0.437445 cumulative IPC: 0.439761 (Simulation time: 1 hr 0 min 1 sec) 
Heartbeat CPU 0 instructions: 502000002 cycles: 1143460159 heartbeat IPC: 0.474377 cumulative IPC: 0.439826 (Simulation time: 1 hr 0 min 8 sec) 
Heartbeat CPU 0 instructions: 503000002 cycles: 1145723830 heartbeat IPC: 0.44176 cumulative IPC: 0.43983 (Simulation time: 1 hr 0 min 15 sec) 
Heartbeat CPU 0 instructions: 504000000 cycles: 1148039292 heartbeat IPC: 0.431878 cumulative IPC: 0.439813 (Simulation time: 1 hr 0 min 22 sec) 
Heartbeat CPU 0 instructions: 505000002 cycles: 1150330078 heartbeat IPC: 0.436532 cumulative IPC: 0.439807 (Simulation time: 1 hr 0 min 29 sec) 
Heartbeat CPU 0 instructions: 506000000 cycles: 1152457771 heartbeat IPC: 0.469992 cumulative IPC: 0.439864 (Simulation time: 1 hr 0 min 36 sec) 
Heartbeat CPU 0 instructions: 507000002 cycles: 1154707542 heartbeat IPC: 0.444491 cumulative IPC: 0.439873 (Simulation time: 1 hr 0 min 44 sec) 
Heartbeat CPU 0 instructions: 508000001 cycles: 1156934216 heartbeat IPC: 0.4491 cumulative IPC: 0.439891 (Simulation time: 1 hr 0 min 51 sec) 
Heartbeat CPU 0 instructions: 509000001 cycles: 1159168206 heartbeat IPC: 0.44763 cumulative IPC: 0.439906 (Simulation time: 1 hr 0 min 58 sec) 
Heartbeat CPU 0 instructions: 510000003 cycles: 1161371746 heartbeat IPC: 0.453816 cumulative IPC: 0.439933 (Simulation time: 1 hr 1 min 5 sec) 
Finished CPU 0 instructions: 500000002 cycles: 1136536249 cumulative IPC: 0.439933 (Simulation time: 1 hr 1 min 5 sec) 

ChampSim completed all CPUs

Region of Interest Statistics

CPU 0 cumulative IPC: 0.439933 instructions: 500000002 cycles: 1136536249
L1D TOTAL     ACCESS:  209274496  HIT:  200352322  MISS:    8922174
L1D LOAD      ACCESS:  119501470  HIT:  111761579  MISS:    7739891
L1D RFO       ACCESS:   89773026  HIT:   88590743  MISS:    1182283
L1D PREFETCH  ACCESS:          0  HIT:          0  MISS:          0
L1D WRITEBACK ACCESS:          0  HIT:          0  MISS:          0
L1D PREFETCH  REQUESTED:          0  ISSUED:          0  USEFUL:          0  USELESS:          0
L1D AVERAGE MISS LATENCY: 95.3201 cycles
L1I TOTAL     ACCESS:  114262036  HIT:  114234416  MISS:      27620
L1I LOAD      ACCESS:  114262036  HIT:  114234416  MISS:      27620
L1I RFO       ACCESS:          0  HIT:          0  MISS:          0
L1I PREFETCH  ACCESS:          0  HIT:          0  MISS:          0
L1I WRITEBACK ACCESS:          0  HIT:          0  MISS:          0
L1I PREFETCH  REQUESTED:          0  ISSUED:          0  USEFUL:          0  USELESS:          0
L1I AVERAGE MISS LATENCY: 39.0631 cycles
L2C TOTAL     ACCESS:   13374337  HIT:    7289471  MISS:    6084866
L2C LOAD      ACCESS:    7767177  HIT:    2476563  MISS:    5290614
L2C RFO       ACCESS:    1182219  HIT:     394466  MISS:     787753
L2C PREFETCH  ACCESS:          0  HIT:          0  MISS:          0
L2C WRITEBACK ACCESS:    4424941  HIT:    4418442  MISS:       6499
L2C PREFETCH  REQUESTED:          0  ISSUED:          0  USEFUL:          0  USELESS:          0
L2C AVERAGE MISS LATENCY: 111.284 cycles
LLC TOTAL     ACCESS:   13958681  HIT:    8590694  MISS:    5367987
LLC LOAD      ACCESS:    5290606  HIT:    3617014  MISS:    1673592
LLC RFO       ACCESS:     787752  HIT:     362467  MISS:     425285
LLC PREFETCH  ACCESS:    4855391  HIT:    1602188  MISS:    3253203
LLC WRITEBACK ACCESS:    3024932  HIT:    3009025  MISS:      15907
LLC PREFETCH  REQUESTED:    5147207  ISSUED:    5145843  USEFUL:    2488360  USELESS:     760921
LLC AVERAGE MISS LATENCY: 223.411 cycles
Major fault: 0 Minor fault: 48749
performance stats:
mapping cache size: 393633
divergence: 2445432

DRAM Statistics
 CHANNEL 0
 RQ ROW_BUFFER_HIT:     588266  ROW_BUFFER_MISS:    2088961
 DBUS_CONGESTED:    1954081
 WQ ROW_BUFFER_HIT:     296724  ROW_BUFFER_MISS:     796066  FULL:          0

 CHANNEL 1
 RQ ROW_BUFFER_HIT:     590525  ROW_BUFFER_MISS:    2084288
 DBUS_CONGESTED:    1954081
 WQ ROW_BUFFER_HIT:     297794  ROW_BUFFER_MISS:     790859  FULL:          0

 AVG_CONGESTED_CYCLE: 16

CPU 0 Branch Prediction Accuracy: 98.2046% MPKI: 3.73425 Average ROB Occupancy at Mispredict: 93.3519

Branch types
NOT_BRANCH: 396005582 79.2011%
BRANCH_DIRECT_JUMP: 5699804 1.13996%
BRANCH_INDIRECT: 1681218 0.336244%
BRANCH_CONDITIONAL: 66868017 13.3736%
BRANCH_DIRECT_CALL: 8897757 1.77955%
BRANCH_INDIRECT_CALL: 5974801 1.19496%
BRANCH_RETURN: 14872558 2.97451%
BRANCH_OTHER: 0 0%

