
*** ChampSim Multicore Out-of-Order Simulator ***

Warmup Instructions: 1000000
Prefetch Warmup Instructions: 10000000
Simulation Instructions: 500000000
Stat Printing Period: 1000000
Number of CPUs: 1
LLC sets: 2048
LLC ways: 16
Off-chip DRAM Size: 32768 MB Channels: 2 Width: 64-bit Data Rate: 1024 MT/s

CPU 0 runs /scratch/cluster/cmolder/ML-DPC/ChampSimTraces/spec17/620.omnetpp-s0.trace.xz
Read seed: 216
Heartbeat CPU 0 instructions: 1000001 cycles: 553794 heartbeat IPC: 1.80573 cumulative IPC: 1.80573 (Simulation time: 0 hr 0 min 7 sec) 

Warmup complete CPU 0 instructions: 1000001 cycles: 553794 (Simulation time: 0 hr 0 min 7 sec) 

Heartbeat CPU 0 instructions: 2000000 cycles: 3430397 heartbeat IPC: 0.347632 cumulative IPC: 0.347632 (Simulation time: 0 hr 0 min 15 sec) 
Heartbeat CPU 0 instructions: 3000002 cycles: 6142379 heartbeat IPC: 0.368735 cumulative IPC: 0.357873 (Simulation time: 0 hr 0 min 22 sec) 
Heartbeat CPU 0 instructions: 4000003 cycles: 9227645 heartbeat IPC: 0.324121 cumulative IPC: 0.345867 (Simulation time: 0 hr 0 min 30 sec) 
Heartbeat CPU 0 instructions: 5000002 cycles: 12278668 heartbeat IPC: 0.327759 cumulative IPC: 0.341155 (Simulation time: 0 hr 0 min 37 sec) 
Heartbeat CPU 0 instructions: 6000001 cycles: 15164212 heartbeat IPC: 0.346555 cumulative IPC: 0.342222 (Simulation time: 0 hr 0 min 45 sec) 
Heartbeat CPU 0 instructions: 7000003 cycles: 18096593 heartbeat IPC: 0.34102 cumulative IPC: 0.342021 (Simulation time: 0 hr 0 min 52 sec) 
Heartbeat CPU 0 instructions: 8000002 cycles: 20810056 heartbeat IPC: 0.368532 cumulative IPC: 0.345572 (Simulation time: 0 hr 1 min 0 sec) 
Heartbeat CPU 0 instructions: 9000000 cycles: 23771205 heartbeat IPC: 0.337706 cumulative IPC: 0.344569 (Simulation time: 0 hr 1 min 7 sec) 
Heartbeat CPU 0 instructions: 10000001 cycles: 26814683 heartbeat IPC: 0.328572 cumulative IPC: 0.342715 (Simulation time: 0 hr 1 min 15 sec) 

Warmup complete CPU 0 instructions: 10000001 cycles: 26814683 (Simulation time: 0 hr 1 min 15 sec) 

Heartbeat CPU 0 instructions: 11000000 cycles: 29846041 heartbeat IPC: 0.329885 cumulative IPC: 0.329885 (Simulation time: 0 hr 1 min 22 sec) 
Heartbeat CPU 0 instructions: 12000002 cycles: 32986322 heartbeat IPC: 0.318443 cumulative IPC: 0.324063 (Simulation time: 0 hr 1 min 30 sec) 
Heartbeat CPU 0 instructions: 13000001 cycles: 35860113 heartbeat IPC: 0.347972 cumulative IPC: 0.331659 (Simulation time: 0 hr 1 min 38 sec) 
Heartbeat CPU 0 instructions: 14000003 cycles: 39050724 heartbeat IPC: 0.31342 cumulative IPC: 0.326903 (Simulation time: 0 hr 1 min 46 sec) 
Heartbeat CPU 0 instructions: 15000001 cycles: 42124586 heartbeat IPC: 0.325323 cumulative IPC: 0.326586 (Simulation time: 0 hr 1 min 53 sec) 
Heartbeat CPU 0 instructions: 16000002 cycles: 45221827 heartbeat IPC: 0.322868 cumulative IPC: 0.32596 (Simulation time: 0 hr 2 min 1 sec) 
Heartbeat CPU 0 instructions: 17000001 cycles: 48169534 heartbeat IPC: 0.339246 cumulative IPC: 0.327794 (Simulation time: 0 hr 2 min 9 sec) 
Heartbeat CPU 0 instructions: 18000003 cycles: 51257712 heartbeat IPC: 0.323816 cumulative IPC: 0.327292 (Simulation time: 0 hr 2 min 17 sec) 
Heartbeat CPU 0 instructions: 19000000 cycles: 54622872 heartbeat IPC: 0.297162 cumulative IPC: 0.323646 (Simulation time: 0 hr 2 min 25 sec) 
Heartbeat CPU 0 instructions: 20000003 cycles: 57809503 heartbeat IPC: 0.313812 cumulative IPC: 0.322635 (Simulation time: 0 hr 2 min 33 sec) 
Heartbeat CPU 0 instructions: 21000000 cycles: 61084165 heartbeat IPC: 0.305374 cumulative IPC: 0.320985 (Simulation time: 0 hr 2 min 41 sec) 
Heartbeat CPU 0 instructions: 22000000 cycles: 64075369 heartbeat IPC: 0.334314 cumulative IPC: 0.322055 (Simulation time: 0 hr 2 min 49 sec) 
Heartbeat CPU 0 instructions: 23000003 cycles: 67177920 heartbeat IPC: 0.322316 cumulative IPC: 0.322075 (Simulation time: 0 hr 2 min 56 sec) 
Heartbeat CPU 0 instructions: 24000000 cycles: 70268300 heartbeat IPC: 0.323584 cumulative IPC: 0.322183 (Simulation time: 0 hr 3 min 4 sec) 
Heartbeat CPU 0 instructions: 25000000 cycles: 73493621 heartbeat IPC: 0.310047 cumulative IPC: 0.321344 (Simulation time: 0 hr 3 min 12 sec) 
Heartbeat CPU 0 instructions: 26000003 cycles: 76603112 heartbeat IPC: 0.321597 cumulative IPC: 0.32136 (Simulation time: 0 hr 3 min 20 sec) 
Heartbeat CPU 0 instructions: 27000001 cycles: 79798381 heartbeat IPC: 0.312962 cumulative IPC: 0.320853 (Simulation time: 0 hr 3 min 27 sec) 
Heartbeat CPU 0 instructions: 28000003 cycles: 82653757 heartbeat IPC: 0.350217 cumulative IPC: 0.322355 (Simulation time: 0 hr 3 min 35 sec) 
Heartbeat CPU 0 instructions: 29000000 cycles: 85932693 heartbeat IPC: 0.304976 cumulative IPC: 0.321391 (Simulation time: 0 hr 3 min 43 sec) 
Heartbeat CPU 0 instructions: 30000000 cycles: 88882770 heartbeat IPC: 0.338974 cumulative IPC: 0.322227 (Simulation time: 0 hr 3 min 51 sec) 
Heartbeat CPU 0 instructions: 31000000 cycles: 91908346 heartbeat IPC: 0.330516 cumulative IPC: 0.322612 (Simulation time: 0 hr 3 min 58 sec) 
Heartbeat CPU 0 instructions: 32000003 cycles: 95567044 heartbeat IPC: 0.273322 cumulative IPC: 0.319989 (Simulation time: 0 hr 4 min 6 sec) 
Heartbeat CPU 0 instructions: 33000000 cycles: 98631532 heartbeat IPC: 0.326318 cumulative IPC: 0.320259 (Simulation time: 0 hr 4 min 14 sec) 
Heartbeat CPU 0 instructions: 34000000 cycles: 101996030 heartbeat IPC: 0.297221 cumulative IPC: 0.319228 (Simulation time: 0 hr 4 min 22 sec) 
Heartbeat CPU 0 instructions: 35000003 cycles: 105125463 heartbeat IPC: 0.319548 cumulative IPC: 0.319241 (Simulation time: 0 hr 4 min 30 sec) 
Heartbeat CPU 0 instructions: 36000003 cycles: 108098224 heartbeat IPC: 0.336388 cumulative IPC: 0.319868 (Simulation time: 0 hr 4 min 37 sec) 
Heartbeat CPU 0 instructions: 37000003 cycles: 111201312 heartbeat IPC: 0.32226 cumulative IPC: 0.319956 (Simulation time: 0 hr 4 min 45 sec) 
Heartbeat CPU 0 instructions: 38000000 cycles: 114258539 heartbeat IPC: 0.327093 cumulative IPC: 0.320205 (Simulation time: 0 hr 4 min 53 sec) 
Heartbeat CPU 0 instructions: 39000000 cycles: 117441272 heartbeat IPC: 0.314195 cumulative IPC: 0.319994 (Simulation time: 0 hr 5 min 0 sec) 
Heartbeat CPU 0 instructions: 40000002 cycles: 120848156 heartbeat IPC: 0.293524 cumulative IPC: 0.319035 (Simulation time: 0 hr 5 min 9 sec) 
Heartbeat CPU 0 instructions: 41000003 cycles: 123837140 heartbeat IPC: 0.334562 cumulative IPC: 0.319514 (Simulation time: 0 hr 5 min 17 sec) 
Heartbeat CPU 0 instructions: 42000000 cycles: 127272132 heartbeat IPC: 0.291121 cumulative IPC: 0.318543 (Simulation time: 0 hr 5 min 25 sec) 
Heartbeat CPU 0 instructions: 43000000 cycles: 130273993 heartbeat IPC: 0.333127 cumulative IPC: 0.318966 (Simulation time: 0 hr 5 min 33 sec) 
Heartbeat CPU 0 instructions: 44000000 cycles: 133391714 heartbeat IPC: 0.320747 cumulative IPC: 0.319018 (Simulation time: 0 hr 5 min 41 sec) 
Heartbeat CPU 0 instructions: 45000003 cycles: 136727042 heartbeat IPC: 0.299821 cumulative IPC: 0.318436 (Simulation time: 0 hr 5 min 49 sec) 
Heartbeat CPU 0 instructions: 46000002 cycles: 139831436 heartbeat IPC: 0.322124 cumulative IPC: 0.318537 (Simulation time: 0 hr 5 min 57 sec) 
Heartbeat CPU 0 instructions: 47000000 cycles: 142837746 heartbeat IPC: 0.332633 cumulative IPC: 0.318902 (Simulation time: 0 hr 6 min 5 sec) 
Heartbeat CPU 0 instructions: 48000000 cycles: 145859915 heartbeat IPC: 0.330888 cumulative IPC: 0.319206 (Simulation time: 0 hr 6 min 13 sec) 
Heartbeat CPU 0 instructions: 49000000 cycles: 149191581 heartbeat IPC: 0.30015 cumulative IPC: 0.318688 (Simulation time: 0 hr 6 min 21 sec) 
Heartbeat CPU 0 instructions: 50000003 cycles: 152884327 heartbeat IPC: 0.270802 cumulative IPC: 0.317285 (Simulation time: 0 hr 6 min 29 sec) 
Heartbeat CPU 0 instructions: 51000001 cycles: 155801960 heartbeat IPC: 0.342743 cumulative IPC: 0.317861 (Simulation time: 0 hr 6 min 37 sec) 
Heartbeat CPU 0 instructions: 52000000 cycles: 158938716 heartbeat IPC: 0.3188 cumulative IPC: 0.317883 (Simulation time: 0 hr 6 min 45 sec) 
Heartbeat CPU 0 instructions: 53000001 cycles: 162142962 heartbeat IPC: 0.312086 cumulative IPC: 0.317746 (Simulation time: 0 hr 6 min 53 sec) 
Heartbeat CPU 0 instructions: 54000003 cycles: 164690414 heartbeat IPC: 0.39255 cumulative IPC: 0.319128 (Simulation time: 0 hr 7 min 2 sec) 
Heartbeat CPU 0 instructions: 55000000 cycles: 167885910 heartbeat IPC: 0.31294 cumulative IPC: 0.318988 (Simulation time: 0 hr 7 min 10 sec) 
Heartbeat CPU 0 instructions: 56000000 cycles: 171239223 heartbeat IPC: 0.298213 cumulative IPC: 0.318505 (Simulation time: 0 hr 7 min 19 sec) 
Heartbeat CPU 0 instructions: 57000000 cycles: 174408869 heartbeat IPC: 0.315493 cumulative IPC: 0.318441 (Simulation time: 0 hr 7 min 27 sec) 
Heartbeat CPU 0 instructions: 58000003 cycles: 177517612 heartbeat IPC: 0.321674 cumulative IPC: 0.318507 (Simulation time: 0 hr 7 min 36 sec) 
Heartbeat CPU 0 instructions: 59000003 cycles: 180790899 heartbeat IPC: 0.305503 cumulative IPC: 0.318231 (Simulation time: 0 hr 7 min 45 sec) 
Heartbeat CPU 0 instructions: 60000001 cycles: 183967815 heartbeat IPC: 0.31477 cumulative IPC: 0.318161 (Simulation time: 0 hr 7 min 53 sec) 
Heartbeat CPU 0 instructions: 61000001 cycles: 187262012 heartbeat IPC: 0.303564 cumulative IPC: 0.317861 (Simulation time: 0 hr 8 min 1 sec) 
Heartbeat CPU 0 instructions: 62000001 cycles: 190477240 heartbeat IPC: 0.31102 cumulative IPC: 0.317727 (Simulation time: 0 hr 8 min 9 sec) 
Heartbeat CPU 0 instructions: 63000000 cycles: 193657516 heartbeat IPC: 0.314438 cumulative IPC: 0.317664 (Simulation time: 0 hr 8 min 16 sec) 
Heartbeat CPU 0 instructions: 64000000 cycles: 196681922 heartbeat IPC: 0.330643 cumulative IPC: 0.317895 (Simulation time: 0 hr 8 min 22 sec) 
Heartbeat CPU 0 instructions: 65000000 cycles: 199968235 heartbeat IPC: 0.304292 cumulative IPC: 0.317637 (Simulation time: 0 hr 8 min 29 sec) 
Heartbeat CPU 0 instructions: 66000000 cycles: 203089598 heartbeat IPC: 0.320373 cumulative IPC: 0.317686 (Simulation time: 0 hr 8 min 36 sec) 
Heartbeat CPU 0 instructions: 67000001 cycles: 206319849 heartbeat IPC: 0.309574 cumulative IPC: 0.31754 (Simulation time: 0 hr 8 min 43 sec) 
Heartbeat CPU 0 instructions: 68000001 cycles: 209527576 heartbeat IPC: 0.311747 cumulative IPC: 0.317438 (Simulation time: 0 hr 8 min 50 sec) 
Heartbeat CPU 0 instructions: 69000001 cycles: 212690403 heartbeat IPC: 0.316173 cumulative IPC: 0.317416 (Simulation time: 0 hr 8 min 57 sec) 
Heartbeat CPU 0 instructions: 70000000 cycles: 215687525 heartbeat IPC: 0.333653 cumulative IPC: 0.317674 (Simulation time: 0 hr 9 min 4 sec) 
Heartbeat CPU 0 instructions: 71000002 cycles: 218805314 heartbeat IPC: 0.320741 cumulative IPC: 0.317724 (Simulation time: 0 hr 9 min 11 sec) 
Heartbeat CPU 0 instructions: 72000002 cycles: 221962426 heartbeat IPC: 0.316745 cumulative IPC: 0.317708 (Simulation time: 0 hr 9 min 18 sec) 
Heartbeat CPU 0 instructions: 73000001 cycles: 225043977 heartbeat IPC: 0.324512 cumulative IPC: 0.317814 (Simulation time: 0 hr 9 min 26 sec) 
Heartbeat CPU 0 instructions: 74000001 cycles: 228215325 heartbeat IPC: 0.315323 cumulative IPC: 0.317775 (Simulation time: 0 hr 9 min 33 sec) 
Heartbeat CPU 0 instructions: 75000003 cycles: 231333026 heartbeat IPC: 0.32075 cumulative IPC: 0.31782 (Simulation time: 0 hr 9 min 41 sec) 
Heartbeat CPU 0 instructions: 76000001 cycles: 234788573 heartbeat IPC: 0.289389 cumulative IPC: 0.317348 (Simulation time: 0 hr 9 min 49 sec) 
Heartbeat CPU 0 instructions: 77000000 cycles: 237814410 heartbeat IPC: 0.330487 cumulative IPC: 0.317536 (Simulation time: 0 hr 9 min 56 sec) 
Heartbeat CPU 0 instructions: 78000000 cycles: 240962437 heartbeat IPC: 0.317659 cumulative IPC: 0.317538 (Simulation time: 0 hr 10 min 3 sec) 
Heartbeat CPU 0 instructions: 79000001 cycles: 244340477 heartbeat IPC: 0.29603 cumulative IPC: 0.317204 (Simulation time: 0 hr 10 min 9 sec) 
Heartbeat CPU 0 instructions: 80000003 cycles: 247360032 heartbeat IPC: 0.331175 cumulative IPC: 0.317395 (Simulation time: 0 hr 10 min 15 sec) 
Heartbeat CPU 0 instructions: 81000001 cycles: 250657348 heartbeat IPC: 0.303276 cumulative IPC: 0.317187 (Simulation time: 0 hr 10 min 21 sec) 
Heartbeat CPU 0 instructions: 82000003 cycles: 253760079 heartbeat IPC: 0.322297 cumulative IPC: 0.317257 (Simulation time: 0 hr 10 min 28 sec) 
Heartbeat CPU 0 instructions: 83000000 cycles: 256999891 heartbeat IPC: 0.308659 cumulative IPC: 0.317136 (Simulation time: 0 hr 10 min 34 sec) 
Heartbeat CPU 0 instructions: 84000001 cycles: 260015570 heartbeat IPC: 0.331601 cumulative IPC: 0.317323 (Simulation time: 0 hr 10 min 40 sec) 
Heartbeat CPU 0 instructions: 85000003 cycles: 263283483 heartbeat IPC: 0.306006 cumulative IPC: 0.317167 (Simulation time: 0 hr 10 min 46 sec) 
Heartbeat CPU 0 instructions: 86000002 cycles: 266274817 heartbeat IPC: 0.334299 cumulative IPC: 0.317381 (Simulation time: 0 hr 10 min 53 sec) 
Heartbeat CPU 0 instructions: 87000000 cycles: 269598316 heartbeat IPC: 0.300887 cumulative IPC: 0.317155 (Simulation time: 0 hr 10 min 58 sec) 
Heartbeat CPU 0 instructions: 88000000 cycles: 272800806 heartbeat IPC: 0.312257 cumulative IPC: 0.317091 (Simulation time: 0 hr 11 min 5 sec) 
Heartbeat CPU 0 instructions: 89000000 cycles: 275753894 heartbeat IPC: 0.338629 cumulative IPC: 0.317347 (Simulation time: 0 hr 11 min 11 sec) 
Heartbeat CPU 0 instructions: 90000003 cycles: 278957060 heartbeat IPC: 0.312192 cumulative IPC: 0.317281 (Simulation time: 0 hr 11 min 17 sec) 
Heartbeat CPU 0 instructions: 91000001 cycles: 281979014 heartbeat IPC: 0.330911 cumulative IPC: 0.317442 (Simulation time: 0 hr 11 min 24 sec) 
Heartbeat CPU 0 instructions: 92000003 cycles: 285171008 heartbeat IPC: 0.313284 cumulative IPC: 0.317391 (Simulation time: 0 hr 11 min 31 sec) 
Heartbeat CPU 0 instructions: 93000002 cycles: 288368416 heartbeat IPC: 0.312753 cumulative IPC: 0.317334 (Simulation time: 0 hr 11 min 37 sec) 
Heartbeat CPU 0 instructions: 94000003 cycles: 291496997 heartbeat IPC: 0.319634 cumulative IPC: 0.317362 (Simulation time: 0 hr 11 min 45 sec) 
Heartbeat CPU 0 instructions: 95000002 cycles: 294672467 heartbeat IPC: 0.314914 cumulative IPC: 0.317333 (Simulation time: 0 hr 11 min 52 sec) 
Heartbeat CPU 0 instructions: 96000000 cycles: 297718519 heartbeat IPC: 0.328293 cumulative IPC: 0.317456 (Simulation time: 0 hr 11 min 59 sec) 
Heartbeat CPU 0 instructions: 97000000 cycles: 300964482 heartbeat IPC: 0.308075 cumulative IPC: 0.317345 (Simulation time: 0 hr 12 min 6 sec) 
Heartbeat CPU 0 instructions: 98000003 cycles: 304094020 heartbeat IPC: 0.319537 cumulative IPC: 0.317369 (Simulation time: 0 hr 12 min 13 sec) 
Heartbeat CPU 0 instructions: 99000000 cycles: 307231867 heartbeat IPC: 0.318689 cumulative IPC: 0.317384 (Simulation time: 0 hr 12 min 20 sec) 
Heartbeat CPU 0 instructions: 100000002 cycles: 310446240 heartbeat IPC: 0.311103 cumulative IPC: 0.317313 (Simulation time: 0 hr 12 min 26 sec) 
Heartbeat CPU 0 instructions: 101000001 cycles: 313700672 heartbeat IPC: 0.307273 cumulative IPC: 0.317199 (Simulation time: 0 hr 12 min 33 sec) 
Heartbeat CPU 0 instructions: 102000003 cycles: 316579517 heartbeat IPC: 0.347362 cumulative IPC: 0.317499 (Simulation time: 0 hr 12 min 40 sec) 
Heartbeat CPU 0 instructions: 103000001 cycles: 319735074 heartbeat IPC: 0.316901 cumulative IPC: 0.317492 (Simulation time: 0 hr 12 min 47 sec) 
Heartbeat CPU 0 instructions: 104000000 cycles: 322943244 heartbeat IPC: 0.311704 cumulative IPC: 0.31743 (Simulation time: 0 hr 12 min 54 sec) 
Heartbeat CPU 0 instructions: 105000000 cycles: 326133137 heartbeat IPC: 0.31349 cumulative IPC: 0.317388 (Simulation time: 0 hr 13 min 1 sec) 
Heartbeat CPU 0 instructions: 106000003 cycles: 329313934 heartbeat IPC: 0.314388 cumulative IPC: 0.317356 (Simulation time: 0 hr 13 min 8 sec) 
Heartbeat CPU 0 instructions: 107000002 cycles: 332338091 heartbeat IPC: 0.33067 cumulative IPC: 0.317488 (Simulation time: 0 hr 13 min 14 sec) 
Heartbeat CPU 0 instructions: 108000002 cycles: 335460912 heartbeat IPC: 0.320223 cumulative IPC: 0.317516 (Simulation time: 0 hr 13 min 21 sec) 
Heartbeat CPU 0 instructions: 109000000 cycles: 338864228 heartbeat IPC: 0.29383 cumulative IPC: 0.317257 (Simulation time: 0 hr 13 min 28 sec) 
Heartbeat CPU 0 instructions: 110000000 cycles: 342111307 heartbeat IPC: 0.307969 cumulative IPC: 0.317162 (Simulation time: 0 hr 13 min 35 sec) 
Heartbeat CPU 0 instructions: 111000000 cycles: 345132372 heartbeat IPC: 0.331009 cumulative IPC: 0.317293 (Simulation time: 0 hr 13 min 41 sec) 
Heartbeat CPU 0 instructions: 112000003 cycles: 348225910 heartbeat IPC: 0.323255 cumulative IPC: 0.31735 (Simulation time: 0 hr 13 min 48 sec) 
Heartbeat CPU 0 instructions: 113000002 cycles: 351324199 heartbeat IPC: 0.322758 cumulative IPC: 0.317402 (Simulation time: 0 hr 13 min 54 sec) 
Heartbeat CPU 0 instructions: 114000000 cycles: 354413945 heartbeat IPC: 0.323651 cumulative IPC: 0.317461 (Simulation time: 0 hr 14 min 1 sec) 
Heartbeat CPU 0 instructions: 115000000 cycles: 357791259 heartbeat IPC: 0.296093 cumulative IPC: 0.317243 (Simulation time: 0 hr 14 min 8 sec) 
Heartbeat CPU 0 instructions: 116000000 cycles: 360714584 heartbeat IPC: 0.342076 cumulative IPC: 0.31746 (Simulation time: 0 hr 14 min 14 sec) 
Heartbeat CPU 0 instructions: 117000000 cycles: 364135512 heartbeat IPC: 0.292318 cumulative IPC: 0.317205 (Simulation time: 0 hr 14 min 21 sec) 
Heartbeat CPU 0 instructions: 118000000 cycles: 367181104 heartbeat IPC: 0.328343 cumulative IPC: 0.317305 (Simulation time: 0 hr 14 min 27 sec) 
Heartbeat CPU 0 instructions: 119000001 cycles: 370423558 heartbeat IPC: 0.308409 cumulative IPC: 0.317221 (Simulation time: 0 hr 14 min 34 sec) 
Heartbeat CPU 0 instructions: 120000001 cycles: 373520310 heartbeat IPC: 0.322919 cumulative IPC: 0.317272 (Simulation time: 0 hr 14 min 41 sec) 
Heartbeat CPU 0 instructions: 121000000 cycles: 376522027 heartbeat IPC: 0.333142 cumulative IPC: 0.317408 (Simulation time: 0 hr 14 min 48 sec) 
Heartbeat CPU 0 instructions: 122000002 cycles: 379833202 heartbeat IPC: 0.302008 cumulative IPC: 0.317264 (Simulation time: 0 hr 14 min 55 sec) 
Heartbeat CPU 0 instructions: 123000000 cycles: 382915286 heartbeat IPC: 0.324455 cumulative IPC: 0.317326 (Simulation time: 0 hr 15 min 2 sec) 
Heartbeat CPU 0 instructions: 124000001 cycles: 386026782 heartbeat IPC: 0.321389 cumulative IPC: 0.317361 (Simulation time: 0 hr 15 min 8 sec) 
Heartbeat CPU 0 instructions: 125000001 cycles: 389417172 heartbeat IPC: 0.294951 cumulative IPC: 0.317152 (Simulation time: 0 hr 15 min 15 sec) 
Heartbeat CPU 0 instructions: 126000001 cycles: 392893672 heartbeat IPC: 0.287646 cumulative IPC: 0.316871 (Simulation time: 0 hr 15 min 21 sec) 
Heartbeat CPU 0 instructions: 127000002 cycles: 395884771 heartbeat IPC: 0.334326 cumulative IPC: 0.317013 (Simulation time: 0 hr 15 min 29 sec) 
Heartbeat CPU 0 instructions: 128000002 cycles: 398918806 heartbeat IPC: 0.329594 cumulative IPC: 0.317116 (Simulation time: 0 hr 15 min 35 sec) 
Heartbeat CPU 0 instructions: 129000002 cycles: 402555963 heartbeat IPC: 0.27494 cumulative IPC: 0.316707 (Simulation time: 0 hr 15 min 42 sec) 
Heartbeat CPU 0 instructions: 130000000 cycles: 405135207 heartbeat IPC: 0.38771 cumulative IPC: 0.317191 (Simulation time: 0 hr 15 min 49 sec) 
Heartbeat CPU 0 instructions: 131000000 cycles: 408060793 heartbeat IPC: 0.341812 cumulative IPC: 0.31738 (Simulation time: 0 hr 15 min 57 sec) 
Heartbeat CPU 0 instructions: 132000000 cycles: 411326940 heartbeat IPC: 0.306171 cumulative IPC: 0.317285 (Simulation time: 0 hr 16 min 4 sec) 
Heartbeat CPU 0 instructions: 133000000 cycles: 414354417 heartbeat IPC: 0.330308 cumulative IPC: 0.317387 (Simulation time: 0 hr 16 min 11 sec) 
Heartbeat CPU 0 instructions: 134000001 cycles: 417515752 heartbeat IPC: 0.316322 cumulative IPC: 0.317378 (Simulation time: 0 hr 16 min 18 sec) 
Heartbeat CPU 0 instructions: 135000003 cycles: 420664695 heartbeat IPC: 0.317568 cumulative IPC: 0.31738 (Simulation time: 0 hr 16 min 25 sec) 
Heartbeat CPU 0 instructions: 136000000 cycles: 423808719 heartbeat IPC: 0.318063 cumulative IPC: 0.317385 (Simulation time: 0 hr 16 min 33 sec) 
Heartbeat CPU 0 instructions: 137000002 cycles: 427011187 heartbeat IPC: 0.31226 cumulative IPC: 0.317344 (Simulation time: 0 hr 16 min 40 sec) 
Heartbeat CPU 0 instructions: 138000002 cycles: 430140983 heartbeat IPC: 0.31951 cumulative IPC: 0.317361 (Simulation time: 0 hr 16 min 47 sec) 
Heartbeat CPU 0 instructions: 139000002 cycles: 433227487 heartbeat IPC: 0.323991 cumulative IPC: 0.317411 (Simulation time: 0 hr 16 min 54 sec) 
Heartbeat CPU 0 instructions: 140000000 cycles: 436482312 heartbeat IPC: 0.307236 cumulative IPC: 0.31733 (Simulation time: 0 hr 17 min 1 sec) 
Heartbeat CPU 0 instructions: 141000002 cycles: 440004054 heartbeat IPC: 0.283951 cumulative IPC: 0.317046 (Simulation time: 0 hr 17 min 9 sec) 
Heartbeat CPU 0 instructions: 142000001 cycles: 442945266 heartbeat IPC: 0.339996 cumulative IPC: 0.317208 (Simulation time: 0 hr 17 min 17 sec) 
Heartbeat CPU 0 instructions: 143000000 cycles: 446321586 heartbeat IPC: 0.29618 cumulative IPC: 0.317039 (Simulation time: 0 hr 17 min 24 sec) 
Heartbeat CPU 0 instructions: 144000001 cycles: 449194303 heartbeat IPC: 0.348103 cumulative IPC: 0.31725 (Simulation time: 0 hr 17 min 30 sec) 
Heartbeat CPU 0 instructions: 145000003 cycles: 452497799 heartbeat IPC: 0.30271 cumulative IPC: 0.317137 (Simulation time: 0 hr 17 min 38 sec) 
Heartbeat CPU 0 instructions: 146000000 cycles: 455586354 heartbeat IPC: 0.323775 cumulative IPC: 0.317185 (Simulation time: 0 hr 17 min 46 sec) 
Heartbeat CPU 0 instructions: 147000000 cycles: 459102417 heartbeat IPC: 0.284409 cumulative IPC: 0.316919 (Simulation time: 0 hr 17 min 53 sec) 
Heartbeat CPU 0 instructions: 148000003 cycles: 462078970 heartbeat IPC: 0.33596 cumulative IPC: 0.317049 (Simulation time: 0 hr 18 min 0 sec) 
Heartbeat CPU 0 instructions: 149000001 cycles: 465259866 heartbeat IPC: 0.314376 cumulative IPC: 0.317029 (Simulation time: 0 hr 18 min 7 sec) 
Heartbeat CPU 0 instructions: 150000002 cycles: 468415247 heartbeat IPC: 0.316919 cumulative IPC: 0.317029 (Simulation time: 0 hr 18 min 14 sec) 
Heartbeat CPU 0 instructions: 151000002 cycles: 471615098 heartbeat IPC: 0.312515 cumulative IPC: 0.316996 (Simulation time: 0 hr 18 min 21 sec) 
Heartbeat CPU 0 instructions: 152000001 cycles: 474915740 heartbeat IPC: 0.302971 cumulative IPC: 0.316893 (Simulation time: 0 hr 18 min 28 sec) 
Heartbeat CPU 0 instructions: 153000002 cycles: 478136512 heartbeat IPC: 0.310485 cumulative IPC: 0.316847 (Simulation time: 0 hr 18 min 36 sec) 
Heartbeat CPU 0 instructions: 154000000 cycles: 481225625 heartbeat IPC: 0.323717 cumulative IPC: 0.316894 (Simulation time: 0 hr 18 min 43 sec) 
Heartbeat CPU 0 instructions: 155000003 cycles: 484495153 heartbeat IPC: 0.305855 cumulative IPC: 0.316815 (Simulation time: 0 hr 18 min 50 sec) 
Heartbeat CPU 0 instructions: 156000002 cycles: 487555550 heartbeat IPC: 0.326755 cumulative IPC: 0.316881 (Simulation time: 0 hr 18 min 57 sec) 
Heartbeat CPU 0 instructions: 157000001 cycles: 490685914 heartbeat IPC: 0.319451 cumulative IPC: 0.316898 (Simulation time: 0 hr 19 min 4 sec) 
Heartbeat CPU 0 instructions: 158000003 cycles: 493810245 heartbeat IPC: 0.320069 cumulative IPC: 0.31692 (Simulation time: 0 hr 19 min 12 sec) 
Heartbeat CPU 0 instructions: 159000003 cycles: 497117722 heartbeat IPC: 0.302345 cumulative IPC: 0.316817 (Simulation time: 0 hr 19 min 19 sec) 
Heartbeat CPU 0 instructions: 160000001 cycles: 500095098 heartbeat IPC: 0.335866 cumulative IPC: 0.316937 (Simulation time: 0 hr 19 min 27 sec) 
Heartbeat CPU 0 instructions: 161000003 cycles: 503113502 heartbeat IPC: 0.331302 cumulative IPC: 0.317028 (Simulation time: 0 hr 19 min 34 sec) 
Heartbeat CPU 0 instructions: 162000003 cycles: 506404537 heartbeat IPC: 0.303856 cumulative IPC: 0.316937 (Simulation time: 0 hr 19 min 42 sec) 
Heartbeat CPU 0 instructions: 163000000 cycles: 509517455 heartbeat IPC: 0.321241 cumulative IPC: 0.316965 (Simulation time: 0 hr 19 min 50 sec) 
Heartbeat CPU 0 instructions: 164000000 cycles: 512785099 heartbeat IPC: 0.306031 cumulative IPC: 0.316892 (Simulation time: 0 hr 19 min 57 sec) 
Heartbeat CPU 0 instructions: 165000000 cycles: 515745953 heartbeat IPC: 0.33774 cumulative IPC: 0.317018 (Simulation time: 0 hr 20 min 4 sec) 
Heartbeat CPU 0 instructions: 166000001 cycles: 518767608 heartbeat IPC: 0.330945 cumulative IPC: 0.317104 (Simulation time: 0 hr 20 min 12 sec) 
Heartbeat CPU 0 instructions: 167000003 cycles: 522050016 heartbeat IPC: 0.304655 cumulative IPC: 0.317021 (Simulation time: 0 hr 20 min 20 sec) 
Heartbeat CPU 0 instructions: 168000002 cycles: 524995308 heartbeat IPC: 0.339525 cumulative IPC: 0.317154 (Simulation time: 0 hr 20 min 27 sec) 
Heartbeat CPU 0 instructions: 169000001 cycles: 528196861 heartbeat IPC: 0.312348 cumulative IPC: 0.317123 (Simulation time: 0 hr 20 min 35 sec) 
Heartbeat CPU 0 instructions: 170000001 cycles: 531312565 heartbeat IPC: 0.320955 cumulative IPC: 0.317147 (Simulation time: 0 hr 20 min 43 sec) 
Heartbeat CPU 0 instructions: 171000002 cycles: 534334935 heartbeat IPC: 0.330867 cumulative IPC: 0.317229 (Simulation time: 0 hr 20 min 51 sec) 
Heartbeat CPU 0 instructions: 172000001 cycles: 537628675 heartbeat IPC: 0.303606 cumulative IPC: 0.317141 (Simulation time: 0 hr 20 min 58 sec) 
Heartbeat CPU 0 instructions: 173000003 cycles: 540743901 heartbeat IPC: 0.321005 cumulative IPC: 0.317164 (Simulation time: 0 hr 21 min 5 sec) 
Heartbeat CPU 0 instructions: 174000000 cycles: 544134513 heartbeat IPC: 0.294931 cumulative IPC: 0.317019 (Simulation time: 0 hr 21 min 13 sec) 
Heartbeat CPU 0 instructions: 175000002 cycles: 547024944 heartbeat IPC: 0.34597 cumulative IPC: 0.317179 (Simulation time: 0 hr 21 min 20 sec) 
Heartbeat CPU 0 instructions: 176000000 cycles: 549899736 heartbeat IPC: 0.347851 cumulative IPC: 0.317348 (Simulation time: 0 hr 21 min 28 sec) 
Heartbeat CPU 0 instructions: 177000001 cycles: 553273820 heartbeat IPC: 0.296377 cumulative IPC: 0.317214 (Simulation time: 0 hr 21 min 36 sec) 
Heartbeat CPU 0 instructions: 178000000 cycles: 556013917 heartbeat IPC: 0.36495 cumulative IPC: 0.317461 (Simulation time: 0 hr 21 min 43 sec) 
Heartbeat CPU 0 instructions: 179000000 cycles: 559226876 heartbeat IPC: 0.31124 cumulative IPC: 0.317423 (Simulation time: 0 hr 21 min 51 sec) 
Heartbeat CPU 0 instructions: 180000000 cycles: 562385976 heartbeat IPC: 0.316546 cumulative IPC: 0.317418 (Simulation time: 0 hr 21 min 58 sec) 
Heartbeat CPU 0 instructions: 181000000 cycles: 565721799 heartbeat IPC: 0.299776 cumulative IPC: 0.317309 (Simulation time: 0 hr 22 min 6 sec) 
Heartbeat CPU 0 instructions: 182000002 cycles: 568850022 heartbeat IPC: 0.319671 cumulative IPC: 0.317322 (Simulation time: 0 hr 22 min 13 sec) 
Heartbeat CPU 0 instructions: 183000002 cycles: 571943189 heartbeat IPC: 0.323293 cumulative IPC: 0.317356 (Simulation time: 0 hr 22 min 21 sec) 
Heartbeat CPU 0 instructions: 184000000 cycles: 575048691 heartbeat IPC: 0.322008 cumulative IPC: 0.317383 (Simulation time: 0 hr 22 min 29 sec) 
Heartbeat CPU 0 instructions: 185000002 cycles: 578123414 heartbeat IPC: 0.325233 cumulative IPC: 0.317427 (Simulation time: 0 hr 22 min 36 sec) 
Heartbeat CPU 0 instructions: 186000000 cycles: 581546185 heartbeat IPC: 0.29216 cumulative IPC: 0.317271 (Simulation time: 0 hr 22 min 44 sec) 
Heartbeat CPU 0 instructions: 187000000 cycles: 584592141 heartbeat IPC: 0.328304 cumulative IPC: 0.317331 (Simulation time: 0 hr 22 min 52 sec) 
Heartbeat CPU 0 instructions: 188000000 cycles: 587655599 heartbeat IPC: 0.326429 cumulative IPC: 0.317381 (Simulation time: 0 hr 22 min 59 sec) 
Heartbeat CPU 0 instructions: 189000001 cycles: 590316900 heartbeat IPC: 0.375756 cumulative IPC: 0.317656 (Simulation time: 0 hr 23 min 7 sec) 
Heartbeat CPU 0 instructions: 190000000 cycles: 593383365 heartbeat IPC: 0.326108 cumulative IPC: 0.317702 (Simulation time: 0 hr 23 min 14 sec) 
Heartbeat CPU 0 instructions: 191000000 cycles: 596643328 heartbeat IPC: 0.306752 cumulative IPC: 0.317639 (Simulation time: 0 hr 23 min 22 sec) 
Heartbeat CPU 0 instructions: 192000002 cycles: 600039439 heartbeat IPC: 0.294455 cumulative IPC: 0.317502 (Simulation time: 0 hr 23 min 31 sec) 
Heartbeat CPU 0 instructions: 193000001 cycles: 602901772 heartbeat IPC: 0.349365 cumulative IPC: 0.31766 (Simulation time: 0 hr 23 min 38 sec) 
Heartbeat CPU 0 instructions: 194000003 cycles: 606244606 heartbeat IPC: 0.299148 cumulative IPC: 0.317553 (Simulation time: 0 hr 23 min 46 sec) 
Heartbeat CPU 0 instructions: 195000001 cycles: 609459063 heartbeat IPC: 0.311094 cumulative IPC: 0.317518 (Simulation time: 0 hr 23 min 53 sec) 
Heartbeat CPU 0 instructions: 196000000 cycles: 612584812 heartbeat IPC: 0.319923 cumulative IPC: 0.317531 (Simulation time: 0 hr 24 min 0 sec) 
Heartbeat CPU 0 instructions: 197000000 cycles: 615871786 heartbeat IPC: 0.304231 cumulative IPC: 0.317456 (Simulation time: 0 hr 24 min 7 sec) 
Heartbeat CPU 0 instructions: 198000000 cycles: 618872595 heartbeat IPC: 0.333243 cumulative IPC: 0.317537 (Simulation time: 0 hr 24 min 15 sec) 
Heartbeat CPU 0 instructions: 199000001 cycles: 622077151 heartbeat IPC: 0.312056 cumulative IPC: 0.317507 (Simulation time: 0 hr 24 min 23 sec) 
Heartbeat CPU 0 instructions: 200000000 cycles: 625490770 heartbeat IPC: 0.292944 cumulative IPC: 0.317367 (Simulation time: 0 hr 24 min 30 sec) 
Heartbeat CPU 0 instructions: 201000000 cycles: 628383122 heartbeat IPC: 0.345739 cumulative IPC: 0.317503 (Simulation time: 0 hr 24 min 38 sec) 
Heartbeat CPU 0 instructions: 202000003 cycles: 631786942 heartbeat IPC: 0.293788 cumulative IPC: 0.31737 (Simulation time: 0 hr 24 min 46 sec) 
Heartbeat CPU 0 instructions: 203000003 cycles: 634848047 heartbeat IPC: 0.326679 cumulative IPC: 0.317417 (Simulation time: 0 hr 24 min 54 sec) 
Heartbeat CPU 0 instructions: 204000001 cycles: 637910281 heartbeat IPC: 0.326558 cumulative IPC: 0.317463 (Simulation time: 0 hr 25 min 1 sec) 
Heartbeat CPU 0 instructions: 205000000 cycles: 641095659 heartbeat IPC: 0.313934 cumulative IPC: 0.317444 (Simulation time: 0 hr 25 min 9 sec) 
Heartbeat CPU 0 instructions: 206000002 cycles: 644311377 heartbeat IPC: 0.310973 cumulative IPC: 0.317411 (Simulation time: 0 hr 25 min 17 sec) 
Heartbeat CPU 0 instructions: 207000002 cycles: 647420179 heartbeat IPC: 0.321667 cumulative IPC: 0.317432 (Simulation time: 0 hr 25 min 24 sec) 
Heartbeat CPU 0 instructions: 208000000 cycles: 650637869 heartbeat IPC: 0.310781 cumulative IPC: 0.317398 (Simulation time: 0 hr 25 min 31 sec) 
Heartbeat CPU 0 instructions: 209000000 cycles: 654446547 heartbeat IPC: 0.262558 cumulative IPC: 0.317065 (Simulation time: 0 hr 25 min 39 sec) 
Heartbeat CPU 0 instructions: 210000000 cycles: 657259312 heartbeat IPC: 0.355522 cumulative IPC: 0.317236 (Simulation time: 0 hr 25 min 47 sec) 
Heartbeat CPU 0 instructions: 211000001 cycles: 659943931 heartbeat IPC: 0.372493 cumulative IPC: 0.317471 (Simulation time: 0 hr 25 min 54 sec) 
Heartbeat CPU 0 instructions: 212000001 cycles: 663206229 heartbeat IPC: 0.306532 cumulative IPC: 0.317415 (Simulation time: 0 hr 26 min 2 sec) 
Heartbeat CPU 0 instructions: 213000000 cycles: 666466955 heartbeat IPC: 0.30668 cumulative IPC: 0.31736 (Simulation time: 0 hr 26 min 10 sec) 
Heartbeat CPU 0 instructions: 214000000 cycles: 669682443 heartbeat IPC: 0.310995 cumulative IPC: 0.317328 (Simulation time: 0 hr 26 min 18 sec) 
Heartbeat CPU 0 instructions: 215000000 cycles: 672879918 heartbeat IPC: 0.312747 cumulative IPC: 0.317305 (Simulation time: 0 hr 26 min 26 sec) 
Heartbeat CPU 0 instructions: 216000001 cycles: 675982743 heartbeat IPC: 0.322287 cumulative IPC: 0.317329 (Simulation time: 0 hr 26 min 34 sec) 
Heartbeat CPU 0 instructions: 217000001 cycles: 679191938 heartbeat IPC: 0.311605 cumulative IPC: 0.317301 (Simulation time: 0 hr 26 min 42 sec) 
Heartbeat CPU 0 instructions: 218000002 cycles: 682669337 heartbeat IPC: 0.287572 cumulative IPC: 0.317143 (Simulation time: 0 hr 26 min 50 sec) 
Heartbeat CPU 0 instructions: 219000001 cycles: 685917488 heartbeat IPC: 0.307867 cumulative IPC: 0.317098 (Simulation time: 0 hr 26 min 58 sec) 
Heartbeat CPU 0 instructions: 220000000 cycles: 689132759 heartbeat IPC: 0.311015 cumulative IPC: 0.317068 (Simulation time: 0 hr 27 min 6 sec) 
Heartbeat CPU 0 instructions: 221000000 cycles: 692424394 heartbeat IPC: 0.3038 cumulative IPC: 0.317003 (Simulation time: 0 hr 27 min 14 sec) 
Heartbeat CPU 0 instructions: 222000002 cycles: 695481055 heartbeat IPC: 0.327155 cumulative IPC: 0.317049 (Simulation time: 0 hr 27 min 22 sec) 
Heartbeat CPU 0 instructions: 223000003 cycles: 698755144 heartbeat IPC: 0.305429 cumulative IPC: 0.316992 (Simulation time: 0 hr 27 min 30 sec) 
Heartbeat CPU 0 instructions: 224000000 cycles: 701769655 heartbeat IPC: 0.331728 cumulative IPC: 0.317058 (Simulation time: 0 hr 27 min 37 sec) 
Heartbeat CPU 0 instructions: 225000000 cycles: 704936984 heartbeat IPC: 0.315723 cumulative IPC: 0.317052 (Simulation time: 0 hr 27 min 45 sec) 
Heartbeat CPU 0 instructions: 226000000 cycles: 708168355 heartbeat IPC: 0.309466 cumulative IPC: 0.317016 (Simulation time: 0 hr 27 min 53 sec) 
Heartbeat CPU 0 instructions: 227000001 cycles: 711209571 heartbeat IPC: 0.328816 cumulative IPC: 0.317068 (Simulation time: 0 hr 28 min 1 sec) 
Heartbeat CPU 0 instructions: 228000000 cycles: 714402949 heartbeat IPC: 0.313148 cumulative IPC: 0.31705 (Simulation time: 0 hr 28 min 9 sec) 
Heartbeat CPU 0 instructions: 229000000 cycles: 717774728 heartbeat IPC: 0.296579 cumulative IPC: 0.31695 (Simulation time: 0 hr 28 min 17 sec) 
Heartbeat CPU 0 instructions: 230000001 cycles: 720871389 heartbeat IPC: 0.322929 cumulative IPC: 0.316977 (Simulation time: 0 hr 28 min 25 sec) 
Heartbeat CPU 0 instructions: 231000000 cycles: 724046375 heartbeat IPC: 0.314962 cumulative IPC: 0.316968 (Simulation time: 0 hr 28 min 33 sec) 
Heartbeat CPU 0 instructions: 232000000 cycles: 727173912 heartbeat IPC: 0.31974 cumulative IPC: 0.31698 (Simulation time: 0 hr 28 min 41 sec) 
Heartbeat CPU 0 instructions: 233000000 cycles: 730610348 heartbeat IPC: 0.290999 cumulative IPC: 0.316853 (Simulation time: 0 hr 28 min 49 sec) 
Heartbeat CPU 0 instructions: 234000003 cycles: 733865361 heartbeat IPC: 0.307219 cumulative IPC: 0.316809 (Simulation time: 0 hr 28 min 57 sec) 
Heartbeat CPU 0 instructions: 235000001 cycles: 736829052 heartbeat IPC: 0.337416 cumulative IPC: 0.316895 (Simulation time: 0 hr 29 min 5 sec) 
Heartbeat CPU 0 instructions: 236000000 cycles: 739862615 heartbeat IPC: 0.329645 cumulative IPC: 0.316949 (Simulation time: 0 hr 29 min 13 sec) 
Heartbeat CPU 0 instructions: 237000000 cycles: 742803836 heartbeat IPC: 0.339995 cumulative IPC: 0.317044 (Simulation time: 0 hr 29 min 20 sec) 
Heartbeat CPU 0 instructions: 238000000 cycles: 745989490 heartbeat IPC: 0.313907 cumulative IPC: 0.31703 (Simulation time: 0 hr 29 min 29 sec) 
Heartbeat CPU 0 instructions: 239000000 cycles: 749299310 heartbeat IPC: 0.302131 cumulative IPC: 0.316962 (Simulation time: 0 hr 29 min 37 sec) 
Heartbeat CPU 0 instructions: 240000001 cycles: 752522576 heartbeat IPC: 0.310245 cumulative IPC: 0.316932 (Simulation time: 0 hr 29 min 44 sec) 
Heartbeat CPU 0 instructions: 241000000 cycles: 755764452 heartbeat IPC: 0.308463 cumulative IPC: 0.316894 (Simulation time: 0 hr 29 min 52 sec) 
Heartbeat CPU 0 instructions: 242000000 cycles: 758817133 heartbeat IPC: 0.327581 cumulative IPC: 0.316939 (Simulation time: 0 hr 30 min 0 sec) 
Heartbeat CPU 0 instructions: 243000000 cycles: 761522045 heartbeat IPC: 0.369698 cumulative IPC: 0.317133 (Simulation time: 0 hr 30 min 8 sec) 
Heartbeat CPU 0 instructions: 244000000 cycles: 764414971 heartbeat IPC: 0.345671 cumulative IPC: 0.317245 (Simulation time: 0 hr 30 min 16 sec) 
Heartbeat CPU 0 instructions: 245000000 cycles: 767513118 heartbeat IPC: 0.322774 cumulative IPC: 0.317268 (Simulation time: 0 hr 30 min 23 sec) 
Heartbeat CPU 0 instructions: 246000003 cycles: 770602233 heartbeat IPC: 0.323718 cumulative IPC: 0.317295 (Simulation time: 0 hr 30 min 31 sec) 
Heartbeat CPU 0 instructions: 247000000 cycles: 773833186 heartbeat IPC: 0.309505 cumulative IPC: 0.317261 (Simulation time: 0 hr 30 min 39 sec) 
Heartbeat CPU 0 instructions: 248000003 cycles: 776860268 heartbeat IPC: 0.330352 cumulative IPC: 0.317314 (Simulation time: 0 hr 30 min 47 sec) 
Heartbeat CPU 0 instructions: 249000001 cycles: 780099565 heartbeat IPC: 0.308708 cumulative IPC: 0.317277 (Simulation time: 0 hr 30 min 54 sec) 
Heartbeat CPU 0 instructions: 250000000 cycles: 783102374 heartbeat IPC: 0.333021 cumulative IPC: 0.31734 (Simulation time: 0 hr 31 min 2 sec) 
Heartbeat CPU 0 instructions: 251000000 cycles: 786144207 heartbeat IPC: 0.328749 cumulative IPC: 0.317385 (Simulation time: 0 hr 31 min 9 sec) 
Heartbeat CPU 0 instructions: 252000000 cycles: 789431295 heartbeat IPC: 0.304221 cumulative IPC: 0.317329 (Simulation time: 0 hr 31 min 17 sec) 
Heartbeat CPU 0 instructions: 253000000 cycles: 792502118 heartbeat IPC: 0.325646 cumulative IPC: 0.317362 (Simulation time: 0 hr 31 min 25 sec) 
Heartbeat CPU 0 instructions: 254000003 cycles: 795769012 heartbeat IPC: 0.306102 cumulative IPC: 0.317314 (Simulation time: 0 hr 31 min 32 sec) 
Heartbeat CPU 0 instructions: 255000000 cycles: 798681363 heartbeat IPC: 0.343364 cumulative IPC: 0.317412 (Simulation time: 0 hr 31 min 39 sec) 
Heartbeat CPU 0 instructions: 256000000 cycles: 801358282 heartbeat IPC: 0.373564 cumulative IPC: 0.317606 (Simulation time: 0 hr 31 min 47 sec) 
Heartbeat CPU 0 instructions: 257000003 cycles: 804524647 heartbeat IPC: 0.315821 cumulative IPC: 0.317599 (Simulation time: 0 hr 31 min 54 sec) 
Heartbeat CPU 0 instructions: 258000000 cycles: 807732711 heartbeat IPC: 0.311714 cumulative IPC: 0.317575 (Simulation time: 0 hr 32 min 2 sec) 
Heartbeat CPU 0 instructions: 259000000 cycles: 810978915 heartbeat IPC: 0.308052 cumulative IPC: 0.317536 (Simulation time: 0 hr 32 min 9 sec) 
Heartbeat CPU 0 instructions: 260000001 cycles: 814030602 heartbeat IPC: 0.327688 cumulative IPC: 0.317575 (Simulation time: 0 hr 32 min 17 sec) 
Heartbeat CPU 0 instructions: 261000003 cycles: 817384934 heartbeat IPC: 0.298123 cumulative IPC: 0.317492 (Simulation time: 0 hr 32 min 25 sec) 
Heartbeat CPU 0 instructions: 262000000 cycles: 820427819 heartbeat IPC: 0.328635 cumulative IPC: 0.317535 (Simulation time: 0 hr 32 min 32 sec) 
Heartbeat CPU 0 instructions: 263000000 cycles: 823669059 heartbeat IPC: 0.308524 cumulative IPC: 0.317498 (Simulation time: 0 hr 32 min 40 sec) 
Heartbeat CPU 0 instructions: 264000000 cycles: 827020882 heartbeat IPC: 0.298345 cumulative IPC: 0.317418 (Simulation time: 0 hr 32 min 48 sec) 
Heartbeat CPU 0 instructions: 265000001 cycles: 829971464 heartbeat IPC: 0.338917 cumulative IPC: 0.317497 (Simulation time: 0 hr 32 min 55 sec) 
Heartbeat CPU 0 instructions: 266000000 cycles: 833049915 heartbeat IPC: 0.324838 cumulative IPC: 0.317525 (Simulation time: 0 hr 33 min 3 sec) 
Heartbeat CPU 0 instructions: 267000002 cycles: 836159977 heartbeat IPC: 0.321538 cumulative IPC: 0.317541 (Simulation time: 0 hr 33 min 10 sec) 
Heartbeat CPU 0 instructions: 268000000 cycles: 839291675 heartbeat IPC: 0.319315 cumulative IPC: 0.317547 (Simulation time: 0 hr 33 min 19 sec) 
Heartbeat CPU 0 instructions: 269000003 cycles: 842623099 heartbeat IPC: 0.300173 cumulative IPC: 0.317477 (Simulation time: 0 hr 33 min 28 sec) 
Heartbeat CPU 0 instructions: 270000000 cycles: 845653108 heartbeat IPC: 0.330031 cumulative IPC: 0.317523 (Simulation time: 0 hr 33 min 36 sec) 
Heartbeat CPU 0 instructions: 271000000 cycles: 849610054 heartbeat IPC: 0.25272 cumulative IPC: 0.317211 (Simulation time: 0 hr 33 min 45 sec) 
Heartbeat CPU 0 instructions: 272000002 cycles: 852722192 heartbeat IPC: 0.321323 cumulative IPC: 0.317227 (Simulation time: 0 hr 33 min 53 sec) 
Heartbeat CPU 0 instructions: 273000000 cycles: 856034165 heartbeat IPC: 0.301934 cumulative IPC: 0.317166 (Simulation time: 0 hr 34 min 2 sec) 
Heartbeat CPU 0 instructions: 274000002 cycles: 859484178 heartbeat IPC: 0.289855 cumulative IPC: 0.317053 (Simulation time: 0 hr 34 min 10 sec) 
Heartbeat CPU 0 instructions: 275000000 cycles: 862496882 heartbeat IPC: 0.331927 cumulative IPC: 0.317106 (Simulation time: 0 hr 34 min 18 sec) 
Heartbeat CPU 0 instructions: 276000000 cycles: 865712725 heartbeat IPC: 0.31096 cumulative IPC: 0.317083 (Simulation time: 0 hr 34 min 26 sec) 
Heartbeat CPU 0 instructions: 277000000 cycles: 868723264 heartbeat IPC: 0.332166 cumulative IPC: 0.317137 (Simulation time: 0 hr 34 min 34 sec) 
Heartbeat CPU 0 instructions: 278000000 cycles: 872083905 heartbeat IPC: 0.297562 cumulative IPC: 0.317059 (Simulation time: 0 hr 34 min 42 sec) 
Heartbeat CPU 0 instructions: 279000002 cycles: 875089918 heartbeat IPC: 0.332667 cumulative IPC: 0.317114 (Simulation time: 0 hr 34 min 50 sec) 
Heartbeat CPU 0 instructions: 280000000 cycles: 878272885 heartbeat IPC: 0.314172 cumulative IPC: 0.317103 (Simulation time: 0 hr 34 min 58 sec) 
Heartbeat CPU 0 instructions: 281000001 cycles: 881555720 heartbeat IPC: 0.304615 cumulative IPC: 0.317055 (Simulation time: 0 hr 35 min 6 sec) 
Heartbeat CPU 0 instructions: 282000002 cycles: 884694445 heartbeat IPC: 0.318601 cumulative IPC: 0.317061 (Simulation time: 0 hr 35 min 14 sec) 
Heartbeat CPU 0 instructions: 283000000 cycles: 887737916 heartbeat IPC: 0.328572 cumulative IPC: 0.317101 (Simulation time: 0 hr 35 min 22 sec) 
Heartbeat CPU 0 instructions: 284000000 cycles: 890669610 heartbeat IPC: 0.3411 cumulative IPC: 0.317183 (Simulation time: 0 hr 35 min 29 sec) 
Heartbeat CPU 0 instructions: 285000000 cycles: 893954531 heartbeat IPC: 0.304421 cumulative IPC: 0.317135 (Simulation time: 0 hr 35 min 37 sec) 
Heartbeat CPU 0 instructions: 286000000 cycles: 897051479 heartbeat IPC: 0.322899 cumulative IPC: 0.317155 (Simulation time: 0 hr 35 min 45 sec) 
Heartbeat CPU 0 instructions: 287000001 cycles: 900209869 heartbeat IPC: 0.316617 cumulative IPC: 0.317153 (Simulation time: 0 hr 35 min 53 sec) 
Heartbeat CPU 0 instructions: 288000001 cycles: 903379040 heartbeat IPC: 0.31554 cumulative IPC: 0.317147 (Simulation time: 0 hr 36 min 1 sec) 
Heartbeat CPU 0 instructions: 289000000 cycles: 906488172 heartbeat IPC: 0.321633 cumulative IPC: 0.317163 (Simulation time: 0 hr 36 min 9 sec) 
Heartbeat CPU 0 instructions: 290000003 cycles: 910217517 heartbeat IPC: 0.268144 cumulative IPC: 0.316956 (Simulation time: 0 hr 36 min 18 sec) 
Heartbeat CPU 0 instructions: 291000000 cycles: 912938257 heartbeat IPC: 0.367546 cumulative IPC: 0.317112 (Simulation time: 0 hr 36 min 26 sec) 
Heartbeat CPU 0 instructions: 292000000 cycles: 916021258 heartbeat IPC: 0.324359 cumulative IPC: 0.317137 (Simulation time: 0 hr 36 min 35 sec) 
Heartbeat CPU 0 instructions: 293000000 cycles: 919107081 heartbeat IPC: 0.324063 cumulative IPC: 0.317161 (Simulation time: 0 hr 36 min 43 sec) 
Heartbeat CPU 0 instructions: 294000000 cycles: 922228688 heartbeat IPC: 0.320348 cumulative IPC: 0.317172 (Simulation time: 0 hr 36 min 51 sec) 
Heartbeat CPU 0 instructions: 295000000 cycles: 925458178 heartbeat IPC: 0.309646 cumulative IPC: 0.317145 (Simulation time: 0 hr 36 min 59 sec) 
Heartbeat CPU 0 instructions: 296000001 cycles: 928776564 heartbeat IPC: 0.301352 cumulative IPC: 0.317087 (Simulation time: 0 hr 37 min 7 sec) 
Heartbeat CPU 0 instructions: 297000000 cycles: 931795121 heartbeat IPC: 0.331284 cumulative IPC: 0.317134 (Simulation time: 0 hr 37 min 15 sec) 
Heartbeat CPU 0 instructions: 298000001 cycles: 934896969 heartbeat IPC: 0.322389 cumulative IPC: 0.317152 (Simulation time: 0 hr 37 min 23 sec) 
Heartbeat CPU 0 instructions: 299000000 cycles: 937985025 heartbeat IPC: 0.323828 cumulative IPC: 0.317174 (Simulation time: 0 hr 37 min 31 sec) 
Heartbeat CPU 0 instructions: 300000000 cycles: 940849061 heartbeat IPC: 0.349158 cumulative IPC: 0.317275 (Simulation time: 0 hr 37 min 39 sec) 
Heartbeat CPU 0 instructions: 301000000 cycles: 944169360 heartbeat IPC: 0.301178 cumulative IPC: 0.317216 (Simulation time: 0 hr 37 min 47 sec) 
Heartbeat CPU 0 instructions: 302000002 cycles: 947047783 heartbeat IPC: 0.347413 cumulative IPC: 0.317311 (Simulation time: 0 hr 37 min 54 sec) 
Heartbeat CPU 0 instructions: 303000001 cycles: 950224995 heartbeat IPC: 0.314741 cumulative IPC: 0.317302 (Simulation time: 0 hr 38 min 2 sec) 
Heartbeat CPU 0 instructions: 304000001 cycles: 953418849 heartbeat IPC: 0.313101 cumulative IPC: 0.317288 (Simulation time: 0 hr 38 min 9 sec) 
Heartbeat CPU 0 instructions: 305000002 cycles: 956538089 heartbeat IPC: 0.320591 cumulative IPC: 0.317299 (Simulation time: 0 hr 38 min 17 sec) 
Heartbeat CPU 0 instructions: 306000000 cycles: 959653929 heartbeat IPC: 0.32094 cumulative IPC: 0.317311 (Simulation time: 0 hr 38 min 25 sec) 
Heartbeat CPU 0 instructions: 307000002 cycles: 962907129 heartbeat IPC: 0.30739 cumulative IPC: 0.317276 (Simulation time: 0 hr 38 min 33 sec) 
Heartbeat CPU 0 instructions: 308000000 cycles: 965951176 heartbeat IPC: 0.328509 cumulative IPC: 0.317313 (Simulation time: 0 hr 38 min 41 sec) 
Heartbeat CPU 0 instructions: 309000002 cycles: 969260027 heartbeat IPC: 0.30222 cumulative IPC: 0.31726 (Simulation time: 0 hr 38 min 48 sec) 
Heartbeat CPU 0 instructions: 310000000 cycles: 972908509 heartbeat IPC: 0.274086 cumulative IPC: 0.317093 (Simulation time: 0 hr 38 min 56 sec) 
Heartbeat CPU 0 instructions: 311000001 cycles: 976106208 heartbeat IPC: 0.312725 cumulative IPC: 0.317079 (Simulation time: 0 hr 39 min 4 sec) 
Heartbeat CPU 0 instructions: 312000000 cycles: 979087304 heartbeat IPC: 0.335447 cumulative IPC: 0.317136 (Simulation time: 0 hr 39 min 11 sec) 
Heartbeat CPU 0 instructions: 313000003 cycles: 982153105 heartbeat IPC: 0.32618 cumulative IPC: 0.317165 (Simulation time: 0 hr 39 min 19 sec) 
Heartbeat CPU 0 instructions: 314000001 cycles: 985470731 heartbeat IPC: 0.30142 cumulative IPC: 0.317111 (Simulation time: 0 hr 39 min 27 sec) 
Heartbeat CPU 0 instructions: 315000000 cycles: 988521646 heartbeat IPC: 0.32777 cumulative IPC: 0.317144 (Simulation time: 0 hr 39 min 34 sec) 
Heartbeat CPU 0 instructions: 316000000 cycles: 991611650 heartbeat IPC: 0.323624 cumulative IPC: 0.317165 (Simulation time: 0 hr 39 min 41 sec) 
Heartbeat CPU 0 instructions: 317000001 cycles: 994776342 heartbeat IPC: 0.315987 cumulative IPC: 0.317161 (Simulation time: 0 hr 39 min 49 sec) 
Heartbeat CPU 0 instructions: 318000003 cycles: 998038005 heartbeat IPC: 0.306593 cumulative IPC: 0.317126 (Simulation time: 0 hr 39 min 57 sec) 
Heartbeat CPU 0 instructions: 319000000 cycles: 1001166170 heartbeat IPC: 0.319675 cumulative IPC: 0.317134 (Simulation time: 0 hr 40 min 4 sec) 
Heartbeat CPU 0 instructions: 320000000 cycles: 1004408427 heartbeat IPC: 0.308427 cumulative IPC: 0.317105 (Simulation time: 0 hr 40 min 12 sec) 
Heartbeat CPU 0 instructions: 321000000 cycles: 1007525745 heartbeat IPC: 0.320789 cumulative IPC: 0.317117 (Simulation time: 0 hr 40 min 19 sec) 
Heartbeat CPU 0 instructions: 322000001 cycles: 1010691616 heartbeat IPC: 0.315869 cumulative IPC: 0.317113 (Simulation time: 0 hr 40 min 27 sec) 
Heartbeat CPU 0 instructions: 323000000 cycles: 1013913214 heartbeat IPC: 0.310405 cumulative IPC: 0.317091 (Simulation time: 0 hr 40 min 34 sec) 
Heartbeat CPU 0 instructions: 324000001 cycles: 1016927677 heartbeat IPC: 0.331734 cumulative IPC: 0.317136 (Simulation time: 0 hr 40 min 41 sec) 
Heartbeat CPU 0 instructions: 325000002 cycles: 1020065717 heartbeat IPC: 0.318671 cumulative IPC: 0.31714 (Simulation time: 0 hr 40 min 49 sec) 
Heartbeat CPU 0 instructions: 326000003 cycles: 1023192595 heartbeat IPC: 0.319808 cumulative IPC: 0.317149 (Simulation time: 0 hr 40 min 57 sec) 
Heartbeat CPU 0 instructions: 327000000 cycles: 1026449437 heartbeat IPC: 0.307045 cumulative IPC: 0.317116 (Simulation time: 0 hr 41 min 5 sec) 
Heartbeat CPU 0 instructions: 328000001 cycles: 1029704934 heartbeat IPC: 0.307173 cumulative IPC: 0.317084 (Simulation time: 0 hr 41 min 13 sec) 
Heartbeat CPU 0 instructions: 329000002 cycles: 1033076727 heartbeat IPC: 0.296578 cumulative IPC: 0.317015 (Simulation time: 0 hr 41 min 21 sec) 
Heartbeat CPU 0 instructions: 330000000 cycles: 1035614775 heartbeat IPC: 0.394003 cumulative IPC: 0.317209 (Simulation time: 0 hr 41 min 28 sec) 
Heartbeat CPU 0 instructions: 331000000 cycles: 1038129264 heartbeat IPC: 0.397695 cumulative IPC: 0.317409 (Simulation time: 0 hr 41 min 36 sec) 
Heartbeat CPU 0 instructions: 332000000 cycles: 1041317112 heartbeat IPC: 0.313691 cumulative IPC: 0.317397 (Simulation time: 0 hr 41 min 44 sec) 
Heartbeat CPU 0 instructions: 333000001 cycles: 1044529560 heartbeat IPC: 0.311289 cumulative IPC: 0.317378 (Simulation time: 0 hr 41 min 52 sec) 
Heartbeat CPU 0 instructions: 334000003 cycles: 1047249987 heartbeat IPC: 0.36759 cumulative IPC: 0.317512 (Simulation time: 0 hr 42 min 0 sec) 
Heartbeat CPU 0 instructions: 335000000 cycles: 1049911616 heartbeat IPC: 0.375709 cumulative IPC: 0.317663 (Simulation time: 0 hr 42 min 7 sec) 
Heartbeat CPU 0 instructions: 336000003 cycles: 1052652583 heartbeat IPC: 0.364836 cumulative IPC: 0.317789 (Simulation time: 0 hr 42 min 15 sec) 
Heartbeat CPU 0 instructions: 337000000 cycles: 1055606647 heartbeat IPC: 0.338516 cumulative IPC: 0.317849 (Simulation time: 0 hr 42 min 22 sec) 
Heartbeat CPU 0 instructions: 338000000 cycles: 1058797800 heartbeat IPC: 0.313366 cumulative IPC: 0.317835 (Simulation time: 0 hr 42 min 30 sec) 
Heartbeat CPU 0 instructions: 339000002 cycles: 1061926082 heartbeat IPC: 0.319665 cumulative IPC: 0.31784 (Simulation time: 0 hr 42 min 38 sec) 
Heartbeat CPU 0 instructions: 340000000 cycles: 1065033751 heartbeat IPC: 0.321784 cumulative IPC: 0.317852 (Simulation time: 0 hr 42 min 46 sec) 
Heartbeat CPU 0 instructions: 341000000 cycles: 1068206305 heartbeat IPC: 0.315203 cumulative IPC: 0.317844 (Simulation time: 0 hr 42 min 54 sec) 
Heartbeat CPU 0 instructions: 342000003 cycles: 1071418660 heartbeat IPC: 0.311299 cumulative IPC: 0.317824 (Simulation time: 0 hr 43 min 2 sec) 
Heartbeat CPU 0 instructions: 343000002 cycles: 1074334225 heartbeat IPC: 0.342986 cumulative IPC: 0.317894 (Simulation time: 0 hr 43 min 9 sec) 
Heartbeat CPU 0 instructions: 344000003 cycles: 1077634385 heartbeat IPC: 0.303016 cumulative IPC: 0.317847 (Simulation time: 0 hr 43 min 17 sec) 
Heartbeat CPU 0 instructions: 345000001 cycles: 1080674608 heartbeat IPC: 0.328923 cumulative IPC: 0.317879 (Simulation time: 0 hr 43 min 25 sec) 
Heartbeat CPU 0 instructions: 346000000 cycles: 1083897532 heartbeat IPC: 0.310277 cumulative IPC: 0.317856 (Simulation time: 0 hr 43 min 33 sec) 
Heartbeat CPU 0 instructions: 347000000 cycles: 1087039754 heartbeat IPC: 0.318246 cumulative IPC: 0.317857 (Simulation time: 0 hr 43 min 42 sec) 
Heartbeat CPU 0 instructions: 348000002 cycles: 1090167213 heartbeat IPC: 0.319749 cumulative IPC: 0.317863 (Simulation time: 0 hr 43 min 50 sec) 
Heartbeat CPU 0 instructions: 349000000 cycles: 1093464307 heartbeat IPC: 0.303297 cumulative IPC: 0.317818 (Simulation time: 0 hr 43 min 58 sec) 
Heartbeat CPU 0 instructions: 350000001 cycles: 1096615572 heartbeat IPC: 0.317333 cumulative IPC: 0.317816 (Simulation time: 0 hr 44 min 6 sec) 
Heartbeat CPU 0 instructions: 351000003 cycles: 1099521686 heartbeat IPC: 0.344103 cumulative IPC: 0.317887 (Simulation time: 0 hr 44 min 14 sec) 
Heartbeat CPU 0 instructions: 352000000 cycles: 1102688550 heartbeat IPC: 0.315769 cumulative IPC: 0.317881 (Simulation time: 0 hr 44 min 22 sec) 
Heartbeat CPU 0 instructions: 353000000 cycles: 1105789872 heartbeat IPC: 0.322443 cumulative IPC: 0.317894 (Simulation time: 0 hr 44 min 30 sec) 
Heartbeat CPU 0 instructions: 354000002 cycles: 1108924420 heartbeat IPC: 0.319026 cumulative IPC: 0.317898 (Simulation time: 0 hr 44 min 38 sec) 
Heartbeat CPU 0 instructions: 355000000 cycles: 1111983875 heartbeat IPC: 0.326855 cumulative IPC: 0.317923 (Simulation time: 0 hr 44 min 46 sec) 
Heartbeat CPU 0 instructions: 356000001 cycles: 1115357371 heartbeat IPC: 0.296429 cumulative IPC: 0.317856 (Simulation time: 0 hr 44 min 54 sec) 
Heartbeat CPU 0 instructions: 357000002 cycles: 1118422952 heartbeat IPC: 0.326203 cumulative IPC: 0.31788 (Simulation time: 0 hr 45 min 2 sec) 
Heartbeat CPU 0 instructions: 358000002 cycles: 1121508158 heartbeat IPC: 0.324127 cumulative IPC: 0.317897 (Simulation time: 0 hr 45 min 9 sec) 
Heartbeat CPU 0 instructions: 359000000 cycles: 1124641961 heartbeat IPC: 0.3191 cumulative IPC: 0.317901 (Simulation time: 0 hr 45 min 17 sec) 
Heartbeat CPU 0 instructions: 360000001 cycles: 1127805703 heartbeat IPC: 0.316082 cumulative IPC: 0.317895 (Simulation time: 0 hr 45 min 25 sec) 
Heartbeat CPU 0 instructions: 361000001 cycles: 1130891919 heartbeat IPC: 0.324021 cumulative IPC: 0.317913 (Simulation time: 0 hr 45 min 33 sec) 
Heartbeat CPU 0 instructions: 362000000 cycles: 1134114520 heartbeat IPC: 0.310308 cumulative IPC: 0.31789 (Simulation time: 0 hr 45 min 41 sec) 
Heartbeat CPU 0 instructions: 363000000 cycles: 1137317607 heartbeat IPC: 0.312199 cumulative IPC: 0.317874 (Simulation time: 0 hr 45 min 48 sec) 
Heartbeat CPU 0 instructions: 364000000 cycles: 1140358857 heartbeat IPC: 0.328812 cumulative IPC: 0.317904 (Simulation time: 0 hr 45 min 55 sec) 
Heartbeat CPU 0 instructions: 365000000 cycles: 1143418122 heartbeat IPC: 0.326876 cumulative IPC: 0.317928 (Simulation time: 0 hr 46 min 2 sec) 
Heartbeat CPU 0 instructions: 366000003 cycles: 1146595857 heartbeat IPC: 0.314691 cumulative IPC: 0.317919 (Simulation time: 0 hr 46 min 10 sec) 
Heartbeat CPU 0 instructions: 367000000 cycles: 1149756129 heartbeat IPC: 0.316427 cumulative IPC: 0.317915 (Simulation time: 0 hr 46 min 17 sec) 
Heartbeat CPU 0 instructions: 368000001 cycles: 1153018732 heartbeat IPC: 0.306504 cumulative IPC: 0.317882 (Simulation time: 0 hr 46 min 25 sec) 
Heartbeat CPU 0 instructions: 369000000 cycles: 1156060687 heartbeat IPC: 0.328736 cumulative IPC: 0.317911 (Simulation time: 0 hr 46 min 33 sec) 
Heartbeat CPU 0 instructions: 370000003 cycles: 1159114969 heartbeat IPC: 0.32741 cumulative IPC: 0.317937 (Simulation time: 0 hr 46 min 40 sec) 
Heartbeat CPU 0 instructions: 371000002 cycles: 1162275024 heartbeat IPC: 0.31645 cumulative IPC: 0.317933 (Simulation time: 0 hr 46 min 48 sec) 
Heartbeat CPU 0 instructions: 372000000 cycles: 1165336541 heartbeat IPC: 0.326635 cumulative IPC: 0.317956 (Simulation time: 0 hr 46 min 55 sec) 
Heartbeat CPU 0 instructions: 373000003 cycles: 1168520024 heartbeat IPC: 0.314122 cumulative IPC: 0.317945 (Simulation time: 0 hr 47 min 2 sec) 
Heartbeat CPU 0 instructions: 374000000 cycles: 1171621521 heartbeat IPC: 0.322424 cumulative IPC: 0.317958 (Simulation time: 0 hr 47 min 11 sec) 
Heartbeat CPU 0 instructions: 375000000 cycles: 1174893050 heartbeat IPC: 0.305667 cumulative IPC: 0.317923 (Simulation time: 0 hr 47 min 19 sec) 
Heartbeat CPU 0 instructions: 376000000 cycles: 1177848171 heartbeat IPC: 0.338396 cumulative IPC: 0.317975 (Simulation time: 0 hr 47 min 27 sec) 
Heartbeat CPU 0 instructions: 377000001 cycles: 1180945662 heartbeat IPC: 0.322842 cumulative IPC: 0.317988 (Simulation time: 0 hr 47 min 35 sec) 
Heartbeat CPU 0 instructions: 378000003 cycles: 1184127634 heartbeat IPC: 0.314271 cumulative IPC: 0.317978 (Simulation time: 0 hr 47 min 43 sec) 
Heartbeat CPU 0 instructions: 379000002 cycles: 1187252399 heartbeat IPC: 0.320024 cumulative IPC: 0.317983 (Simulation time: 0 hr 47 min 51 sec) 
Heartbeat CPU 0 instructions: 380000000 cycles: 1190369759 heartbeat IPC: 0.320784 cumulative IPC: 0.317991 (Simulation time: 0 hr 47 min 58 sec) 
Heartbeat CPU 0 instructions: 381000001 cycles: 1193511980 heartbeat IPC: 0.318247 cumulative IPC: 0.317992 (Simulation time: 0 hr 48 min 6 sec) 
Heartbeat CPU 0 instructions: 382000003 cycles: 1196688213 heartbeat IPC: 0.314839 cumulative IPC: 0.317983 (Simulation time: 0 hr 48 min 14 sec) 
Heartbeat CPU 0 instructions: 383000000 cycles: 1199780881 heartbeat IPC: 0.323344 cumulative IPC: 0.317997 (Simulation time: 0 hr 48 min 22 sec) 
Heartbeat CPU 0 instructions: 384000001 cycles: 1202848597 heartbeat IPC: 0.325976 cumulative IPC: 0.318018 (Simulation time: 0 hr 48 min 29 sec) 
Heartbeat CPU 0 instructions: 385000000 cycles: 1206090613 heartbeat IPC: 0.30845 cumulative IPC: 0.317992 (Simulation time: 0 hr 48 min 37 sec) 
Heartbeat CPU 0 instructions: 386000000 cycles: 1209306543 heartbeat IPC: 0.310952 cumulative IPC: 0.317973 (Simulation time: 0 hr 48 min 45 sec) 
Heartbeat CPU 0 instructions: 387000000 cycles: 1212283824 heartbeat IPC: 0.335877 cumulative IPC: 0.318018 (Simulation time: 0 hr 48 min 53 sec) 
Heartbeat CPU 0 instructions: 388000000 cycles: 1215603544 heartbeat IPC: 0.30123 cumulative IPC: 0.317971 (Simulation time: 0 hr 49 min 0 sec) 
Heartbeat CPU 0 instructions: 389000000 cycles: 1218516659 heartbeat IPC: 0.343275 cumulative IPC: 0.318033 (Simulation time: 0 hr 49 min 9 sec) 
Heartbeat CPU 0 instructions: 390000000 cycles: 1221642535 heartbeat IPC: 0.31991 cumulative IPC: 0.318037 (Simulation time: 0 hr 49 min 17 sec) 
Heartbeat CPU 0 instructions: 391000003 cycles: 1224813488 heartbeat IPC: 0.315364 cumulative IPC: 0.31803 (Simulation time: 0 hr 49 min 25 sec) 
Heartbeat CPU 0 instructions: 392000002 cycles: 1228058096 heartbeat IPC: 0.308203 cumulative IPC: 0.318004 (Simulation time: 0 hr 49 min 34 sec) 
Heartbeat CPU 0 instructions: 393000000 cycles: 1230979989 heartbeat IPC: 0.342243 cumulative IPC: 0.318063 (Simulation time: 0 hr 49 min 42 sec) 
Heartbeat CPU 0 instructions: 394000000 cycles: 1234091567 heartbeat IPC: 0.32138 cumulative IPC: 0.318071 (Simulation time: 0 hr 49 min 51 sec) 
Heartbeat CPU 0 instructions: 395000002 cycles: 1237122440 heartbeat IPC: 0.329939 cumulative IPC: 0.318101 (Simulation time: 0 hr 50 min 1 sec) 
Heartbeat CPU 0 instructions: 396000000 cycles: 1240262521 heartbeat IPC: 0.318462 cumulative IPC: 0.318102 (Simulation time: 0 hr 50 min 9 sec) 
Heartbeat CPU 0 instructions: 397000000 cycles: 1243431840 heartbeat IPC: 0.315525 cumulative IPC: 0.318095 (Simulation time: 0 hr 50 min 18 sec) 
Heartbeat CPU 0 instructions: 398000001 cycles: 1246611600 heartbeat IPC: 0.314489 cumulative IPC: 0.318086 (Simulation time: 0 hr 50 min 27 sec) 
Heartbeat CPU 0 instructions: 399000001 cycles: 1249713007 heartbeat IPC: 0.322434 cumulative IPC: 0.318097 (Simulation time: 0 hr 50 min 36 sec) 
Heartbeat CPU 0 instructions: 400000001 cycles: 1252841318 heartbeat IPC: 0.319661 cumulative IPC: 0.318101 (Simulation time: 0 hr 50 min 44 sec) 
Heartbeat CPU 0 instructions: 401000002 cycles: 1256050849 heartbeat IPC: 0.311572 cumulative IPC: 0.318084 (Simulation time: 0 hr 50 min 52 sec) 
Heartbeat CPU 0 instructions: 402000002 cycles: 1259436906 heartbeat IPC: 0.295329 cumulative IPC: 0.318021 (Simulation time: 0 hr 51 min 1 sec) 
Heartbeat CPU 0 instructions: 403000000 cycles: 1262436988 heartbeat IPC: 0.333324 cumulative IPC: 0.318058 (Simulation time: 0 hr 51 min 11 sec) 
Heartbeat CPU 0 instructions: 404000001 cycles: 1265670837 heartbeat IPC: 0.309229 cumulative IPC: 0.318035 (Simulation time: 0 hr 51 min 20 sec) 
Heartbeat CPU 0 instructions: 405000000 cycles: 1268848070 heartbeat IPC: 0.314739 cumulative IPC: 0.318027 (Simulation time: 0 hr 51 min 29 sec) 
Heartbeat CPU 0 instructions: 406000001 cycles: 1271972238 heartbeat IPC: 0.320086 cumulative IPC: 0.318032 (Simulation time: 0 hr 51 min 38 sec) 
Heartbeat CPU 0 instructions: 407000000 cycles: 1275139026 heartbeat IPC: 0.315777 cumulative IPC: 0.318026 (Simulation time: 0 hr 51 min 47 sec) 
Heartbeat CPU 0 instructions: 408000000 cycles: 1278636034 heartbeat IPC: 0.285959 cumulative IPC: 0.317937 (Simulation time: 0 hr 51 min 56 sec) 
Heartbeat CPU 0 instructions: 409000000 cycles: 1281327319 heartbeat IPC: 0.37157 cumulative IPC: 0.318052 (Simulation time: 0 hr 52 min 4 sec) 
Heartbeat CPU 0 instructions: 410000001 cycles: 1283751050 heartbeat IPC: 0.412587 cumulative IPC: 0.318234 (Simulation time: 0 hr 52 min 12 sec) 
Heartbeat CPU 0 instructions: 411000000 cycles: 1286969400 heartbeat IPC: 0.310718 cumulative IPC: 0.318215 (Simulation time: 0 hr 52 min 22 sec) 
Heartbeat CPU 0 instructions: 412000002 cycles: 1290618073 heartbeat IPC: 0.274073 cumulative IPC: 0.318087 (Simulation time: 0 hr 52 min 31 sec) 
Heartbeat CPU 0 instructions: 413000002 cycles: 1293320190 heartbeat IPC: 0.37008 cumulative IPC: 0.318198 (Simulation time: 0 hr 52 min 39 sec) 
Heartbeat CPU 0 instructions: 414000002 cycles: 1296456848 heartbeat IPC: 0.318811 cumulative IPC: 0.3182 (Simulation time: 0 hr 52 min 48 sec) 
Heartbeat CPU 0 instructions: 415000002 cycles: 1299301919 heartbeat IPC: 0.351485 cumulative IPC: 0.318274 (Simulation time: 0 hr 52 min 55 sec) 
Heartbeat CPU 0 instructions: 416000000 cycles: 1302424728 heartbeat IPC: 0.320224 cumulative IPC: 0.318279 (Simulation time: 0 hr 53 min 3 sec) 
Heartbeat CPU 0 instructions: 417000002 cycles: 1305584176 heartbeat IPC: 0.316512 cumulative IPC: 0.318275 (Simulation time: 0 hr 53 min 11 sec) 
Heartbeat CPU 0 instructions: 418000000 cycles: 1308716334 heartbeat IPC: 0.319268 cumulative IPC: 0.318277 (Simulation time: 0 hr 53 min 19 sec) 
Heartbeat CPU 0 instructions: 419000000 cycles: 1311920710 heartbeat IPC: 0.312073 cumulative IPC: 0.318262 (Simulation time: 0 hr 53 min 27 sec) 
Heartbeat CPU 0 instructions: 420000002 cycles: 1314949320 heartbeat IPC: 0.330185 cumulative IPC: 0.31829 (Simulation time: 0 hr 53 min 34 sec) 
Heartbeat CPU 0 instructions: 421000001 cycles: 1318137263 heartbeat IPC: 0.313682 cumulative IPC: 0.318278 (Simulation time: 0 hr 53 min 42 sec) 
Heartbeat CPU 0 instructions: 422000000 cycles: 1321317653 heartbeat IPC: 0.314427 cumulative IPC: 0.318269 (Simulation time: 0 hr 53 min 49 sec) 
Heartbeat CPU 0 instructions: 423000003 cycles: 1324500086 heartbeat IPC: 0.314226 cumulative IPC: 0.318259 (Simulation time: 0 hr 53 min 57 sec) 
Heartbeat CPU 0 instructions: 424000001 cycles: 1327494642 heartbeat IPC: 0.333939 cumulative IPC: 0.318295 (Simulation time: 0 hr 54 min 4 sec) 
Heartbeat CPU 0 instructions: 425000001 cycles: 1330667133 heartbeat IPC: 0.31521 cumulative IPC: 0.318288 (Simulation time: 0 hr 54 min 12 sec) 
Heartbeat CPU 0 instructions: 426000000 cycles: 1333778249 heartbeat IPC: 0.321428 cumulative IPC: 0.318295 (Simulation time: 0 hr 54 min 19 sec) 
Heartbeat CPU 0 instructions: 427000000 cycles: 1337181922 heartbeat IPC: 0.2938 cumulative IPC: 0.318231 (Simulation time: 0 hr 54 min 27 sec) 
Heartbeat CPU 0 instructions: 428000001 cycles: 1340206088 heartbeat IPC: 0.33067 cumulative IPC: 0.31826 (Simulation time: 0 hr 54 min 35 sec) 
Heartbeat CPU 0 instructions: 429000000 cycles: 1343621055 heartbeat IPC: 0.292828 cumulative IPC: 0.318194 (Simulation time: 0 hr 54 min 43 sec) 
Heartbeat CPU 0 instructions: 430000000 cycles: 1346460813 heartbeat IPC: 0.352143 cumulative IPC: 0.318267 (Simulation time: 0 hr 54 min 50 sec) 
Heartbeat CPU 0 instructions: 431000000 cycles: 1349709238 heartbeat IPC: 0.307841 cumulative IPC: 0.318242 (Simulation time: 0 hr 54 min 58 sec) 
Heartbeat CPU 0 instructions: 432000001 cycles: 1352630490 heartbeat IPC: 0.342319 cumulative IPC: 0.318295 (Simulation time: 0 hr 55 min 5 sec) 
Heartbeat CPU 0 instructions: 433000002 cycles: 1355789154 heartbeat IPC: 0.31659 cumulative IPC: 0.318291 (Simulation time: 0 hr 55 min 13 sec) 
Heartbeat CPU 0 instructions: 434000000 cycles: 1359148727 heartbeat IPC: 0.297656 cumulative IPC: 0.318238 (Simulation time: 0 hr 55 min 21 sec) 
Heartbeat CPU 0 instructions: 435000000 cycles: 1362344399 heartbeat IPC: 0.312923 cumulative IPC: 0.318226 (Simulation time: 0 hr 55 min 29 sec) 
Heartbeat CPU 0 instructions: 436000003 cycles: 1365416579 heartbeat IPC: 0.325503 cumulative IPC: 0.318242 (Simulation time: 0 hr 55 min 37 sec) 
Heartbeat CPU 0 instructions: 437000001 cycles: 1368186055 heartbeat IPC: 0.361078 cumulative IPC: 0.318331 (Simulation time: 0 hr 55 min 44 sec) 
Heartbeat CPU 0 instructions: 438000001 cycles: 1371387245 heartbeat IPC: 0.312384 cumulative IPC: 0.318317 (Simulation time: 0 hr 55 min 52 sec) 
Heartbeat CPU 0 instructions: 439000003 cycles: 1374863705 heartbeat IPC: 0.28765 cumulative IPC: 0.318238 (Simulation time: 0 hr 56 min 0 sec) 
Heartbeat CPU 0 instructions: 440000000 cycles: 1378096361 heartbeat IPC: 0.309342 cumulative IPC: 0.318216 (Simulation time: 0 hr 56 min 8 sec) 
Heartbeat CPU 0 instructions: 441000000 cycles: 1381274846 heartbeat IPC: 0.314615 cumulative IPC: 0.318208 (Simulation time: 0 hr 56 min 15 sec) 
Heartbeat CPU 0 instructions: 442000000 cycles: 1384494482 heartbeat IPC: 0.310594 cumulative IPC: 0.31819 (Simulation time: 0 hr 56 min 23 sec) 
Heartbeat CPU 0 instructions: 443000003 cycles: 1387659760 heartbeat IPC: 0.315929 cumulative IPC: 0.318185 (Simulation time: 0 hr 56 min 30 sec) 
Heartbeat CPU 0 instructions: 444000001 cycles: 1390802336 heartbeat IPC: 0.31821 cumulative IPC: 0.318185 (Simulation time: 0 hr 56 min 38 sec) 
Heartbeat CPU 0 instructions: 445000001 cycles: 1393782736 heartbeat IPC: 0.335525 cumulative IPC: 0.318222 (Simulation time: 0 hr 56 min 45 sec) 
Heartbeat CPU 0 instructions: 446000000 cycles: 1396980681 heartbeat IPC: 0.312701 cumulative IPC: 0.31821 (Simulation time: 0 hr 56 min 53 sec) 
Heartbeat CPU 0 instructions: 447000001 cycles: 1400241122 heartbeat IPC: 0.306707 cumulative IPC: 0.318182 (Simulation time: 0 hr 57 min 0 sec) 
Heartbeat CPU 0 instructions: 448000000 cycles: 1403399592 heartbeat IPC: 0.316609 cumulative IPC: 0.318179 (Simulation time: 0 hr 57 min 7 sec) 
Heartbeat CPU 0 instructions: 449000001 cycles: 1406493165 heartbeat IPC: 0.323251 cumulative IPC: 0.31819 (Simulation time: 0 hr 57 min 15 sec) 
Heartbeat CPU 0 instructions: 450000002 cycles: 1409603880 heartbeat IPC: 0.32147 cumulative IPC: 0.318197 (Simulation time: 0 hr 57 min 22 sec) 
Heartbeat CPU 0 instructions: 451000000 cycles: 1412629270 heartbeat IPC: 0.330535 cumulative IPC: 0.318224 (Simulation time: 0 hr 57 min 30 sec) 
Heartbeat CPU 0 instructions: 452000002 cycles: 1415995595 heartbeat IPC: 0.29706 cumulative IPC: 0.318173 (Simulation time: 0 hr 57 min 37 sec) 
Heartbeat CPU 0 instructions: 453000002 cycles: 1419097839 heartbeat IPC: 0.322347 cumulative IPC: 0.318182 (Simulation time: 0 hr 57 min 45 sec) 
Heartbeat CPU 0 instructions: 454000003 cycles: 1422217582 heartbeat IPC: 0.32054 cumulative IPC: 0.318188 (Simulation time: 0 hr 57 min 53 sec) 
Heartbeat CPU 0 instructions: 455000001 cycles: 1425378018 heartbeat IPC: 0.316411 cumulative IPC: 0.318184 (Simulation time: 0 hr 58 min 0 sec) 
Heartbeat CPU 0 instructions: 456000001 cycles: 1428449342 heartbeat IPC: 0.325592 cumulative IPC: 0.3182 (Simulation time: 0 hr 58 min 8 sec) 
Heartbeat CPU 0 instructions: 457000001 cycles: 1431526453 heartbeat IPC: 0.32498 cumulative IPC: 0.318215 (Simulation time: 0 hr 58 min 15 sec) 
Heartbeat CPU 0 instructions: 458000000 cycles: 1434673669 heartbeat IPC: 0.317741 cumulative IPC: 0.318214 (Simulation time: 0 hr 58 min 23 sec) 
Heartbeat CPU 0 instructions: 459000001 cycles: 1437910477 heartbeat IPC: 0.308947 cumulative IPC: 0.318192 (Simulation time: 0 hr 58 min 30 sec) 
Heartbeat CPU 0 instructions: 460000000 cycles: 1441111083 heartbeat IPC: 0.312441 cumulative IPC: 0.318179 (Simulation time: 0 hr 58 min 38 sec) 
Heartbeat CPU 0 instructions: 461000000 cycles: 1444281938 heartbeat IPC: 0.315372 cumulative IPC: 0.318173 (Simulation time: 0 hr 58 min 46 sec) 
Heartbeat CPU 0 instructions: 462000000 cycles: 1447700657 heartbeat IPC: 0.292507 cumulative IPC: 0.318111 (Simulation time: 0 hr 58 min 53 sec) 
Heartbeat CPU 0 instructions: 463000000 cycles: 1450535163 heartbeat IPC: 0.352795 cumulative IPC: 0.31818 (Simulation time: 0 hr 59 min 0 sec) 
Heartbeat CPU 0 instructions: 464000000 cycles: 1453771433 heartbeat IPC: 0.308998 cumulative IPC: 0.31816 (Simulation time: 0 hr 59 min 8 sec) 
Heartbeat CPU 0 instructions: 465000002 cycles: 1456882380 heartbeat IPC: 0.321446 cumulative IPC: 0.318167 (Simulation time: 0 hr 59 min 15 sec) 
Heartbeat CPU 0 instructions: 466000000 cycles: 1459992971 heartbeat IPC: 0.321482 cumulative IPC: 0.318174 (Simulation time: 0 hr 59 min 23 sec) 
Heartbeat CPU 0 instructions: 467000000 cycles: 1463078599 heartbeat IPC: 0.324083 cumulative IPC: 0.318187 (Simulation time: 0 hr 59 min 30 sec) 
Heartbeat CPU 0 instructions: 468000003 cycles: 1466308587 heartbeat IPC: 0.3096 cumulative IPC: 0.318167 (Simulation time: 0 hr 59 min 37 sec) 
Heartbeat CPU 0 instructions: 469000003 cycles: 1469572709 heartbeat IPC: 0.306361 cumulative IPC: 0.318141 (Simulation time: 0 hr 59 min 45 sec) 
Heartbeat CPU 0 instructions: 470000001 cycles: 1472618489 heartbeat IPC: 0.328322 cumulative IPC: 0.318162 (Simulation time: 0 hr 59 min 53 sec) 
Heartbeat CPU 0 instructions: 471000002 cycles: 1475691413 heartbeat IPC: 0.325423 cumulative IPC: 0.318178 (Simulation time: 1 hr 0 min 1 sec) 
Heartbeat CPU 0 instructions: 472000000 cycles: 1478865274 heartbeat IPC: 0.315073 cumulative IPC: 0.318171 (Simulation time: 1 hr 0 min 8 sec) 
Heartbeat CPU 0 instructions: 473000000 cycles: 1481990661 heartbeat IPC: 0.31996 cumulative IPC: 0.318175 (Simulation time: 1 hr 0 min 16 sec) 
Heartbeat CPU 0 instructions: 474000001 cycles: 1485353915 heartbeat IPC: 0.297331 cumulative IPC: 0.318126 (Simulation time: 1 hr 0 min 24 sec) 
Heartbeat CPU 0 instructions: 475000001 cycles: 1488270786 heartbeat IPC: 0.342833 cumulative IPC: 0.318176 (Simulation time: 1 hr 0 min 32 sec) 
Heartbeat CPU 0 instructions: 476000001 cycles: 1491513075 heartbeat IPC: 0.308424 cumulative IPC: 0.318154 (Simulation time: 1 hr 0 min 40 sec) 
Heartbeat CPU 0 instructions: 477000002 cycles: 1494484528 heartbeat IPC: 0.336536 cumulative IPC: 0.318191 (Simulation time: 1 hr 0 min 48 sec) 
Heartbeat CPU 0 instructions: 478000001 cycles: 1497687048 heartbeat IPC: 0.312254 cumulative IPC: 0.318179 (Simulation time: 1 hr 0 min 55 sec) 
Heartbeat CPU 0 instructions: 479000000 cycles: 1500883938 heartbeat IPC: 0.312804 cumulative IPC: 0.318167 (Simulation time: 1 hr 1 min 3 sec) 
Heartbeat CPU 0 instructions: 480000003 cycles: 1504082914 heartbeat IPC: 0.312601 cumulative IPC: 0.318155 (Simulation time: 1 hr 1 min 11 sec) 
Heartbeat CPU 0 instructions: 481000000 cycles: 1507371835 heartbeat IPC: 0.30405 cumulative IPC: 0.318123 (Simulation time: 1 hr 1 min 19 sec) 
Heartbeat CPU 0 instructions: 482000003 cycles: 1510603521 heartbeat IPC: 0.309437 cumulative IPC: 0.318105 (Simulation time: 1 hr 1 min 27 sec) 
Heartbeat CPU 0 instructions: 483000001 cycles: 1513963714 heartbeat IPC: 0.297601 cumulative IPC: 0.318058 (Simulation time: 1 hr 1 min 35 sec) 
Heartbeat CPU 0 instructions: 484000000 cycles: 1517050615 heartbeat IPC: 0.323949 cumulative IPC: 0.31807 (Simulation time: 1 hr 1 min 43 sec) 
Heartbeat CPU 0 instructions: 485000000 cycles: 1520452309 heartbeat IPC: 0.293971 cumulative IPC: 0.318016 (Simulation time: 1 hr 1 min 51 sec) 
Heartbeat CPU 0 instructions: 486000000 cycles: 1523697080 heartbeat IPC: 0.308188 cumulative IPC: 0.317994 (Simulation time: 1 hr 1 min 59 sec) 
Heartbeat CPU 0 instructions: 487000000 cycles: 1526660678 heartbeat IPC: 0.337428 cumulative IPC: 0.318033 (Simulation time: 1 hr 2 min 7 sec) 
Heartbeat CPU 0 instructions: 488000002 cycles: 1529851416 heartbeat IPC: 0.313408 cumulative IPC: 0.318023 (Simulation time: 1 hr 2 min 15 sec) 
Heartbeat CPU 0 instructions: 489000003 cycles: 1533371340 heartbeat IPC: 0.284097 cumulative IPC: 0.317944 (Simulation time: 1 hr 2 min 23 sec) 
Heartbeat CPU 0 instructions: 490000001 cycles: 1536902308 heartbeat IPC: 0.283208 cumulative IPC: 0.317862 (Simulation time: 1 hr 2 min 31 sec) 
Heartbeat CPU 0 instructions: 491000001 cycles: 1539792493 heartbeat IPC: 0.345999 cumulative IPC: 0.317916 (Simulation time: 1 hr 2 min 39 sec) 
Heartbeat CPU 0 instructions: 492000002 cycles: 1542941465 heartbeat IPC: 0.317564 cumulative IPC: 0.317915 (Simulation time: 1 hr 2 min 47 sec) 
Heartbeat CPU 0 instructions: 493000003 cycles: 1546062280 heartbeat IPC: 0.320429 cumulative IPC: 0.317921 (Simulation time: 1 hr 2 min 55 sec) 
Heartbeat CPU 0 instructions: 494000003 cycles: 1549366238 heartbeat IPC: 0.302667 cumulative IPC: 0.317887 (Simulation time: 1 hr 3 min 3 sec) 
Heartbeat CPU 0 instructions: 495000000 cycles: 1552533986 heartbeat IPC: 0.315681 cumulative IPC: 0.317883 (Simulation time: 1 hr 3 min 11 sec) 
Heartbeat CPU 0 instructions: 496000001 cycles: 1555538560 heartbeat IPC: 0.332826 cumulative IPC: 0.317912 (Simulation time: 1 hr 3 min 19 sec) 
Heartbeat CPU 0 instructions: 497000000 cycles: 1558609824 heartbeat IPC: 0.325599 cumulative IPC: 0.317928 (Simulation time: 1 hr 3 min 28 sec) 
Heartbeat CPU 0 instructions: 498000001 cycles: 1561895402 heartbeat IPC: 0.304361 cumulative IPC: 0.317899 (Simulation time: 1 hr 3 min 36 sec) 
Heartbeat CPU 0 instructions: 499000003 cycles: 1564986695 heartbeat IPC: 0.32349 cumulative IPC: 0.31791 (Simulation time: 1 hr 3 min 44 sec) 
Heartbeat CPU 0 instructions: 500000001 cycles: 1568205041 heartbeat IPC: 0.310718 cumulative IPC: 0.317895 (Simulation time: 1 hr 3 min 52 sec) 
Heartbeat CPU 0 instructions: 501000001 cycles: 1571553596 heartbeat IPC: 0.298636 cumulative IPC: 0.317853 (Simulation time: 1 hr 4 min 0 sec) 
Heartbeat CPU 0 instructions: 502000003 cycles: 1574756937 heartbeat IPC: 0.312175 cumulative IPC: 0.317841 (Simulation time: 1 hr 4 min 8 sec) 
Heartbeat CPU 0 instructions: 503000000 cycles: 1577810200 heartbeat IPC: 0.327517 cumulative IPC: 0.31786 (Simulation time: 1 hr 4 min 16 sec) 
Heartbeat CPU 0 instructions: 504000001 cycles: 1580907872 heartbeat IPC: 0.322823 cumulative IPC: 0.31787 (Simulation time: 1 hr 4 min 24 sec) 
Heartbeat CPU 0 instructions: 505000000 cycles: 1584095216 heartbeat IPC: 0.313741 cumulative IPC: 0.317862 (Simulation time: 1 hr 4 min 32 sec) 
Heartbeat CPU 0 instructions: 506000000 cycles: 1587533177 heartbeat IPC: 0.29087 cumulative IPC: 0.317802 (Simulation time: 1 hr 4 min 40 sec) 
Heartbeat CPU 0 instructions: 507000000 cycles: 1590885407 heartbeat IPC: 0.298309 cumulative IPC: 0.317761 (Simulation time: 1 hr 4 min 49 sec) 
Heartbeat CPU 0 instructions: 508000000 cycles: 1594113081 heartbeat IPC: 0.309821 cumulative IPC: 0.317744 (Simulation time: 1 hr 4 min 58 sec) 
Heartbeat CPU 0 instructions: 509000000 cycles: 1597238933 heartbeat IPC: 0.319913 cumulative IPC: 0.317749 (Simulation time: 1 hr 5 min 6 sec) 
Heartbeat CPU 0 instructions: 510000001 cycles: 1600352234 heartbeat IPC: 0.321203 cumulative IPC: 0.317755 (Simulation time: 1 hr 5 min 14 sec) 
Finished CPU 0 instructions: 500000000 cycles: 1573537551 cumulative IPC: 0.317755 (Simulation time: 1 hr 5 min 14 sec) 

ChampSim completed all CPUs

Region of Interest Statistics

CPU 0 cumulative IPC: 0.317755 instructions: 500000000 cycles: 1573537551
L1D TOTAL     ACCESS:  207959801  HIT:  198834834  MISS:    9124967
L1D LOAD      ACCESS:  119295768  HIT:  111303124  MISS:    7992644
L1D RFO       ACCESS:   88664033  HIT:   87531710  MISS:    1132323
L1D PREFETCH  ACCESS:          0  HIT:          0  MISS:          0
L1D WRITEBACK ACCESS:          0  HIT:          0  MISS:          0
L1D PREFETCH  REQUESTED:          0  ISSUED:          0  USEFUL:          0  USELESS:          0  UAC CORRECT:          0
L1D AVERAGE MISS LATENCY: 181.1 cycles
L1I TOTAL     ACCESS:  111656296  HIT:  111635569  MISS:      20727
L1I LOAD      ACCESS:  111656296  HIT:  111635569  MISS:      20727
L1I RFO       ACCESS:          0  HIT:          0  MISS:          0
L1I PREFETCH  ACCESS:          0  HIT:          0  MISS:          0
L1I WRITEBACK ACCESS:          0  HIT:          0  MISS:          0
L1I PREFETCH  REQUESTED:          0  ISSUED:          0  USEFUL:          0  USELESS:          0  UAC CORRECT:          0
L1I AVERAGE MISS LATENCY: 61.3275 cycles
L2C TOTAL     ACCESS:   13610859  HIT:    6817360  MISS:    6793499
L2C LOAD      ACCESS:    8012961  HIT:    2127278  MISS:    5885683
L2C RFO       ACCESS:    1132241  HIT:     231833  MISS:     900408
L2C PREFETCH  ACCESS:          0  HIT:          0  MISS:          0
L2C WRITEBACK ACCESS:    4465657  HIT:    4458249  MISS:       7408
L2C PREFETCH  REQUESTED:          0  ISSUED:          0  USEFUL:          0  USELESS:          0  UAC CORRECT:          0
L2C AVERAGE MISS LATENCY: 215.758 cycles
LLC TOTAL     ACCESS:   10132177  HIT:    4925197  MISS:    5206980
LLC LOAD      ACCESS:    5885676  HIT:    1256894  MISS:    4628782
LLC RFO       ACCESS:     900408  HIT:     335265  MISS:     565143
LLC PREFETCH  ACCESS:          0  HIT:          0  MISS:          0
LLC WRITEBACK ACCESS:    3346093  HIT:    3333038  MISS:      13055
LLC PREFETCH  REQUESTED:          0  ISSUED:          0  USEFUL:          0  USELESS:          0  UAC CORRECT:          0
LLC AVERAGE MISS LATENCY: 236.937 cycles
Major fault: 0 Minor fault: 54775

DRAM Statistics
 CHANNEL 0
 RQ ROW_BUFFER_HIT:     421705  ROW_BUFFER_MISS:    2175927
 DBUS_CONGESTED:    1158590
 WQ ROW_BUFFER_HIT:     367115  ROW_BUFFER_MISS:     854039  FULL:          0

 CHANNEL 1
 RQ ROW_BUFFER_HIT:     424656  ROW_BUFFER_MISS:    2171628
 DBUS_CONGESTED:    1158590
 WQ ROW_BUFFER_HIT:     367601  ROW_BUFFER_MISS:     850188  FULL:          0

 AVG_CONGESTED_CYCLE: 18

CPU 0 Branch Prediction Accuracy: 98.1618% MPKI: 3.86097 Average ROB Occupancy at Mispredict: 99.7942

Branch types
NOT_BRANCH: 394978947 78.9958%
BRANCH_DIRECT_JUMP: 5858727 1.17175%
BRANCH_INDIRECT: 1687951 0.33759%
BRANCH_CONDITIONAL: 67127291 13.4255%
BRANCH_DIRECT_CALL: 9229933 1.84599%
BRANCH_INDIRECT_CALL: 5943778 1.18876%
BRANCH_RETURN: 15173711 3.03474%
BRANCH_OTHER: 0 0%

