
*** ChampSim Multicore Out-of-Order Simulator ***

Warmup Instructions: 1000000
Prefetch Warmup Instructions: 450000000
Simulation Instructions: 500000000
Stat Printing Period: 1000000
Number of CPUs: 1
LLC sets: 2048
LLC ways: 16
Off-chip DRAM Size: 32768 MB Channels: 2 Width: 64-bit Data Rate: 1024 MT/s

CPU 0 runs /scratch/cluster/cmolder/ML-DPC/ChampSimTraces/spec06/429.mcf-s0.trace.gz
Read seed: 629
Heartbeat CPU 0 instructions: 1000000 cycles: 475031 heartbeat IPC: 2.10513 cumulative IPC: 2.10513 (Simulation time: 0 hr 0 min 3 sec) 

Warmup complete CPU 0 instructions: 1000003 cycles: 475032 (Simulation time: 0 hr 0 min 3 sec) 

Heartbeat CPU 0 instructions: 2000000 cycles: 14583686 heartbeat IPC: 0.0708785 cumulative IPC: 0.0708783 (Simulation time: 0 hr 0 min 9 sec) 
Heartbeat CPU 0 instructions: 3000000 cycles: 29181604 heartbeat IPC: 0.0685029 cumulative IPC: 0.0696703 (Simulation time: 0 hr 0 min 15 sec) 
Heartbeat CPU 0 instructions: 4000000 cycles: 42610730 heartbeat IPC: 0.074465 cumulative IPC: 0.0711985 (Simulation time: 0 hr 0 min 21 sec) 
Heartbeat CPU 0 instructions: 5000000 cycles: 54750505 heartbeat IPC: 0.0823739 cumulative IPC: 0.0736981 (Simulation time: 0 hr 0 min 27 sec) 
Heartbeat CPU 0 instructions: 6000002 cycles: 67626617 heartbeat IPC: 0.0776633 cumulative IPC: 0.0744584 (Simulation time: 0 hr 0 min 32 sec) 
Heartbeat CPU 0 instructions: 7000002 cycles: 80613774 heartbeat IPC: 0.0769991 cumulative IPC: 0.0748701 (Simulation time: 0 hr 0 min 38 sec) 
Heartbeat CPU 0 instructions: 8000000 cycles: 93927962 heartbeat IPC: 0.0751077 cumulative IPC: 0.074904 (Simulation time: 0 hr 0 min 44 sec) 
Heartbeat CPU 0 instructions: 9000001 cycles: 109345928 heartbeat IPC: 0.0648595 cumulative IPC: 0.0734815 (Simulation time: 0 hr 0 min 51 sec) 
Heartbeat CPU 0 instructions: 10000002 cycles: 128354236 heartbeat IPC: 0.0526086 cumulative IPC: 0.0703789 (Simulation time: 0 hr 1 min 1 sec) 
Heartbeat CPU 0 instructions: 11000000 cycles: 142487545 heartbeat IPC: 0.0707547 cumulative IPC: 0.0704163 (Simulation time: 0 hr 1 min 7 sec) 
Heartbeat CPU 0 instructions: 12000002 cycles: 154525440 heartbeat IPC: 0.0830712 cumulative IPC: 0.0714052 (Simulation time: 0 hr 1 min 13 sec) 
Heartbeat CPU 0 instructions: 13000002 cycles: 167375936 heartbeat IPC: 0.077818 cumulative IPC: 0.0718989 (Simulation time: 0 hr 1 min 19 sec) 
Heartbeat CPU 0 instructions: 14000000 cycles: 178718110 heartbeat IPC: 0.0881663 cumulative IPC: 0.0729341 (Simulation time: 0 hr 1 min 24 sec) 
Heartbeat CPU 0 instructions: 15000001 cycles: 190966595 heartbeat IPC: 0.0816428 cumulative IPC: 0.0734941 (Simulation time: 0 hr 1 min 30 sec) 
Heartbeat CPU 0 instructions: 16000001 cycles: 210336435 heartbeat IPC: 0.0516267 cumulative IPC: 0.0714757 (Simulation time: 0 hr 1 min 40 sec) 
Heartbeat CPU 0 instructions: 17000000 cycles: 224996443 heartbeat IPC: 0.0682127 cumulative IPC: 0.0712627 (Simulation time: 0 hr 1 min 47 sec) 
Heartbeat CPU 0 instructions: 18000002 cycles: 237864988 heartbeat IPC: 0.077709 cumulative IPC: 0.0716121 (Simulation time: 0 hr 1 min 53 sec) 
Heartbeat CPU 0 instructions: 19000002 cycles: 251777462 heartbeat IPC: 0.0718779 cumulative IPC: 0.0716268 (Simulation time: 0 hr 1 min 59 sec) 
Heartbeat CPU 0 instructions: 20000000 cycles: 265196021 heartbeat IPC: 0.0745235 cumulative IPC: 0.0717737 (Simulation time: 0 hr 2 min 5 sec) 
Heartbeat CPU 0 instructions: 21000001 cycles: 278822381 heartbeat IPC: 0.0733872 cumulative IPC: 0.0718527 (Simulation time: 0 hr 2 min 11 sec) 
Heartbeat CPU 0 instructions: 22000000 cycles: 292614878 heartbeat IPC: 0.0725031 cumulative IPC: 0.0718834 (Simulation time: 0 hr 2 min 17 sec) 
Heartbeat CPU 0 instructions: 23000000 cycles: 307254581 heartbeat IPC: 0.0683074 cumulative IPC: 0.0717127 (Simulation time: 0 hr 2 min 24 sec) 
Heartbeat CPU 0 instructions: 24000001 cycles: 326809453 heartbeat IPC: 0.0511382 cumulative IPC: 0.0704798 (Simulation time: 0 hr 2 min 33 sec) 
Heartbeat CPU 0 instructions: 25000001 cycles: 339191710 heartbeat IPC: 0.0807607 cumulative IPC: 0.0708557 (Simulation time: 0 hr 2 min 39 sec) 
Heartbeat CPU 0 instructions: 26000001 cycles: 348928557 heartbeat IPC: 0.102703 cumulative IPC: 0.0717456 (Simulation time: 0 hr 2 min 44 sec) 
Heartbeat CPU 0 instructions: 27000000 cycles: 358886371 heartbeat IPC: 0.100424 cumulative IPC: 0.0725423 (Simulation time: 0 hr 2 min 49 sec) 
Heartbeat CPU 0 instructions: 28000001 cycles: 377641704 heartbeat IPC: 0.0533182 cumulative IPC: 0.0715864 (Simulation time: 0 hr 2 min 58 sec) 
Heartbeat CPU 0 instructions: 29000000 cycles: 389191922 heartbeat IPC: 0.0865784 cumulative IPC: 0.0720318 (Simulation time: 0 hr 3 min 4 sec) 
Heartbeat CPU 0 instructions: 30000001 cycles: 397954297 heartbeat IPC: 0.114124 cumulative IPC: 0.0729598 (Simulation time: 0 hr 3 min 9 sec) 
Heartbeat CPU 0 instructions: 31000000 cycles: 408247257 heartbeat IPC: 0.0971537 cumulative IPC: 0.0735705 (Simulation time: 0 hr 3 min 14 sec) 
Heartbeat CPU 0 instructions: 32000001 cycles: 427144207 heartbeat IPC: 0.0529186 cumulative IPC: 0.0726558 (Simulation time: 0 hr 3 min 24 sec) 
Heartbeat CPU 0 instructions: 33000000 cycles: 437027718 heartbeat IPC: 0.101179 cumulative IPC: 0.0733016 (Simulation time: 0 hr 3 min 29 sec) 
Heartbeat CPU 0 instructions: 34000001 cycles: 447498648 heartbeat IPC: 0.0955026 cumulative IPC: 0.0738216 (Simulation time: 0 hr 3 min 34 sec) 
Heartbeat CPU 0 instructions: 35000002 cycles: 458581927 heartbeat IPC: 0.0902261 cumulative IPC: 0.0742185 (Simulation time: 0 hr 3 min 40 sec) 
Heartbeat CPU 0 instructions: 36000001 cycles: 478597142 heartbeat IPC: 0.0499619 cumulative IPC: 0.073203 (Simulation time: 0 hr 3 min 50 sec) 
Heartbeat CPU 0 instructions: 37000002 cycles: 490058045 heartbeat IPC: 0.0872533 cumulative IPC: 0.073532 (Simulation time: 0 hr 3 min 55 sec) 
Heartbeat CPU 0 instructions: 38000000 cycles: 500666338 heartbeat IPC: 0.0942657 cumulative IPC: 0.0739717 (Simulation time: 0 hr 4 min 0 sec) 
Heartbeat CPU 0 instructions: 39000000 cycles: 509353068 heartbeat IPC: 0.115118 cumulative IPC: 0.0746741 (Simulation time: 0 hr 4 min 5 sec) 
Heartbeat CPU 0 instructions: 40000001 cycles: 527371084 heartbeat IPC: 0.0555001 cumulative IPC: 0.0740184 (Simulation time: 0 hr 4 min 14 sec) 
Heartbeat CPU 0 instructions: 41000000 cycles: 539086233 heartbeat IPC: 0.0853595 cumulative IPC: 0.0742651 (Simulation time: 0 hr 4 min 20 sec) 
Heartbeat CPU 0 instructions: 42000001 cycles: 547530426 heartbeat IPC: 0.118425 cumulative IPC: 0.0749467 (Simulation time: 0 hr 4 min 25 sec) 
Heartbeat CPU 0 instructions: 43000002 cycles: 560564913 heartbeat IPC: 0.0767196 cumulative IPC: 0.074988 (Simulation time: 0 hr 4 min 32 sec) 
Heartbeat CPU 0 instructions: 44000000 cycles: 575902821 heartbeat IPC: 0.0651978 cumulative IPC: 0.074727 (Simulation time: 0 hr 4 min 40 sec) 
Heartbeat CPU 0 instructions: 45000001 cycles: 583545880 heartbeat IPC: 0.130838 cumulative IPC: 0.0754625 (Simulation time: 0 hr 4 min 44 sec) 
Heartbeat CPU 0 instructions: 46000003 cycles: 595860019 heartbeat IPC: 0.0812076 cumulative IPC: 0.0755813 (Simulation time: 0 hr 4 min 51 sec) 
Heartbeat CPU 0 instructions: 47000000 cycles: 611833810 heartbeat IPC: 0.0626024 cumulative IPC: 0.0752422 (Simulation time: 0 hr 4 min 59 sec) 
Heartbeat CPU 0 instructions: 48000002 cycles: 620136299 heartbeat IPC: 0.120446 cumulative IPC: 0.0758479 (Simulation time: 0 hr 5 min 3 sec) 
Heartbeat CPU 0 instructions: 49000000 cycles: 632244581 heartbeat IPC: 0.0825879 cumulative IPC: 0.0759771 (Simulation time: 0 hr 5 min 10 sec) 
Heartbeat CPU 0 instructions: 50000000 cycles: 648200079 heartbeat IPC: 0.0626743 cumulative IPC: 0.0756494 (Simulation time: 0 hr 5 min 18 sec) 
Heartbeat CPU 0 instructions: 51000000 cycles: 655433764 heartbeat IPC: 0.138242 cumulative IPC: 0.0763407 (Simulation time: 0 hr 5 min 22 sec) 
Heartbeat CPU 0 instructions: 52000003 cycles: 666927451 heartbeat IPC: 0.0870045 cumulative IPC: 0.0765246 (Simulation time: 0 hr 5 min 28 sec) 
Heartbeat CPU 0 instructions: 53000001 cycles: 684084990 heartbeat IPC: 0.0582833 cumulative IPC: 0.0760668 (Simulation time: 0 hr 5 min 37 sec) 
Heartbeat CPU 0 instructions: 54000001 cycles: 691793992 heartbeat IPC: 0.129718 cumulative IPC: 0.076665 (Simulation time: 0 hr 5 min 41 sec) 
Heartbeat CPU 0 instructions: 55000000 cycles: 701360508 heartbeat IPC: 0.104531 cumulative IPC: 0.0770454 (Simulation time: 0 hr 5 min 47 sec) 
Heartbeat CPU 0 instructions: 56000000 cycles: 719895186 heartbeat IPC: 0.0539529 cumulative IPC: 0.0764505 (Simulation time: 0 hr 5 min 56 sec) 
Heartbeat CPU 0 instructions: 57000002 cycles: 727451581 heartbeat IPC: 0.132339 cumulative IPC: 0.0770314 (Simulation time: 0 hr 6 min 1 sec) 
Heartbeat CPU 0 instructions: 58000002 cycles: 734963980 heartbeat IPC: 0.133113 cumulative IPC: 0.077605 (Simulation time: 0 hr 6 min 5 sec) 
Heartbeat CPU 0 instructions: 59000001 cycles: 754510301 heartbeat IPC: 0.0511605 cumulative IPC: 0.0769195 (Simulation time: 0 hr 6 min 15 sec) 
Heartbeat CPU 0 instructions: 60000002 cycles: 763195368 heartbeat IPC: 0.11514 cumulative IPC: 0.0773547 (Simulation time: 0 hr 6 min 20 sec) 
Heartbeat CPU 0 instructions: 61000001 cycles: 771994603 heartbeat IPC: 0.113646 cumulative IPC: 0.0777686 (Simulation time: 0 hr 6 min 25 sec) 
Heartbeat CPU 0 instructions: 62000002 cycles: 787630330 heartbeat IPC: 0.0639562 cumulative IPC: 0.0774942 (Simulation time: 0 hr 6 min 33 sec) 
Heartbeat CPU 0 instructions: 63000000 cycles: 800507088 heartbeat IPC: 0.0776591 cumulative IPC: 0.0774969 (Simulation time: 0 hr 6 min 40 sec) 
Heartbeat CPU 0 instructions: 64000001 cycles: 807669292 heartbeat IPC: 0.139622 cumulative IPC: 0.0780481 (Simulation time: 0 hr 6 min 44 sec) 
Heartbeat CPU 0 instructions: 65000000 cycles: 816161320 heartbeat IPC: 0.117757 cumulative IPC: 0.0784615 (Simulation time: 0 hr 6 min 49 sec) 
Heartbeat CPU 0 instructions: 66000000 cycles: 834968116 heartbeat IPC: 0.0531723 cumulative IPC: 0.0778916 (Simulation time: 0 hr 6 min 58 sec) 
Heartbeat CPU 0 instructions: 67000000 cycles: 842049394 heartbeat IPC: 0.141217 cumulative IPC: 0.0784244 (Simulation time: 0 hr 7 min 3 sec) 
Heartbeat CPU 0 instructions: 68000001 cycles: 848790045 heartbeat IPC: 0.148354 cumulative IPC: 0.0789801 (Simulation time: 0 hr 7 min 7 sec) 
Heartbeat CPU 0 instructions: 69000001 cycles: 864989606 heartbeat IPC: 0.0617301 cumulative IPC: 0.0786569 (Simulation time: 0 hr 7 min 15 sec) 
Heartbeat CPU 0 instructions: 70000001 cycles: 876374234 heartbeat IPC: 0.0878377 cumulative IPC: 0.0787762 (Simulation time: 0 hr 7 min 21 sec) 
Heartbeat CPU 0 instructions: 71000000 cycles: 883063191 heartbeat IPC: 0.1495 cumulative IPC: 0.0793122 (Simulation time: 0 hr 7 min 25 sec) 
Heartbeat CPU 0 instructions: 72000002 cycles: 892122463 heartbeat IPC: 0.110384 cumulative IPC: 0.0796279 (Simulation time: 0 hr 7 min 31 sec) 
Heartbeat CPU 0 instructions: 73000000 cycles: 910265059 heartbeat IPC: 0.0551188 cumulative IPC: 0.0791391 (Simulation time: 0 hr 7 min 40 sec) 
Heartbeat CPU 0 instructions: 74000000 cycles: 917383792 heartbeat IPC: 0.140474 cumulative IPC: 0.0796153 (Simulation time: 0 hr 7 min 44 sec) 
Heartbeat CPU 0 instructions: 75000003 cycles: 924789763 heartbeat IPC: 0.135027 cumulative IPC: 0.0800593 (Simulation time: 0 hr 7 min 48 sec) 
Heartbeat CPU 0 instructions: 76000002 cycles: 939776579 heartbeat IPC: 0.0667252 cumulative IPC: 0.0798466 (Simulation time: 0 hr 7 min 56 sec) 
Heartbeat CPU 0 instructions: 77000000 cycles: 952839511 heartbeat IPC: 0.0765523 cumulative IPC: 0.0798014 (Simulation time: 0 hr 8 min 3 sec) 
Heartbeat CPU 0 instructions: 78000001 cycles: 961141264 heartbeat IPC: 0.120457 cumulative IPC: 0.0801527 (Simulation time: 0 hr 8 min 8 sec) 
Heartbeat CPU 0 instructions: 79000000 cycles: 969573338 heartbeat IPC: 0.118595 cumulative IPC: 0.0804872 (Simulation time: 0 hr 8 min 12 sec) 
Heartbeat CPU 0 instructions: 80000001 cycles: 989005328 heartbeat IPC: 0.0514616 cumulative IPC: 0.0799166 (Simulation time: 0 hr 8 min 22 sec) 
Heartbeat CPU 0 instructions: 81000000 cycles: 998253994 heartbeat IPC: 0.108124 cumulative IPC: 0.0801781 (Simulation time: 0 hr 8 min 26 sec) 
Heartbeat CPU 0 instructions: 82000002 cycles: 1007048181 heartbeat IPC: 0.113712 cumulative IPC: 0.0804711 (Simulation time: 0 hr 8 min 31 sec) 
Heartbeat CPU 0 instructions: 83000000 cycles: 1022948230 heartbeat IPC: 0.0628928 cumulative IPC: 0.0801977 (Simulation time: 0 hr 8 min 39 sec) 
Heartbeat CPU 0 instructions: 84000001 cycles: 1036991824 heartbeat IPC: 0.0712069 cumulative IPC: 0.0800759 (Simulation time: 0 hr 8 min 46 sec) 
Heartbeat CPU 0 instructions: 85000002 cycles: 1044627366 heartbeat IPC: 0.130967 cumulative IPC: 0.080448 (Simulation time: 0 hr 8 min 50 sec) 
Heartbeat CPU 0 instructions: 86000000 cycles: 1054152216 heartbeat IPC: 0.104988 cumulative IPC: 0.0806699 (Simulation time: 0 hr 8 min 55 sec) 
Heartbeat CPU 0 instructions: 87000003 cycles: 1073195752 heartbeat IPC: 0.0525114 cumulative IPC: 0.08017 (Simulation time: 0 hr 9 min 5 sec) 
Heartbeat CPU 0 instructions: 88000000 cycles: 1081349538 heartbeat IPC: 0.122642 cumulative IPC: 0.0804904 (Simulation time: 0 hr 9 min 9 sec) 
Heartbeat CPU 0 instructions: 89000000 cycles: 1090661019 heartbeat IPC: 0.107394 cumulative IPC: 0.0807202 (Simulation time: 0 hr 9 min 14 sec) 
Heartbeat CPU 0 instructions: 90000003 cycles: 1107907845 heartbeat IPC: 0.0579819 cumulative IPC: 0.0803661 (Simulation time: 0 hr 9 min 23 sec) 
Heartbeat CPU 0 instructions: 91000002 cycles: 1119250265 heartbeat IPC: 0.0881645 cumulative IPC: 0.0804451 (Simulation time: 0 hr 9 min 29 sec) 
Heartbeat CPU 0 instructions: 92000000 cycles: 1127558110 heartbeat IPC: 0.120368 cumulative IPC: 0.0807394 (Simulation time: 0 hr 9 min 33 sec) 
Heartbeat CPU 0 instructions: 93000000 cycles: 1141267179 heartbeat IPC: 0.0729444 cumulative IPC: 0.0806457 (Simulation time: 0 hr 9 min 40 sec) 
Heartbeat CPU 0 instructions: 94000000 cycles: 1156664401 heartbeat IPC: 0.0649468 cumulative IPC: 0.0804366 (Simulation time: 0 hr 9 min 48 sec) 
Heartbeat CPU 0 instructions: 95000001 cycles: 1165751435 heartbeat IPC: 0.110047 cumulative IPC: 0.0806676 (Simulation time: 0 hr 9 min 53 sec) 
Heartbeat CPU 0 instructions: 96000000 cycles: 1174909186 heartbeat IPC: 0.109197 cumulative IPC: 0.08089 (Simulation time: 0 hr 9 min 58 sec) 
Heartbeat CPU 0 instructions: 97000003 cycles: 1194671501 heartbeat IPC: 0.0506015 cumulative IPC: 0.0803888 (Simulation time: 0 hr 10 min 7 sec) 
Heartbeat CPU 0 instructions: 98000000 cycles: 1203773426 heartbeat IPC: 0.109867 cumulative IPC: 0.0806118 (Simulation time: 0 hr 10 min 12 sec) 
Heartbeat CPU 0 instructions: 99000000 cycles: 1212564037 heartbeat IPC: 0.113758 cumulative IPC: 0.0808521 (Simulation time: 0 hr 10 min 17 sec) 
Heartbeat CPU 0 instructions: 100000002 cycles: 1229710992 heartbeat IPC: 0.0583195 cumulative IPC: 0.0805378 (Simulation time: 0 hr 10 min 25 sec) 
Heartbeat CPU 0 instructions: 101000000 cycles: 1242719992 heartbeat IPC: 0.0768697 cumulative IPC: 0.0804994 (Simulation time: 0 hr 10 min 32 sec) 
Heartbeat CPU 0 instructions: 102000001 cycles: 1252650614 heartbeat IPC: 0.100699 cumulative IPC: 0.0806596 (Simulation time: 0 hr 10 min 37 sec) 
Heartbeat CPU 0 instructions: 103000000 cycles: 1261311429 heartbeat IPC: 0.115462 cumulative IPC: 0.0808987 (Simulation time: 0 hr 10 min 41 sec) 
Heartbeat CPU 0 instructions: 104000003 cycles: 1281194304 heartbeat IPC: 0.0502947 cumulative IPC: 0.0804236 (Simulation time: 0 hr 10 min 51 sec) 
Heartbeat CPU 0 instructions: 105000000 cycles: 1292216804 heartbeat IPC: 0.0907232 cumulative IPC: 0.0805114 (Simulation time: 0 hr 10 min 57 sec) 
Heartbeat CPU 0 instructions: 106000001 cycles: 1301508240 heartbeat IPC: 0.107626 cumulative IPC: 0.0807051 (Simulation time: 0 hr 11 min 2 sec) 
Heartbeat CPU 0 instructions: 107000001 cycles: 1314033534 heartbeat IPC: 0.0798384 cumulative IPC: 0.0806968 (Simulation time: 0 hr 11 min 8 sec) 
Heartbeat CPU 0 instructions: 108000000 cycles: 1331635688 heartbeat IPC: 0.0568112 cumulative IPC: 0.080381 (Simulation time: 0 hr 11 min 17 sec) 
Heartbeat CPU 0 instructions: 109000001 cycles: 1340904346 heartbeat IPC: 0.107891 cumulative IPC: 0.0805712 (Simulation time: 0 hr 11 min 21 sec) 
Heartbeat CPU 0 instructions: 110000000 cycles: 1351840342 heartbeat IPC: 0.0914411 cumulative IPC: 0.0806592 (Simulation time: 0 hr 11 min 27 sec) 
Heartbeat CPU 0 instructions: 111000002 cycles: 1368325773 heartbeat IPC: 0.0606597 cumulative IPC: 0.0804181 (Simulation time: 0 hr 11 min 35 sec) 
Heartbeat CPU 0 instructions: 112000001 cycles: 1382783142 heartbeat IPC: 0.0691688 cumulative IPC: 0.0803005 (Simulation time: 0 hr 11 min 42 sec) 
Heartbeat CPU 0 instructions: 113000000 cycles: 1392690798 heartbeat IPC: 0.100932 cumulative IPC: 0.0804473 (Simulation time: 0 hr 11 min 47 sec) 
Heartbeat CPU 0 instructions: 114000000 cycles: 1403119396 heartbeat IPC: 0.0958902 cumulative IPC: 0.0805621 (Simulation time: 0 hr 11 min 52 sec) 
Heartbeat CPU 0 instructions: 115000001 cycles: 1419934994 heartbeat IPC: 0.0594687 cumulative IPC: 0.0803122 (Simulation time: 0 hr 12 min 0 sec) 
Heartbeat CPU 0 instructions: 116000003 cycles: 1435045628 heartbeat IPC: 0.0661787 cumulative IPC: 0.0801634 (Simulation time: 0 hr 12 min 7 sec) 
Heartbeat CPU 0 instructions: 117000000 cycles: 1446210055 heartbeat IPC: 0.0895699 cumulative IPC: 0.080236 (Simulation time: 0 hr 12 min 12 sec) 
Heartbeat CPU 0 instructions: 118000001 cycles: 1456925931 heartbeat IPC: 0.0933196 cumulative IPC: 0.0803323 (Simulation time: 0 hr 12 min 18 sec) 
Heartbeat CPU 0 instructions: 119000002 cycles: 1468554637 heartbeat IPC: 0.0859942 cumulative IPC: 0.0803771 (Simulation time: 0 hr 12 min 24 sec) 
Heartbeat CPU 0 instructions: 120000002 cycles: 1486825237 heartbeat IPC: 0.0547327 cumulative IPC: 0.0800619 (Simulation time: 0 hr 12 min 33 sec) 
Heartbeat CPU 0 instructions: 121000000 cycles: 1497453331 heartbeat IPC: 0.0940901 cumulative IPC: 0.0801615 (Simulation time: 0 hr 12 min 38 sec) 
Heartbeat CPU 0 instructions: 122000002 cycles: 1508712400 heartbeat IPC: 0.0888175 cumulative IPC: 0.0802261 (Simulation time: 0 hr 12 min 44 sec) 
Heartbeat CPU 0 instructions: 123000003 cycles: 1519832964 heartbeat IPC: 0.0899236 cumulative IPC: 0.0802971 (Simulation time: 0 hr 12 min 49 sec) 
Heartbeat CPU 0 instructions: 124000000 cycles: 1539878022 heartbeat IPC: 0.0498875 cumulative IPC: 0.0799011 (Simulation time: 0 hr 12 min 59 sec) 
Heartbeat CPU 0 instructions: 125000002 cycles: 1550968659 heartbeat IPC: 0.0901663 cumulative IPC: 0.0799745 (Simulation time: 0 hr 13 min 4 sec) 
Heartbeat CPU 0 instructions: 126000001 cycles: 1562714680 heartbeat IPC: 0.0851351 cumulative IPC: 0.0800133 (Simulation time: 0 hr 13 min 9 sec) 
Heartbeat CPU 0 instructions: 127000000 cycles: 1573502242 heartbeat IPC: 0.0926993 cumulative IPC: 0.0801003 (Simulation time: 0 hr 13 min 14 sec) 
Heartbeat CPU 0 instructions: 128000002 cycles: 1588506294 heartbeat IPC: 0.0666488 cumulative IPC: 0.0799732 (Simulation time: 0 hr 13 min 22 sec) 
Heartbeat CPU 0 instructions: 129000001 cycles: 1606320983 heartbeat IPC: 0.0561334 cumulative IPC: 0.0797088 (Simulation time: 0 hr 13 min 30 sec) 
Heartbeat CPU 0 instructions: 130000000 cycles: 1616906269 heartbeat IPC: 0.0944707 cumulative IPC: 0.0798054 (Simulation time: 0 hr 13 min 35 sec) 
Heartbeat CPU 0 instructions: 131000000 cycles: 1625686927 heartbeat IPC: 0.113887 cumulative IPC: 0.0799896 (Simulation time: 0 hr 13 min 40 sec) 
Heartbeat CPU 0 instructions: 132000000 cycles: 1640251176 heartbeat IPC: 0.0686613 cumulative IPC: 0.079889 (Simulation time: 0 hr 13 min 47 sec) 
Heartbeat CPU 0 instructions: 133000000 cycles: 1655127180 heartbeat IPC: 0.0672224 cumulative IPC: 0.0797751 (Simulation time: 0 hr 13 min 54 sec) 
Heartbeat CPU 0 instructions: 134000000 cycles: 1663615750 heartbeat IPC: 0.117805 cumulative IPC: 0.0799692 (Simulation time: 0 hr 13 min 59 sec) 
Heartbeat CPU 0 instructions: 135000000 cycles: 1671397493 heartbeat IPC: 0.128506 cumulative IPC: 0.0801952 (Simulation time: 0 hr 14 min 4 sec) 
Heartbeat CPU 0 instructions: 136000000 cycles: 1687304592 heartbeat IPC: 0.062865 cumulative IPC: 0.0800318 (Simulation time: 0 hr 14 min 12 sec) 
Heartbeat CPU 0 instructions: 137000001 cycles: 1702185788 heartbeat IPC: 0.067199 cumulative IPC: 0.0799196 (Simulation time: 0 hr 14 min 19 sec) 
Heartbeat CPU 0 instructions: 138000001 cycles: 1713136598 heartbeat IPC: 0.0913174 cumulative IPC: 0.0799925 (Simulation time: 0 hr 14 min 24 sec) 
Heartbeat CPU 0 instructions: 139000002 cycles: 1724231785 heartbeat IPC: 0.0901293 cumulative IPC: 0.0800577 (Simulation time: 0 hr 14 min 30 sec) 
Heartbeat CPU 0 instructions: 140000000 cycles: 1734974299 heartbeat IPC: 0.0930879 cumulative IPC: 0.0801384 (Simulation time: 0 hr 14 min 35 sec) 
Heartbeat CPU 0 instructions: 141000001 cycles: 1754972785 heartbeat IPC: 0.0500038 cumulative IPC: 0.0797949 (Simulation time: 0 hr 14 min 44 sec) 
Heartbeat CPU 0 instructions: 142000000 cycles: 1765009426 heartbeat IPC: 0.0996348 cumulative IPC: 0.0799078 (Simulation time: 0 hr 14 min 50 sec) 
Heartbeat CPU 0 instructions: 143000000 cycles: 1775559654 heartbeat IPC: 0.0947847 cumulative IPC: 0.0799962 (Simulation time: 0 hr 14 min 55 sec) 
Heartbeat CPU 0 instructions: 144000003 cycles: 1785960752 heartbeat IPC: 0.096144 cumulative IPC: 0.0800903 (Simulation time: 0 hr 15 min 0 sec) 
Heartbeat CPU 0 instructions: 145000000 cycles: 1805361840 heartbeat IPC: 0.0515433 cumulative IPC: 0.0797834 (Simulation time: 0 hr 15 min 9 sec) 
Heartbeat CPU 0 instructions: 146000001 cycles: 1816957896 heartbeat IPC: 0.0862363 cumulative IPC: 0.0798246 (Simulation time: 0 hr 15 min 15 sec) 
Heartbeat CPU 0 instructions: 147000000 cycles: 1828226792 heartbeat IPC: 0.0887397 cumulative IPC: 0.0798796 (Simulation time: 0 hr 15 min 21 sec) 
Heartbeat CPU 0 instructions: 148000000 cycles: 1839183405 heartbeat IPC: 0.0912691 cumulative IPC: 0.0799474 (Simulation time: 0 hr 15 min 26 sec) 
Heartbeat CPU 0 instructions: 149000000 cycles: 1856069728 heartbeat IPC: 0.0592195 cumulative IPC: 0.0797588 (Simulation time: 0 hr 15 min 34 sec) 
Heartbeat CPU 0 instructions: 150000001 cycles: 1870770799 heartbeat IPC: 0.0680223 cumulative IPC: 0.0796665 (Simulation time: 0 hr 15 min 42 sec) 
Heartbeat CPU 0 instructions: 151000000 cycles: 1883254952 heartbeat IPC: 0.0801015 cumulative IPC: 0.0796694 (Simulation time: 0 hr 15 min 47 sec) 
Heartbeat CPU 0 instructions: 152000002 cycles: 1894631468 heartbeat IPC: 0.0879005 cumulative IPC: 0.0797189 (Simulation time: 0 hr 15 min 53 sec) 
Heartbeat CPU 0 instructions: 153000000 cycles: 1905787781 heartbeat IPC: 0.0896352 cumulative IPC: 0.0797769 (Simulation time: 0 hr 15 min 59 sec) 
Heartbeat CPU 0 instructions: 154000000 cycles: 1924278684 heartbeat IPC: 0.0540806 cumulative IPC: 0.0795299 (Simulation time: 0 hr 16 min 8 sec) 
Heartbeat CPU 0 instructions: 155000000 cycles: 1934719386 heartbeat IPC: 0.095779 cumulative IPC: 0.0796177 (Simulation time: 0 hr 16 min 13 sec) 
Heartbeat CPU 0 instructions: 156000000 cycles: 1945460033 heartbeat IPC: 0.0931043 cumulative IPC: 0.0796921 (Simulation time: 0 hr 16 min 18 sec) 
Heartbeat CPU 0 instructions: 157000001 cycles: 1956504888 heartbeat IPC: 0.09054 cumulative IPC: 0.0797534 (Simulation time: 0 hr 16 min 24 sec) 
Heartbeat CPU 0 instructions: 158000002 cycles: 1975112915 heartbeat IPC: 0.0537403 cumulative IPC: 0.0795082 (Simulation time: 0 hr 16 min 32 sec) 
Heartbeat CPU 0 instructions: 159000000 cycles: 1989888272 heartbeat IPC: 0.0676801 cumulative IPC: 0.0794204 (Simulation time: 0 hr 16 min 39 sec) 
Heartbeat CPU 0 instructions: 160000002 cycles: 2000399509 heartbeat IPC: 0.0951365 cumulative IPC: 0.079503 (Simulation time: 0 hr 16 min 45 sec) 
Heartbeat CPU 0 instructions: 161000000 cycles: 2011616542 heartbeat IPC: 0.08915 cumulative IPC: 0.0795568 (Simulation time: 0 hr 16 min 50 sec) 
Heartbeat CPU 0 instructions: 162000000 cycles: 2022387605 heartbeat IPC: 0.0928413 cumulative IPC: 0.0796276 (Simulation time: 0 hr 16 min 55 sec) 
Heartbeat CPU 0 instructions: 163000003 cycles: 2042107319 heartbeat IPC: 0.0507108 cumulative IPC: 0.0793483 (Simulation time: 0 hr 17 min 5 sec) 
Heartbeat CPU 0 instructions: 164000002 cycles: 2054754452 heartbeat IPC: 0.0790692 cumulative IPC: 0.0793466 (Simulation time: 0 hr 17 min 11 sec) 
Heartbeat CPU 0 instructions: 165000000 cycles: 2065508840 heartbeat IPC: 0.0929851 cumulative IPC: 0.0794176 (Simulation time: 0 hr 17 min 16 sec) 
Heartbeat CPU 0 instructions: 166000001 cycles: 2076340282 heartbeat IPC: 0.0923239 cumulative IPC: 0.0794849 (Simulation time: 0 hr 17 min 21 sec) 
Heartbeat CPU 0 instructions: 167000003 cycles: 2090083149 heartbeat IPC: 0.0727652 cumulative IPC: 0.0794407 (Simulation time: 0 hr 17 min 28 sec) 
Heartbeat CPU 0 instructions: 168000000 cycles: 2107408897 heartbeat IPC: 0.0577174 cumulative IPC: 0.0792621 (Simulation time: 0 hr 17 min 36 sec) 
Heartbeat CPU 0 instructions: 169000002 cycles: 2118580041 heartbeat IPC: 0.0895165 cumulative IPC: 0.0793162 (Simulation time: 0 hr 17 min 42 sec) 
Heartbeat CPU 0 instructions: 170000000 cycles: 2128722481 heartbeat IPC: 0.0985954 cumulative IPC: 0.0794081 (Simulation time: 0 hr 17 min 47 sec) 
Heartbeat CPU 0 instructions: 171000002 cycles: 2139916657 heartbeat IPC: 0.0893323 cumulative IPC: 0.07946 (Simulation time: 0 hr 17 min 52 sec) 
Heartbeat CPU 0 instructions: 172000002 cycles: 2159672922 heartbeat IPC: 0.0506169 cumulative IPC: 0.0791961 (Simulation time: 0 hr 18 min 2 sec) 
Heartbeat CPU 0 instructions: 173000001 cycles: 2170471055 heartbeat IPC: 0.0926085 cumulative IPC: 0.0792628 (Simulation time: 0 hr 18 min 7 sec) 
Heartbeat CPU 0 instructions: 174000001 cycles: 2185188770 heartbeat IPC: 0.0679453 cumulative IPC: 0.0791866 (Simulation time: 0 hr 18 min 14 sec) 
Heartbeat CPU 0 instructions: 175000000 cycles: 2195080138 heartbeat IPC: 0.101098 cumulative IPC: 0.0792853 (Simulation time: 0 hr 18 min 19 sec) 
Heartbeat CPU 0 instructions: 176000000 cycles: 2212291362 heartbeat IPC: 0.0581016 cumulative IPC: 0.0791205 (Simulation time: 0 hr 18 min 27 sec) 
Heartbeat CPU 0 instructions: 177000000 cycles: 2226048587 heartbeat IPC: 0.0726891 cumulative IPC: 0.0790807 (Simulation time: 0 hr 18 min 34 sec) 
Heartbeat CPU 0 instructions: 178000000 cycles: 2235207527 heartbeat IPC: 0.109183 cumulative IPC: 0.0792041 (Simulation time: 0 hr 18 min 39 sec) 
Heartbeat CPU 0 instructions: 179000002 cycles: 2243327602 heartbeat IPC: 0.123152 cumulative IPC: 0.0793632 (Simulation time: 0 hr 18 min 43 sec) 
Heartbeat CPU 0 instructions: 180000001 cycles: 2260399817 heartbeat IPC: 0.0585747 cumulative IPC: 0.0792062 (Simulation time: 0 hr 18 min 51 sec) 
Heartbeat CPU 0 instructions: 181000000 cycles: 2273101338 heartbeat IPC: 0.0787307 cumulative IPC: 0.0792035 (Simulation time: 0 hr 18 min 58 sec) 
Heartbeat CPU 0 instructions: 182000003 cycles: 2283026585 heartbeat IPC: 0.100753 cumulative IPC: 0.0792972 (Simulation time: 0 hr 19 min 3 sec) 
Heartbeat CPU 0 instructions: 183000000 cycles: 2294459466 heartbeat IPC: 0.0874668 cumulative IPC: 0.0793379 (Simulation time: 0 hr 19 min 8 sec) 
Heartbeat CPU 0 instructions: 184000000 cycles: 2308041929 heartbeat IPC: 0.0736244 cumulative IPC: 0.0793043 (Simulation time: 0 hr 19 min 15 sec) 
Heartbeat CPU 0 instructions: 185000000 cycles: 2326054174 heartbeat IPC: 0.0555178 cumulative IPC: 0.0791201 (Simulation time: 0 hr 19 min 24 sec) 
Heartbeat CPU 0 instructions: 186000000 cycles: 2336650355 heartbeat IPC: 0.0943736 cumulative IPC: 0.0791893 (Simulation time: 0 hr 19 min 29 sec) 
Heartbeat CPU 0 instructions: 187000000 cycles: 2346804812 heartbeat IPC: 0.0984789 cumulative IPC: 0.0792727 (Simulation time: 0 hr 19 min 34 sec) 
Heartbeat CPU 0 instructions: 188000001 cycles: 2357950699 heartbeat IPC: 0.0897193 cumulative IPC: 0.0793221 (Simulation time: 0 hr 19 min 39 sec) 
Heartbeat CPU 0 instructions: 189000000 cycles: 2373062378 heartbeat IPC: 0.0661739 cumulative IPC: 0.0792384 (Simulation time: 0 hr 19 min 47 sec) 
Heartbeat CPU 0 instructions: 190000000 cycles: 2390081580 heartbeat IPC: 0.0587572 cumulative IPC: 0.0790925 (Simulation time: 0 hr 19 min 55 sec) 
Heartbeat CPU 0 instructions: 191000001 cycles: 2398984426 heartbeat IPC: 0.112324 cumulative IPC: 0.0792159 (Simulation time: 0 hr 19 min 59 sec) 
Heartbeat CPU 0 instructions: 192000000 cycles: 2407511561 heartbeat IPC: 0.117273 cumulative IPC: 0.0793507 (Simulation time: 0 hr 20 min 4 sec) 
Heartbeat CPU 0 instructions: 193000003 cycles: 2422670523 heartbeat IPC: 0.0659678 cumulative IPC: 0.0792669 (Simulation time: 0 hr 20 min 12 sec) 
Heartbeat CPU 0 instructions: 194000000 cycles: 2436294295 heartbeat IPC: 0.0734009 cumulative IPC: 0.0792341 (Simulation time: 0 hr 20 min 19 sec) 
Heartbeat CPU 0 instructions: 195000000 cycles: 2443848457 heartbeat IPC: 0.132377 cumulative IPC: 0.0793984 (Simulation time: 0 hr 20 min 23 sec) 
Heartbeat CPU 0 instructions: 196000000 cycles: 2459143130 heartbeat IPC: 0.0653822 cumulative IPC: 0.0793112 (Simulation time: 0 hr 20 min 30 sec) 
Heartbeat CPU 0 instructions: 197000001 cycles: 2471924273 heartbeat IPC: 0.0782403 cumulative IPC: 0.0793057 (Simulation time: 0 hr 20 min 36 sec) 
Heartbeat CPU 0 instructions: 198000000 cycles: 2491587036 heartbeat IPC: 0.0508575 cumulative IPC: 0.0790811 (Simulation time: 0 hr 20 min 46 sec) 
Heartbeat CPU 0 instructions: 199000000 cycles: 2502340878 heartbeat IPC: 0.09299 cumulative IPC: 0.0791409 (Simulation time: 0 hr 20 min 51 sec) 
Heartbeat CPU 0 instructions: 200000000 cycles: 2511401290 heartbeat IPC: 0.11037 cumulative IPC: 0.0792536 (Simulation time: 0 hr 20 min 56 sec) 
Heartbeat CPU 0 instructions: 201000000 cycles: 2522253208 heartbeat IPC: 0.0921496 cumulative IPC: 0.0793091 (Simulation time: 0 hr 21 min 1 sec) 
Heartbeat CPU 0 instructions: 202000001 cycles: 2542044314 heartbeat IPC: 0.0505278 cumulative IPC: 0.079085 (Simulation time: 0 hr 21 min 11 sec) 
Heartbeat CPU 0 instructions: 203000000 cycles: 2556535952 heartbeat IPC: 0.0690052 cumulative IPC: 0.0790278 (Simulation time: 0 hr 21 min 18 sec) 
Heartbeat CPU 0 instructions: 204000001 cycles: 2566323997 heartbeat IPC: 0.102166 cumulative IPC: 0.0791161 (Simulation time: 0 hr 21 min 23 sec) 
Heartbeat CPU 0 instructions: 205000000 cycles: 2576825077 heartbeat IPC: 0.0952282 cumulative IPC: 0.0791818 (Simulation time: 0 hr 21 min 29 sec) 
Heartbeat CPU 0 instructions: 206000000 cycles: 2595896978 heartbeat IPC: 0.0524332 cumulative IPC: 0.0789852 (Simulation time: 0 hr 21 min 38 sec) 
Heartbeat CPU 0 instructions: 207000000 cycles: 2606037389 heartbeat IPC: 0.0986153 cumulative IPC: 0.0790616 (Simulation time: 0 hr 21 min 43 sec) 
Heartbeat CPU 0 instructions: 208000002 cycles: 2615185169 heartbeat IPC: 0.109316 cumulative IPC: 0.0791675 (Simulation time: 0 hr 21 min 48 sec) 
Heartbeat CPU 0 instructions: 209000000 cycles: 2625642027 heartbeat IPC: 0.0956308 cumulative IPC: 0.0792331 (Simulation time: 0 hr 21 min 53 sec) 
Heartbeat CPU 0 instructions: 210000000 cycles: 2643710856 heartbeat IPC: 0.0553439 cumulative IPC: 0.0790697 (Simulation time: 0 hr 22 min 2 sec) 
Heartbeat CPU 0 instructions: 211000001 cycles: 2656417908 heartbeat IPC: 0.0786965 cumulative IPC: 0.079068 (Simulation time: 0 hr 22 min 9 sec) 
Heartbeat CPU 0 instructions: 212000000 cycles: 2667960781 heartbeat IPC: 0.0866335 cumulative IPC: 0.0791007 (Simulation time: 0 hr 22 min 14 sec) 
Heartbeat CPU 0 instructions: 213000002 cycles: 2680577476 heartbeat IPC: 0.0792602 cumulative IPC: 0.0791015 (Simulation time: 0 hr 22 min 20 sec) 
Heartbeat CPU 0 instructions: 214000001 cycles: 2691902756 heartbeat IPC: 0.0882979 cumulative IPC: 0.0791401 (Simulation time: 0 hr 22 min 26 sec) 
Heartbeat CPU 0 instructions: 215000003 cycles: 2709191182 heartbeat IPC: 0.0578423 cumulative IPC: 0.0790042 (Simulation time: 0 hr 22 min 34 sec) 
Heartbeat CPU 0 instructions: 216000002 cycles: 2724226600 heartbeat IPC: 0.0665096 cumulative IPC: 0.0789352 (Simulation time: 0 hr 22 min 42 sec) 
Heartbeat CPU 0 instructions: 217000001 cycles: 2740712119 heartbeat IPC: 0.0606592 cumulative IPC: 0.0788253 (Simulation time: 0 hr 22 min 49 sec) 
Heartbeat CPU 0 instructions: 218000001 cycles: 2752508551 heartbeat IPC: 0.0847714 cumulative IPC: 0.0788508 (Simulation time: 0 hr 22 min 55 sec) 
Heartbeat CPU 0 instructions: 219000000 cycles: 2763680124 heartbeat IPC: 0.0895128 cumulative IPC: 0.0788939 (Simulation time: 0 hr 23 min 0 sec) 
Heartbeat CPU 0 instructions: 220000000 cycles: 2779692233 heartbeat IPC: 0.0624527 cumulative IPC: 0.0787992 (Simulation time: 0 hr 23 min 8 sec) 
Heartbeat CPU 0 instructions: 221000000 cycles: 2795517987 heartbeat IPC: 0.0631881 cumulative IPC: 0.0787108 (Simulation time: 0 hr 23 min 16 sec) 
Heartbeat CPU 0 instructions: 222000000 cycles: 2807252383 heartbeat IPC: 0.0852196 cumulative IPC: 0.078738 (Simulation time: 0 hr 23 min 21 sec) 
Heartbeat CPU 0 instructions: 223000002 cycles: 2818273147 heartbeat IPC: 0.090738 cumulative IPC: 0.0787849 (Simulation time: 0 hr 23 min 27 sec) 
Heartbeat CPU 0 instructions: 224000000 cycles: 2828676996 heartbeat IPC: 0.0961181 cumulative IPC: 0.0788487 (Simulation time: 0 hr 23 min 32 sec) 
Heartbeat CPU 0 instructions: 225000003 cycles: 2848603470 heartbeat IPC: 0.0501846 cumulative IPC: 0.0786481 (Simulation time: 0 hr 23 min 42 sec) 
Heartbeat CPU 0 instructions: 226000001 cycles: 2859014535 heartbeat IPC: 0.0960515 cumulative IPC: 0.0787115 (Simulation time: 0 hr 23 min 47 sec) 
Heartbeat CPU 0 instructions: 227000000 cycles: 2870959618 heartbeat IPC: 0.0837164 cumulative IPC: 0.0787323 (Simulation time: 0 hr 23 min 53 sec) 
Heartbeat CPU 0 instructions: 228000000 cycles: 2882534677 heartbeat IPC: 0.0863926 cumulative IPC: 0.0787631 (Simulation time: 0 hr 23 min 58 sec) 
Heartbeat CPU 0 instructions: 229000001 cycles: 2894842305 heartbeat IPC: 0.0812505 cumulative IPC: 0.0787737 (Simulation time: 0 hr 24 min 4 sec) 
Heartbeat CPU 0 instructions: 230000002 cycles: 2910826265 heartbeat IPC: 0.0625628 cumulative IPC: 0.0786847 (Simulation time: 0 hr 24 min 12 sec) 
Heartbeat CPU 0 instructions: 231000000 cycles: 2926524231 heartbeat IPC: 0.0637024 cumulative IPC: 0.0786043 (Simulation time: 0 hr 24 min 20 sec) 
Heartbeat CPU 0 instructions: 232000000 cycles: 2937210114 heartbeat IPC: 0.0935814 cumulative IPC: 0.0786588 (Simulation time: 0 hr 24 min 25 sec) 
Heartbeat CPU 0 instructions: 233000003 cycles: 2948246936 heartbeat IPC: 0.0906061 cumulative IPC: 0.0787035 (Simulation time: 0 hr 24 min 31 sec) 
Heartbeat CPU 0 instructions: 234000002 cycles: 2960274528 heartbeat IPC: 0.0831421 cumulative IPC: 0.0787215 (Simulation time: 0 hr 24 min 36 sec) 
Heartbeat CPU 0 instructions: 235000002 cycles: 2971443638 heartbeat IPC: 0.0895327 cumulative IPC: 0.0787622 (Simulation time: 0 hr 24 min 42 sec) 
Heartbeat CPU 0 instructions: 236000001 cycles: 2983376654 heartbeat IPC: 0.083801 cumulative IPC: 0.0787823 (Simulation time: 0 hr 24 min 48 sec) 
Heartbeat CPU 0 instructions: 237000002 cycles: 3002784288 heartbeat IPC: 0.0515262 cumulative IPC: 0.0786062 (Simulation time: 0 hr 24 min 57 sec) 
Heartbeat CPU 0 instructions: 238000001 cycles: 3014388742 heartbeat IPC: 0.0861737 cumulative IPC: 0.0786353 (Simulation time: 0 hr 25 min 3 sec) 
Heartbeat CPU 0 instructions: 239000001 cycles: 3026153790 heartbeat IPC: 0.0849975 cumulative IPC: 0.07866 (Simulation time: 0 hr 25 min 9 sec) 
Heartbeat CPU 0 instructions: 240000000 cycles: 3036895367 heartbeat IPC: 0.0930961 cumulative IPC: 0.0787111 (Simulation time: 0 hr 25 min 14 sec) 
Heartbeat CPU 0 instructions: 241000000 cycles: 3048105087 heartbeat IPC: 0.0892083 cumulative IPC: 0.0787497 (Simulation time: 0 hr 25 min 19 sec) 
Heartbeat CPU 0 instructions: 242000000 cycles: 3061694657 heartbeat IPC: 0.0735858 cumulative IPC: 0.0787268 (Simulation time: 0 hr 25 min 25 sec) 
Heartbeat CPU 0 instructions: 243000002 cycles: 3080239492 heartbeat IPC: 0.0539235 cumulative IPC: 0.0785774 (Simulation time: 0 hr 25 min 34 sec) 
Heartbeat CPU 0 instructions: 244000000 cycles: 3091955132 heartbeat IPC: 0.0853558 cumulative IPC: 0.0786031 (Simulation time: 0 hr 25 min 40 sec) 
Heartbeat CPU 0 instructions: 245000001 cycles: 3100623547 heartbeat IPC: 0.115361 cumulative IPC: 0.0787059 (Simulation time: 0 hr 25 min 45 sec) 
Heartbeat CPU 0 instructions: 246000003 cycles: 3112850419 heartbeat IPC: 0.0817872 cumulative IPC: 0.078718 (Simulation time: 0 hr 25 min 50 sec) 
Heartbeat CPU 0 instructions: 247000002 cycles: 3123647246 heartbeat IPC: 0.0926197 cumulative IPC: 0.0787661 (Simulation time: 0 hr 25 min 55 sec) 
Heartbeat CPU 0 instructions: 248000000 cycles: 3135354248 heartbeat IPC: 0.0854188 cumulative IPC: 0.0787909 (Simulation time: 0 hr 26 min 1 sec) 
Heartbeat CPU 0 instructions: 249000000 cycles: 3151669110 heartbeat IPC: 0.0612938 cumulative IPC: 0.0787003 (Simulation time: 0 hr 26 min 9 sec) 
Heartbeat CPU 0 instructions: 250000000 cycles: 3168739205 heartbeat IPC: 0.058582 cumulative IPC: 0.0785919 (Simulation time: 0 hr 26 min 16 sec) 
Heartbeat CPU 0 instructions: 251000001 cycles: 3179532401 heartbeat IPC: 0.0926511 cumulative IPC: 0.0786397 (Simulation time: 0 hr 26 min 21 sec) 
Heartbeat CPU 0 instructions: 252000002 cycles: 3189686470 heartbeat IPC: 0.0984828 cumulative IPC: 0.0787028 (Simulation time: 0 hr 26 min 27 sec) 
Heartbeat CPU 0 instructions: 253000000 cycles: 3201533122 heartbeat IPC: 0.0844119 cumulative IPC: 0.078724 (Simulation time: 0 hr 26 min 32 sec) 
Heartbeat CPU 0 instructions: 254000002 cycles: 3212163099 heartbeat IPC: 0.0940738 cumulative IPC: 0.0787748 (Simulation time: 0 hr 26 min 37 sec) 
Heartbeat CPU 0 instructions: 255000001 cycles: 3222802849 heartbeat IPC: 0.0939871 cumulative IPC: 0.078825 (Simulation time: 0 hr 26 min 43 sec) 
Heartbeat CPU 0 instructions: 256000002 cycles: 3239316788 heartbeat IPC: 0.060555 cumulative IPC: 0.0787318 (Simulation time: 0 hr 26 min 51 sec) 
Heartbeat CPU 0 instructions: 257000000 cycles: 3247103760 heartbeat IPC: 0.128419 cumulative IPC: 0.078851 (Simulation time: 0 hr 26 min 56 sec) 
Heartbeat CPU 0 instructions: 258000001 cycles: 3262797927 heartbeat IPC: 0.063718 cumulative IPC: 0.0787782 (Simulation time: 0 hr 27 min 4 sec) 
Heartbeat CPU 0 instructions: 259000000 cycles: 3268093976 heartbeat IPC: 0.18882 cumulative IPC: 0.0789566 (Simulation time: 0 hr 27 min 8 sec) 
Heartbeat CPU 0 instructions: 260000000 cycles: 3273614755 heartbeat IPC: 0.181134 cumulative IPC: 0.0791289 (Simulation time: 0 hr 27 min 13 sec) 
Heartbeat CPU 0 instructions: 261000001 cycles: 3293490230 heartbeat IPC: 0.0503133 cumulative IPC: 0.078955 (Simulation time: 0 hr 27 min 22 sec) 
Heartbeat CPU 0 instructions: 262000002 cycles: 3299021855 heartbeat IPC: 0.180779 cumulative IPC: 0.0791258 (Simulation time: 0 hr 27 min 27 sec) 
Heartbeat CPU 0 instructions: 263000000 cycles: 3303883627 heartbeat IPC: 0.205686 cumulative IPC: 0.079312 (Simulation time: 0 hr 27 min 31 sec) 
Heartbeat CPU 0 instructions: 264000000 cycles: 3308103596 heartbeat IPC: 0.236969 cumulative IPC: 0.0795132 (Simulation time: 0 hr 27 min 36 sec) 
Heartbeat CPU 0 instructions: 265000000 cycles: 3319734058 heartbeat IPC: 0.0859811 cumulative IPC: 0.0795358 (Simulation time: 0 hr 27 min 42 sec) 
Heartbeat CPU 0 instructions: 266000000 cycles: 3333280772 heartbeat IPC: 0.0738186 cumulative IPC: 0.0795126 (Simulation time: 0 hr 27 min 50 sec) 
Heartbeat CPU 0 instructions: 267000001 cycles: 3338310651 heartbeat IPC: 0.198812 cumulative IPC: 0.0796924 (Simulation time: 0 hr 27 min 55 sec) 
Heartbeat CPU 0 instructions: 268000000 cycles: 3342986514 heartbeat IPC: 0.213864 cumulative IPC: 0.0798801 (Simulation time: 0 hr 27 min 59 sec) 
Heartbeat CPU 0 instructions: 269000000 cycles: 3347436160 heartbeat IPC: 0.224737 cumulative IPC: 0.0800726 (Simulation time: 0 hr 28 min 3 sec) 
Heartbeat CPU 0 instructions: 270000000 cycles: 3365134342 heartbeat IPC: 0.056503 cumulative IPC: 0.0799487 (Simulation time: 0 hr 28 min 12 sec) 
Heartbeat CPU 0 instructions: 271000001 cycles: 3372507415 heartbeat IPC: 0.135629 cumulative IPC: 0.0800704 (Simulation time: 0 hr 28 min 17 sec) 
Heartbeat CPU 0 instructions: 272000001 cycles: 3377084110 heartbeat IPC: 0.218498 cumulative IPC: 0.080258 (Simulation time: 0 hr 28 min 21 sec) 
Heartbeat CPU 0 instructions: 273000000 cycles: 3381560932 heartbeat IPC: 0.223373 cumulative IPC: 0.0804475 (Simulation time: 0 hr 28 min 26 sec) 
Heartbeat CPU 0 instructions: 274000000 cycles: 3388357284 heartbeat IPC: 0.147138 cumulative IPC: 0.0805813 (Simulation time: 0 hr 28 min 31 sec) 
Heartbeat CPU 0 instructions: 275000000 cycles: 3408111143 heartbeat IPC: 0.050623 cumulative IPC: 0.0804076 (Simulation time: 0 hr 28 min 41 sec) 
Heartbeat CPU 0 instructions: 276000000 cycles: 3414340550 heartbeat IPC: 0.160529 cumulative IPC: 0.0805538 (Simulation time: 0 hr 28 min 46 sec) 
Heartbeat CPU 0 instructions: 277000002 cycles: 3420732886 heartbeat IPC: 0.156438 cumulative IPC: 0.0806957 (Simulation time: 0 hr 28 min 51 sec) 
Heartbeat CPU 0 instructions: 278000000 cycles: 3426634375 heartbeat IPC: 0.169448 cumulative IPC: 0.0808485 (Simulation time: 0 hr 28 min 55 sec) 
Heartbeat CPU 0 instructions: 279000000 cycles: 3432719837 heartbeat IPC: 0.164326 cumulative IPC: 0.0809966 (Simulation time: 0 hr 29 min 0 sec) 
Heartbeat CPU 0 instructions: 280000001 cycles: 3446419179 heartbeat IPC: 0.0729963 cumulative IPC: 0.0809647 (Simulation time: 0 hr 29 min 8 sec) 
Heartbeat CPU 0 instructions: 281000000 cycles: 3459377133 heartbeat IPC: 0.0771726 cumulative IPC: 0.0809505 (Simulation time: 0 hr 29 min 15 sec) 
Heartbeat CPU 0 instructions: 282000001 cycles: 3466118988 heartbeat IPC: 0.148327 cumulative IPC: 0.0810816 (Simulation time: 0 hr 29 min 20 sec) 
Heartbeat CPU 0 instructions: 283000001 cycles: 3473591807 heartbeat IPC: 0.133818 cumulative IPC: 0.0811951 (Simulation time: 0 hr 29 min 25 sec) 
Heartbeat CPU 0 instructions: 284000000 cycles: 3480968001 heartbeat IPC: 0.135571 cumulative IPC: 0.0813103 (Simulation time: 0 hr 29 min 30 sec) 
Heartbeat CPU 0 instructions: 285000000 cycles: 3491220557 heartbeat IPC: 0.0975367 cumulative IPC: 0.081358 (Simulation time: 0 hr 29 min 36 sec) 
Heartbeat CPU 0 instructions: 286000000 cycles: 3507218628 heartbeat IPC: 0.0625075 cumulative IPC: 0.081272 (Simulation time: 0 hr 29 min 44 sec) 
Heartbeat CPU 0 instructions: 287000000 cycles: 3519463741 heartbeat IPC: 0.0816652 cumulative IPC: 0.0812733 (Simulation time: 0 hr 29 min 51 sec) 
Heartbeat CPU 0 instructions: 288000001 cycles: 3527485064 heartbeat IPC: 0.124668 cumulative IPC: 0.081372 (Simulation time: 0 hr 29 min 56 sec) 
Heartbeat CPU 0 instructions: 289000000 cycles: 3535374999 heartbeat IPC: 0.126744 cumulative IPC: 0.0814733 (Simulation time: 0 hr 30 min 1 sec) 
Heartbeat CPU 0 instructions: 290000003 cycles: 3544136205 heartbeat IPC: 0.11414 cumulative IPC: 0.0815541 (Simulation time: 0 hr 30 min 6 sec) 
Heartbeat CPU 0 instructions: 291000003 cycles: 3555736769 heartbeat IPC: 0.0862027 cumulative IPC: 0.0815692 (Simulation time: 0 hr 30 min 12 sec) 
Heartbeat CPU 0 instructions: 292000000 cycles: 3574754055 heartbeat IPC: 0.0525836 cumulative IPC: 0.081415 (Simulation time: 0 hr 30 min 21 sec) 
Heartbeat CPU 0 instructions: 293000000 cycles: 3586719233 heartbeat IPC: 0.0835759 cumulative IPC: 0.0814222 (Simulation time: 0 hr 30 min 27 sec) 
Heartbeat CPU 0 instructions: 294000000 cycles: 3599115831 heartbeat IPC: 0.0806673 cumulative IPC: 0.0814196 (Simulation time: 0 hr 30 min 32 sec) 
Heartbeat CPU 0 instructions: 295000000 cycles: 3610812341 heartbeat IPC: 0.0854956 cumulative IPC: 0.0814328 (Simulation time: 0 hr 30 min 38 sec) 
Heartbeat CPU 0 instructions: 296000000 cycles: 3623199510 heartbeat IPC: 0.0807287 cumulative IPC: 0.0814304 (Simulation time: 0 hr 30 min 43 sec) 
Heartbeat CPU 0 instructions: 297000000 cycles: 3635844696 heartbeat IPC: 0.0790815 cumulative IPC: 0.0814223 (Simulation time: 0 hr 30 min 49 sec) 
Heartbeat CPU 0 instructions: 298000002 cycles: 3653431323 heartbeat IPC: 0.0568615 cumulative IPC: 0.081304 (Simulation time: 0 hr 30 min 57 sec) 
Heartbeat CPU 0 instructions: 299000000 cycles: 3667931439 heartbeat IPC: 0.0689648 cumulative IPC: 0.0812552 (Simulation time: 0 hr 31 min 4 sec) 
Heartbeat CPU 0 instructions: 300000000 cycles: 3680668818 heartbeat IPC: 0.0785091 cumulative IPC: 0.0812457 (Simulation time: 0 hr 31 min 10 sec) 
Heartbeat CPU 0 instructions: 301000000 cycles: 3693440267 heartbeat IPC: 0.0782996 cumulative IPC: 0.0812355 (Simulation time: 0 hr 31 min 16 sec) 
Heartbeat CPU 0 instructions: 302000000 cycles: 3705549353 heartbeat IPC: 0.0825826 cumulative IPC: 0.0812399 (Simulation time: 0 hr 31 min 21 sec) 
Heartbeat CPU 0 instructions: 303000002 cycles: 3717370541 heartbeat IPC: 0.084594 cumulative IPC: 0.0812506 (Simulation time: 0 hr 31 min 27 sec) 
Heartbeat CPU 0 instructions: 304000000 cycles: 3729794104 heartbeat IPC: 0.080492 cumulative IPC: 0.0812481 (Simulation time: 0 hr 31 min 32 sec) 
Heartbeat CPU 0 instructions: 305000003 cycles: 3749542132 heartbeat IPC: 0.0506381 cumulative IPC: 0.0810868 (Simulation time: 0 hr 31 min 42 sec) 
Heartbeat CPU 0 instructions: 306000000 cycles: 3762078221 heartbeat IPC: 0.0797695 cumulative IPC: 0.0810824 (Simulation time: 0 hr 31 min 48 sec) 
Heartbeat CPU 0 instructions: 307000001 cycles: 3773473535 heartbeat IPC: 0.0877555 cumulative IPC: 0.0811026 (Simulation time: 0 hr 31 min 54 sec) 
Heartbeat CPU 0 instructions: 308000000 cycles: 3785955170 heartbeat IPC: 0.0801176 cumulative IPC: 0.0810994 (Simulation time: 0 hr 31 min 59 sec) 
Heartbeat CPU 0 instructions: 309000000 cycles: 3799249656 heartbeat IPC: 0.0752192 cumulative IPC: 0.0810788 (Simulation time: 0 hr 32 min 5 sec) 
Heartbeat CPU 0 instructions: 310000000 cycles: 3812467498 heartbeat IPC: 0.0756553 cumulative IPC: 0.08106 (Simulation time: 0 hr 32 min 11 sec) 
Heartbeat CPU 0 instructions: 311000000 cycles: 3825497851 heartbeat IPC: 0.0767439 cumulative IPC: 0.0810453 (Simulation time: 0 hr 32 min 17 sec) 
Heartbeat CPU 0 instructions: 312000001 cycles: 3840306731 heartbeat IPC: 0.0675271 cumulative IPC: 0.0809931 (Simulation time: 0 hr 32 min 24 sec) 
Heartbeat CPU 0 instructions: 313000000 cycles: 3858040474 heartbeat IPC: 0.0563896 cumulative IPC: 0.08088 (Simulation time: 0 hr 32 min 33 sec) 
Heartbeat CPU 0 instructions: 314000000 cycles: 3864740349 heartbeat IPC: 0.149257 cumulative IPC: 0.0809986 (Simulation time: 0 hr 32 min 37 sec) 
Heartbeat CPU 0 instructions: 315000000 cycles: 3870910900 heartbeat IPC: 0.16206 cumulative IPC: 0.0811278 (Simulation time: 0 hr 32 min 41 sec) 
Heartbeat CPU 0 instructions: 316000000 cycles: 3886697897 heartbeat IPC: 0.0633433 cumulative IPC: 0.0810556 (Simulation time: 0 hr 32 min 49 sec) 
Heartbeat CPU 0 instructions: 317000000 cycles: 3897678253 heartbeat IPC: 0.0910717 cumulative IPC: 0.0810838 (Simulation time: 0 hr 32 min 55 sec) 
Heartbeat CPU 0 instructions: 318000003 cycles: 3902882842 heartbeat IPC: 0.192139 cumulative IPC: 0.0812319 (Simulation time: 0 hr 32 min 59 sec) 
Heartbeat CPU 0 instructions: 319000000 cycles: 3920526905 heartbeat IPC: 0.0566761 cumulative IPC: 0.0811214 (Simulation time: 0 hr 33 min 7 sec) 
Heartbeat CPU 0 instructions: 320000001 cycles: 3933803378 heartbeat IPC: 0.0753213 cumulative IPC: 0.0811018 (Simulation time: 0 hr 33 min 15 sec) 
Heartbeat CPU 0 instructions: 321000000 cycles: 3946670806 heartbeat IPC: 0.0777155 cumulative IPC: 0.0810908 (Simulation time: 0 hr 33 min 22 sec) 
Heartbeat CPU 0 instructions: 322000002 cycles: 3951956979 heartbeat IPC: 0.189173 cumulative IPC: 0.0812353 (Simulation time: 0 hr 33 min 26 sec) 
Heartbeat CPU 0 instructions: 323000000 cycles: 3957115216 heartbeat IPC: 0.193864 cumulative IPC: 0.0813822 (Simulation time: 0 hr 33 min 30 sec) 
Heartbeat CPU 0 instructions: 324000002 cycles: 3977172641 heartbeat IPC: 0.0498569 cumulative IPC: 0.0812232 (Simulation time: 0 hr 33 min 40 sec) 
Heartbeat CPU 0 instructions: 325000000 cycles: 3983190357 heartbeat IPC: 0.166176 cumulative IPC: 0.0813515 (Simulation time: 0 hr 33 min 44 sec) 
Heartbeat CPU 0 instructions: 326000002 cycles: 3990019570 heartbeat IPC: 0.14643 cumulative IPC: 0.0814629 (Simulation time: 0 hr 33 min 49 sec) 
Heartbeat CPU 0 instructions: 327000000 cycles: 4001927317 heartbeat IPC: 0.0839788 cumulative IPC: 0.0814704 (Simulation time: 0 hr 33 min 55 sec) 
Heartbeat CPU 0 instructions: 328000001 cycles: 4019398180 heartbeat IPC: 0.0572382 cumulative IPC: 0.0813651 (Simulation time: 0 hr 34 min 4 sec) 
Heartbeat CPU 0 instructions: 329000001 cycles: 4028998939 heartbeat IPC: 0.104158 cumulative IPC: 0.0814194 (Simulation time: 0 hr 34 min 8 sec) 
Heartbeat CPU 0 instructions: 330000000 cycles: 4039397138 heartbeat IPC: 0.0961704 cumulative IPC: 0.0814574 (Simulation time: 0 hr 34 min 14 sec) 
Heartbeat CPU 0 instructions: 331000003 cycles: 4050942159 heartbeat IPC: 0.0866177 cumulative IPC: 0.0814721 (Simulation time: 0 hr 34 min 19 sec) 
Heartbeat CPU 0 instructions: 332000003 cycles: 4067725440 heartbeat IPC: 0.0595831 cumulative IPC: 0.0813818 (Simulation time: 0 hr 34 min 27 sec) 
Heartbeat CPU 0 instructions: 333000000 cycles: 4083200889 heartbeat IPC: 0.0646183 cumulative IPC: 0.0813182 (Simulation time: 0 hr 34 min 35 sec) 
Heartbeat CPU 0 instructions: 334000000 cycles: 4095140636 heartbeat IPC: 0.0837539 cumulative IPC: 0.0813253 (Simulation time: 0 hr 34 min 40 sec) 
Heartbeat CPU 0 instructions: 335000002 cycles: 4107459342 heartbeat IPC: 0.0811775 cumulative IPC: 0.0813249 (Simulation time: 0 hr 34 min 46 sec) 
Heartbeat CPU 0 instructions: 336000000 cycles: 4118820220 heartbeat IPC: 0.0880212 cumulative IPC: 0.0813434 (Simulation time: 0 hr 34 min 51 sec) 
Heartbeat CPU 0 instructions: 337000000 cycles: 4130749828 heartbeat IPC: 0.0838251 cumulative IPC: 0.0813505 (Simulation time: 0 hr 34 min 57 sec) 
Heartbeat CPU 0 instructions: 338000000 cycles: 4146300214 heartbeat IPC: 0.0643071 cumulative IPC: 0.0812866 (Simulation time: 0 hr 35 min 5 sec) 
Heartbeat CPU 0 instructions: 339000002 cycles: 4162723207 heartbeat IPC: 0.0608904 cumulative IPC: 0.0812061 (Simulation time: 0 hr 35 min 13 sec) 
Heartbeat CPU 0 instructions: 340000001 cycles: 4174235371 heartbeat IPC: 0.0868646 cumulative IPC: 0.0812217 (Simulation time: 0 hr 35 min 18 sec) 
Heartbeat CPU 0 instructions: 341000000 cycles: 4185641323 heartbeat IPC: 0.0876734 cumulative IPC: 0.0812393 (Simulation time: 0 hr 35 min 23 sec) 
Heartbeat CPU 0 instructions: 342000000 cycles: 4196191223 heartbeat IPC: 0.0947876 cumulative IPC: 0.0812734 (Simulation time: 0 hr 35 min 28 sec) 
Heartbeat CPU 0 instructions: 343000000 cycles: 4212053502 heartbeat IPC: 0.0630426 cumulative IPC: 0.0812047 (Simulation time: 0 hr 35 min 36 sec) 
Heartbeat CPU 0 instructions: 344000000 cycles: 4228239619 heartbeat IPC: 0.0617813 cumulative IPC: 0.0811303 (Simulation time: 0 hr 35 min 44 sec) 
Heartbeat CPU 0 instructions: 345000000 cycles: 4240272310 heartbeat IPC: 0.0831069 cumulative IPC: 0.081136 (Simulation time: 0 hr 35 min 50 sec) 
Heartbeat CPU 0 instructions: 346000000 cycles: 4251044165 heartbeat IPC: 0.0928345 cumulative IPC: 0.0811656 (Simulation time: 0 hr 35 min 55 sec) 
Heartbeat CPU 0 instructions: 347000000 cycles: 4263070485 heartbeat IPC: 0.083151 cumulative IPC: 0.0811712 (Simulation time: 0 hr 36 min 1 sec) 
Heartbeat CPU 0 instructions: 348000000 cycles: 4276210319 heartbeat IPC: 0.0761045 cumulative IPC: 0.0811556 (Simulation time: 0 hr 36 min 7 sec) 
Heartbeat CPU 0 instructions: 349000003 cycles: 4291136212 heartbeat IPC: 0.0669979 cumulative IPC: 0.0811064 (Simulation time: 0 hr 36 min 14 sec) 
Heartbeat CPU 0 instructions: 350000001 cycles: 4308903224 heartbeat IPC: 0.056284 cumulative IPC: 0.081004 (Simulation time: 0 hr 36 min 22 sec) 
Heartbeat CPU 0 instructions: 351000002 cycles: 4322184192 heartbeat IPC: 0.0752958 cumulative IPC: 0.0809865 (Simulation time: 0 hr 36 min 28 sec) 
Heartbeat CPU 0 instructions: 352000000 cycles: 4334613963 heartbeat IPC: 0.0804518 cumulative IPC: 0.0809849 (Simulation time: 0 hr 36 min 34 sec) 
Heartbeat CPU 0 instructions: 353000000 cycles: 4356259213 heartbeat IPC: 0.0461995 cumulative IPC: 0.0808121 (Simulation time: 0 hr 36 min 43 sec) 
Heartbeat CPU 0 instructions: 354000000 cycles: 4368158615 heartbeat IPC: 0.0840378 cumulative IPC: 0.0808209 (Simulation time: 0 hr 36 min 48 sec) 
Heartbeat CPU 0 instructions: 355000000 cycles: 4381024253 heartbeat IPC: 0.0777264 cumulative IPC: 0.0808118 (Simulation time: 0 hr 36 min 54 sec) 
Heartbeat CPU 0 instructions: 356000002 cycles: 4395236960 heartbeat IPC: 0.0703597 cumulative IPC: 0.080778 (Simulation time: 0 hr 37 min 0 sec) 
Heartbeat CPU 0 instructions: 357000000 cycles: 4408044093 heartbeat IPC: 0.0780813 cumulative IPC: 0.0807701 (Simulation time: 0 hr 37 min 6 sec) 
Heartbeat CPU 0 instructions: 358000001 cycles: 4427891298 heartbeat IPC: 0.050385 cumulative IPC: 0.0806339 (Simulation time: 0 hr 37 min 16 sec) 
Heartbeat CPU 0 instructions: 359000002 cycles: 4440558170 heartbeat IPC: 0.0789462 cumulative IPC: 0.0806291 (Simulation time: 0 hr 37 min 22 sec) 
Heartbeat CPU 0 instructions: 360000002 cycles: 4452641242 heartbeat IPC: 0.0827604 cumulative IPC: 0.0806349 (Simulation time: 0 hr 37 min 27 sec) 
Heartbeat CPU 0 instructions: 361000001 cycles: 4465544582 heartbeat IPC: 0.0774992 cumulative IPC: 0.0806258 (Simulation time: 0 hr 37 min 33 sec) 
Heartbeat CPU 0 instructions: 362000001 cycles: 4479076930 heartbeat IPC: 0.073897 cumulative IPC: 0.0806055 (Simulation time: 0 hr 37 min 39 sec) 
Heartbeat CPU 0 instructions: 363000000 cycles: 4492068966 heartbeat IPC: 0.0769702 cumulative IPC: 0.080595 (Simulation time: 0 hr 37 min 45 sec) 
Heartbeat CPU 0 instructions: 364000000 cycles: 4504731035 heartbeat IPC: 0.078976 cumulative IPC: 0.0805904 (Simulation time: 0 hr 37 min 51 sec) 
Heartbeat CPU 0 instructions: 365000001 cycles: 4518245215 heartbeat IPC: 0.0739964 cumulative IPC: 0.0805707 (Simulation time: 0 hr 37 min 57 sec) 
Heartbeat CPU 0 instructions: 366000000 cycles: 4531771255 heartbeat IPC: 0.0739314 cumulative IPC: 0.0805509 (Simulation time: 0 hr 38 min 3 sec) 
Heartbeat CPU 0 instructions: 367000002 cycles: 4547788304 heartbeat IPC: 0.0624336 cumulative IPC: 0.0804871 (Simulation time: 0 hr 38 min 10 sec) 
Heartbeat CPU 0 instructions: 368000002 cycles: 4566240208 heartbeat IPC: 0.0541949 cumulative IPC: 0.0803808 (Simulation time: 0 hr 38 min 19 sec) 
Heartbeat CPU 0 instructions: 369000000 cycles: 4577276228 heartbeat IPC: 0.0906122 cumulative IPC: 0.0804055 (Simulation time: 0 hr 38 min 24 sec) 
Heartbeat CPU 0 instructions: 370000001 cycles: 4588504367 heartbeat IPC: 0.089062 cumulative IPC: 0.0804267 (Simulation time: 0 hr 38 min 30 sec) 
Heartbeat CPU 0 instructions: 371000000 cycles: 4601679774 heartbeat IPC: 0.0758989 cumulative IPC: 0.0804137 (Simulation time: 0 hr 38 min 36 sec) 
Heartbeat CPU 0 instructions: 372000002 cycles: 4614816072 heartbeat IPC: 0.0761251 cumulative IPC: 0.0804015 (Simulation time: 0 hr 38 min 41 sec) 
Heartbeat CPU 0 instructions: 373000002 cycles: 4627764624 heartbeat IPC: 0.0772287 cumulative IPC: 0.0803926 (Simulation time: 0 hr 38 min 47 sec) 
Heartbeat CPU 0 instructions: 374000000 cycles: 4640414393 heartbeat IPC: 0.0790527 cumulative IPC: 0.080389 (Simulation time: 0 hr 38 min 53 sec) 
Heartbeat CPU 0 instructions: 375000000 cycles: 4658219932 heartbeat IPC: 0.0561623 cumulative IPC: 0.0802964 (Simulation time: 0 hr 39 min 2 sec) 
Heartbeat CPU 0 instructions: 376000000 cycles: 4673408135 heartbeat IPC: 0.0658406 cumulative IPC: 0.0802494 (Simulation time: 0 hr 39 min 9 sec) 
Heartbeat CPU 0 instructions: 377000000 cycles: 4684736715 heartbeat IPC: 0.0882723 cumulative IPC: 0.0802688 (Simulation time: 0 hr 39 min 15 sec) 
Heartbeat CPU 0 instructions: 378000001 cycles: 4697213467 heartbeat IPC: 0.0801491 cumulative IPC: 0.0802685 (Simulation time: 0 hr 39 min 20 sec) 
Heartbeat CPU 0 instructions: 379000003 cycles: 4709396345 heartbeat IPC: 0.0820826 cumulative IPC: 0.0802732 (Simulation time: 0 hr 39 min 26 sec) 
Heartbeat CPU 0 instructions: 380000000 cycles: 4722180535 heartbeat IPC: 0.0782214 cumulative IPC: 0.0802676 (Simulation time: 0 hr 39 min 32 sec) 
Heartbeat CPU 0 instructions: 381000002 cycles: 4735128798 heartbeat IPC: 0.0772306 cumulative IPC: 0.0802593 (Simulation time: 0 hr 39 min 38 sec) 
Heartbeat CPU 0 instructions: 382000000 cycles: 4747206793 heartbeat IPC: 0.082795 cumulative IPC: 0.0802658 (Simulation time: 0 hr 39 min 44 sec) 
Heartbeat CPU 0 instructions: 383000002 cycles: 4758955003 heartbeat IPC: 0.0851195 cumulative IPC: 0.0802777 (Simulation time: 0 hr 39 min 49 sec) 
Heartbeat CPU 0 instructions: 384000000 cycles: 4775052032 heartbeat IPC: 0.0621231 cumulative IPC: 0.0802165 (Simulation time: 0 hr 39 min 57 sec) 
Heartbeat CPU 0 instructions: 385000000 cycles: 4792334620 heartbeat IPC: 0.0578617 cumulative IPC: 0.0801359 (Simulation time: 0 hr 40 min 5 sec) 
Heartbeat CPU 0 instructions: 386000001 cycles: 4804837139 heartbeat IPC: 0.079984 cumulative IPC: 0.0801355 (Simulation time: 0 hr 40 min 11 sec) 
Heartbeat CPU 0 instructions: 387000000 cycles: 4818544170 heartbeat IPC: 0.0729552 cumulative IPC: 0.0801151 (Simulation time: 0 hr 40 min 17 sec) 
Heartbeat CPU 0 instructions: 388000002 cycles: 4831827380 heartbeat IPC: 0.0752832 cumulative IPC: 0.0801018 (Simulation time: 0 hr 40 min 23 sec) 
Heartbeat CPU 0 instructions: 389000001 cycles: 4844795267 heartbeat IPC: 0.0771135 cumulative IPC: 0.0800938 (Simulation time: 0 hr 40 min 29 sec) 
Heartbeat CPU 0 instructions: 390000001 cycles: 4857498125 heartbeat IPC: 0.0787224 cumulative IPC: 0.0800902 (Simulation time: 0 hr 40 min 35 sec) 
Heartbeat CPU 0 instructions: 391000000 cycles: 4870575322 heartbeat IPC: 0.0764689 cumulative IPC: 0.0800805 (Simulation time: 0 hr 40 min 41 sec) 
Heartbeat CPU 0 instructions: 392000001 cycles: 4883204308 heartbeat IPC: 0.079183 cumulative IPC: 0.0800782 (Simulation time: 0 hr 40 min 47 sec) 
Heartbeat CPU 0 instructions: 393000000 cycles: 4896414860 heartbeat IPC: 0.075697 cumulative IPC: 0.0800663 (Simulation time: 0 hr 40 min 53 sec) 
Heartbeat CPU 0 instructions: 394000003 cycles: 4908952653 heartbeat IPC: 0.0797591 cumulative IPC: 0.0800656 (Simulation time: 0 hr 40 min 58 sec) 
Heartbeat CPU 0 instructions: 395000001 cycles: 4921833847 heartbeat IPC: 0.0776324 cumulative IPC: 0.0800592 (Simulation time: 0 hr 41 min 4 sec) 
Heartbeat CPU 0 instructions: 396000000 cycles: 4941440334 heartbeat IPC: 0.0510035 cumulative IPC: 0.0799439 (Simulation time: 0 hr 41 min 14 sec) 
Heartbeat CPU 0 instructions: 397000001 cycles: 4955444815 heartbeat IPC: 0.0714058 cumulative IPC: 0.0799198 (Simulation time: 0 hr 41 min 20 sec) 
Heartbeat CPU 0 instructions: 398000000 cycles: 4969070218 heartbeat IPC: 0.0733922 cumulative IPC: 0.0799019 (Simulation time: 0 hr 41 min 26 sec) 
Heartbeat CPU 0 instructions: 399000001 cycles: 4984105907 heartbeat IPC: 0.0665085 cumulative IPC: 0.0798615 (Simulation time: 0 hr 41 min 33 sec) 
Heartbeat CPU 0 instructions: 400000000 cycles: 4998488562 heartbeat IPC: 0.0695281 cumulative IPC: 0.0798317 (Simulation time: 0 hr 41 min 39 sec) 
Heartbeat CPU 0 instructions: 401000002 cycles: 5011745940 heartbeat IPC: 0.0754298 cumulative IPC: 0.0798201 (Simulation time: 0 hr 41 min 45 sec) 
Heartbeat CPU 0 instructions: 402000003 cycles: 5025231316 heartbeat IPC: 0.0741545 cumulative IPC: 0.0798049 (Simulation time: 0 hr 41 min 51 sec) 
Heartbeat CPU 0 instructions: 403000000 cycles: 5039819962 heartbeat IPC: 0.0685463 cumulative IPC: 0.0797723 (Simulation time: 0 hr 41 min 57 sec) 
Heartbeat CPU 0 instructions: 404000000 cycles: 5053705089 heartbeat IPC: 0.0720195 cumulative IPC: 0.079751 (Simulation time: 0 hr 42 min 3 sec) 
Heartbeat CPU 0 instructions: 405000000 cycles: 5066801221 heartbeat IPC: 0.0763584 cumulative IPC: 0.0797422 (Simulation time: 0 hr 42 min 9 sec) 
Heartbeat CPU 0 instructions: 406000000 cycles: 5080370519 heartbeat IPC: 0.0736958 cumulative IPC: 0.079726 (Simulation time: 0 hr 42 min 15 sec) 
Heartbeat CPU 0 instructions: 407000000 cycles: 5094300110 heartbeat IPC: 0.0717896 cumulative IPC: 0.0797043 (Simulation time: 0 hr 42 min 21 sec) 
Heartbeat CPU 0 instructions: 408000002 cycles: 5108010288 heartbeat IPC: 0.0729387 cumulative IPC: 0.0796862 (Simulation time: 0 hr 42 min 27 sec) 
Heartbeat CPU 0 instructions: 409000002 cycles: 5125315936 heartbeat IPC: 0.0577846 cumulative IPC: 0.0796122 (Simulation time: 0 hr 42 min 35 sec) 
Heartbeat CPU 0 instructions: 410000001 cycles: 5142345837 heartbeat IPC: 0.0587202 cumulative IPC: 0.079543 (Simulation time: 0 hr 42 min 44 sec) 
Heartbeat CPU 0 instructions: 411000001 cycles: 5155539110 heartbeat IPC: 0.0757962 cumulative IPC: 0.0795334 (Simulation time: 0 hr 42 min 50 sec) 
Heartbeat CPU 0 instructions: 412000000 cycles: 5168482937 heartbeat IPC: 0.0772568 cumulative IPC: 0.0795277 (Simulation time: 0 hr 42 min 55 sec) 
Heartbeat CPU 0 instructions: 413000000 cycles: 5181703043 heartbeat IPC: 0.0756424 cumulative IPC: 0.0795178 (Simulation time: 0 hr 43 min 1 sec) 
Heartbeat CPU 0 instructions: 414000000 cycles: 5194932490 heartbeat IPC: 0.0755889 cumulative IPC: 0.0795078 (Simulation time: 0 hr 43 min 7 sec) 
Heartbeat CPU 0 instructions: 415000000 cycles: 5207385728 heartbeat IPC: 0.0803004 cumulative IPC: 0.0795097 (Simulation time: 0 hr 43 min 13 sec) 
Heartbeat CPU 0 instructions: 416000002 cycles: 5218292028 heartbeat IPC: 0.0916903 cumulative IPC: 0.0795352 (Simulation time: 0 hr 43 min 18 sec) 
Heartbeat CPU 0 instructions: 417000001 cycles: 5231398405 heartbeat IPC: 0.0762987 cumulative IPC: 0.0795271 (Simulation time: 0 hr 43 min 24 sec) 
Heartbeat CPU 0 instructions: 418000000 cycles: 5244228781 heartbeat IPC: 0.07794 cumulative IPC: 0.0795232 (Simulation time: 0 hr 43 min 30 sec) 
Heartbeat CPU 0 instructions: 419000000 cycles: 5264214372 heartbeat IPC: 0.050036 cumulative IPC: 0.0794112 (Simulation time: 0 hr 43 min 40 sec) 
Heartbeat CPU 0 instructions: 420000000 cycles: 5273636580 heartbeat IPC: 0.106132 cumulative IPC: 0.079459 (Simulation time: 0 hr 43 min 45 sec) 
Heartbeat CPU 0 instructions: 421000000 cycles: 5279857956 heartbeat IPC: 0.160736 cumulative IPC: 0.0795548 (Simulation time: 0 hr 43 min 50 sec) 
Heartbeat CPU 0 instructions: 422000000 cycles: 5286041304 heartbeat IPC: 0.161725 cumulative IPC: 0.0796509 (Simulation time: 0 hr 43 min 54 sec) 
Heartbeat CPU 0 instructions: 423000003 cycles: 5304549722 heartbeat IPC: 0.0540296 cumulative IPC: 0.0795615 (Simulation time: 0 hr 44 min 3 sec) 
Heartbeat CPU 0 instructions: 424000001 cycles: 5314461547 heartbeat IPC: 0.100889 cumulative IPC: 0.0796013 (Simulation time: 0 hr 44 min 9 sec) 
Heartbeat CPU 0 instructions: 425000000 cycles: 5321171323 heartbeat IPC: 0.149036 cumulative IPC: 0.0796888 (Simulation time: 0 hr 44 min 13 sec) 
Heartbeat CPU 0 instructions: 426000000 cycles: 5327542914 heartbeat IPC: 0.156947 cumulative IPC: 0.0797812 (Simulation time: 0 hr 44 min 17 sec) 
Heartbeat CPU 0 instructions: 427000001 cycles: 5346601970 heartbeat IPC: 0.0524685 cumulative IPC: 0.0796839 (Simulation time: 0 hr 44 min 27 sec) 
Heartbeat CPU 0 instructions: 428000001 cycles: 5355629407 heartbeat IPC: 0.110773 cumulative IPC: 0.0797363 (Simulation time: 0 hr 44 min 32 sec) 
Heartbeat CPU 0 instructions: 429000000 cycles: 5362991192 heartbeat IPC: 0.135836 cumulative IPC: 0.0798133 (Simulation time: 0 hr 44 min 36 sec) 
Heartbeat CPU 0 instructions: 430000000 cycles: 5377534412 heartbeat IPC: 0.0687606 cumulative IPC: 0.0797834 (Simulation time: 0 hr 44 min 44 sec) 
Heartbeat CPU 0 instructions: 431000000 cycles: 5391869211 heartbeat IPC: 0.0697603 cumulative IPC: 0.0797567 (Simulation time: 0 hr 44 min 51 sec) 
Heartbeat CPU 0 instructions: 432000000 cycles: 5399971934 heartbeat IPC: 0.123415 cumulative IPC: 0.0798222 (Simulation time: 0 hr 44 min 55 sec) 
Heartbeat CPU 0 instructions: 433000000 cycles: 5409265927 heartbeat IPC: 0.107596 cumulative IPC: 0.07987 (Simulation time: 0 hr 45 min 0 sec) 
Heartbeat CPU 0 instructions: 434000000 cycles: 5427534467 heartbeat IPC: 0.0547389 cumulative IPC: 0.0797854 (Simulation time: 0 hr 45 min 10 sec) 
Heartbeat CPU 0 instructions: 435000001 cycles: 5433684723 heartbeat IPC: 0.162595 cumulative IPC: 0.0798791 (Simulation time: 0 hr 45 min 14 sec) 
Heartbeat CPU 0 instructions: 436000001 cycles: 5442830991 heartbeat IPC: 0.109334 cumulative IPC: 0.0799286 (Simulation time: 0 hr 45 min 19 sec) 
Heartbeat CPU 0 instructions: 437000000 cycles: 5458233088 heartbeat IPC: 0.0649262 cumulative IPC: 0.0798863 (Simulation time: 0 hr 45 min 27 sec) 
Heartbeat CPU 0 instructions: 438000001 cycles: 5470845732 heartbeat IPC: 0.0792856 cumulative IPC: 0.0798849 (Simulation time: 0 hr 45 min 33 sec) 
Heartbeat CPU 0 instructions: 439000000 cycles: 5477912755 heartbeat IPC: 0.141502 cumulative IPC: 0.0799644 (Simulation time: 0 hr 45 min 38 sec) 
Heartbeat CPU 0 instructions: 440000000 cycles: 5491845942 heartbeat IPC: 0.0717711 cumulative IPC: 0.0799436 (Simulation time: 0 hr 45 min 45 sec) 
Heartbeat CPU 0 instructions: 441000000 cycles: 5506688012 heartbeat IPC: 0.067376 cumulative IPC: 0.0799097 (Simulation time: 0 hr 45 min 52 sec) 
Heartbeat CPU 0 instructions: 442000000 cycles: 5514355200 heartbeat IPC: 0.130426 cumulative IPC: 0.07998 (Simulation time: 0 hr 45 min 57 sec) 
Heartbeat CPU 0 instructions: 443000001 cycles: 5525887657 heartbeat IPC: 0.0867119 cumulative IPC: 0.079994 (Simulation time: 0 hr 46 min 3 sec) 
Heartbeat CPU 0 instructions: 444000002 cycles: 5543218220 heartbeat IPC: 0.0577016 cumulative IPC: 0.0799243 (Simulation time: 0 hr 46 min 11 sec) 
Heartbeat CPU 0 instructions: 445000000 cycles: 5550371627 heartbeat IPC: 0.139793 cumulative IPC: 0.0800015 (Simulation time: 0 hr 46 min 16 sec) 
Heartbeat CPU 0 instructions: 446000000 cycles: 5559117749 heartbeat IPC: 0.114336 cumulative IPC: 0.0800555 (Simulation time: 0 hr 46 min 22 sec) 
Heartbeat CPU 0 instructions: 447000000 cycles: 5578221050 heartbeat IPC: 0.052347 cumulative IPC: 0.0799606 (Simulation time: 0 hr 46 min 31 sec) 
Heartbeat CPU 0 instructions: 448000000 cycles: 5585933423 heartbeat IPC: 0.129662 cumulative IPC: 0.0800292 (Simulation time: 0 hr 46 min 36 sec) 
Heartbeat CPU 0 instructions: 449000000 cycles: 5593508553 heartbeat IPC: 0.132011 cumulative IPC: 0.0800996 (Simulation time: 0 hr 46 min 40 sec) 
Heartbeat CPU 0 instructions: 450000002 cycles: 5612964330 heartbeat IPC: 0.0513987 cumulative IPC: 0.0800002 (Simulation time: 0 hr 46 min 50 sec) 

Warmup complete CPU 0 instructions: 450000002 cycles: 5612964330 (Simulation time: 0 hr 46 min 50 sec) 

Heartbeat CPU 0 instructions: 451000000 cycles: 5621148862 heartbeat IPC: 0.122181 cumulative IPC: 0.122181 (Simulation time: 0 hr 46 min 55 sec) 
Heartbeat CPU 0 instructions: 452000000 cycles: 5628199836 heartbeat IPC: 0.141824 cumulative IPC: 0.131272 (Simulation time: 0 hr 46 min 59 sec) 
Heartbeat CPU 0 instructions: 453000001 cycles: 5639484585 heartbeat IPC: 0.0886153 cumulative IPC: 0.113121 (Simulation time: 0 hr 47 min 5 sec) 
Heartbeat CPU 0 instructions: 454000002 cycles: 5648344520 heartbeat IPC: 0.112868 cumulative IPC: 0.113058 (Simulation time: 0 hr 47 min 10 sec) 
Heartbeat CPU 0 instructions: 455000001 cycles: 5655492481 heartbeat IPC: 0.1399 cumulative IPC: 0.117569 (Simulation time: 0 hr 47 min 15 sec) 
Heartbeat CPU 0 instructions: 456000002 cycles: 5665945883 heartbeat IPC: 0.0956627 cumulative IPC: 0.113247 (Simulation time: 0 hr 47 min 20 sec) 
Heartbeat CPU 0 instructions: 457000002 cycles: 5675452187 heartbeat IPC: 0.105193 cumulative IPC: 0.112022 (Simulation time: 0 hr 47 min 26 sec) 
Heartbeat CPU 0 instructions: 458000000 cycles: 5682313739 heartbeat IPC: 0.145739 cumulative IPC: 0.115358 (Simulation time: 0 hr 47 min 30 sec) 
Heartbeat CPU 0 instructions: 459000001 cycles: 5691922194 heartbeat IPC: 0.104075 cumulative IPC: 0.113985 (Simulation time: 0 hr 47 min 35 sec) 
Heartbeat CPU 0 instructions: 460000001 cycles: 5701903183 heartbeat IPC: 0.10019 cumulative IPC: 0.112437 (Simulation time: 0 hr 47 min 41 sec) 
Heartbeat CPU 0 instructions: 461000000 cycles: 5708738117 heartbeat IPC: 0.146307 cumulative IPC: 0.114854 (Simulation time: 0 hr 47 min 45 sec) 
Heartbeat CPU 0 instructions: 462000000 cycles: 5717159341 heartbeat IPC: 0.118748 cumulative IPC: 0.115169 (Simulation time: 0 hr 47 min 50 sec) 
Heartbeat CPU 0 instructions: 463000000 cycles: 5727960379 heartbeat IPC: 0.0925837 cumulative IPC: 0.113047 (Simulation time: 0 hr 47 min 56 sec) 
Heartbeat CPU 0 instructions: 464000000 cycles: 5735014425 heartbeat IPC: 0.141763 cumulative IPC: 0.114707 (Simulation time: 0 hr 48 min 1 sec) 
Heartbeat CPU 0 instructions: 465000002 cycles: 5742609608 heartbeat IPC: 0.131663 cumulative IPC: 0.1157 (Simulation time: 0 hr 48 min 5 sec) 
Heartbeat CPU 0 instructions: 466000000 cycles: 5753969653 heartbeat IPC: 0.0880276 cumulative IPC: 0.113471 (Simulation time: 0 hr 48 min 12 sec) 
Heartbeat CPU 0 instructions: 467000003 cycles: 5760999673 heartbeat IPC: 0.142248 cumulative IPC: 0.114837 (Simulation time: 0 hr 48 min 16 sec) 
Heartbeat CPU 0 instructions: 468000001 cycles: 5767853515 heartbeat IPC: 0.145903 cumulative IPC: 0.116212 (Simulation time: 0 hr 48 min 20 sec) 
Heartbeat CPU 0 instructions: 469000000 cycles: 5779937501 heartbeat IPC: 0.0827541 cumulative IPC: 0.113791 (Simulation time: 0 hr 48 min 27 sec) 
Heartbeat CPU 0 instructions: 470000002 cycles: 5787271552 heartbeat IPC: 0.136351 cumulative IPC: 0.11474 (Simulation time: 0 hr 48 min 32 sec) 
Heartbeat CPU 0 instructions: 471000002 cycles: 5793526873 heartbeat IPC: 0.159864 cumulative IPC: 0.116303 (Simulation time: 0 hr 48 min 36 sec) 
Heartbeat CPU 0 instructions: 472000000 cycles: 5804639267 heartbeat IPC: 0.0899894 cumulative IPC: 0.114778 (Simulation time: 0 hr 48 min 42 sec) 
Heartbeat CPU 0 instructions: 473000000 cycles: 5814863986 heartbeat IPC: 0.0978022 cumulative IPC: 0.113918 (Simulation time: 0 hr 48 min 47 sec) 
Heartbeat CPU 0 instructions: 474000000 cycles: 5822964890 heartbeat IPC: 0.123443 cumulative IPC: 0.114285 (Simulation time: 0 hr 48 min 52 sec) 
Heartbeat CPU 0 instructions: 475000001 cycles: 5832264274 heartbeat IPC: 0.107534 cumulative IPC: 0.113999 (Simulation time: 0 hr 48 min 57 sec) 
Heartbeat CPU 0 instructions: 476000000 cycles: 5843031395 heartbeat IPC: 0.0928752 cumulative IPC: 0.113011 (Simulation time: 0 hr 49 min 4 sec) 
Heartbeat CPU 0 instructions: 477000000 cycles: 5850499464 heartbeat IPC: 0.133903 cumulative IPC: 0.113667 (Simulation time: 0 hr 49 min 8 sec) 
Heartbeat CPU 0 instructions: 478000000 cycles: 5859079413 heartbeat IPC: 0.116551 cumulative IPC: 0.113768 (Simulation time: 0 hr 49 min 13 sec) 
Heartbeat CPU 0 instructions: 479000003 cycles: 5870587014 heartbeat IPC: 0.0868993 cumulative IPC: 0.112568 (Simulation time: 0 hr 49 min 20 sec) 
Heartbeat CPU 0 instructions: 480000000 cycles: 5880281041 heartbeat IPC: 0.103156 cumulative IPC: 0.112226 (Simulation time: 0 hr 49 min 25 sec) 
Heartbeat CPU 0 instructions: 481000001 cycles: 5887690187 heartbeat IPC: 0.134968 cumulative IPC: 0.11284 (Simulation time: 0 hr 49 min 29 sec) 
Heartbeat CPU 0 instructions: 482000003 cycles: 5899689573 heartbeat IPC: 0.0833378 cumulative IPC: 0.111605 (Simulation time: 0 hr 49 min 36 sec) 
Heartbeat CPU 0 instructions: 483000002 cycles: 5907403903 heartbeat IPC: 0.129629 cumulative IPC: 0.112077 (Simulation time: 0 hr 49 min 41 sec) 
Heartbeat CPU 0 instructions: 484000000 cycles: 5915071216 heartbeat IPC: 0.130424 cumulative IPC: 0.112543 (Simulation time: 0 hr 49 min 45 sec) 
Heartbeat CPU 0 instructions: 485000001 cycles: 5927072972 heartbeat IPC: 0.0833212 cumulative IPC: 0.111426 (Simulation time: 0 hr 49 min 52 sec) 
Heartbeat CPU 0 instructions: 486000000 cycles: 5937023051 heartbeat IPC: 0.100502 cumulative IPC: 0.111091 (Simulation time: 0 hr 49 min 57 sec) 
Heartbeat CPU 0 instructions: 487000000 cycles: 5945878013 heartbeat IPC: 0.112931 cumulative IPC: 0.11114 (Simulation time: 0 hr 50 min 2 sec) 
Heartbeat CPU 0 instructions: 488000003 cycles: 5956179784 heartbeat IPC: 0.097071 cumulative IPC: 0.110718 (Simulation time: 0 hr 50 min 8 sec) 
Heartbeat CPU 0 instructions: 489000002 cycles: 5967663279 heartbeat IPC: 0.0870814 cumulative IPC: 0.109952 (Simulation time: 0 hr 50 min 14 sec) 
Heartbeat CPU 0 instructions: 490000002 cycles: 5978138920 heartbeat IPC: 0.0954596 cumulative IPC: 0.109537 (Simulation time: 0 hr 50 min 19 sec) 
Heartbeat CPU 0 instructions: 491000000 cycles: 5987885713 heartbeat IPC: 0.102598 cumulative IPC: 0.109356 (Simulation time: 0 hr 50 min 25 sec) 
Heartbeat CPU 0 instructions: 492000002 cycles: 5998059850 heartbeat IPC: 0.0982886 cumulative IPC: 0.109064 (Simulation time: 0 hr 50 min 30 sec) 
Heartbeat CPU 0 instructions: 493000000 cycles: 6010279086 heartbeat IPC: 0.081838 cumulative IPC: 0.108227 (Simulation time: 0 hr 50 min 37 sec) 
Heartbeat CPU 0 instructions: 494000003 cycles: 6020486554 heartbeat IPC: 0.0979678 cumulative IPC: 0.10797 (Simulation time: 0 hr 50 min 42 sec) 
Heartbeat CPU 0 instructions: 495000000 cycles: 6030165543 heartbeat IPC: 0.103316 cumulative IPC: 0.107862 (Simulation time: 0 hr 50 min 47 sec) 
Heartbeat CPU 0 instructions: 496000000 cycles: 6039430543 heartbeat IPC: 0.107933 cumulative IPC: 0.107863 (Simulation time: 0 hr 50 min 52 sec) 
Heartbeat CPU 0 instructions: 497000000 cycles: 6051220522 heartbeat IPC: 0.0848178 cumulative IPC: 0.107243 (Simulation time: 0 hr 50 min 58 sec) 
Heartbeat CPU 0 instructions: 498000003 cycles: 6062730971 heartbeat IPC: 0.0868778 cumulative IPC: 0.106722 (Simulation time: 0 hr 51 min 4 sec) 
Heartbeat CPU 0 instructions: 499000001 cycles: 6074170359 heartbeat IPC: 0.0874171 cumulative IPC: 0.106243 (Simulation time: 0 hr 51 min 10 sec) 
Heartbeat CPU 0 instructions: 500000000 cycles: 6083277453 heartbeat IPC: 0.109804 cumulative IPC: 0.106312 (Simulation time: 0 hr 51 min 15 sec) 
Heartbeat CPU 0 instructions: 501000000 cycles: 6094447869 heartbeat IPC: 0.0895222 cumulative IPC: 0.105923 (Simulation time: 0 hr 51 min 20 sec) 
Heartbeat CPU 0 instructions: 502000000 cycles: 6107060972 heartbeat IPC: 0.0792826 cumulative IPC: 0.105243 (Simulation time: 0 hr 51 min 27 sec) 
Heartbeat CPU 0 instructions: 503000000 cycles: 6116087727 heartbeat IPC: 0.110782 cumulative IPC: 0.105342 (Simulation time: 0 hr 51 min 32 sec) 
Heartbeat CPU 0 instructions: 504000000 cycles: 6122881348 heartbeat IPC: 0.147197 cumulative IPC: 0.1059 (Simulation time: 0 hr 51 min 36 sec) 
Heartbeat CPU 0 instructions: 505000000 cycles: 6133237639 heartbeat IPC: 0.0965597 cumulative IPC: 0.105714 (Simulation time: 0 hr 51 min 42 sec) 
Heartbeat CPU 0 instructions: 506000000 cycles: 6143048769 heartbeat IPC: 0.101925 cumulative IPC: 0.105644 (Simulation time: 0 hr 51 min 48 sec) 
Heartbeat CPU 0 instructions: 507000001 cycles: 6150290395 heartbeat IPC: 0.138091 cumulative IPC: 0.106081 (Simulation time: 0 hr 51 min 52 sec) 
Heartbeat CPU 0 instructions: 508000000 cycles: 6158301199 heartbeat IPC: 0.124831 cumulative IPC: 0.106356 (Simulation time: 0 hr 51 min 57 sec) 
Heartbeat CPU 0 instructions: 509000002 cycles: 6169742842 heartbeat IPC: 0.0874002 cumulative IPC: 0.105967 (Simulation time: 0 hr 52 min 3 sec) 
Heartbeat CPU 0 instructions: 510000001 cycles: 6178762346 heartbeat IPC: 0.110871 cumulative IPC: 0.106045 (Simulation time: 0 hr 52 min 8 sec) 
Heartbeat CPU 0 instructions: 511000001 cycles: 6187426462 heartbeat IPC: 0.115419 cumulative IPC: 0.106186 (Simulation time: 0 hr 52 min 13 sec) 
Heartbeat CPU 0 instructions: 512000000 cycles: 6197012315 heartbeat IPC: 0.10432 cumulative IPC: 0.106156 (Simulation time: 0 hr 52 min 18 sec) 
Heartbeat CPU 0 instructions: 513000001 cycles: 6208234735 heartbeat IPC: 0.0891074 cumulative IPC: 0.105834 (Simulation time: 0 hr 52 min 24 sec) 
Heartbeat CPU 0 instructions: 514000000 cycles: 6218161285 heartbeat IPC: 0.10074 cumulative IPC: 0.105751 (Simulation time: 0 hr 52 min 30 sec) 
Heartbeat CPU 0 instructions: 515000001 cycles: 6228547741 heartbeat IPC: 0.0962793 cumulative IPC: 0.105591 (Simulation time: 0 hr 52 min 35 sec) 
Heartbeat CPU 0 instructions: 516000000 cycles: 6238441294 heartbeat IPC: 0.101076 cumulative IPC: 0.105519 (Simulation time: 0 hr 52 min 40 sec) 
Heartbeat CPU 0 instructions: 517000000 cycles: 6250635723 heartbeat IPC: 0.0820047 cumulative IPC: 0.10507 (Simulation time: 0 hr 52 min 47 sec) 
Heartbeat CPU 0 instructions: 518000002 cycles: 6260921279 heartbeat IPC: 0.0972239 cumulative IPC: 0.104945 (Simulation time: 0 hr 52 min 52 sec) 
Heartbeat CPU 0 instructions: 519000003 cycles: 6270532545 heartbeat IPC: 0.104045 cumulative IPC: 0.104932 (Simulation time: 0 hr 52 min 57 sec) 
Heartbeat CPU 0 instructions: 520000000 cycles: 6280271182 heartbeat IPC: 0.102683 cumulative IPC: 0.104899 (Simulation time: 0 hr 53 min 2 sec) 
Heartbeat CPU 0 instructions: 521000000 cycles: 6292117484 heartbeat IPC: 0.0844145 cumulative IPC: 0.104542 (Simulation time: 0 hr 53 min 9 sec) 
Heartbeat CPU 0 instructions: 522000000 cycles: 6304032581 heartbeat IPC: 0.0839271 cumulative IPC: 0.104187 (Simulation time: 0 hr 53 min 15 sec) 
Heartbeat CPU 0 instructions: 523000000 cycles: 6313671796 heartbeat IPC: 0.103743 cumulative IPC: 0.10418 (Simulation time: 0 hr 53 min 20 sec) 
Heartbeat CPU 0 instructions: 524000000 cycles: 6324373736 heartbeat IPC: 0.093441 cumulative IPC: 0.104019 (Simulation time: 0 hr 53 min 25 sec) 
Heartbeat CPU 0 instructions: 525000003 cycles: 6335586311 heartbeat IPC: 0.0891858 cumulative IPC: 0.103789 (Simulation time: 0 hr 53 min 30 sec) 
Heartbeat CPU 0 instructions: 526000001 cycles: 6347688320 heartbeat IPC: 0.0826307 cumulative IPC: 0.10344 (Simulation time: 0 hr 53 min 37 sec) 
Heartbeat CPU 0 instructions: 527000000 cycles: 6360343421 heartbeat IPC: 0.0790194 cumulative IPC: 0.103027 (Simulation time: 0 hr 53 min 43 sec) 
Heartbeat CPU 0 instructions: 528000000 cycles: 6371412935 heartbeat IPC: 0.0903382 cumulative IPC: 0.102842 (Simulation time: 0 hr 53 min 49 sec) 
Heartbeat CPU 0 instructions: 529000000 cycles: 6382728883 heartbeat IPC: 0.0883709 cumulative IPC: 0.102629 (Simulation time: 0 hr 53 min 54 sec) 
Heartbeat CPU 0 instructions: 530000002 cycles: 6394624054 heartbeat IPC: 0.0840679 cumulative IPC: 0.102346 (Simulation time: 0 hr 54 min 0 sec) 
Heartbeat CPU 0 instructions: 531000002 cycles: 6405787369 heartbeat IPC: 0.0895791 cumulative IPC: 0.102167 (Simulation time: 0 hr 54 min 5 sec) 
Heartbeat CPU 0 instructions: 532000001 cycles: 6416446742 heartbeat IPC: 0.0938141 cumulative IPC: 0.102056 (Simulation time: 0 hr 54 min 10 sec) 
Heartbeat CPU 0 instructions: 533000000 cycles: 6429151299 heartbeat IPC: 0.0787118 cumulative IPC: 0.101692 (Simulation time: 0 hr 54 min 17 sec) 
Heartbeat CPU 0 instructions: 534000002 cycles: 6442760590 heartbeat IPC: 0.0734794 cumulative IPC: 0.10123 (Simulation time: 0 hr 54 min 24 sec) 
Heartbeat CPU 0 instructions: 535000002 cycles: 6456066906 heartbeat IPC: 0.0751523 cumulative IPC: 0.100818 (Simulation time: 0 hr 54 min 30 sec) 
Heartbeat CPU 0 instructions: 536000001 cycles: 6467673417 heartbeat IPC: 0.0861584 cumulative IPC: 0.100619 (Simulation time: 0 hr 54 min 35 sec) 
Heartbeat CPU 0 instructions: 537000000 cycles: 6477878014 heartbeat IPC: 0.097995 cumulative IPC: 0.100588 (Simulation time: 0 hr 54 min 40 sec) 
[...]
Heartbeat CPU 0 instructions: 838000002 cycles: 9736831281 heartbeat IPC: 0.102767 cumulative IPC: 0.0940864 (Simulation time: 1 hr 23 min 7 sec) 
Heartbeat CPU 0 instructions: 839000000 cycles: 9746359749 heartbeat IPC: 0.104948 cumulative IPC: 0.0941115 (Simulation time: 1 hr 23 min 13 sec) 
Heartbeat CPU 0 instructions: 840000003 cycles: 9755267941 heartbeat IPC: 0.112257 cumulative IPC: 0.0941505 (Simulation time: 1 hr 23 min 18 sec) 
Heartbeat CPU 0 instructions: 841000000 cycles: 9764125696 heartbeat IPC: 0.112895 cumulative IPC: 0.0941905 (Simulation time: 1 hr 23 min 23 sec) 
Heartbeat CPU 0 instructions: 842000000 cycles: 9773077371 heartbeat IPC: 0.111711 cumulative IPC: 0.0942282 (Simulation time: 1 hr 23 min 28 sec) 
Heartbeat CPU 0 instructions: 843000001 cycles: 9785615187 heartbeat IPC: 0.0797588 cumulative IPC: 0.0941847 (Simulation time: 1 hr 23 min 35 sec) 
Heartbeat CPU 0 instructions: 844000003 cycles: 9795854600 heartbeat IPC: 0.097662 cumulative IPC: 0.0941932 (Simulation time: 1 hr 23 min 40 sec) 
Heartbeat CPU 0 instructions: 845000000 cycles: 9806152999 heartbeat IPC: 0.0971022 cumulative IPC: 0.0942004 (Simulation time: 1 hr 23 min 46 sec) 
Heartbeat CPU 0 instructions: 846000002 cycles: 9816573180 heartbeat IPC: 0.0959678 cumulative IPC: 0.0942048 (Simulation time: 1 hr 23 min 51 sec) 
Heartbeat CPU 0 instructions: 847000000 cycles: 9827343315 heartbeat IPC: 0.0928492 cumulative IPC: 0.0942013 (Simulation time: 1 hr 23 min 57 sec) 
Heartbeat CPU 0 instructions: 848000001 cycles: 9837321341 heartbeat IPC: 0.10022 cumulative IPC: 0.0942155 (Simulation time: 1 hr 24 min 2 sec) 
Heartbeat CPU 0 instructions: 849000002 cycles: 9846789984 heartbeat IPC: 0.105612 cumulative IPC: 0.094241 (Simulation time: 1 hr 24 min 7 sec) 
Heartbeat CPU 0 instructions: 850000000 cycles: 9856617579 heartbeat IPC: 0.101754 cumulative IPC: 0.0942584 (Simulation time: 1 hr 24 min 12 sec) 
Heartbeat CPU 0 instructions: 851000003 cycles: 9867907721 heartbeat IPC: 0.0885731 cumulative IPC: 0.0942433 (Simulation time: 1 hr 24 min 18 sec) 
Heartbeat CPU 0 instructions: 852000001 cycles: 9879714697 heartbeat IPC: 0.0846955 cumulative IPC: 0.0942169 (Simulation time: 1 hr 24 min 24 sec) 
Heartbeat CPU 0 instructions: 853000000 cycles: 9892479008 heartbeat IPC: 0.0783434 cumulative IPC: 0.0941696 (Simulation time: 1 hr 24 min 31 sec) 
Heartbeat CPU 0 instructions: 854000002 cycles: 9901286409 heartbeat IPC: 0.113541 cumulative IPC: 0.0942093 (Simulation time: 1 hr 24 min 36 sec) 
Heartbeat CPU 0 instructions: 855000000 cycles: 9910351091 heartbeat IPC: 0.110318 cumulative IPC: 0.0942433 (Simulation time: 1 hr 24 min 41 sec) 
Heartbeat CPU 0 instructions: 856000002 cycles: 9918938416 heartbeat IPC: 0.116451 cumulative IPC: 0.0942876 (Simulation time: 1 hr 24 min 46 sec) 
Heartbeat CPU 0 instructions: 857000001 cycles: 9931242621 heartbeat IPC: 0.0812729 cumulative IPC: 0.0942505 (Simulation time: 1 hr 24 min 52 sec) 
Heartbeat CPU 0 instructions: 858000000 cycles: 9941097087 heartbeat IPC: 0.101477 cumulative IPC: 0.094267 (Simulation time: 1 hr 24 min 58 sec) 
Heartbeat CPU 0 instructions: 859000001 cycles: 9949184412 heartbeat IPC: 0.12365 cumulative IPC: 0.0943218 (Simulation time: 1 hr 25 min 3 sec) 
Heartbeat CPU 0 instructions: 860000000 cycles: 9955884574 heartbeat IPC: 0.14925 cumulative IPC: 0.0944065 (Simulation time: 1 hr 25 min 7 sec) 
Heartbeat CPU 0 instructions: 861000002 cycles: 9967000254 heartbeat IPC: 0.0899632 cumulative IPC: 0.0943952 (Simulation time: 1 hr 25 min 13 sec) 
Heartbeat CPU 0 instructions: 862000000 cycles: 9975083705 heartbeat IPC: 0.123709 cumulative IPC: 0.0944495 (Simulation time: 1 hr 25 min 18 sec) 
Heartbeat CPU 0 instructions: 863000000 cycles: 9981415316 heartbeat IPC: 0.157938 cumulative IPC: 0.0945415 (Simulation time: 1 hr 25 min 23 sec) 
Heartbeat CPU 0 instructions: 864000002 cycles: 9989895715 heartbeat IPC: 0.117919 cumulative IPC: 0.0945868 (Simulation time: 1 hr 25 min 28 sec) 
Heartbeat CPU 0 instructions: 865000000 cycles: 10000505655 heartbeat IPC: 0.0942511 cumulative IPC: 0.094586 (Simulation time: 1 hr 25 min 34 sec) 
Heartbeat CPU 0 instructions: 866000000 cycles: 10006645794 heartbeat IPC: 0.162863 cumulative IPC: 0.0946814 (Simulation time: 1 hr 25 min 38 sec) 
Heartbeat CPU 0 instructions: 867000001 cycles: 10012944384 heartbeat IPC: 0.158766 cumulative IPC: 0.0947732 (Simulation time: 1 hr 25 min 43 sec) 
Heartbeat CPU 0 instructions: 868000001 cycles: 10024656193 heartbeat IPC: 0.0853839 cumulative IPC: 0.0947482 (Simulation time: 1 hr 25 min 49 sec) 
Heartbeat CPU 0 instructions: 869000000 cycles: 10032686882 heartbeat IPC: 0.124522 cumulative IPC: 0.0948023 (Simulation time: 1 hr 25 min 54 sec) 
Heartbeat CPU 0 instructions: 870000000 cycles: 10039436954 heartbeat IPC: 0.148147 cumulative IPC: 0.0948837 (Simulation time: 1 hr 25 min 59 sec) 
Heartbeat CPU 0 instructions: 871000000 cycles: 10046586600 heartbeat IPC: 0.139867 cumulative IPC: 0.0949562 (Simulation time: 1 hr 26 min 4 sec) 
Heartbeat CPU 0 instructions: 872000000 cycles: 10058709749 heartbeat IPC: 0.0824868 cumulative IPC: 0.0949222 (Simulation time: 1 hr 26 min 10 sec) 
Heartbeat CPU 0 instructions: 873000000 cycles: 10066626576 heartbeat IPC: 0.126313 cumulative IPC: 0.094978 (Simulation time: 1 hr 26 min 15 sec) 
Heartbeat CPU 0 instructions: 874000000 cycles: 10074165673 heartbeat IPC: 0.132642 cumulative IPC: 0.0950417 (Simulation time: 1 hr 26 min 20 sec) 
Heartbeat CPU 0 instructions: 875000000 cycles: 10080569089 heartbeat IPC: 0.156167 cumulative IPC: 0.0951293 (Simulation time: 1 hr 26 min 24 sec) 
Heartbeat CPU 0 instructions: 876000003 cycles: 10092254402 heartbeat IPC: 0.0855778 cumulative IPC: 0.0951044 (Simulation time: 1 hr 26 min 31 sec) 
Heartbeat CPU 0 instructions: 877000000 cycles: 10100467967 heartbeat IPC: 0.121749 cumulative IPC: 0.0951531 (Simulation time: 1 hr 26 min 36 sec) 
Heartbeat CPU 0 instructions: 878000002 cycles: 10108379088 heartbeat IPC: 0.126405 cumulative IPC: 0.0952081 (Simulation time: 1 hr 26 min 41 sec) 
Heartbeat CPU 0 instructions: 879000002 cycles: 10116877046 heartbeat IPC: 0.117675 cumulative IPC: 0.0952505 (Simulation time: 1 hr 26 min 46 sec) 
Heartbeat CPU 0 instructions: 880000000 cycles: 10125128304 heartbeat IPC: 0.121193 cumulative IPC: 0.095298 (Simulation time: 1 hr 26 min 51 sec) 
Heartbeat CPU 0 instructions: 881000003 cycles: 10134986962 heartbeat IPC: 0.101434 cumulative IPC: 0.0953113 (Simulation time: 1 hr 26 min 57 sec) 
Heartbeat CPU 0 instructions: 882000002 cycles: 10146387547 heartbeat IPC: 0.0877147 cumulative IPC: 0.0952922 (Simulation time: 1 hr 27 min 3 sec) 
Heartbeat CPU 0 instructions: 883000002 cycles: 10155191970 heartbeat IPC: 0.113579 cumulative IPC: 0.0953277 (Simulation time: 1 hr 27 min 9 sec) 
Heartbeat CPU 0 instructions: 884000001 cycles: 10163288391 heartbeat IPC: 0.123511 cumulative IPC: 0.0953778 (Simulation time: 1 hr 27 min 13 sec) 
Heartbeat CPU 0 instructions: 885000000 cycles: 10171894690 heartbeat IPC: 0.116194 cumulative IPC: 0.0954171 (Simulation time: 1 hr 27 min 18 sec) 
Heartbeat CPU 0 instructions: 886000001 cycles: 10180607614 heartbeat IPC: 0.114772 cumulative IPC: 0.095454 (Simulation time: 1 hr 27 min 24 sec) 
Heartbeat CPU 0 instructions: 887000001 cycles: 10193104203 heartbeat IPC: 0.0800218 cumulative IPC: 0.0954119 (Simulation time: 1 hr 27 min 30 sec) 
Heartbeat CPU 0 instructions: 888000000 cycles: 10201771092 heartbeat IPC: 0.115382 cumulative IPC: 0.0954496 (Simulation time: 1 hr 27 min 36 sec) 
Heartbeat CPU 0 instructions: 889000000 cycles: 10210368656 heartbeat IPC: 0.116312 cumulative IPC: 0.0954887 (Simulation time: 1 hr 27 min 41 sec) 
Heartbeat CPU 0 instructions: 890000001 cycles: 10219875416 heartbeat IPC: 0.105188 cumulative IPC: 0.0955087 (Simulation time: 1 hr 27 min 46 sec) 
Heartbeat CPU 0 instructions: 891000000 cycles: 10228742529 heartbeat IPC: 0.112776 cumulative IPC: 0.0955418 (Simulation time: 1 hr 27 min 51 sec) 
Heartbeat CPU 0 instructions: 892000001 cycles: 10237681271 heartbeat IPC: 0.111873 cumulative IPC: 0.0955734 (Simulation time: 1 hr 27 min 56 sec) 
Heartbeat CPU 0 instructions: 893000003 cycles: 10249829567 heartbeat IPC: 0.0823162 cumulative IPC: 0.0955387 (Simulation time: 1 hr 28 min 3 sec) 
Heartbeat CPU 0 instructions: 894000000 cycles: 10259816125 heartbeat IPC: 0.100134 cumulative IPC: 0.0955486 (Simulation time: 1 hr 28 min 8 sec) 
Heartbeat CPU 0 instructions: 895000000 cycles: 10270030553 heartbeat IPC: 0.0979007 cumulative IPC: 0.0955537 (Simulation time: 1 hr 28 min 14 sec) 
Heartbeat CPU 0 instructions: 896000002 cycles: 10279882480 heartbeat IPC: 0.101503 cumulative IPC: 0.0955663 (Simulation time: 1 hr 28 min 19 sec) 
Heartbeat CPU 0 instructions: 897000002 cycles: 10289373778 heartbeat IPC: 0.10536 cumulative IPC: 0.0955862 (Simulation time: 1 hr 28 min 25 sec) 
Heartbeat CPU 0 instructions: 898000000 cycles: 10299884092 heartbeat IPC: 0.0951444 cumulative IPC: 0.0955852 (Simulation time: 1 hr 28 min 30 sec) 
Heartbeat CPU 0 instructions: 899000000 cycles: 10309660888 heartbeat IPC: 0.102283 cumulative IPC: 0.0955991 (Simulation time: 1 hr 28 min 35 sec) 
Heartbeat CPU 0 instructions: 900000002 cycles: 10319413098 heartbeat IPC: 0.102541 cumulative IPC: 0.0956135 (Simulation time: 1 hr 28 min 40 sec) 
Heartbeat CPU 0 instructions: 901000001 cycles: 10329637485 heartbeat IPC: 0.0978053 cumulative IPC: 0.0956182 (Simulation time: 1 hr 28 min 46 sec) 
Heartbeat CPU 0 instructions: 902000000 cycles: 10340116543 heartbeat IPC: 0.0954283 cumulative IPC: 0.0956178 (Simulation time: 1 hr 28 min 52 sec) 
Heartbeat CPU 0 instructions: 903000000 cycles: 10350171975 heartbeat IPC: 0.0994487 cumulative IPC: 0.095626 (Simulation time: 1 hr 28 min 57 sec) 
Heartbeat CPU 0 instructions: 904000000 cycles: 10361092232 heartbeat IPC: 0.0915729 cumulative IPC: 0.0956166 (Simulation time: 1 hr 29 min 3 sec) 
Heartbeat CPU 0 instructions: 905000003 cycles: 10373629756 heartbeat IPC: 0.0797608 cumulative IPC: 0.0955749 (Simulation time: 1 hr 29 min 10 sec) 
Heartbeat CPU 0 instructions: 906000000 cycles: 10383774261 heartbeat IPC: 0.0985752 cumulative IPC: 0.0955813 (Simulation time: 1 hr 29 min 15 sec) 
Heartbeat CPU 0 instructions: 907000003 cycles: 10392722663 heartbeat IPC: 0.111752 cumulative IPC: 0.0956115 (Simulation time: 1 hr 29 min 20 sec) 
Heartbeat CPU 0 instructions: 908000002 cycles: 10402309694 heartbeat IPC: 0.104307 cumulative IPC: 0.0956289 (Simulation time: 1 hr 29 min 25 sec) 
Heartbeat CPU 0 instructions: 909000001 cycles: 10411989978 heartbeat IPC: 0.103303 cumulative IPC: 0.0956444 (Simulation time: 1 hr 29 min 31 sec) 
Heartbeat CPU 0 instructions: 910000001 cycles: 10421649817 heartbeat IPC: 0.103521 cumulative IPC: 0.0956602 (Simulation time: 1 hr 29 min 36 sec) 
Heartbeat CPU 0 instructions: 911000001 cycles: 10433331027 heartbeat IPC: 0.0856076 cumulative IPC: 0.0956359 (Simulation time: 1 hr 29 min 42 sec) 
Heartbeat CPU 0 instructions: 912000000 cycles: 10444362767 heartbeat IPC: 0.0906474 cumulative IPC: 0.0956245 (Simulation time: 1 hr 29 min 48 sec) 
Heartbeat CPU 0 instructions: 913000000 cycles: 10455209423 heartbeat IPC: 0.0921943 cumulative IPC: 0.0956168 (Simulation time: 1 hr 29 min 54 sec) 
Heartbeat CPU 0 instructions: 914000000 cycles: 10467740169 heartbeat IPC: 0.0798037 cumulative IPC: 0.095576 (Simulation time: 1 hr 30 min 1 sec) 
Heartbeat CPU 0 instructions: 915000000 cycles: 10478449482 heartbeat IPC: 0.0933767 cumulative IPC: 0.0955711 (Simulation time: 1 hr 30 min 6 sec) 
Heartbeat CPU 0 instructions: 916000002 cycles: 10488063322 heartbeat IPC: 0.104017 cumulative IPC: 0.0955878 (Simulation time: 1 hr 30 min 12 sec) 
Heartbeat CPU 0 instructions: 917000001 cycles: 10498083316 heartbeat IPC: 0.0998004 cumulative IPC: 0.0955964 (Simulation time: 1 hr 30 min 17 sec) 
Heartbeat CPU 0 instructions: 918000000 cycles: 10508152498 heartbeat IPC: 0.0993128 cumulative IPC: 0.0956041 (Simulation time: 1 hr 30 min 22 sec) 
Heartbeat CPU 0 instructions: 919000000 cycles: 10515671111 heartbeat IPC: 0.133003 cumulative IPC: 0.0956614 (Simulation time: 1 hr 30 min 27 sec) 
Heartbeat CPU 0 instructions: 920000001 cycles: 10524295382 heartbeat IPC: 0.115952 cumulative IPC: 0.0956971 (Simulation time: 1 hr 30 min 32 sec) 
Heartbeat CPU 0 instructions: 921000001 cycles: 10536797285 heartbeat IPC: 0.0799878 cumulative IPC: 0.0956572 (Simulation time: 1 hr 30 min 39 sec) 
Heartbeat CPU 0 instructions: 922000001 cycles: 10545092995 heartbeat IPC: 0.120544 cumulative IPC: 0.095699 (Simulation time: 1 hr 30 min 43 sec) 
Heartbeat CPU 0 instructions: 923000001 cycles: 10552010616 heartbeat IPC: 0.144558 cumulative IPC: 0.0957675 (Simulation time: 1 hr 30 min 48 sec) 
Heartbeat CPU 0 instructions: 924000000 cycles: 10561264464 heartbeat IPC: 0.108063 cumulative IPC: 0.0957905 (Simulation time: 1 hr 30 min 53 sec) 
Heartbeat CPU 0 instructions: 925000000 cycles: 10570366725 heartbeat IPC: 0.109863 cumulative IPC: 0.0958163 (Simulation time: 1 hr 30 min 59 sec) 
Heartbeat CPU 0 instructions: 926000002 cycles: 10576256509 heartbeat IPC: 0.169786 cumulative IPC: 0.0959041 (Simulation time: 1 hr 31 min 3 sec) 
Heartbeat CPU 0 instructions: 927000002 cycles: 10585601335 heartbeat IPC: 0.107011 cumulative IPC: 0.095925 (Simulation time: 1 hr 31 min 8 sec) 
Heartbeat CPU 0 instructions: 928000001 cycles: 10594683931 heartbeat IPC: 0.110101 cumulative IPC: 0.0959508 (Simulation time: 1 hr 31 min 14 sec) 
Heartbeat CPU 0 instructions: 929000002 cycles: 10601221482 heartbeat IPC: 0.152963 cumulative IPC: 0.0960255 (Simulation time: 1 hr 31 min 18 sec) 
Heartbeat CPU 0 instructions: 930000000 cycles: 10611059799 heartbeat IPC: 0.101643 cumulative IPC: 0.0960366 (Simulation time: 1 hr 31 min 23 sec) 
Heartbeat CPU 0 instructions: 931000000 cycles: 10621025268 heartbeat IPC: 0.100347 cumulative IPC: 0.0960452 (Simulation time: 1 hr 31 min 29 sec) 
Heartbeat CPU 0 instructions: 932000000 cycles: 10631902719 heartbeat IPC: 0.0919333 cumulative IPC: 0.0960362 (Simulation time: 1 hr 31 min 35 sec) 
Heartbeat CPU 0 instructions: 933000002 cycles: 10643644133 heartbeat IPC: 0.0851688 cumulative IPC: 0.0960109 (Simulation time: 1 hr 31 min 41 sec) 
Heartbeat CPU 0 instructions: 934000002 cycles: 10654095240 heartbeat IPC: 0.0956836 cumulative IPC: 0.0960102 (Simulation time: 1 hr 31 min 47 sec) 
Heartbeat CPU 0 instructions: 935000000 cycles: 10666404441 heartbeat IPC: 0.0812399 cumulative IPC: 0.0959742 (Simulation time: 1 hr 31 min 53 sec) 
Heartbeat CPU 0 instructions: 936000002 cycles: 10675264015 heartbeat IPC: 0.112872 cumulative IPC: 0.0960038 (Simulation time: 1 hr 31 min 58 sec) 
Heartbeat CPU 0 instructions: 937000002 cycles: 10685669515 heartbeat IPC: 0.096103 cumulative IPC: 0.096004 (Simulation time: 1 hr 32 min 4 sec) 
Heartbeat CPU 0 instructions: 938000000 cycles: 10697002739 heartbeat IPC: 0.088236 cumulative IPC: 0.0959867 (Simulation time: 1 hr 32 min 9 sec) 
Heartbeat CPU 0 instructions: 939000000 cycles: 10707522457 heartbeat IPC: 0.0950596 cumulative IPC: 0.0959848 (Simulation time: 1 hr 32 min 15 sec) 
Heartbeat CPU 0 instructions: 940000002 cycles: 10717795289 heartbeat IPC: 0.0973443 cumulative IPC: 0.0959875 (Simulation time: 1 hr 32 min 20 sec) 
Heartbeat CPU 0 instructions: 941000000 cycles: 10728731474 heartbeat IPC: 0.0914394 cumulative IPC: 0.0959778 (Simulation time: 1 hr 32 min 26 sec) 
Heartbeat CPU 0 instructions: 942000002 cycles: 10738819872 heartbeat IPC: 0.099124 cumulative IPC: 0.095984 (Simulation time: 1 hr 32 min 31 sec) 
Heartbeat CPU 0 instructions: 943000000 cycles: 10748862428 heartbeat IPC: 0.099576 cumulative IPC: 0.095991 (Simulation time: 1 hr 32 min 36 sec) 
Heartbeat CPU 0 instructions: 944000000 cycles: 10760477096 heartbeat IPC: 0.086098 cumulative IPC: 0.0959687 (Simulation time: 1 hr 32 min 43 sec) 
Heartbeat CPU 0 instructions: 945000000 cycles: 10772954555 heartbeat IPC: 0.0801445 cumulative IPC: 0.0959304 (Simulation time: 1 hr 32 min 49 sec) 
Heartbeat CPU 0 instructions: 946000000 cycles: 10783607918 heartbeat IPC: 0.0938671 cumulative IPC: 0.0959262 (Simulation time: 1 hr 32 min 55 sec) 
Heartbeat CPU 0 instructions: 947000003 cycles: 10793531665 heartbeat IPC: 0.100769 cumulative IPC: 0.0959354 (Simulation time: 1 hr 33 min 0 sec) 
Heartbeat CPU 0 instructions: 948000000 cycles: 10803406899 heartbeat IPC: 0.101263 cumulative IPC: 0.0959456 (Simulation time: 1 hr 33 min 6 sec) 
Heartbeat CPU 0 instructions: 949000001 cycles: 10814066699 heartbeat IPC: 0.0938105 cumulative IPC: 0.0959412 (Simulation time: 1 hr 33 min 11 sec) 
Heartbeat CPU 0 instructions: 950000002 cycles: 10824591344 heartbeat IPC: 0.0950152 cumulative IPC: 0.0959393 (Simulation time: 1 hr 33 min 16 sec) 
Finished CPU 0 instructions: 500000000 cycles: 5211627014 cumulative IPC: 0.0959393 (Simulation time: 1 hr 33 min 16 sec) 

ChampSim completed all CPUs

Region of Interest Statistics

CPU 0 cumulative IPC: 0.0959393 instructions: 500000000 cycles: 5211627014
L1D TOTAL     ACCESS:  117951719  HIT:   44607257  MISS:   73344462
L1D LOAD      ACCESS:  102805704  HIT:   30178110  MISS:   72627594
L1D RFO       ACCESS:   15146015  HIT:   14429147  MISS:     716868
L1D PREFETCH  ACCESS:          0  HIT:          0  MISS:          0
L1D WRITEBACK ACCESS:          0  HIT:          0  MISS:          0
L1D PREFETCH  REQUESTED:          0  ISSUED:          0  USEFUL:          0  USELESS:          0
L1D AVERAGE MISS LATENCY: 117.969 cycles
L1I TOTAL     ACCESS:   95112743  HIT:   95112743  MISS:          0
L1I LOAD      ACCESS:   95112743  HIT:   95112743  MISS:          0
L1I RFO       ACCESS:          0  HIT:          0  MISS:          0
L1I PREFETCH  ACCESS:          0  HIT:          0  MISS:          0
L1I WRITEBACK ACCESS:          0  HIT:          0  MISS:          0
L1I PREFETCH  REQUESTED:          0  ISSUED:          0  USEFUL:          0  USELESS:          0
L1I AVERAGE MISS LATENCY: -nan cycles
L2C TOTAL     ACCESS:   80995886  HIT:   26694848  MISS:   54301038
L2C LOAD      ACCESS:   72626738  HIT:   18809975  MISS:   53816763
L2C RFO       ACCESS:     716832  HIT:     232733  MISS:     484099
L2C PREFETCH  ACCESS:          0  HIT:          0  MISS:          0
L2C WRITEBACK ACCESS:    7652316  HIT:    7652140  MISS:        176
L2C PREFETCH  REQUESTED:          0  ISSUED:          0  USEFUL:          0  USELESS:          0
L2C AVERAGE MISS LATENCY: 136.729 cycles
LLC TOTAL     ACCESS:   95314896  HIT:   49617208  MISS:   45697688
LLC LOAD      ACCESS:   53816728  HIT:   24951278  MISS:   28865450
LLC RFO       ACCESS:     484099  HIT:     171563  MISS:     312536
LLC PREFETCH  ACCESS:   34993085  HIT:   18514290  MISS:   16478795
LLC WRITEBACK ACCESS:    6020984  HIT:    5980077  MISS:      40907
LLC PREFETCH  REQUESTED:   41985252  ISSUED:   41827493  USEFUL:   11863152  USELESS:    4613744
LLC AVERAGE MISS LATENCY: 208.045 cycles
Major fault: 0 Minor fault: 428296
performance stats:
mapping cache size: 27410314
divergence: 44552138

DRAM Statistics
 CHANNEL 0
 RQ ROW_BUFFER_HIT:    8314165  ROW_BUFFER_MISS:   14454192
 DBUS_CONGESTED:   27650578
 WQ ROW_BUFFER_HIT:    1713605  ROW_BUFFER_MISS:    1124426  FULL:          0

 CHANNEL 1
 RQ ROW_BUFFER_HIT:    8303069  ROW_BUFFER_MISS:   14584516
 DBUS_CONGESTED:   27650578
 WQ ROW_BUFFER_HIT:    1741126  ROW_BUFFER_MISS:    1093898  FULL:          0

 AVG_CONGESTED_CYCLE: 16

CPU 0 Branch Prediction Accuracy: 93.9262% MPKI: 17.519 Average ROB Occupancy at Mispredict: 32.8521

Branch types
NOT_BRANCH: 355783516 71.1567%
BRANCH_DIRECT_JUMP: 5207349 1.04147%
BRANCH_INDIRECT: 0 0%
BRANCH_CONDITIONAL: 138861421 27.7723%
BRANCH_DIRECT_CALL: 73965 0.014793%
BRANCH_INDIRECT_CALL: 0 0%
BRANCH_RETURN: 73965 0.014793%
BRANCH_OTHER: 0 0%


gzip: stdout: Broken pipe
