
*** ChampSim Multicore Out-of-Order Simulator ***

Warmup Instructions: 1000000
Prefetch Warmup Instructions: 450000000
Simulation Instructions: 500000000
Stat Printing Period: 1000000
Number of CPUs: 1
LLC sets: 2048
LLC ways: 16
Off-chip DRAM Size: 32768 MB Channels: 2 Width: 64-bit Data Rate: 1024 MT/s

CPU 0 runs /scratch/cluster/cmolder/ML-DPC/ChampSimTraces/spec06/429.mcf-s1.trace.gz
Read seed: 622
Heartbeat CPU 0 instructions: 1000001 cycles: 460158 heartbeat IPC: 2.17317 cumulative IPC: 2.17317 (Simulation time: 0 hr 0 min 6 sec) 

Warmup complete CPU 0 instructions: 1000001 cycles: 460158 (Simulation time: 0 hr 0 min 6 sec) 

Heartbeat CPU 0 instructions: 2000000 cycles: 14565878 heartbeat IPC: 0.0708932 cumulative IPC: 0.0708932 (Simulation time: 0 hr 0 min 19 sec) 
Heartbeat CPU 0 instructions: 3000000 cycles: 24717494 heartbeat IPC: 0.0985065 cumulative IPC: 0.0824492 (Simulation time: 0 hr 0 min 29 sec) 
Heartbeat CPU 0 instructions: 4000000 cycles: 37753378 heartbeat IPC: 0.0767113 cumulative IPC: 0.0804435 (Simulation time: 0 hr 0 min 41 sec) 
Heartbeat CPU 0 instructions: 5000002 cycles: 48922254 heartbeat IPC: 0.0895347 cumulative IPC: 0.0825388 (Simulation time: 0 hr 0 min 52 sec) 
Heartbeat CPU 0 instructions: 6000003 cycles: 60789496 heartbeat IPC: 0.0842657 cumulative IPC: 0.0828784 (Simulation time: 0 hr 1 min 3 sec) 
Heartbeat CPU 0 instructions: 7000000 cycles: 77031400 heartbeat IPC: 0.061569 cumulative IPC: 0.0783584 (Simulation time: 0 hr 1 min 18 sec) 
Heartbeat CPU 0 instructions: 8000000 cycles: 90389579 heartbeat IPC: 0.0748605 cumulative IPC: 0.0778388 (Simulation time: 0 hr 1 min 29 sec) 
Heartbeat CPU 0 instructions: 9000000 cycles: 104211580 heartbeat IPC: 0.0723484 cumulative IPC: 0.0771074 (Simulation time: 0 hr 1 min 42 sec) 
Heartbeat CPU 0 instructions: 10000001 cycles: 116683487 heartbeat IPC: 0.0801803 cumulative IPC: 0.0774371 (Simulation time: 0 hr 1 min 53 sec) 
Heartbeat CPU 0 instructions: 11000000 cycles: 128784024 heartbeat IPC: 0.0826409 cumulative IPC: 0.0779278 (Simulation time: 0 hr 2 min 4 sec) 
Heartbeat CPU 0 instructions: 12000000 cycles: 145516047 heartbeat IPC: 0.0597656 cumulative IPC: 0.0758328 (Simulation time: 0 hr 2 min 21 sec) 
Heartbeat CPU 0 instructions: 13000002 cycles: 161056817 heartbeat IPC: 0.064347 cumulative IPC: 0.0747214 (Simulation time: 0 hr 2 min 35 sec) 
Heartbeat CPU 0 instructions: 14000000 cycles: 173889857 heartbeat IPC: 0.0779237 cumulative IPC: 0.0749583 (Simulation time: 0 hr 2 min 47 sec) 
Heartbeat CPU 0 instructions: 15000000 cycles: 186467837 heartbeat IPC: 0.079504 cumulative IPC: 0.0752657 (Simulation time: 0 hr 2 min 58 sec) 
Heartbeat CPU 0 instructions: 16000002 cycles: 198089944 heartbeat IPC: 0.0860431 cumulative IPC: 0.0758995 (Simulation time: 0 hr 3 min 9 sec) 
Heartbeat CPU 0 instructions: 17000001 cycles: 210607045 heartbeat IPC: 0.0798906 cumulative IPC: 0.0761372 (Simulation time: 0 hr 3 min 21 sec) 
Heartbeat CPU 0 instructions: 18000000 cycles: 222457742 heartbeat IPC: 0.0843831 cumulative IPC: 0.0765774 (Simulation time: 0 hr 3 min 32 sec) 
Heartbeat CPU 0 instructions: 19000002 cycles: 234391864 heartbeat IPC: 0.0837935 cumulative IPC: 0.0769455 (Simulation time: 0 hr 3 min 43 sec) 
Heartbeat CPU 0 instructions: 20000000 cycles: 246152405 heartbeat IPC: 0.0850299 cumulative IPC: 0.0773325 (Simulation time: 0 hr 3 min 54 sec) 
Heartbeat CPU 0 instructions: 21000000 cycles: 257637415 heartbeat IPC: 0.08707 cumulative IPC: 0.0777674 (Simulation time: 0 hr 4 min 5 sec) 
Heartbeat CPU 0 instructions: 22000000 cycles: 269167508 heartbeat IPC: 0.0867296 cumulative IPC: 0.0781519 (Simulation time: 0 hr 4 min 16 sec) 
Heartbeat CPU 0 instructions: 23000000 cycles: 281324201 heartbeat IPC: 0.0822592 cumulative IPC: 0.0783297 (Simulation time: 0 hr 4 min 27 sec) 
Heartbeat CPU 0 instructions: 24000001 cycles: 293401188 heartbeat IPC: 0.0828022 cumulative IPC: 0.0785141 (Simulation time: 0 hr 4 min 38 sec) 
Heartbeat CPU 0 instructions: 25000000 cycles: 306256409 heartbeat IPC: 0.0777893 cumulative IPC: 0.0784836 (Simulation time: 0 hr 4 min 50 sec) 
Heartbeat CPU 0 instructions: 26000000 cycles: 319171131 heartbeat IPC: 0.077431 cumulative IPC: 0.078441 (Simulation time: 0 hr 5 min 2 sec) 
Heartbeat CPU 0 instructions: 27000000 cycles: 332979472 heartbeat IPC: 0.07242 cumulative IPC: 0.0781909 (Simulation time: 0 hr 5 min 14 sec) 
Heartbeat CPU 0 instructions: 28000000 cycles: 346530414 heartbeat IPC: 0.0737956 cumulative IPC: 0.0780188 (Simulation time: 0 hr 5 min 26 sec) 
Heartbeat CPU 0 instructions: 29000001 cycles: 359228932 heartbeat IPC: 0.0787494 cumulative IPC: 0.0780447 (Simulation time: 0 hr 5 min 38 sec) 
Heartbeat CPU 0 instructions: 30000001 cycles: 372038675 heartbeat IPC: 0.0780656 cumulative IPC: 0.0780454 (Simulation time: 0 hr 5 min 49 sec) 
Heartbeat CPU 0 instructions: 31000001 cycles: 384215112 heartbeat IPC: 0.0821258 cumulative IPC: 0.0781749 (Simulation time: 0 hr 6 min 0 sec) 
Heartbeat CPU 0 instructions: 32000000 cycles: 397151986 heartbeat IPC: 0.0772984 cumulative IPC: 0.0781463 (Simulation time: 0 hr 6 min 13 sec) 
Heartbeat CPU 0 instructions: 33000000 cycles: 409923568 heartbeat IPC: 0.0782988 cumulative IPC: 0.0781511 (Simulation time: 0 hr 6 min 24 sec) 
Heartbeat CPU 0 instructions: 34000000 cycles: 422395496 heartbeat IPC: 0.0801801 cumulative IPC: 0.078211 (Simulation time: 0 hr 6 min 36 sec) 
Heartbeat CPU 0 instructions: 35000001 cycles: 437258078 heartbeat IPC: 0.0672831 cumulative IPC: 0.0778392 (Simulation time: 0 hr 6 min 51 sec) 
Heartbeat CPU 0 instructions: 36000002 cycles: 454632215 heartbeat IPC: 0.0575569 cumulative IPC: 0.0770633 (Simulation time: 0 hr 7 min 9 sec) 
Heartbeat CPU 0 instructions: 37000000 cycles: 467427176 heartbeat IPC: 0.0781556 cumulative IPC: 0.0770932 (Simulation time: 0 hr 7 min 20 sec) 
Heartbeat CPU 0 instructions: 38000000 cycles: 479782174 heartbeat IPC: 0.0809389 cumulative IPC: 0.0771924 (Simulation time: 0 hr 7 min 32 sec) 
Heartbeat CPU 0 instructions: 39000000 cycles: 492711768 heartbeat IPC: 0.077342 cumulative IPC: 0.0771963 (Simulation time: 0 hr 7 min 44 sec) 
Heartbeat CPU 0 instructions: 40000000 cycles: 505007200 heartbeat IPC: 0.081331 cumulative IPC: 0.0772971 (Simulation time: 0 hr 7 min 56 sec) 
Heartbeat CPU 0 instructions: 41000001 cycles: 517157372 heartbeat IPC: 0.0823034 cumulative IPC: 0.0774148 (Simulation time: 0 hr 8 min 8 sec) 
Heartbeat CPU 0 instructions: 42000000 cycles: 529785750 heartbeat IPC: 0.0791867 cumulative IPC: 0.077457 (Simulation time: 0 hr 8 min 20 sec) 
Heartbeat CPU 0 instructions: 43000001 cycles: 541881118 heartbeat IPC: 0.0826764 cumulative IPC: 0.0775736 (Simulation time: 0 hr 8 min 32 sec) 
Heartbeat CPU 0 instructions: 44000000 cycles: 554245595 heartbeat IPC: 0.0808768 cumulative IPC: 0.0776474 (Simulation time: 0 hr 8 min 43 sec) 
Heartbeat CPU 0 instructions: 45000001 cycles: 566579332 heartbeat IPC: 0.0810785 cumulative IPC: 0.0777222 (Simulation time: 0 hr 8 min 56 sec) 
Heartbeat CPU 0 instructions: 46000000 cycles: 578822560 heartbeat IPC: 0.0816777 cumulative IPC: 0.0778059 (Simulation time: 0 hr 9 min 8 sec) 
Heartbeat CPU 0 instructions: 47000000 cycles: 590439625 heartbeat IPC: 0.0860803 cumulative IPC: 0.0779688 (Simulation time: 0 hr 9 min 19 sec) 
Heartbeat CPU 0 instructions: 48000002 cycles: 602350576 heartbeat IPC: 0.0839565 cumulative IPC: 0.0780873 (Simulation time: 0 hr 9 min 31 sec) 
Heartbeat CPU 0 instructions: 49000000 cycles: 614780634 heartbeat IPC: 0.08045 cumulative IPC: 0.0781351 (Simulation time: 0 hr 9 min 43 sec) 
Heartbeat CPU 0 instructions: 50000000 cycles: 627579172 heartbeat IPC: 0.0781339 cumulative IPC: 0.0781351 (Simulation time: 0 hr 9 min 55 sec) 
Heartbeat CPU 0 instructions: 51000000 cycles: 641071569 heartbeat IPC: 0.0741158 cumulative IPC: 0.0780504 (Simulation time: 0 hr 10 min 8 sec) 
Heartbeat CPU 0 instructions: 52000000 cycles: 653686436 heartbeat IPC: 0.0792715 cumulative IPC: 0.078074 (Simulation time: 0 hr 10 min 19 sec) 
Heartbeat CPU 0 instructions: 53000000 cycles: 666433780 heartbeat IPC: 0.0784477 cumulative IPC: 0.0780812 (Simulation time: 0 hr 10 min 31 sec) 
Heartbeat CPU 0 instructions: 54000001 cycles: 679507675 heartbeat IPC: 0.0764884 cumulative IPC: 0.0780505 (Simulation time: 0 hr 10 min 43 sec) 
Heartbeat CPU 0 instructions: 55000000 cycles: 692034313 heartbeat IPC: 0.0798298 cumulative IPC: 0.0780827 (Simulation time: 0 hr 10 min 55 sec) 
Heartbeat CPU 0 instructions: 56000001 cycles: 704943162 heartbeat IPC: 0.0774663 cumulative IPC: 0.0780714 (Simulation time: 0 hr 11 min 8 sec) 
Heartbeat CPU 0 instructions: 57000000 cycles: 717449831 heartbeat IPC: 0.0799573 cumulative IPC: 0.0781043 (Simulation time: 0 hr 11 min 19 sec) 
Heartbeat CPU 0 instructions: 58000001 cycles: 729410551 heartbeat IPC: 0.0836071 cumulative IPC: 0.0781946 (Simulation time: 0 hr 11 min 31 sec) 
Heartbeat CPU 0 instructions: 59000003 cycles: 741641199 heartbeat IPC: 0.081762 cumulative IPC: 0.0782535 (Simulation time: 0 hr 11 min 42 sec) 
Heartbeat CPU 0 instructions: 60000000 cycles: 753770708 heartbeat IPC: 0.0824433 cumulative IPC: 0.078321 (Simulation time: 0 hr 11 min 54 sec) 
Heartbeat CPU 0 instructions: 61000002 cycles: 766323385 heartbeat IPC: 0.0796644 cumulative IPC: 0.078343 (Simulation time: 0 hr 12 min 7 sec) 
Heartbeat CPU 0 instructions: 62000001 cycles: 776051438 heartbeat IPC: 0.102795 cumulative IPC: 0.0786497 (Simulation time: 0 hr 12 min 17 sec) 
Heartbeat CPU 0 instructions: 63000000 cycles: 787803988 heartbeat IPC: 0.0850878 cumulative IPC: 0.0787458 (Simulation time: 0 hr 12 min 28 sec) 
Heartbeat CPU 0 instructions: 64000000 cycles: 800464557 heartbeat IPC: 0.0789854 cumulative IPC: 0.0787496 (Simulation time: 0 hr 12 min 40 sec) 
Heartbeat CPU 0 instructions: 65000001 cycles: 812264241 heartbeat IPC: 0.0847481 cumulative IPC: 0.0788368 (Simulation time: 0 hr 12 min 52 sec) 
Heartbeat CPU 0 instructions: 66000000 cycles: 824308495 heartbeat IPC: 0.0830271 cumulative IPC: 0.078898 (Simulation time: 0 hr 13 min 3 sec) 
Heartbeat CPU 0 instructions: 67000001 cycles: 836418634 heartbeat IPC: 0.0825755 cumulative IPC: 0.0789513 (Simulation time: 0 hr 13 min 15 sec) 
Heartbeat CPU 0 instructions: 68000002 cycles: 849185939 heartbeat IPC: 0.0783251 cumulative IPC: 0.0789419 (Simulation time: 0 hr 13 min 27 sec) 
Heartbeat CPU 0 instructions: 69000000 cycles: 861398926 heartbeat IPC: 0.0818799 cumulative IPC: 0.0789835 (Simulation time: 0 hr 13 min 39 sec) 
Heartbeat CPU 0 instructions: 70000000 cycles: 873245446 heartbeat IPC: 0.084413 cumulative IPC: 0.0790572 (Simulation time: 0 hr 13 min 50 sec) 
Heartbeat CPU 0 instructions: 71000000 cycles: 885775469 heartbeat IPC: 0.0798083 cumulative IPC: 0.0790679 (Simulation time: 0 hr 14 min 3 sec) 
Heartbeat CPU 0 instructions: 72000001 cycles: 898051507 heartbeat IPC: 0.0814596 cumulative IPC: 0.0791006 (Simulation time: 0 hr 14 min 15 sec) 
Heartbeat CPU 0 instructions: 73000000 cycles: 910240740 heartbeat IPC: 0.0820395 cumulative IPC: 0.07914 (Simulation time: 0 hr 14 min 28 sec) 
Heartbeat CPU 0 instructions: 74000000 cycles: 922303526 heartbeat IPC: 0.0828996 cumulative IPC: 0.0791892 (Simulation time: 0 hr 14 min 39 sec) 
Heartbeat CPU 0 instructions: 75000000 cycles: 934335856 heartbeat IPC: 0.0831094 cumulative IPC: 0.0792397 (Simulation time: 0 hr 14 min 51 sec) 
Heartbeat CPU 0 instructions: 76000000 cycles: 946279509 heartbeat IPC: 0.0837265 cumulative IPC: 0.0792963 (Simulation time: 0 hr 15 min 2 sec) 
Heartbeat CPU 0 instructions: 77000000 cycles: 964520186 heartbeat IPC: 0.0548225 cumulative IPC: 0.0788333 (Simulation time: 0 hr 15 min 22 sec) 
Heartbeat CPU 0 instructions: 78000000 cycles: 977811471 heartbeat IPC: 0.0752373 cumulative IPC: 0.0787844 (Simulation time: 0 hr 15 min 34 sec) 
Heartbeat CPU 0 instructions: 79000001 cycles: 989704130 heartbeat IPC: 0.0840856 cumulative IPC: 0.0788481 (Simulation time: 0 hr 15 min 46 sec) 
Heartbeat CPU 0 instructions: 80000000 cycles: 1001503748 heartbeat IPC: 0.0847484 cumulative IPC: 0.0789176 (Simulation time: 0 hr 15 min 58 sec) 
Heartbeat CPU 0 instructions: 81000001 cycles: 1013818677 heartbeat IPC: 0.0812023 cumulative IPC: 0.0789454 (Simulation time: 0 hr 16 min 10 sec) 
Heartbeat CPU 0 instructions: 82000002 cycles: 1024283745 heartbeat IPC: 0.0955561 cumulative IPC: 0.0791152 (Simulation time: 0 hr 16 min 20 sec) 
Heartbeat CPU 0 instructions: 83000000 cycles: 1033964134 heartbeat IPC: 0.103301 cumulative IPC: 0.0793417 (Simulation time: 0 hr 16 min 31 sec) 
Heartbeat CPU 0 instructions: 84000000 cycles: 1043844670 heartbeat IPC: 0.101209 cumulative IPC: 0.0795488 (Simulation time: 0 hr 16 min 41 sec) 
Heartbeat CPU 0 instructions: 85000000 cycles: 1054350004 heartbeat IPC: 0.0951897 cumulative IPC: 0.0797047 (Simulation time: 0 hr 16 min 52 sec) 
Heartbeat CPU 0 instructions: 86000002 cycles: 1064187327 heartbeat IPC: 0.101654 cumulative IPC: 0.0799077 (Simulation time: 0 hr 17 min 3 sec) 
Heartbeat CPU 0 instructions: 87000002 cycles: 1081299577 heartbeat IPC: 0.0584377 cumulative IPC: 0.0795678 (Simulation time: 0 hr 17 min 21 sec) 
Heartbeat CPU 0 instructions: 88000000 cycles: 1094555850 heartbeat IPC: 0.0754358 cumulative IPC: 0.0795177 (Simulation time: 0 hr 17 min 35 sec) 
Heartbeat CPU 0 instructions: 89000002 cycles: 1104615107 heartbeat IPC: 0.0994111 cumulative IPC: 0.079699 (Simulation time: 0 hr 17 min 45 sec) 
Heartbeat CPU 0 instructions: 90000000 cycles: 1112802141 heartbeat IPC: 0.122144 cumulative IPC: 0.0800114 (Simulation time: 0 hr 17 min 55 sec) 
Heartbeat CPU 0 instructions: 91000000 cycles: 1127455313 heartbeat IPC: 0.0682446 cumulative IPC: 0.0798584 (Simulation time: 0 hr 18 min 10 sec) 
Heartbeat CPU 0 instructions: 92000000 cycles: 1138551847 heartbeat IPC: 0.0901182 cumulative IPC: 0.0799584 (Simulation time: 0 hr 18 min 21 sec) 
Heartbeat CPU 0 instructions: 93000001 cycles: 1150812505 heartbeat IPC: 0.0815618 cumulative IPC: 0.0799755 (Simulation time: 0 hr 18 min 33 sec) 
Heartbeat CPU 0 instructions: 94000000 cycles: 1163267738 heartbeat IPC: 0.0802875 cumulative IPC: 0.0799788 (Simulation time: 0 hr 18 min 45 sec) 
Heartbeat CPU 0 instructions: 95000001 cycles: 1175591151 heartbeat IPC: 0.0811464 cumulative IPC: 0.0799911 (Simulation time: 0 hr 18 min 57 sec) 
Heartbeat CPU 0 instructions: 96000000 cycles: 1188605258 heartbeat IPC: 0.0768396 cumulative IPC: 0.0799566 (Simulation time: 0 hr 19 min 9 sec) 
Heartbeat CPU 0 instructions: 97000001 cycles: 1200870495 heartbeat IPC: 0.0815313 cumulative IPC: 0.0799727 (Simulation time: 0 hr 19 min 20 sec) 
Heartbeat CPU 0 instructions: 98000000 cycles: 1213146134 heartbeat IPC: 0.0814621 cumulative IPC: 0.0799877 (Simulation time: 0 hr 19 min 32 sec) 
Heartbeat CPU 0 instructions: 99000000 cycles: 1225006485 heartbeat IPC: 0.0843145 cumulative IPC: 0.0800296 (Simulation time: 0 hr 19 min 44 sec) 
Heartbeat CPU 0 instructions: 100000002 cycles: 1236843956 heartbeat IPC: 0.0844777 cumulative IPC: 0.0800722 (Simulation time: 0 hr 19 min 55 sec) 
Heartbeat CPU 0 instructions: 101000002 cycles: 1249127557 heartbeat IPC: 0.0814094 cumulative IPC: 0.0800854 (Simulation time: 0 hr 20 min 7 sec) 
Heartbeat CPU 0 instructions: 102000000 cycles: 1261163616 heartbeat IPC: 0.0830835 cumulative IPC: 0.080114 (Simulation time: 0 hr 20 min 19 sec) 
Heartbeat CPU 0 instructions: 103000000 cycles: 1273935629 heartbeat IPC: 0.0782962 cumulative IPC: 0.0800958 (Simulation time: 0 hr 20 min 30 sec) 
Heartbeat CPU 0 instructions: 104000000 cycles: 1286673987 heartbeat IPC: 0.078503 cumulative IPC: 0.08008 (Simulation time: 0 hr 20 min 42 sec) 
Heartbeat CPU 0 instructions: 105000001 cycles: 1299221243 heartbeat IPC: 0.0796988 cumulative IPC: 0.0800763 (Simulation time: 0 hr 20 min 54 sec) 
Heartbeat CPU 0 instructions: 106000000 cycles: 1311707329 heartbeat IPC: 0.0800891 cumulative IPC: 0.0800764 (Simulation time: 0 hr 21 min 6 sec) 
Heartbeat CPU 0 instructions: 107000000 cycles: 1323641077 heartbeat IPC: 0.083796 cumulative IPC: 0.08011 (Simulation time: 0 hr 21 min 18 sec) 
Heartbeat CPU 0 instructions: 108000000 cycles: 1336063804 heartbeat IPC: 0.0804976 cumulative IPC: 0.0801136 (Simulation time: 0 hr 21 min 29 sec) 
Heartbeat CPU 0 instructions: 109000000 cycles: 1348123260 heartbeat IPC: 0.0829225 cumulative IPC: 0.0801387 (Simulation time: 0 hr 21 min 41 sec) 
Heartbeat CPU 0 instructions: 110000000 cycles: 1360694118 heartbeat IPC: 0.0795491 cumulative IPC: 0.0801333 (Simulation time: 0 hr 21 min 53 sec) 
Heartbeat CPU 0 instructions: 111000000 cycles: 1373197322 heartbeat IPC: 0.0799795 cumulative IPC: 0.0801319 (Simulation time: 0 hr 22 min 5 sec) 
Heartbeat CPU 0 instructions: 112000002 cycles: 1385286614 heartbeat IPC: 0.082718 cumulative IPC: 0.0801544 (Simulation time: 0 hr 22 min 17 sec) 
Heartbeat CPU 0 instructions: 113000002 cycles: 1397330554 heartbeat IPC: 0.0830293 cumulative IPC: 0.0801792 (Simulation time: 0 hr 22 min 28 sec) 
Heartbeat CPU 0 instructions: 114000001 cycles: 1409309494 heartbeat IPC: 0.0834798 cumulative IPC: 0.0802073 (Simulation time: 0 hr 22 min 40 sec) 
Heartbeat CPU 0 instructions: 115000000 cycles: 1421539368 heartbeat IPC: 0.0817669 cumulative IPC: 0.0802207 (Simulation time: 0 hr 22 min 52 sec) 
Heartbeat CPU 0 instructions: 116000002 cycles: 1433430281 heartbeat IPC: 0.084098 cumulative IPC: 0.0802529 (Simulation time: 0 hr 23 min 3 sec) 
Heartbeat CPU 0 instructions: 117000000 cycles: 1446412074 heartbeat IPC: 0.0770308 cumulative IPC: 0.080224 (Simulation time: 0 hr 23 min 15 sec) 
Heartbeat CPU 0 instructions: 118000000 cycles: 1458546710 heartbeat IPC: 0.0824087 cumulative IPC: 0.0802421 (Simulation time: 0 hr 23 min 27 sec) 
Heartbeat CPU 0 instructions: 119000001 cycles: 1470914043 heartbeat IPC: 0.0808583 cumulative IPC: 0.0802473 (Simulation time: 0 hr 23 min 39 sec) 
Heartbeat CPU 0 instructions: 120000000 cycles: 1482767720 heartbeat IPC: 0.0843619 cumulative IPC: 0.0802802 (Simulation time: 0 hr 23 min 51 sec) 
Heartbeat CPU 0 instructions: 121000000 cycles: 1494402356 heartbeat IPC: 0.0859503 cumulative IPC: 0.0803244 (Simulation time: 0 hr 24 min 2 sec) 
Heartbeat CPU 0 instructions: 122000002 cycles: 1506499517 heartbeat IPC: 0.0826642 cumulative IPC: 0.0803432 (Simulation time: 0 hr 24 min 14 sec) 
Heartbeat CPU 0 instructions: 123000000 cycles: 1518785233 heartbeat IPC: 0.0813952 cumulative IPC: 0.0803517 (Simulation time: 0 hr 24 min 26 sec) 
Heartbeat CPU 0 instructions: 124000001 cycles: 1532454058 heartbeat IPC: 0.0731592 cumulative IPC: 0.0802875 (Simulation time: 0 hr 24 min 38 sec) 
Heartbeat CPU 0 instructions: 125000002 cycles: 1544702343 heartbeat IPC: 0.0816442 cumulative IPC: 0.0802983 (Simulation time: 0 hr 24 min 50 sec) 
Heartbeat CPU 0 instructions: 126000000 cycles: 1557297071 heartbeat IPC: 0.0793981 cumulative IPC: 0.080291 (Simulation time: 0 hr 25 min 2 sec) 
Heartbeat CPU 0 instructions: 127000001 cycles: 1569520369 heartbeat IPC: 0.0818111 cumulative IPC: 0.0803028 (Simulation time: 0 hr 25 min 14 sec) 
Heartbeat CPU 0 instructions: 128000000 cycles: 1582182450 heartbeat IPC: 0.0789759 cumulative IPC: 0.0802922 (Simulation time: 0 hr 25 min 26 sec) 
Heartbeat CPU 0 instructions: 129000002 cycles: 1594937571 heartbeat IPC: 0.0784 cumulative IPC: 0.0802771 (Simulation time: 0 hr 25 min 38 sec) 
Heartbeat CPU 0 instructions: 130000000 cycles: 1607572171 heartbeat IPC: 0.0791476 cumulative IPC: 0.0802682 (Simulation time: 0 hr 25 min 50 sec) 
Heartbeat CPU 0 instructions: 131000000 cycles: 1620424155 heartbeat IPC: 0.077809 cumulative IPC: 0.0802487 (Simulation time: 0 hr 26 min 2 sec) 
Heartbeat CPU 0 instructions: 132000000 cycles: 1632427738 heartbeat IPC: 0.0833085 cumulative IPC: 0.0802712 (Simulation time: 0 hr 26 min 14 sec) 
Heartbeat CPU 0 instructions: 133000000 cycles: 1644760444 heartbeat IPC: 0.0810852 cumulative IPC: 0.0802773 (Simulation time: 0 hr 26 min 25 sec) 
Heartbeat CPU 0 instructions: 134000000 cycles: 1657460349 heartbeat IPC: 0.0787407 cumulative IPC: 0.0802655 (Simulation time: 0 hr 26 min 38 sec) 
Heartbeat CPU 0 instructions: 135000000 cycles: 1669237096 heartbeat IPC: 0.0849131 cumulative IPC: 0.0802983 (Simulation time: 0 hr 26 min 49 sec) 
Heartbeat CPU 0 instructions: 136000001 cycles: 1680928731 heartbeat IPC: 0.0855313 cumulative IPC: 0.0803347 (Simulation time: 0 hr 27 min 0 sec) 
Heartbeat CPU 0 instructions: 137000001 cycles: 1693684565 heartbeat IPC: 0.0783955 cumulative IPC: 0.0803201 (Simulation time: 0 hr 27 min 12 sec) 
Heartbeat CPU 0 instructions: 138000001 cycles: 1705955485 heartbeat IPC: 0.0814935 cumulative IPC: 0.0803286 (Simulation time: 0 hr 27 min 24 sec) 
Heartbeat CPU 0 instructions: 139000002 cycles: 1718254533 heartbeat IPC: 0.0813072 cumulative IPC: 0.0803356 (Simulation time: 0 hr 27 min 36 sec) 
Heartbeat CPU 0 instructions: 140000000 cycles: 1730789817 heartbeat IPC: 0.0797747 cumulative IPC: 0.0803315 (Simulation time: 0 hr 27 min 48 sec) 
Heartbeat CPU 0 instructions: 141000003 cycles: 1748577404 heartbeat IPC: 0.0562191 cumulative IPC: 0.0800862 (Simulation time: 0 hr 28 min 7 sec) 
Heartbeat CPU 0 instructions: 142000000 cycles: 1761771328 heartbeat IPC: 0.0757922 cumulative IPC: 0.080054 (Simulation time: 0 hr 28 min 20 sec) 
Heartbeat CPU 0 instructions: 143000000 cycles: 1773948957 heartbeat IPC: 0.0821178 cumulative IPC: 0.0800682 (Simulation time: 0 hr 28 min 31 sec) 
Heartbeat CPU 0 instructions: 144000000 cycles: 1785686900 heartbeat IPC: 0.0851938 cumulative IPC: 0.0801019 (Simulation time: 0 hr 28 min 43 sec) 
Heartbeat CPU 0 instructions: 145000000 cycles: 1797808419 heartbeat IPC: 0.0824979 cumulative IPC: 0.080118 (Simulation time: 0 hr 28 min 55 sec) 
Heartbeat CPU 0 instructions: 146000003 cycles: 1809764386 heartbeat IPC: 0.0836405 cumulative IPC: 0.0801413 (Simulation time: 0 hr 29 min 6 sec) 
Heartbeat CPU 0 instructions: 147000002 cycles: 1820783299 heartbeat IPC: 0.090753 cumulative IPC: 0.0802055 (Simulation time: 0 hr 29 min 17 sec) 
Heartbeat CPU 0 instructions: 148000003 cycles: 1831801412 heartbeat IPC: 0.0907597 cumulative IPC: 0.080269 (Simulation time: 0 hr 29 min 28 sec) 
Heartbeat CPU 0 instructions: 149000000 cycles: 1842380256 heartbeat IPC: 0.094528 cumulative IPC: 0.0803509 (Simulation time: 0 hr 29 min 39 sec) 
Heartbeat CPU 0 instructions: 150000003 cycles: 1854254286 heartbeat IPC: 0.0842177 cumulative IPC: 0.0803757 (Simulation time: 0 hr 29 min 50 sec) 
Heartbeat CPU 0 instructions: 151000001 cycles: 1866094287 heartbeat IPC: 0.0844593 cumulative IPC: 0.0804016 (Simulation time: 0 hr 30 min 2 sec) 
Heartbeat CPU 0 instructions: 152000002 cycles: 1878141275 heartbeat IPC: 0.0830084 cumulative IPC: 0.0804183 (Simulation time: 0 hr 30 min 14 sec) 
Heartbeat CPU 0 instructions: 153000002 cycles: 1889992160 heartbeat IPC: 0.0843819 cumulative IPC: 0.0804432 (Simulation time: 0 hr 30 min 25 sec) 
Heartbeat CPU 0 instructions: 154000000 cycles: 1902024269 heartbeat IPC: 0.0831108 cumulative IPC: 0.0804601 (Simulation time: 0 hr 30 min 37 sec) 
Heartbeat CPU 0 instructions: 155000002 cycles: 1914350263 heartbeat IPC: 0.0811295 cumulative IPC: 0.0804644 (Simulation time: 0 hr 30 min 49 sec) 
Heartbeat CPU 0 instructions: 156000003 cycles: 1926711159 heartbeat IPC: 0.0809004 cumulative IPC: 0.0804672 (Simulation time: 0 hr 31 min 0 sec) 
Heartbeat CPU 0 instructions: 157000000 cycles: 1939352122 heartbeat IPC: 0.0791077 cumulative IPC: 0.0804583 (Simulation time: 0 hr 31 min 13 sec) 
Heartbeat CPU 0 instructions: 158000001 cycles: 1951658482 heartbeat IPC: 0.0812589 cumulative IPC: 0.0804634 (Simulation time: 0 hr 31 min 25 sec) 
Heartbeat CPU 0 instructions: 159000000 cycles: 1963500967 heartbeat IPC: 0.0844417 cumulative IPC: 0.0804874 (Simulation time: 0 hr 31 min 36 sec) 
Heartbeat CPU 0 instructions: 160000000 cycles: 1975830115 heartbeat IPC: 0.0811086 cumulative IPC: 0.0804913 (Simulation time: 0 hr 31 min 48 sec) 
Heartbeat CPU 0 instructions: 161000000 cycles: 1988094012 heartbeat IPC: 0.0815402 cumulative IPC: 0.0804977 (Simulation time: 0 hr 32 min 0 sec) 
Heartbeat CPU 0 instructions: 162000000 cycles: 1999685598 heartbeat IPC: 0.0862695 cumulative IPC: 0.0805312 (Simulation time: 0 hr 32 min 11 sec) 
Heartbeat CPU 0 instructions: 163000003 cycles: 2011557856 heartbeat IPC: 0.0842302 cumulative IPC: 0.080553 (Simulation time: 0 hr 32 min 23 sec) 
Heartbeat CPU 0 instructions: 164000002 cycles: 2024213494 heartbeat IPC: 0.0790161 cumulative IPC: 0.0805434 (Simulation time: 0 hr 32 min 35 sec) 
Heartbeat CPU 0 instructions: 165000000 cycles: 2036000056 heartbeat IPC: 0.0848422 cumulative IPC: 0.0805683 (Simulation time: 0 hr 32 min 47 sec) 
Heartbeat CPU 0 instructions: 166000001 cycles: 2048349929 heartbeat IPC: 0.0809726 cumulative IPC: 0.0805707 (Simulation time: 0 hr 32 min 58 sec) 
Heartbeat CPU 0 instructions: 167000000 cycles: 2060230337 heartbeat IPC: 0.0841721 cumulative IPC: 0.0805915 (Simulation time: 0 hr 33 min 10 sec) 
Heartbeat CPU 0 instructions: 168000000 cycles: 2071979630 heartbeat IPC: 0.0851115 cumulative IPC: 0.0806172 (Simulation time: 0 hr 33 min 22 sec) 
Heartbeat CPU 0 instructions: 169000000 cycles: 2084339191 heartbeat IPC: 0.080909 cumulative IPC: 0.0806189 (Simulation time: 0 hr 33 min 34 sec) 
Heartbeat CPU 0 instructions: 170000000 cycles: 2096938831 heartbeat IPC: 0.0793673 cumulative IPC: 0.0806114 (Simulation time: 0 hr 33 min 46 sec) 
Heartbeat CPU 0 instructions: 171000002 cycles: 2108635248 heartbeat IPC: 0.0854964 cumulative IPC: 0.0806385 (Simulation time: 0 hr 33 min 58 sec) 
Heartbeat CPU 0 instructions: 172000000 cycles: 2120403037 heartbeat IPC: 0.0849776 cumulative IPC: 0.0806625 (Simulation time: 0 hr 34 min 10 sec) 
Heartbeat CPU 0 instructions: 173000000 cycles: 2133284209 heartbeat IPC: 0.0776327 cumulative IPC: 0.0806442 (Simulation time: 0 hr 34 min 22 sec) 
Heartbeat CPU 0 instructions: 174000000 cycles: 2145975972 heartbeat IPC: 0.0787913 cumulative IPC: 0.0806333 (Simulation time: 0 hr 34 min 35 sec) 
Heartbeat CPU 0 instructions: 175000002 cycles: 2158485918 heartbeat IPC: 0.0799366 cumulative IPC: 0.0806293 (Simulation time: 0 hr 34 min 47 sec) 
Heartbeat CPU 0 instructions: 176000000 cycles: 2169682938 heartbeat IPC: 0.0893093 cumulative IPC: 0.0806741 (Simulation time: 0 hr 34 min 58 sec) 
Heartbeat CPU 0 instructions: 177000000 cycles: 2186256527 heartbeat IPC: 0.060337 cumulative IPC: 0.0805199 (Simulation time: 0 hr 35 min 16 sec) 
Heartbeat CPU 0 instructions: 178000000 cycles: 2200632690 heartbeat IPC: 0.0695596 cumulative IPC: 0.0804482 (Simulation time: 0 hr 35 min 30 sec) 
Heartbeat CPU 0 instructions: 179000000 cycles: 2213270336 heartbeat IPC: 0.0791287 cumulative IPC: 0.0804407 (Simulation time: 0 hr 35 min 43 sec) 
Heartbeat CPU 0 instructions: 180000001 cycles: 2225321655 heartbeat IPC: 0.0829786 cumulative IPC: 0.0804544 (Simulation time: 0 hr 35 min 54 sec) 
Heartbeat CPU 0 instructions: 181000000 cycles: 2237876857 heartbeat IPC: 0.0796482 cumulative IPC: 0.0804499 (Simulation time: 0 hr 36 min 7 sec) 
Heartbeat CPU 0 instructions: 182000000 cycles: 2250587229 heartbeat IPC: 0.0786759 cumulative IPC: 0.0804399 (Simulation time: 0 hr 36 min 19 sec) 
Heartbeat CPU 0 instructions: 183000001 cycles: 2263000910 heartbeat IPC: 0.0805564 cumulative IPC: 0.0804405 (Simulation time: 0 hr 36 min 31 sec) 
Heartbeat CPU 0 instructions: 184000000 cycles: 2275914342 heartbeat IPC: 0.0774387 cumulative IPC: 0.0804235 (Simulation time: 0 hr 36 min 43 sec) 
Heartbeat CPU 0 instructions: 185000000 cycles: 2287747118 heartbeat IPC: 0.084511 cumulative IPC: 0.0804446 (Simulation time: 0 hr 36 min 54 sec) 
Heartbeat CPU 0 instructions: 186000000 cycles: 2300300787 heartbeat IPC: 0.079658 cumulative IPC: 0.0804404 (Simulation time: 0 hr 37 min 6 sec) 
Heartbeat CPU 0 instructions: 187000000 cycles: 2312161618 heartbeat IPC: 0.0843111 cumulative IPC: 0.0804602 (Simulation time: 0 hr 37 min 18 sec) 
Heartbeat CPU 0 instructions: 188000002 cycles: 2324638451 heartbeat IPC: 0.0801487 cumulative IPC: 0.0804585 (Simulation time: 0 hr 37 min 29 sec) 
Heartbeat CPU 0 instructions: 189000001 cycles: 2336927546 heartbeat IPC: 0.0813729 cumulative IPC: 0.0804633 (Simulation time: 0 hr 37 min 41 sec) 
Heartbeat CPU 0 instructions: 190000003 cycles: 2349123147 heartbeat IPC: 0.0819969 cumulative IPC: 0.0804713 (Simulation time: 0 hr 37 min 52 sec) 
Heartbeat CPU 0 instructions: 191000002 cycles: 2360844858 heartbeat IPC: 0.0853117 cumulative IPC: 0.0804954 (Simulation time: 0 hr 38 min 4 sec) 
Heartbeat CPU 0 instructions: 192000002 cycles: 2373367041 heartbeat IPC: 0.0798583 cumulative IPC: 0.080492 (Simulation time: 0 hr 38 min 16 sec) 
Heartbeat CPU 0 instructions: 193000002 cycles: 2385726845 heartbeat IPC: 0.0809074 cumulative IPC: 0.0804941 (Simulation time: 0 hr 38 min 28 sec) 
Heartbeat CPU 0 instructions: 194000001 cycles: 2397720089 heartbeat IPC: 0.0833802 cumulative IPC: 0.0805086 (Simulation time: 0 hr 38 min 39 sec) 
Heartbeat CPU 0 instructions: 195000000 cycles: 2410883314 heartbeat IPC: 0.0759692 cumulative IPC: 0.0804838 (Simulation time: 0 hr 38 min 51 sec) 
Heartbeat CPU 0 instructions: 196000002 cycles: 2423077937 heartbeat IPC: 0.0820035 cumulative IPC: 0.0804914 (Simulation time: 0 hr 39 min 3 sec) 
Heartbeat CPU 0 instructions: 197000002 cycles: 2435762326 heartbeat IPC: 0.0788371 cumulative IPC: 0.0804828 (Simulation time: 0 hr 39 min 15 sec) 
Heartbeat CPU 0 instructions: 198000000 cycles: 2448838335 heartbeat IPC: 0.0764758 cumulative IPC: 0.0804614 (Simulation time: 0 hr 39 min 27 sec) 
Heartbeat CPU 0 instructions: 199000001 cycles: 2461346339 heartbeat IPC: 0.0799489 cumulative IPC: 0.0804588 (Simulation time: 0 hr 39 min 39 sec) 
Heartbeat CPU 0 instructions: 200000000 cycles: 2473679532 heartbeat IPC: 0.0810819 cumulative IPC: 0.0804619 (Simulation time: 0 hr 39 min 50 sec) 
Heartbeat CPU 0 instructions: 201000001 cycles: 2485894161 heartbeat IPC: 0.0818691 cumulative IPC: 0.0804688 (Simulation time: 0 hr 40 min 2 sec) 
Heartbeat CPU 0 instructions: 202000000 cycles: 2497722058 heartbeat IPC: 0.0845458 cumulative IPC: 0.0804882 (Simulation time: 0 hr 40 min 14 sec) 
Heartbeat CPU 0 instructions: 203000001 cycles: 2510255680 heartbeat IPC: 0.0797855 cumulative IPC: 0.0804846 (Simulation time: 0 hr 40 min 26 sec) 
Heartbeat CPU 0 instructions: 204000000 cycles: 2522896886 heartbeat IPC: 0.0791063 cumulative IPC: 0.0804777 (Simulation time: 0 hr 40 min 37 sec) 
Heartbeat CPU 0 instructions: 205000000 cycles: 2536266805 heartbeat IPC: 0.0747948 cumulative IPC: 0.0804478 (Simulation time: 0 hr 40 min 50 sec) 
Heartbeat CPU 0 instructions: 206000000 cycles: 2549483731 heartbeat IPC: 0.0756606 cumulative IPC: 0.080423 (Simulation time: 0 hr 41 min 2 sec) 
Heartbeat CPU 0 instructions: 207000001 cycles: 2562041334 heartbeat IPC: 0.0796331 cumulative IPC: 0.0804191 (Simulation time: 0 hr 41 min 14 sec) 
Heartbeat CPU 0 instructions: 208000000 cycles: 2574360136 heartbeat IPC: 0.0811766 cumulative IPC: 0.0804227 (Simulation time: 0 hr 41 min 26 sec) 
Heartbeat CPU 0 instructions: 209000000 cycles: 2586777704 heartbeat IPC: 0.0805311 cumulative IPC: 0.0804232 (Simulation time: 0 hr 41 min 38 sec) 
Heartbeat CPU 0 instructions: 210000001 cycles: 2599051894 heartbeat IPC: 0.0814719 cumulative IPC: 0.0804282 (Simulation time: 0 hr 41 min 50 sec) 
Heartbeat CPU 0 instructions: 211000000 cycles: 2611122270 heartbeat IPC: 0.0828474 cumulative IPC: 0.0804394 (Simulation time: 0 hr 42 min 2 sec) 
Heartbeat CPU 0 instructions: 212000000 cycles: 2623147586 heartbeat IPC: 0.0831579 cumulative IPC: 0.0804518 (Simulation time: 0 hr 42 min 14 sec) 
Heartbeat CPU 0 instructions: 213000000 cycles: 2635140778 heartbeat IPC: 0.0833806 cumulative IPC: 0.0804652 (Simulation time: 0 hr 42 min 26 sec) 
Heartbeat CPU 0 instructions: 214000000 cycles: 2647472840 heartbeat IPC: 0.0810894 cumulative IPC: 0.0804681 (Simulation time: 0 hr 42 min 38 sec) 
Heartbeat CPU 0 instructions: 215000002 cycles: 2659771929 heartbeat IPC: 0.081307 cumulative IPC: 0.0804719 (Simulation time: 0 hr 42 min 50 sec) 
Heartbeat CPU 0 instructions: 216000002 cycles: 2671667245 heartbeat IPC: 0.0840667 cumulative IPC: 0.080488 (Simulation time: 0 hr 43 min 2 sec) 
Heartbeat CPU 0 instructions: 217000000 cycles: 2683703997 heartbeat IPC: 0.0830787 cumulative IPC: 0.0804996 (Simulation time: 0 hr 43 min 14 sec) 
Heartbeat CPU 0 instructions: 218000001 cycles: 2696052847 heartbeat IPC: 0.0809793 cumulative IPC: 0.0805018 (Simulation time: 0 hr 43 min 26 sec) 
Heartbeat CPU 0 instructions: 219000000 cycles: 2708275448 heartbeat IPC: 0.0818156 cumulative IPC: 0.0805077 (Simulation time: 0 hr 43 min 38 sec) 
Heartbeat CPU 0 instructions: 220000000 cycles: 2721089262 heartbeat IPC: 0.0780408 cumulative IPC: 0.0804961 (Simulation time: 0 hr 43 min 50 sec) 
Heartbeat CPU 0 instructions: 221000000 cycles: 2732850335 heartbeat IPC: 0.0850263 cumulative IPC: 0.0805156 (Simulation time: 0 hr 44 min 2 sec) 
Heartbeat CPU 0 instructions: 222000000 cycles: 2744696529 heartbeat IPC: 0.0844153 cumulative IPC: 0.0805324 (Simulation time: 0 hr 44 min 14 sec) 
Heartbeat CPU 0 instructions: 223000001 cycles: 2756087528 heartbeat IPC: 0.0877887 cumulative IPC: 0.0805624 (Simulation time: 0 hr 44 min 26 sec) 
Heartbeat CPU 0 instructions: 224000002 cycles: 2768599469 heartbeat IPC: 0.0799237 cumulative IPC: 0.0805595 (Simulation time: 0 hr 44 min 37 sec) 
Heartbeat CPU 0 instructions: 225000000 cycles: 2780894002 heartbeat IPC: 0.0813368 cumulative IPC: 0.080563 (Simulation time: 0 hr 44 min 49 sec) 
Heartbeat CPU 0 instructions: 226000000 cycles: 2793459014 heartbeat IPC: 0.0795861 cumulative IPC: 0.0805586 (Simulation time: 0 hr 45 min 1 sec) 
Heartbeat CPU 0 instructions: 227000002 cycles: 2806006972 heartbeat IPC: 0.0796944 cumulative IPC: 0.0805547 (Simulation time: 0 hr 45 min 13 sec) 
Heartbeat CPU 0 instructions: 228000000 cycles: 2818037591 heartbeat IPC: 0.0831211 cumulative IPC: 0.0805657 (Simulation time: 0 hr 45 min 25 sec) 
Heartbeat CPU 0 instructions: 229000001 cycles: 2830364844 heartbeat IPC: 0.0811212 cumulative IPC: 0.0805681 (Simulation time: 0 hr 45 min 37 sec) 
Heartbeat CPU 0 instructions: 230000001 cycles: 2842565541 heartbeat IPC: 0.0819625 cumulative IPC: 0.0805741 (Simulation time: 0 hr 45 min 49 sec) 
Heartbeat CPU 0 instructions: 231000000 cycles: 2854513544 heartbeat IPC: 0.0836959 cumulative IPC: 0.0805871 (Simulation time: 0 hr 46 min 0 sec) 
Heartbeat CPU 0 instructions: 232000000 cycles: 2866576149 heartbeat IPC: 0.0829008 cumulative IPC: 0.0805969 (Simulation time: 0 hr 46 min 12 sec) 
Heartbeat CPU 0 instructions: 233000000 cycles: 2879219390 heartbeat IPC: 0.0790936 cumulative IPC: 0.0805903 (Simulation time: 0 hr 46 min 24 sec) 
Heartbeat CPU 0 instructions: 234000002 cycles: 2891654135 heartbeat IPC: 0.08042 cumulative IPC: 0.0805895 (Simulation time: 0 hr 46 min 36 sec) 
Heartbeat CPU 0 instructions: 235000001 cycles: 2904015707 heartbeat IPC: 0.0808958 cumulative IPC: 0.0805908 (Simulation time: 0 hr 46 min 48 sec) 
Heartbeat CPU 0 instructions: 236000002 cycles: 2916673218 heartbeat IPC: 0.0790046 cumulative IPC: 0.080584 (Simulation time: 0 hr 47 min 0 sec) 
Heartbeat CPU 0 instructions: 237000003 cycles: 2929027419 heartbeat IPC: 0.0809442 cumulative IPC: 0.0805855 (Simulation time: 0 hr 47 min 12 sec) 
Heartbeat CPU 0 instructions: 238000002 cycles: 2940903513 heartbeat IPC: 0.0842027 cumulative IPC: 0.0806001 (Simulation time: 0 hr 47 min 23 sec) 
Heartbeat CPU 0 instructions: 239000003 cycles: 2953932626 heartbeat IPC: 0.0767513 cumulative IPC: 0.0805831 (Simulation time: 0 hr 47 min 35 sec) 
Heartbeat CPU 0 instructions: 240000000 cycles: 2966816925 heartbeat IPC: 0.0776136 cumulative IPC: 0.0805702 (Simulation time: 0 hr 47 min 47 sec) 
Heartbeat CPU 0 instructions: 241000001 cycles: 2979534093 heartbeat IPC: 0.0786339 cumulative IPC: 0.080562 (Simulation time: 0 hr 48 min 0 sec) 
Heartbeat CPU 0 instructions: 242000000 cycles: 2991870209 heartbeat IPC: 0.0810627 cumulative IPC: 0.080564 (Simulation time: 0 hr 48 min 11 sec) 
Heartbeat CPU 0 instructions: 243000000 cycles: 3003993454 heartbeat IPC: 0.0824862 cumulative IPC: 0.0805718 (Simulation time: 0 hr 48 min 23 sec) 
Heartbeat CPU 0 instructions: 244000002 cycles: 3016618745 heartbeat IPC: 0.0792063 cumulative IPC: 0.0805661 (Simulation time: 0 hr 48 min 35 sec) 
Heartbeat CPU 0 instructions: 245000000 cycles: 3028760241 heartbeat IPC: 0.082362 cumulative IPC: 0.0805733 (Simulation time: 0 hr 48 min 47 sec) 
Heartbeat CPU 0 instructions: 246000002 cycles: 3041457721 heartbeat IPC: 0.0787559 cumulative IPC: 0.0805657 (Simulation time: 0 hr 48 min 59 sec) 
Heartbeat CPU 0 instructions: 247000001 cycles: 3054370198 heartbeat IPC: 0.0774444 cumulative IPC: 0.0805525 (Simulation time: 0 hr 49 min 11 sec) 
Heartbeat CPU 0 instructions: 248000000 cycles: 3065987912 heartbeat IPC: 0.0860754 cumulative IPC: 0.0805734 (Simulation time: 0 hr 49 min 22 sec) 
Heartbeat CPU 0 instructions: 249000000 cycles: 3077972146 heartbeat IPC: 0.083443 cumulative IPC: 0.0805846 (Simulation time: 0 hr 49 min 33 sec) 
Heartbeat CPU 0 instructions: 250000001 cycles: 3090360039 heartbeat IPC: 0.0807241 cumulative IPC: 0.0805851 (Simulation time: 0 hr 49 min 45 sec) 
Heartbeat CPU 0 instructions: 251000002 cycles: 3102966193 heartbeat IPC: 0.0793264 cumulative IPC: 0.08058 (Simulation time: 0 hr 49 min 57 sec) 
Heartbeat CPU 0 instructions: 252000002 cycles: 3115583713 heartbeat IPC: 0.0792549 cumulative IPC: 0.0805747 (Simulation time: 0 hr 50 min 8 sec) 
Heartbeat CPU 0 instructions: 253000000 cycles: 3127857375 heartbeat IPC: 0.0814751 cumulative IPC: 0.0805782 (Simulation time: 0 hr 50 min 20 sec) 
Heartbeat CPU 0 instructions: 254000000 cycles: 3139798376 heartbeat IPC: 0.0837451 cumulative IPC: 0.0805902 (Simulation time: 0 hr 50 min 31 sec) 
Heartbeat CPU 0 instructions: 255000002 cycles: 3151910071 heartbeat IPC: 0.082565 cumulative IPC: 0.0805978 (Simulation time: 0 hr 50 min 43 sec) 
Heartbeat CPU 0 instructions: 256000000 cycles: 3163834552 heartbeat IPC: 0.0838609 cumulative IPC: 0.0806101 (Simulation time: 0 hr 50 min 55 sec) 
Heartbeat CPU 0 instructions: 257000001 cycles: 3174980415 heartbeat IPC: 0.0897195 cumulative IPC: 0.0806421 (Simulation time: 0 hr 51 min 6 sec) 
Heartbeat CPU 0 instructions: 258000002 cycles: 3187383300 heartbeat IPC: 0.0806265 cumulative IPC: 0.080642 (Simulation time: 0 hr 51 min 18 sec) 
Heartbeat CPU 0 instructions: 259000001 cycles: 3199728684 heartbeat IPC: 0.0810019 cumulative IPC: 0.0806434 (Simulation time: 0 hr 51 min 30 sec) 
Heartbeat CPU 0 instructions: 260000000 cycles: 3212004739 heartbeat IPC: 0.0814593 cumulative IPC: 0.0806466 (Simulation time: 0 hr 51 min 42 sec) 
Heartbeat CPU 0 instructions: 261000000 cycles: 3224323997 heartbeat IPC: 0.0811737 cumulative IPC: 0.0806486 (Simulation time: 0 hr 51 min 54 sec) 
Heartbeat CPU 0 instructions: 262000002 cycles: 3236251202 heartbeat IPC: 0.0838421 cumulative IPC: 0.0806603 (Simulation time: 0 hr 52 min 5 sec) 
Heartbeat CPU 0 instructions: 263000000 cycles: 3247918327 heartbeat IPC: 0.0857107 cumulative IPC: 0.0806785 (Simulation time: 0 hr 52 min 17 sec) 
Heartbeat CPU 0 instructions: 264000000 cycles: 3260450188 heartbeat IPC: 0.0797966 cumulative IPC: 0.0806751 (Simulation time: 0 hr 52 min 28 sec) 
Heartbeat CPU 0 instructions: 265000000 cycles: 3272828814 heartbeat IPC: 0.0807844 cumulative IPC: 0.0806755 (Simulation time: 0 hr 52 min 40 sec) 
Heartbeat CPU 0 instructions: 266000000 cycles: 3285169272 heartbeat IPC: 0.0810343 cumulative IPC: 0.0806769 (Simulation time: 0 hr 52 min 52 sec) 
Heartbeat CPU 0 instructions: 267000000 cycles: 3297230852 heartbeat IPC: 0.0829079 cumulative IPC: 0.080685 (Simulation time: 0 hr 53 min 4 sec) 
Heartbeat CPU 0 instructions: 268000000 cycles: 3309226029 heartbeat IPC: 0.0833668 cumulative IPC: 0.0806947 (Simulation time: 0 hr 53 min 15 sec) 
Heartbeat CPU 0 instructions: 269000001 cycles: 3321215992 heartbeat IPC: 0.0834032 cumulative IPC: 0.0807045 (Simulation time: 0 hr 53 min 27 sec) 
Heartbeat CPU 0 instructions: 270000000 cycles: 3333735666 heartbeat IPC: 0.0798742 cumulative IPC: 0.0807014 (Simulation time: 0 hr 53 min 39 sec) 
Heartbeat CPU 0 instructions: 271000002 cycles: 3346523846 heartbeat IPC: 0.0781974 cumulative IPC: 0.0806918 (Simulation time: 0 hr 53 min 51 sec) 
Heartbeat CPU 0 instructions: 272000000 cycles: 3359070542 heartbeat IPC: 0.0797021 cumulative IPC: 0.0806881 (Simulation time: 0 hr 54 min 3 sec) 
Heartbeat CPU 0 instructions: 273000000 cycles: 3371404878 heartbeat IPC: 0.0810745 cumulative IPC: 0.0806895 (Simulation time: 0 hr 54 min 15 sec) 
Heartbeat CPU 0 instructions: 274000000 cycles: 3383571790 heartbeat IPC: 0.0821901 cumulative IPC: 0.0806949 (Simulation time: 0 hr 54 min 26 sec) 
Heartbeat CPU 0 instructions: 275000000 cycles: 3395290692 heartbeat IPC: 0.0853322 cumulative IPC: 0.0807109 (Simulation time: 0 hr 54 min 38 sec) 
Heartbeat CPU 0 instructions: 276000000 cycles: 3407030865 heartbeat IPC: 0.0851776 cumulative IPC: 0.0807263 (Simulation time: 0 hr 54 min 49 sec) 
Heartbeat CPU 0 instructions: 277000001 cycles: 3419184632 heartbeat IPC: 0.0822791 cumulative IPC: 0.0807319 (Simulation time: 0 hr 55 min 1 sec) 
Heartbeat CPU 0 instructions: 278000002 cycles: 3431513982 heartbeat IPC: 0.0811074 cumulative IPC: 0.0807332 (Simulation time: 0 hr 55 min 13 sec) 
Heartbeat CPU 0 instructions: 279000001 cycles: 3443122014 heartbeat IPC: 0.0861472 cumulative IPC: 0.0807515 (Simulation time: 0 hr 55 min 24 sec) 
Heartbeat CPU 0 instructions: 280000000 cycles: 3454479647 heartbeat IPC: 0.0880464 cumulative IPC: 0.0807755 (Simulation time: 0 hr 55 min 36 sec) 
Heartbeat CPU 0 instructions: 281000000 cycles: 3467121272 heartbeat IPC: 0.0791038 cumulative IPC: 0.0807694 (Simulation time: 0 hr 55 min 48 sec) 
Heartbeat CPU 0 instructions: 282000000 cycles: 3479498075 heartbeat IPC: 0.0807963 cumulative IPC: 0.0807695 (Simulation time: 0 hr 56 min 0 sec) 
Heartbeat CPU 0 instructions: 283000000 cycles: 3490989620 heartbeat IPC: 0.0870205 cumulative IPC: 0.08079 (Simulation time: 0 hr 56 min 11 sec) 
Heartbeat CPU 0 instructions: 284000002 cycles: 3503059227 heartbeat IPC: 0.0828529 cumulative IPC: 0.0807971 (Simulation time: 0 hr 56 min 23 sec) 
Heartbeat CPU 0 instructions: 285000002 cycles: 3515119800 heartbeat IPC: 0.0829148 cumulative IPC: 0.0808044 (Simulation time: 0 hr 56 min 35 sec) 
Heartbeat CPU 0 instructions: 286000000 cycles: 3528389110 heartbeat IPC: 0.0753617 cumulative IPC: 0.0807839 (Simulation time: 0 hr 56 min 48 sec) 
Heartbeat CPU 0 instructions: 287000001 cycles: 3541100175 heartbeat IPC: 0.0786717 cumulative IPC: 0.0807764 (Simulation time: 0 hr 57 min 1 sec) 
Heartbeat CPU 0 instructions: 288000003 cycles: 3552976212 heartbeat IPC: 0.0842033 cumulative IPC: 0.0807878 (Simulation time: 0 hr 57 min 12 sec) 
Heartbeat CPU 0 instructions: 289000000 cycles: 3565840616 heartbeat IPC: 0.0777336 cumulative IPC: 0.0807768 (Simulation time: 0 hr 57 min 25 sec) 
Heartbeat CPU 0 instructions: 290000001 cycles: 3578399672 heartbeat IPC: 0.0796239 cumulative IPC: 0.0807727 (Simulation time: 0 hr 57 min 37 sec) 
Heartbeat CPU 0 instructions: 291000001 cycles: 3590488269 heartbeat IPC: 0.0827226 cumulative IPC: 0.0807793 (Simulation time: 0 hr 57 min 48 sec) 
Heartbeat CPU 0 instructions: 292000002 cycles: 3602513110 heartbeat IPC: 0.0831613 cumulative IPC: 0.0807873 (Simulation time: 0 hr 58 min 0 sec) 
Heartbeat CPU 0 instructions: 293000000 cycles: 3615409845 heartbeat IPC: 0.0775388 cumulative IPC: 0.0807757 (Simulation time: 0 hr 58 min 12 sec) 
Heartbeat CPU 0 instructions: 294000000 cycles: 3628681791 heartbeat IPC: 0.0753469 cumulative IPC: 0.0807558 (Simulation time: 0 hr 58 min 24 sec) 
Heartbeat CPU 0 instructions: 295000002 cycles: 3640046156 heartbeat IPC: 0.0879945 cumulative IPC: 0.0807784 (Simulation time: 0 hr 58 min 36 sec) 
Heartbeat CPU 0 instructions: 296000002 cycles: 3650759916 heartbeat IPC: 0.0933379 cumulative IPC: 0.0808153 (Simulation time: 0 hr 58 min 47 sec) 
Heartbeat CPU 0 instructions: 297000000 cycles: 3664980291 heartbeat IPC: 0.0703215 cumulative IPC: 0.0807746 (Simulation time: 0 hr 59 min 1 sec) 
Heartbeat CPU 0 instructions: 298000002 cycles: 3681566920 heartbeat IPC: 0.0602896 cumulative IPC: 0.0806823 (Simulation time: 0 hr 59 min 18 sec) 
Heartbeat CPU 0 instructions: 299000002 cycles: 3692995260 heartbeat IPC: 0.0875018 cumulative IPC: 0.0807034 (Simulation time: 0 hr 59 min 30 sec) 
Heartbeat CPU 0 instructions: 300000000 cycles: 3705876941 heartbeat IPC: 0.0776295 cumulative IPC: 0.0806927 (Simulation time: 0 hr 59 min 42 sec) 
Heartbeat CPU 0 instructions: 301000000 cycles: 3718378198 heartbeat IPC: 0.079992 cumulative IPC: 0.0806903 (Simulation time: 0 hr 59 min 54 sec) 
Heartbeat CPU 0 instructions: 302000002 cycles: 3730279807 heartbeat IPC: 0.0840224 cumulative IPC: 0.080701 (Simulation time: 1 hr 0 min 5 sec) 
Heartbeat CPU 0 instructions: 303000001 cycles: 3741656832 heartbeat IPC: 0.0878964 cumulative IPC: 0.0807228 (Simulation time: 1 hr 0 min 17 sec) 
Heartbeat CPU 0 instructions: 304000002 cycles: 3752616908 heartbeat IPC: 0.0912403 cumulative IPC: 0.0807536 (Simulation time: 1 hr 0 min 27 sec) 
Heartbeat CPU 0 instructions: 305000000 cycles: 3764996388 heartbeat IPC: 0.0807787 cumulative IPC: 0.0807536 (Simulation time: 1 hr 0 min 39 sec) 
Heartbeat CPU 0 instructions: 306000000 cycles: 3777233881 heartbeat IPC: 0.0817161 cumulative IPC: 0.0807568 (Simulation time: 1 hr 0 min 51 sec) 
Heartbeat CPU 0 instructions: 307000003 cycles: 3789729174 heartbeat IPC: 0.0800304 cumulative IPC: 0.0807544 (Simulation time: 1 hr 1 min 3 sec) 
Heartbeat CPU 0 instructions: 308000000 cycles: 3801949770 heartbeat IPC: 0.0818288 cumulative IPC: 0.0807578 (Simulation time: 1 hr 1 min 15 sec) 
Heartbeat CPU 0 instructions: 309000002 cycles: 3813876172 heartbeat IPC: 0.0838478 cumulative IPC: 0.0807675 (Simulation time: 1 hr 1 min 26 sec) 
Heartbeat CPU 0 instructions: 310000000 cycles: 3826761392 heartbeat IPC: 0.0776081 cumulative IPC: 0.0807568 (Simulation time: 1 hr 1 min 39 sec) 
Heartbeat CPU 0 instructions: 311000002 cycles: 3838988253 heartbeat IPC: 0.0817873 cumulative IPC: 0.0807601 (Simulation time: 1 hr 1 min 50 sec) 
Heartbeat CPU 0 instructions: 312000000 cycles: 3851228246 heartbeat IPC: 0.0816992 cumulative IPC: 0.0807631 (Simulation time: 1 hr 2 min 2 sec) 
Heartbeat CPU 0 instructions: 313000002 cycles: 3863556723 heartbeat IPC: 0.0811132 cumulative IPC: 0.0807642 (Simulation time: 1 hr 2 min 14 sec) 
Heartbeat CPU 0 instructions: 314000002 cycles: 3875635633 heartbeat IPC: 0.0827889 cumulative IPC: 0.0807705 (Simulation time: 1 hr 2 min 26 sec) 
Heartbeat CPU 0 instructions: 315000001 cycles: 3888341220 heartbeat IPC: 0.0787055 cumulative IPC: 0.0807638 (Simulation time: 1 hr 2 min 39 sec) 
Heartbeat CPU 0 instructions: 316000003 cycles: 3900691090 heartbeat IPC: 0.0809727 cumulative IPC: 0.0807645 (Simulation time: 1 hr 2 min 51 sec) 
Heartbeat CPU 0 instructions: 317000000 cycles: 3912961417 heartbeat IPC: 0.0814972 cumulative IPC: 0.0807667 (Simulation time: 1 hr 3 min 3 sec) 
Heartbeat CPU 0 instructions: 318000000 cycles: 3925162342 heartbeat IPC: 0.081961 cumulative IPC: 0.0807705 (Simulation time: 1 hr 3 min 14 sec) 
Heartbeat CPU 0 instructions: 319000000 cycles: 3937210780 heartbeat IPC: 0.0829983 cumulative IPC: 0.0807773 (Simulation time: 1 hr 3 min 26 sec) 
Heartbeat CPU 0 instructions: 320000000 cycles: 3949152220 heartbeat IPC: 0.083742 cumulative IPC: 0.0807862 (Simulation time: 1 hr 3 min 38 sec) 
Heartbeat CPU 0 instructions: 321000000 cycles: 3961890629 heartbeat IPC: 0.0785027 cumulative IPC: 0.0807789 (Simulation time: 1 hr 3 min 50 sec) 
Heartbeat CPU 0 instructions: 322000002 cycles: 3974203430 heartbeat IPC: 0.0812165 cumulative IPC: 0.0807803 (Simulation time: 1 hr 4 min 2 sec) 
Heartbeat CPU 0 instructions: 323000001 cycles: 3986225975 heartbeat IPC: 0.083177 cumulative IPC: 0.0807875 (Simulation time: 1 hr 4 min 14 sec) 
Heartbeat CPU 0 instructions: 324000000 cycles: 3998961581 heartbeat IPC: 0.0785199 cumulative IPC: 0.0807803 (Simulation time: 1 hr 4 min 26 sec) 
Heartbeat CPU 0 instructions: 325000000 cycles: 4011630566 heartbeat IPC: 0.0789329 cumulative IPC: 0.0807744 (Simulation time: 1 hr 4 min 38 sec) 
Heartbeat CPU 0 instructions: 326000000 cycles: 4023939301 heartbeat IPC: 0.0812431 cumulative IPC: 0.0807759 (Simulation time: 1 hr 4 min 50 sec) 
Heartbeat CPU 0 instructions: 327000000 cycles: 4036832220 heartbeat IPC: 0.077562 cumulative IPC: 0.0807656 (Simulation time: 1 hr 5 min 2 sec) 
Heartbeat CPU 0 instructions: 328000000 cycles: 4048976685 heartbeat IPC: 0.082342 cumulative IPC: 0.0807703 (Simulation time: 1 hr 5 min 14 sec) 
Heartbeat CPU 0 instructions: 329000002 cycles: 4061662514 heartbeat IPC: 0.0788283 cumulative IPC: 0.0807643 (Simulation time: 1 hr 5 min 26 sec) 
Heartbeat CPU 0 instructions: 330000000 cycles: 4074667900 heartbeat IPC: 0.0768911 cumulative IPC: 0.0807519 (Simulation time: 1 hr 5 min 38 sec) 
Heartbeat CPU 0 instructions: 331000000 cycles: 4087033048 heartbeat IPC: 0.0808725 cumulative IPC: 0.0807523 (Simulation time: 1 hr 5 min 51 sec) 
Heartbeat CPU 0 instructions: 332000000 cycles: 4099969395 heartbeat IPC: 0.0773016 cumulative IPC: 0.0807414 (Simulation time: 1 hr 6 min 3 sec) 
Heartbeat CPU 0 instructions: 333000000 cycles: 4112631331 heartbeat IPC: 0.0789769 cumulative IPC: 0.0807359 (Simulation time: 1 hr 6 min 15 sec) 
Heartbeat CPU 0 instructions: 334000001 cycles: 4125000019 heartbeat IPC: 0.0808494 cumulative IPC: 0.0807363 (Simulation time: 1 hr 6 min 27 sec) 
Heartbeat CPU 0 instructions: 335000002 cycles: 4137728303 heartbeat IPC: 0.0785653 cumulative IPC: 0.0807296 (Simulation time: 1 hr 6 min 39 sec) 
Heartbeat CPU 0 instructions: 336000000 cycles: 4150688244 heartbeat IPC: 0.0771607 cumulative IPC: 0.0807185 (Simulation time: 1 hr 6 min 51 sec) 
Heartbeat CPU 0 instructions: 337000002 cycles: 4163363097 heartbeat IPC: 0.0788965 cumulative IPC: 0.0807129 (Simulation time: 1 hr 7 min 3 sec) 
Heartbeat CPU 0 instructions: 338000000 cycles: 4175813833 heartbeat IPC: 0.0803164 cumulative IPC: 0.0807117 (Simulation time: 1 hr 7 min 15 sec) 
Heartbeat CPU 0 instructions: 339000000 cycles: 4188122232 heartbeat IPC: 0.0812453 cumulative IPC: 0.0807133 (Simulation time: 1 hr 7 min 26 sec) 
Heartbeat CPU 0 instructions: 340000001 cycles: 4200180843 heartbeat IPC: 0.0829284 cumulative IPC: 0.0807197 (Simulation time: 1 hr 7 min 38 sec) 
Heartbeat CPU 0 instructions: 341000000 cycles: 4212660120 heartbeat IPC: 0.0801328 cumulative IPC: 0.0807179 (Simulation time: 1 hr 7 min 50 sec) 
Heartbeat CPU 0 instructions: 342000001 cycles: 4224585816 heartbeat IPC: 0.0838526 cumulative IPC: 0.0807268 (Simulation time: 1 hr 8 min 1 sec) 
Heartbeat CPU 0 instructions: 343000002 cycles: 4236863637 heartbeat IPC: 0.0814478 cumulative IPC: 0.0807289 (Simulation time: 1 hr 8 min 13 sec) 
Heartbeat CPU 0 instructions: 344000002 cycles: 4248848059 heartbeat IPC: 0.0834417 cumulative IPC: 0.0807365 (Simulation time: 1 hr 8 min 25 sec) 
Heartbeat CPU 0 instructions: 345000002 cycles: 4261379654 heartbeat IPC: 0.0797983 cumulative IPC: 0.0807337 (Simulation time: 1 hr 8 min 37 sec) 
Heartbeat CPU 0 instructions: 346000000 cycles: 4273206575 heartbeat IPC: 0.0845527 cumulative IPC: 0.0807443 (Simulation time: 1 hr 8 min 49 sec) 
Heartbeat CPU 0 instructions: 347000000 cycles: 4285019703 heartbeat IPC: 0.0846516 cumulative IPC: 0.0807551 (Simulation time: 1 hr 9 min 1 sec) 
Heartbeat CPU 0 instructions: 348000001 cycles: 4296967437 heartbeat IPC: 0.083698 cumulative IPC: 0.0807633 (Simulation time: 1 hr 9 min 12 sec) 
Heartbeat CPU 0 instructions: 349000000 cycles: 4310346185 heartbeat IPC: 0.0747453 cumulative IPC: 0.0807446 (Simulation time: 1 hr 9 min 25 sec) 
Heartbeat CPU 0 instructions: 350000000 cycles: 4322572302 heartbeat IPC: 0.0817921 cumulative IPC: 0.0807476 (Simulation time: 1 hr 9 min 37 sec) 
Heartbeat CPU 0 instructions: 351000000 cycles: 4334581406 heartbeat IPC: 0.0832702 cumulative IPC: 0.0807545 (Simulation time: 1 hr 9 min 48 sec) 
Heartbeat CPU 0 instructions: 352000000 cycles: 4347087782 heartbeat IPC: 0.0799592 cumulative IPC: 0.0807523 (Simulation time: 1 hr 10 min 0 sec) 
Heartbeat CPU 0 instructions: 353000001 cycles: 4359204015 heartbeat IPC: 0.082534 cumulative IPC: 0.0807572 (Simulation time: 1 hr 10 min 12 sec) 
Heartbeat CPU 0 instructions: 354000000 cycles: 4372409815 heartbeat IPC: 0.0757242 cumulative IPC: 0.080742 (Simulation time: 1 hr 10 min 24 sec) 
Heartbeat CPU 0 instructions: 355000000 cycles: 4385033750 heartbeat IPC: 0.0792146 cumulative IPC: 0.0807376 (Simulation time: 1 hr 10 min 35 sec) 
Heartbeat CPU 0 instructions: 356000002 cycles: 4398137470 heartbeat IPC: 0.0763144 cumulative IPC: 0.0807244 (Simulation time: 1 hr 10 min 47 sec) 
Heartbeat CPU 0 instructions: 357000000 cycles: 4411493128 heartbeat IPC: 0.0748745 cumulative IPC: 0.0807067 (Simulation time: 1 hr 11 min 0 sec) 
Heartbeat CPU 0 instructions: 358000000 cycles: 4424321595 heartbeat IPC: 0.0779516 cumulative IPC: 0.0806987 (Simulation time: 1 hr 11 min 12 sec) 
Heartbeat CPU 0 instructions: 359000001 cycles: 4437473771 heartbeat IPC: 0.0760331 cumulative IPC: 0.0806849 (Simulation time: 1 hr 11 min 24 sec) 
Heartbeat CPU 0 instructions: 360000000 cycles: 4449760395 heartbeat IPC: 0.0813892 cumulative IPC: 0.0806868 (Simulation time: 1 hr 11 min 36 sec) 
Heartbeat CPU 0 instructions: 361000000 cycles: 4462529127 heartbeat IPC: 0.0783163 cumulative IPC: 0.0806801 (Simulation time: 1 hr 11 min 48 sec) 
Heartbeat CPU 0 instructions: 362000002 cycles: 4474606163 heartbeat IPC: 0.0828019 cumulative IPC: 0.0806858 (Simulation time: 1 hr 11 min 59 sec) 
Heartbeat CPU 0 instructions: 363000000 cycles: 4487663838 heartbeat IPC: 0.0765832 cumulative IPC: 0.0806739 (Simulation time: 1 hr 12 min 11 sec) 
Heartbeat CPU 0 instructions: 364000001 cycles: 4500468565 heartbeat IPC: 0.0780962 cumulative IPC: 0.0806665 (Simulation time: 1 hr 12 min 23 sec) 
Heartbeat CPU 0 instructions: 365000000 cycles: 4513220611 heartbeat IPC: 0.0784187 cumulative IPC: 0.0806602 (Simulation time: 1 hr 12 min 35 sec) 
Heartbeat CPU 0 instructions: 366000001 cycles: 4525704563 heartbeat IPC: 0.0801029 cumulative IPC: 0.0806586 (Simulation time: 1 hr 12 min 47 sec) 
Heartbeat CPU 0 instructions: 367000000 cycles: 4538233859 heartbeat IPC: 0.0798129 cumulative IPC: 0.0806563 (Simulation time: 1 hr 12 min 58 sec) 
Heartbeat CPU 0 instructions: 368000001 cycles: 4550796514 heartbeat IPC: 0.0796011 cumulative IPC: 0.0806534 (Simulation time: 1 hr 13 min 10 sec) 
Heartbeat CPU 0 instructions: 369000002 cycles: 4563888401 heartbeat IPC: 0.0763833 cumulative IPC: 0.0806411 (Simulation time: 1 hr 13 min 23 sec) 
Heartbeat CPU 0 instructions: 370000001 cycles: 4577350692 heartbeat IPC: 0.0742815 cumulative IPC: 0.0806224 (Simulation time: 1 hr 13 min 35 sec) 
Heartbeat CPU 0 instructions: 371000000 cycles: 4590363672 heartbeat IPC: 0.0768463 cumulative IPC: 0.0806117 (Simulation time: 1 hr 13 min 47 sec) 
Heartbeat CPU 0 instructions: 372000000 cycles: 4603485672 heartbeat IPC: 0.0762079 cumulative IPC: 0.0805992 (Simulation time: 1 hr 14 min 0 sec) 
Heartbeat CPU 0 instructions: 373000002 cycles: 4616098927 heartbeat IPC: 0.0792818 cumulative IPC: 0.0805956 (Simulation time: 1 hr 14 min 12 sec) 
Heartbeat CPU 0 instructions: 374000000 cycles: 4628494792 heartbeat IPC: 0.0806719 cumulative IPC: 0.0805958 (Simulation time: 1 hr 14 min 24 sec) 
Heartbeat CPU 0 instructions: 375000000 cycles: 4641040917 heartbeat IPC: 0.0797059 cumulative IPC: 0.0805934 (Simulation time: 1 hr 14 min 36 sec) 
Heartbeat CPU 0 instructions: 376000001 cycles: 4653937391 heartbeat IPC: 0.0775407 cumulative IPC: 0.0805849 (Simulation time: 1 hr 14 min 48 sec) 
Heartbeat CPU 0 instructions: 377000002 cycles: 4667108407 heartbeat IPC: 0.0759244 cumulative IPC: 0.0805717 (Simulation time: 1 hr 15 min 1 sec) 
Heartbeat CPU 0 instructions: 378000000 cycles: 4679614205 heartbeat IPC: 0.0799628 cumulative IPC: 0.0805701 (Simulation time: 1 hr 15 min 12 sec) 
Heartbeat CPU 0 instructions: 379000002 cycles: 4692347394 heartbeat IPC: 0.0785351 cumulative IPC: 0.0805646 (Simulation time: 1 hr 15 min 24 sec) 
Heartbeat CPU 0 instructions: 380000002 cycles: 4704688297 heartbeat IPC: 0.0810313 cumulative IPC: 0.0805658 (Simulation time: 1 hr 15 min 35 sec) 
Heartbeat CPU 0 instructions: 381000000 cycles: 4717608153 heartbeat IPC: 0.0774001 cumulative IPC: 0.0805572 (Simulation time: 1 hr 15 min 47 sec) 
Heartbeat CPU 0 instructions: 382000000 cycles: 4730701777 heartbeat IPC: 0.076373 cumulative IPC: 0.0805456 (Simulation time: 1 hr 15 min 59 sec) 
Heartbeat CPU 0 instructions: 383000000 cycles: 4742902849 heartbeat IPC: 0.08196 cumulative IPC: 0.0805492 (Simulation time: 1 hr 16 min 11 sec) 
Heartbeat CPU 0 instructions: 384000003 cycles: 4756951166 heartbeat IPC: 0.0711831 cumulative IPC: 0.0805215 (Simulation time: 1 hr 16 min 24 sec) 
Heartbeat CPU 0 instructions: 385000000 cycles: 4774368883 heartbeat IPC: 0.0574126 cumulative IPC: 0.0804372 (Simulation time: 1 hr 16 min 40 sec) 
Heartbeat CPU 0 instructions: 386000003 cycles: 4786856792 heartbeat IPC: 0.0800777 cumulative IPC: 0.0804363 (Simulation time: 1 hr 16 min 52 sec) 
Heartbeat CPU 0 instructions: 387000001 cycles: 4799605859 heartbeat IPC: 0.078437 cumulative IPC: 0.080431 (Simulation time: 1 hr 17 min 4 sec) 
Heartbeat CPU 0 instructions: 388000000 cycles: 4812116149 heartbeat IPC: 0.0799341 cumulative IPC: 0.0804297 (Simulation time: 1 hr 17 min 16 sec) 
Heartbeat CPU 0 instructions: 389000002 cycles: 4823930550 heartbeat IPC: 0.0846426 cumulative IPC: 0.08044 (Simulation time: 1 hr 17 min 28 sec) 
Heartbeat CPU 0 instructions: 390000000 cycles: 4836105166 heartbeat IPC: 0.0821379 cumulative IPC: 0.0804443 (Simulation time: 1 hr 17 min 40 sec) 
Heartbeat CPU 0 instructions: 391000000 cycles: 4848108290 heartbeat IPC: 0.0833116 cumulative IPC: 0.0804514 (Simulation time: 1 hr 17 min 51 sec) 
Heartbeat CPU 0 instructions: 392000002 cycles: 4859687310 heartbeat IPC: 0.0863633 cumulative IPC: 0.0804655 (Simulation time: 1 hr 18 min 2 sec) 
Heartbeat CPU 0 instructions: 393000001 cycles: 4871938547 heartbeat IPC: 0.0816243 cumulative IPC: 0.0804684 (Simulation time: 1 hr 18 min 14 sec) 
Heartbeat CPU 0 instructions: 394000002 cycles: 4884046034 heartbeat IPC: 0.0825936 cumulative IPC: 0.0804737 (Simulation time: 1 hr 18 min 26 sec) 
Heartbeat CPU 0 instructions: 395000000 cycles: 4896861281 heartbeat IPC: 0.0780319 cumulative IPC: 0.0804673 (Simulation time: 1 hr 18 min 39 sec) 
Heartbeat CPU 0 instructions: 396000000 cycles: 4909581685 heartbeat IPC: 0.0786139 cumulative IPC: 0.0804625 (Simulation time: 1 hr 18 min 51 sec) 
Heartbeat CPU 0 instructions: 397000000 cycles: 4921992684 heartbeat IPC: 0.0805737 cumulative IPC: 0.0804627 (Simulation time: 1 hr 19 min 3 sec) 
Heartbeat CPU 0 instructions: 398000002 cycles: 4934658972 heartbeat IPC: 0.0789499 cumulative IPC: 0.0804589 (Simulation time: 1 hr 19 min 15 sec) 
Heartbeat CPU 0 instructions: 399000000 cycles: 4947426442 heartbeat IPC: 0.0783239 cumulative IPC: 0.0804534 (Simulation time: 1 hr 19 min 27 sec) 
Heartbeat CPU 0 instructions: 400000000 cycles: 4960450012 heartbeat IPC: 0.0767839 cumulative IPC: 0.0804437 (Simulation time: 1 hr 19 min 39 sec) 
Heartbeat CPU 0 instructions: 401000002 cycles: 4973372544 heartbeat IPC: 0.0773844 cumulative IPC: 0.0804358 (Simulation time: 1 hr 19 min 51 sec) 
Heartbeat CPU 0 instructions: 402000001 cycles: 4986653591 heartbeat IPC: 0.0752952 cumulative IPC: 0.0804221 (Simulation time: 1 hr 20 min 4 sec) 
Heartbeat CPU 0 instructions: 403000000 cycles: 4998962110 heartbeat IPC: 0.0812445 cumulative IPC: 0.0804241 (Simulation time: 1 hr 20 min 16 sec) 
Heartbeat CPU 0 instructions: 404000000 cycles: 5011637633 heartbeat IPC: 0.0788922 cumulative IPC: 0.0804202 (Simulation time: 1 hr 20 min 28 sec) 
Heartbeat CPU 0 instructions: 405000000 cycles: 5025335553 heartbeat IPC: 0.0730038 cumulative IPC: 0.0804 (Simulation time: 1 hr 20 min 40 sec) 
Heartbeat CPU 0 instructions: 406000000 cycles: 5038234269 heartbeat IPC: 0.0775271 cumulative IPC: 0.0803927 (Simulation time: 1 hr 20 min 52 sec) 
Heartbeat CPU 0 instructions: 407000000 cycles: 5051251931 heartbeat IPC: 0.0768187 cumulative IPC: 0.0803834 (Simulation time: 1 hr 21 min 5 sec) 
Heartbeat CPU 0 instructions: 408000001 cycles: 5063819478 heartbeat IPC: 0.0795701 cumulative IPC: 0.0803814 (Simulation time: 1 hr 21 min 16 sec) 
Heartbeat CPU 0 instructions: 409000001 cycles: 5079039759 heartbeat IPC: 0.0657018 cumulative IPC: 0.0803374 (Simulation time: 1 hr 21 min 32 sec) 
Heartbeat CPU 0 instructions: 410000000 cycles: 5096825840 heartbeat IPC: 0.0562237 cumulative IPC: 0.0802533 (Simulation time: 1 hr 21 min 50 sec) 
Heartbeat CPU 0 instructions: 411000002 cycles: 5109721554 heartbeat IPC: 0.0775453 cumulative IPC: 0.0802464 (Simulation time: 1 hr 22 min 2 sec) 
Heartbeat CPU 0 instructions: 412000002 cycles: 5122242207 heartbeat IPC: 0.079868 cumulative IPC: 0.0802455 (Simulation time: 1 hr 22 min 13 sec) 
Heartbeat CPU 0 instructions: 413000000 cycles: 5134982062 heartbeat IPC: 0.0784937 cumulative IPC: 0.0802412 (Simulation time: 1 hr 22 min 25 sec) 
Heartbeat CPU 0 instructions: 414000000 cycles: 5147721276 heartbeat IPC: 0.0784978 cumulative IPC: 0.0802368 (Simulation time: 1 hr 22 min 37 sec) 
Heartbeat CPU 0 instructions: 415000002 cycles: 5160144920 heartbeat IPC: 0.0804918 cumulative IPC: 0.0802375 (Simulation time: 1 hr 22 min 49 sec) 
Heartbeat CPU 0 instructions: 416000000 cycles: 5172700492 heartbeat IPC: 0.0796458 cumulative IPC: 0.080236 (Simulation time: 1 hr 23 min 0 sec) 
Heartbeat CPU 0 instructions: 417000001 cycles: 5185402622 heartbeat IPC: 0.078727 cumulative IPC: 0.0802323 (Simulation time: 1 hr 23 min 12 sec) 
Heartbeat CPU 0 instructions: 418000000 cycles: 5197942612 heartbeat IPC: 0.0797448 cumulative IPC: 0.0802312 (Simulation time: 1 hr 23 min 24 sec) 
Heartbeat CPU 0 instructions: 419000003 cycles: 5210943068 heartbeat IPC: 0.0769206 cumulative IPC: 0.0802229 (Simulation time: 1 hr 23 min 36 sec) 
Heartbeat CPU 0 instructions: 420000001 cycles: 5223667775 heartbeat IPC: 0.0785871 cumulative IPC: 0.0802189 (Simulation time: 1 hr 23 min 47 sec) 
Heartbeat CPU 0 instructions: 421000002 cycles: 5236076206 heartbeat IPC: 0.0805904 cumulative IPC: 0.0802198 (Simulation time: 1 hr 23 min 59 sec) 
Heartbeat CPU 0 instructions: 422000001 cycles: 5249385945 heartbeat IPC: 0.0751329 cumulative IPC: 0.0802069 (Simulation time: 1 hr 24 min 11 sec) 
Heartbeat CPU 0 instructions: 423000003 cycles: 5262169993 heartbeat IPC: 0.0782226 cumulative IPC: 0.0802021 (Simulation time: 1 hr 24 min 23 sec) 
Heartbeat CPU 0 instructions: 424000000 cycles: 5274709770 heartbeat IPC: 0.079746 cumulative IPC: 0.080201 (Simulation time: 1 hr 24 min 35 sec) 
Heartbeat CPU 0 instructions: 425000000 cycles: 5287443309 heartbeat IPC: 0.0785328 cumulative IPC: 0.080197 (Simulation time: 1 hr 24 min 46 sec) 
Heartbeat CPU 0 instructions: 426000000 cycles: 5300522428 heartbeat IPC: 0.0764577 cumulative IPC: 0.0801877 (Simulation time: 1 hr 24 min 58 sec) 
Heartbeat CPU 0 instructions: 427000002 cycles: 5313571003 heartbeat IPC: 0.0766369 cumulative IPC: 0.080179 (Simulation time: 1 hr 25 min 10 sec) 
Heartbeat CPU 0 instructions: 428000000 cycles: 5326493965 heartbeat IPC: 0.0773815 cumulative IPC: 0.0801722 (Simulation time: 1 hr 25 min 22 sec) 
Heartbeat CPU 0 instructions: 429000000 cycles: 5339159402 heartbeat IPC: 0.078955 cumulative IPC: 0.0801693 (Simulation time: 1 hr 25 min 34 sec) 
Heartbeat CPU 0 instructions: 430000000 cycles: 5352224160 heartbeat IPC: 0.0765418 cumulative IPC: 0.0801605 (Simulation time: 1 hr 25 min 46 sec) 
Heartbeat CPU 0 instructions: 431000000 cycles: 5365198172 heartbeat IPC: 0.0770772 cumulative IPC: 0.080153 (Simulation time: 1 hr 25 min 58 sec) 
Heartbeat CPU 0 instructions: 432000000 cycles: 5378400019 heartbeat IPC: 0.075747 cumulative IPC: 0.0801422 (Simulation time: 1 hr 26 min 10 sec) 
Heartbeat CPU 0 instructions: 433000000 cycles: 5391956596 heartbeat IPC: 0.0737649 cumulative IPC: 0.0801262 (Simulation time: 1 hr 26 min 22 sec) 
Heartbeat CPU 0 instructions: 434000000 cycles: 5404481211 heartbeat IPC: 0.0798428 cumulative IPC: 0.0801255 (Simulation time: 1 hr 26 min 34 sec) 
Heartbeat CPU 0 instructions: 435000000 cycles: 5417132760 heartbeat IPC: 0.0790417 cumulative IPC: 0.080123 (Simulation time: 1 hr 26 min 46 sec) 
Heartbeat CPU 0 instructions: 436000000 cycles: 5430082239 heartbeat IPC: 0.0772232 cumulative IPC: 0.0801161 (Simulation time: 1 hr 26 min 57 sec) 
Heartbeat CPU 0 instructions: 437000002 cycles: 5442987040 heartbeat IPC: 0.0774907 cumulative IPC: 0.0801098 (Simulation time: 1 hr 27 min 9 sec) 
Heartbeat CPU 0 instructions: 438000001 cycles: 5454961582 heartbeat IPC: 0.0835104 cumulative IPC: 0.0801173 (Simulation time: 1 hr 27 min 21 sec) 
Heartbeat CPU 0 instructions: 439000000 cycles: 5466810747 heartbeat IPC: 0.084394 cumulative IPC: 0.0801266 (Simulation time: 1 hr 27 min 32 sec) 
Heartbeat CPU 0 instructions: 440000000 cycles: 5479720553 heartbeat IPC: 0.0774605 cumulative IPC: 0.0801203 (Simulation time: 1 hr 27 min 44 sec) 
Heartbeat CPU 0 instructions: 441000000 cycles: 5491003220 heartbeat IPC: 0.0886315 cumulative IPC: 0.0801378 (Simulation time: 1 hr 27 min 56 sec) 
Heartbeat CPU 0 instructions: 442000002 cycles: 5502572623 heartbeat IPC: 0.0864351 cumulative IPC: 0.080151 (Simulation time: 1 hr 28 min 7 sec) 
Heartbeat CPU 0 instructions: 443000001 cycles: 5514688889 heartbeat IPC: 0.0825336 cumulative IPC: 0.0801563 (Simulation time: 1 hr 28 min 19 sec) 
Heartbeat CPU 0 instructions: 444000000 cycles: 5526309674 heartbeat IPC: 0.0860526 cumulative IPC: 0.0801687 (Simulation time: 1 hr 28 min 30 sec) 
Heartbeat CPU 0 instructions: 445000000 cycles: 5536892203 heartbeat IPC: 0.0944954 cumulative IPC: 0.0801961 (Simulation time: 1 hr 28 min 41 sec) 
Heartbeat CPU 0 instructions: 446000000 cycles: 5549892516 heartbeat IPC: 0.0769212 cumulative IPC: 0.0801884 (Simulation time: 1 hr 28 min 53 sec) 
Heartbeat CPU 0 instructions: 447000000 cycles: 5562692476 heartbeat IPC: 0.0781252 cumulative IPC: 0.0801836 (Simulation time: 1 hr 29 min 5 sec) 
Heartbeat CPU 0 instructions: 448000001 cycles: 5575647862 heartbeat IPC: 0.0771881 cumulative IPC: 0.0801767 (Simulation time: 1 hr 29 min 17 sec) 
Heartbeat CPU 0 instructions: 449000000 cycles: 5589300271 heartbeat IPC: 0.0732471 cumulative IPC: 0.0801597 (Simulation time: 1 hr 29 min 30 sec) 
Heartbeat CPU 0 instructions: 450000000 cycles: 5602632551 heartbeat IPC: 0.0750059 cumulative IPC: 0.0801475 (Simulation time: 1 hr 29 min 42 sec) 

Warmup complete CPU 0 instructions: 450000001 cycles: 5602632552 (Simulation time: 1 hr 29 min 42 sec) 

Heartbeat CPU 0 instructions: 451000000 cycles: 5615445891 heartbeat IPC: 0.0780437 cumulative IPC: 0.0780436 (Simulation time: 1 hr 29 min 54 sec) 
Heartbeat CPU 0 instructions: 452000000 cycles: 5628122314 heartbeat IPC: 0.0788866 cumulative IPC: 0.0784628 (Simulation time: 1 hr 30 min 5 sec) 
Heartbeat CPU 0 instructions: 453000002 cycles: 5640772385 heartbeat IPC: 0.0790511 cumulative IPC: 0.0786579 (Simulation time: 1 hr 30 min 17 sec) 
Heartbeat CPU 0 instructions: 454000002 cycles: 5653092570 heartbeat IPC: 0.0811676 cumulative IPC: 0.0792707 (Simulation time: 1 hr 30 min 29 sec) 
Heartbeat CPU 0 instructions: 455000001 cycles: 5666651362 heartbeat IPC: 0.0737528 cumulative IPC: 0.078102 (Simulation time: 1 hr 30 min 41 sec) 
Heartbeat CPU 0 instructions: 456000000 cycles: 5679419143 heartbeat IPC: 0.0783221 cumulative IPC: 0.0781386 (Simulation time: 1 hr 30 min 53 sec) 
Heartbeat CPU 0 instructions: 457000000 cycles: 5692010687 heartbeat IPC: 0.0794184 cumulative IPC: 0.0783189 (Simulation time: 1 hr 31 min 5 sec) 
Heartbeat CPU 0 instructions: 458000001 cycles: 5704492300 heartbeat IPC: 0.0801179 cumulative IPC: 0.0785394 (Simulation time: 1 hr 31 min 16 sec) 
Heartbeat CPU 0 instructions: 459000000 cycles: 5717214041 heartbeat IPC: 0.0786055 cumulative IPC: 0.0785467 (Simulation time: 1 hr 31 min 28 sec) 
Heartbeat CPU 0 instructions: 460000000 cycles: 5729460788 heartbeat IPC: 0.0816543 cumulative IPC: 0.0788468 (Simulation time: 1 hr 31 min 40 sec) 
Heartbeat CPU 0 instructions: 461000000 cycles: 5742269171 heartbeat IPC: 0.0780739 cumulative IPC: 0.0787759 (Simulation time: 1 hr 31 min 52 sec) 
Heartbeat CPU 0 instructions: 462000000 cycles: 5754045766 heartbeat IPC: 0.0849142 cumulative IPC: 0.0792533 (Simulation time: 1 hr 32 min 3 sec) 
Heartbeat CPU 0 instructions: 463000001 cycles: 5766127934 heartbeat IPC: 0.0827667 cumulative IPC: 0.0795129 (Simulation time: 1 hr 32 min 15 sec) 
Heartbeat CPU 0 instructions: 464000000 cycles: 5779540166 heartbeat IPC: 0.0745587 cumulative IPC: 0.0791373 (Simulation time: 1 hr 32 min 29 sec) 
Heartbeat CPU 0 instructions: 465000002 cycles: 5797123826 heartbeat IPC: 0.0568711 cumulative IPC: 0.0771243 (Simulation time: 1 hr 32 min 47 sec) 
Heartbeat CPU 0 instructions: 466000000 cycles: 5809078153 heartbeat IPC: 0.0836516 cumulative IPC: 0.0775023 (Simulation time: 1 hr 32 min 59 sec) 
Heartbeat CPU 0 instructions: 467000002 cycles: 5820914523 heartbeat IPC: 0.0844855 cumulative IPC: 0.0778809 (Simulation time: 1 hr 33 min 10 sec) 
Heartbeat CPU 0 instructions: 468000000 cycles: 5833039141 heartbeat IPC: 0.0824767 cumulative IPC: 0.0781228 (Simulation time: 1 hr 33 min 22 sec) 
Heartbeat CPU 0 instructions: 469000001 cycles: 5844837897 heartbeat IPC: 0.0847548 cumulative IPC: 0.0784458 (Simulation time: 1 hr 33 min 33 sec) 
Heartbeat CPU 0 instructions: 470000003 cycles: 5856437182 heartbeat IPC: 0.0862124 cumulative IPC: 0.0788008 (Simulation time: 1 hr 33 min 44 sec) 
Heartbeat CPU 0 instructions: 471000002 cycles: 5868259224 heartbeat IPC: 0.0845877 cumulative IPC: 0.0790583 (Simulation time: 1 hr 33 min 56 sec) 
Heartbeat CPU 0 instructions: 472000000 cycles: 5880536884 heartbeat IPC: 0.0814486 cumulative IPC: 0.0791639 (Simulation time: 1 hr 34 min 8 sec) 
Heartbeat CPU 0 instructions: 473000000 cycles: 5898419806 heartbeat IPC: 0.0559193 cumulative IPC: 0.0777586 (Simulation time: 1 hr 34 min 24 sec) 
Heartbeat CPU 0 instructions: 474000002 cycles: 5910014559 heartbeat IPC: 0.0862461 cumulative IPC: 0.0780787 (Simulation time: 1 hr 34 min 36 sec) 
Heartbeat CPU 0 instructions: 475000000 cycles: 5919306217 heartbeat IPC: 0.107623 cumulative IPC: 0.0789456 (Simulation time: 1 hr 34 min 47 sec) 
Heartbeat CPU 0 instructions: 476000002 cycles: 5929236333 heartbeat IPC: 0.100704 cumulative IPC: 0.0796072 (Simulation time: 1 hr 34 min 58 sec) 
Heartbeat CPU 0 instructions: 477000002 cycles: 5947428735 heartbeat IPC: 0.054968 cumulative IPC: 0.0783071 (Simulation time: 1 hr 35 min 17 sec) 
Heartbeat CPU 0 instructions: 478000000 cycles: 5961954372 heartbeat IPC: 0.0688437 cumulative IPC: 0.0779246 (Simulation time: 1 hr 35 min 31 sec) 
Heartbeat CPU 0 instructions: 479000001 cycles: 5971762876 heartbeat IPC: 0.101952 cumulative IPC: 0.078563 (Simulation time: 1 hr 35 min 41 sec) 
Heartbeat CPU 0 instructions: 480000001 cycles: 5982862809 heartbeat IPC: 0.0900906 cumulative IPC: 0.0788996 (Simulation time: 1 hr 35 min 52 sec) 
Heartbeat CPU 0 instructions: 481000002 cycles: 5994170680 heartbeat IPC: 0.0884341 cumulative IPC: 0.0791749 (Simulation time: 1 hr 36 min 3 sec) 
Heartbeat CPU 0 instructions: 482000002 cycles: 6004834783 heartbeat IPC: 0.0937725 cumulative IPC: 0.079562 (Simulation time: 1 hr 36 min 14 sec) 
Heartbeat CPU 0 instructions: 483000000 cycles: 6015667548 heartbeat IPC: 0.0923124 cumulative IPC: 0.0798964 (Simulation time: 1 hr 36 min 25 sec) 
Heartbeat CPU 0 instructions: 484000000 cycles: 6028738769 heartbeat IPC: 0.0765039 cumulative IPC: 0.0797923 (Simulation time: 1 hr 36 min 38 sec) 
Heartbeat CPU 0 instructions: 485000000 cycles: 6040866530 heartbeat IPC: 0.0824554 cumulative IPC: 0.079866 (Simulation time: 1 hr 36 min 49 sec) 
Heartbeat CPU 0 instructions: 486000000 cycles: 6052296019 heartbeat IPC: 0.087493 cumulative IPC: 0.0800599 (Simulation time: 1 hr 37 min 1 sec) 
Heartbeat CPU 0 instructions: 487000001 cycles: 6070986600 heartbeat IPC: 0.0535029 cumulative IPC: 0.0790001 (Simulation time: 1 hr 37 min 21 sec) 
Heartbeat CPU 0 instructions: 488000001 cycles: 6082264027 heartbeat IPC: 0.0886727 cumulative IPC: 0.0792275 (Simulation time: 1 hr 37 min 32 sec) 
Heartbeat CPU 0 instructions: 489000001 cycles: 6098049719 heartbeat IPC: 0.0633485 cumulative IPC: 0.0787215 (Simulation time: 1 hr 37 min 47 sec) 
Heartbeat CPU 0 instructions: 490000000 cycles: 6108716139 heartbeat IPC: 0.0937521 cumulative IPC: 0.0790383 (Simulation time: 1 hr 37 min 59 sec) 
Heartbeat CPU 0 instructions: 491000002 cycles: 6120214494 heartbeat IPC: 0.0869691 cumulative IPC: 0.0792145 (Simulation time: 1 hr 38 min 10 sec) 
Heartbeat CPU 0 instructions: 492000000 cycles: 6132386216 heartbeat IPC: 0.0821575 cumulative IPC: 0.0792821 (Simulation time: 1 hr 38 min 22 sec) 
Heartbeat CPU 0 instructions: 493000001 cycles: 6144374473 heartbeat IPC: 0.083415 cumulative IPC: 0.0793736 (Simulation time: 1 hr 38 min 34 sec) 
Heartbeat CPU 0 instructions: 494000001 cycles: 6156850393 heartbeat IPC: 0.0801544 cumulative IPC: 0.0793912 (Simulation time: 1 hr 38 min 46 sec) 
Heartbeat CPU 0 instructions: 495000000 cycles: 6168546819 heartbeat IPC: 0.0854961 cumulative IPC: 0.0795173 (Simulation time: 1 hr 38 min 57 sec) 
Heartbeat CPU 0 instructions: 496000001 cycles: 6179824859 heartbeat IPC: 0.088668 cumulative IPC: 0.0796961 (Simulation time: 1 hr 39 min 8 sec) 
Heartbeat CPU 0 instructions: 497000000 cycles: 6192592249 heartbeat IPC: 0.0783245 cumulative IPC: 0.0796665 (Simulation time: 1 hr 39 min 21 sec) 
Heartbeat CPU 0 instructions: 498000002 cycles: 6211424550 heartbeat IPC: 0.0531004 cumulative IPC: 0.0788447 (Simulation time: 1 hr 39 min 41 sec) 
Heartbeat CPU 0 instructions: 499000000 cycles: 6223750626 heartbeat IPC: 0.0811287 cumulative IPC: 0.07889 (Simulation time: 1 hr 39 min 53 sec) 
Heartbeat CPU 0 instructions: 500000000 cycles: 6235506505 heartbeat IPC: 0.0850638 cumulative IPC: 0.0790047 (Simulation time: 1 hr 40 min 4 sec) 
Heartbeat CPU 0 instructions: 501000001 cycles: 6247671140 heartbeat IPC: 0.0822056 cumulative IPC: 0.079065 (Simulation time: 1 hr 40 min 17 sec) 
Heartbeat CPU 0 instructions: 502000002 cycles: 6259689855 heartbeat IPC: 0.0832037 cumulative IPC: 0.0791407 (Simulation time: 1 hr 40 min 29 sec) 
Heartbeat CPU 0 instructions: 503000000 cycles: 6270971530 heartbeat IPC: 0.0886391 cumulative IPC: 0.0793011 (Simulation time: 1 hr 40 min 40 sec) 
Heartbeat CPU 0 instructions: 504000000 cycles: 6282872380 heartbeat IPC: 0.0840276 cumulative IPC: 0.0793838 (Simulation time: 1 hr 40 min 51 sec) 
Heartbeat CPU 0 instructions: 505000001 cycles: 6294994703 heartbeat IPC: 0.0824925 cumulative IPC: 0.0794382 (Simulation time: 1 hr 41 min 4 sec) 
Heartbeat CPU 0 instructions: 506000000 cycles: 6306558324 heartbeat IPC: 0.086478 cumulative IPC: 0.0795538 (Simulation time: 1 hr 41 min 15 sec) 
Heartbeat CPU 0 instructions: 507000000 cycles: 6318129284 heartbeat IPC: 0.0864233 cumulative IPC: 0.0796649 (Simulation time: 1 hr 41 min 27 sec) 
Heartbeat CPU 0 instructions: 508000002 cycles: 6329867214 heartbeat IPC: 0.0851941 cumulative IPC: 0.0797542 (Simulation time: 1 hr 41 min 39 sec) 
Heartbeat CPU 0 instructions: 509000001 cycles: 6341213876 heartbeat IPC: 0.0881316 cumulative IPC: 0.0798829 (Simulation time: 1 hr 41 min 51 sec) 
Heartbeat CPU 0 instructions: 510000000 cycles: 6353231732 heartbeat IPC: 0.0832094 cumulative IPC: 0.0799361 (Simulation time: 1 hr 42 min 3 sec) 
Heartbeat CPU 0 instructions: 511000002 cycles: 6364166769 heartbeat IPC: 0.0914494 cumulative IPC: 0.0801015 (Simulation time: 1 hr 42 min 14 sec) 
Heartbeat CPU 0 instructions: 512000000 cycles: 6375811680 heartbeat IPC: 0.0858743 cumulative IPC: 0.0801884 (Simulation time: 1 hr 42 min 26 sec) 
Heartbeat CPU 0 instructions: 513000000 cycles: 6387022712 heartbeat IPC: 0.0891979 cumulative IPC: 0.0803172 (Simulation time: 1 hr 42 min 38 sec) 
Heartbeat CPU 0 instructions: 514000002 cycles: 6398614779 heartbeat IPC: 0.0862661 cumulative IPC: 0.0804038 (Simulation time: 1 hr 42 min 50 sec) 
Heartbeat CPU 0 instructions: 515000001 cycles: 6409684789 heartbeat IPC: 0.0903341 cumulative IPC: 0.08054 (Simulation time: 1 hr 43 min 2 sec) 
Heartbeat CPU 0 instructions: 516000002 cycles: 6419959125 heartbeat IPC: 0.09733 cumulative IPC: 0.0807511 (Simulation time: 1 hr 43 min 13 sec) 
Heartbeat CPU 0 instructions: 517000000 cycles: 6433692602 heartbeat IPC: 0.0728146 cumulative IPC: 0.0806199 (Simulation time: 1 hr 43 min 28 sec) 
Heartbeat CPU 0 instructions: 518000000 cycles: 6448962823 heartbeat IPC: 0.0654869 cumulative IPC: 0.0803469 (Simulation time: 1 hr 43 min 44 sec) 
Heartbeat CPU 0 instructions: 519000002 cycles: 6460059831 heartbeat IPC: 0.0901146 cumulative IPC: 0.0804733 (Simulation time: 1 hr 43 min 56 sec) 
Heartbeat CPU 0 instructions: 520000000 cycles: 6471177919 heartbeat IPC: 0.0899433 cumulative IPC: 0.0805945 (Simulation time: 1 hr 44 min 7 sec) 
Heartbeat CPU 0 instructions: 521000000 cycles: 6480666290 heartbeat IPC: 0.105392 cumulative IPC: 0.0808625 (Simulation time: 1 hr 44 min 17 sec) 
Heartbeat CPU 0 instructions: 522000000 cycles: 6490625591 heartbeat IPC: 0.100409 cumulative IPC: 0.0810817 (Simulation time: 1 hr 44 min 27 sec) 
Heartbeat CPU 0 instructions: 523000000 cycles: 6502039735 heartbeat IPC: 0.0876106 cumulative IPC: 0.0811646 (Simulation time: 1 hr 44 min 38 sec) 
Heartbeat CPU 0 instructions: 524000002 cycles: 6513853272 heartbeat IPC: 0.0846488 cumulative IPC: 0.0812097 (Simulation time: 1 hr 44 min 50 sec) 
Heartbeat CPU 0 instructions: 525000003 cycles: 6524808800 heartbeat IPC: 0.0912782 cumulative IPC: 0.0813294 (Simulation time: 1 hr 45 min 1 sec) 
Heartbeat CPU 0 instructions: 526000001 cycles: 6536360158 heartbeat IPC: 0.0865697 cumulative IPC: 0.0813942 (Simulation time: 1 hr 45 min 12 sec) 
Heartbeat CPU 0 instructions: 527000000 cycles: 6548205904 heartbeat IPC: 0.0844184 cumulative IPC: 0.0814321 (Simulation time: 1 hr 45 min 24 sec) 
Heartbeat CPU 0 instructions: 528000000 cycles: 6564737838 heartbeat IPC: 0.060489 cumulative IPC: 0.0810722 (Simulation time: 1 hr 45 min 42 sec) 
Heartbeat CPU 0 instructions: 529000000 cycles: 6579700572 heartbeat IPC: 0.0668327 cumulative IPC: 0.0808541 (Simulation time: 1 hr 45 min 58 sec) 
Heartbeat CPU 0 instructions: 530000002 cycles: 6591374245 heartbeat IPC: 0.085663 cumulative IPC: 0.0809109 (Simulation time: 1 hr 46 min 9 sec) 
Heartbeat CPU 0 instructions: 531000002 cycles: 6602841346 heartbeat IPC: 0.087206 cumulative IPC: 0.0809831 (Simulation time: 1 hr 46 min 21 sec) 
Heartbeat CPU 0 instructions: 532000002 cycles: 6614299174 heartbeat IPC: 0.0872766 cumulative IPC: 0.0810544 (Simulation time: 1 hr 46 min 32 sec) 
Heartbeat CPU 0 instructions: 533000003 cycles: 6626149288 heartbeat IPC: 0.0843875 cumulative IPC: 0.081093 (Simulation time: 1 hr 46 min 44 sec) 
Heartbeat CPU 0 instructions: 534000001 cycles: 6635958983 heartbeat IPC: 0.10194 cumulative IPC: 0.0812909 (Simulation time: 1 hr 46 min 55 sec) 
Heartbeat CPU 0 instructions: 535000001 cycles: 6645140871 heartbeat IPC: 0.10891 cumulative IPC: 0.0815341 (Simulation time: 1 hr 47 min 6 sec) 
Heartbeat CPU 0 instructions: 536000000 cycles: 6654422511 heartbeat IPC: 0.107739 cumulative IPC: 0.0817654 (Simulation time: 1 hr 47 min 16 sec) 
[...]
Heartbeat CPU 0 instructions: 838000002 cycles: 10307144211 heartbeat IPC: 0.0797668 cumulative IPC: 0.082474 (Simulation time: 2 hr 47 min 58 sec) 
Heartbeat CPU 0 instructions: 839000000 cycles: 10319967368 heartbeat IPC: 0.0779838 cumulative IPC: 0.0824618 (Simulation time: 2 hr 48 min 10 sec) 
Heartbeat CPU 0 instructions: 840000001 cycles: 10333084166 heartbeat IPC: 0.0762382 cumulative IPC: 0.0824446 (Simulation time: 2 hr 48 min 22 sec) 
Heartbeat CPU 0 instructions: 841000000 cycles: 10345625017 heartbeat IPC: 0.0797393 cumulative IPC: 0.0824374 (Simulation time: 2 hr 48 min 33 sec) 
Heartbeat CPU 0 instructions: 842000001 cycles: 10358925215 heartbeat IPC: 0.0751869 cumulative IPC: 0.0824171 (Simulation time: 2 hr 48 min 45 sec) 
Heartbeat CPU 0 instructions: 843000002 cycles: 10368969390 heartbeat IPC: 0.0995603 cumulative IPC: 0.0824533 (Simulation time: 2 hr 48 min 55 sec) 
Heartbeat CPU 0 instructions: 844000000 cycles: 10379457621 heartbeat IPC: 0.0953448 cumulative IPC: 0.0824816 (Simulation time: 2 hr 49 min 5 sec) 
Heartbeat CPU 0 instructions: 845000000 cycles: 10390350919 heartbeat IPC: 0.0917996 cumulative IPC: 0.0825028 (Simulation time: 2 hr 49 min 15 sec) 
Heartbeat CPU 0 instructions: 846000000 cycles: 10401935540 heartbeat IPC: 0.0863213 cumulative IPC: 0.082512 (Simulation time: 2 hr 49 min 27 sec) 
Heartbeat CPU 0 instructions: 847000000 cycles: 10416225098 heartbeat IPC: 0.0699812 cumulative IPC: 0.0824748 (Simulation time: 2 hr 49 min 40 sec) 
Heartbeat CPU 0 instructions: 848000000 cycles: 10434856939 heartbeat IPC: 0.0536716 cumulative IPC: 0.0823637 (Simulation time: 2 hr 49 min 59 sec) 
Heartbeat CPU 0 instructions: 849000000 cycles: 10446490720 heartbeat IPC: 0.0859566 cumulative IPC: 0.0823724 (Simulation time: 2 hr 50 min 11 sec) 
Heartbeat CPU 0 instructions: 850000000 cycles: 10456967641 heartbeat IPC: 0.0954479 cumulative IPC: 0.0824006 (Simulation time: 2 hr 50 min 21 sec) 
Heartbeat CPU 0 instructions: 851000001 cycles: 10467501606 heartbeat IPC: 0.0949311 cumulative IPC: 0.0824277 (Simulation time: 2 hr 50 min 32 sec) 
Heartbeat CPU 0 instructions: 852000003 cycles: 10478132980 heartbeat IPC: 0.0940614 cumulative IPC: 0.0824531 (Simulation time: 2 hr 50 min 42 sec) 
Heartbeat CPU 0 instructions: 853000000 cycles: 10489963173 heartbeat IPC: 0.0845292 cumulative IPC: 0.0824581 (Simulation time: 2 hr 50 min 54 sec) 
Heartbeat CPU 0 instructions: 854000000 cycles: 10501587499 heartbeat IPC: 0.0860265 cumulative IPC: 0.0824666 (Simulation time: 2 hr 51 min 5 sec) 
Heartbeat CPU 0 instructions: 855000002 cycles: 10512453108 heartbeat IPC: 0.0920337 cumulative IPC: 0.0824877 (Simulation time: 2 hr 51 min 16 sec) 
Heartbeat CPU 0 instructions: 856000003 cycles: 10526752681 heartbeat IPC: 0.0699322 cumulative IPC: 0.0824513 (Simulation time: 2 hr 51 min 31 sec) 
Heartbeat CPU 0 instructions: 857000001 cycles: 10543327579 heartbeat IPC: 0.0603321 cumulative IPC: 0.0823771 (Simulation time: 2 hr 51 min 47 sec) 
Heartbeat CPU 0 instructions: 858000000 cycles: 10554068009 heartbeat IPC: 0.093106 cumulative IPC: 0.0824003 (Simulation time: 2 hr 51 min 58 sec) 
Heartbeat CPU 0 instructions: 859000000 cycles: 10567579118 heartbeat IPC: 0.0740132 cumulative IPC: 0.0823775 (Simulation time: 2 hr 52 min 11 sec) 
Heartbeat CPU 0 instructions: 860000002 cycles: 10578819163 heartbeat IPC: 0.0889678 cumulative IPC: 0.0823924 (Simulation time: 2 hr 52 min 21 sec) 
Heartbeat CPU 0 instructions: 861000000 cycles: 10590537400 heartbeat IPC: 0.0853369 cumulative IPC: 0.0823993 (Simulation time: 2 hr 52 min 33 sec) 
Heartbeat CPU 0 instructions: 862000000 cycles: 10602445506 heartbeat IPC: 0.0839764 cumulative IPC: 0.0824031 (Simulation time: 2 hr 52 min 44 sec) 
Heartbeat CPU 0 instructions: 863000002 cycles: 10615255277 heartbeat IPC: 0.0780656 cumulative IPC: 0.082392 (Simulation time: 2 hr 52 min 56 sec) 
Heartbeat CPU 0 instructions: 864000002 cycles: 10627998834 heartbeat IPC: 0.078471 cumulative IPC: 0.0823821 (Simulation time: 2 hr 53 min 8 sec) 
Heartbeat CPU 0 instructions: 865000002 cycles: 10640204909 heartbeat IPC: 0.0819264 cumulative IPC: 0.082381 (Simulation time: 2 hr 53 min 19 sec) 
Heartbeat CPU 0 instructions: 866000001 cycles: 10652621201 heartbeat IPC: 0.0805393 cumulative IPC: 0.0823764 (Simulation time: 2 hr 53 min 30 sec) 
Heartbeat CPU 0 instructions: 867000002 cycles: 10665327389 heartbeat IPC: 0.0787019 cumulative IPC: 0.0823672 (Simulation time: 2 hr 53 min 42 sec) 
Heartbeat CPU 0 instructions: 868000003 cycles: 10678139106 heartbeat IPC: 0.0780536 cumulative IPC: 0.0823563 (Simulation time: 2 hr 53 min 53 sec) 
Heartbeat CPU 0 instructions: 869000000 cycles: 10690869729 heartbeat IPC: 0.0785505 cumulative IPC: 0.0823468 (Simulation time: 2 hr 54 min 5 sec) 
Heartbeat CPU 0 instructions: 870000003 cycles: 10704305263 heartbeat IPC: 0.0744297 cumulative IPC: 0.0823259 (Simulation time: 2 hr 54 min 17 sec) 
Heartbeat CPU 0 instructions: 871000000 cycles: 10717633105 heartbeat IPC: 0.0750307 cumulative IPC: 0.0823069 (Simulation time: 2 hr 54 min 28 sec) 
Heartbeat CPU 0 instructions: 872000001 cycles: 10730595477 heartbeat IPC: 0.0771464 cumulative IPC: 0.0822939 (Simulation time: 2 hr 54 min 40 sec) 
Heartbeat CPU 0 instructions: 873000002 cycles: 10744173584 heartbeat IPC: 0.073648 cumulative IPC: 0.0822711 (Simulation time: 2 hr 54 min 52 sec) 
Heartbeat CPU 0 instructions: 874000001 cycles: 10756893384 heartbeat IPC: 0.0786175 cumulative IPC: 0.082262 (Simulation time: 2 hr 55 min 3 sec) 
Heartbeat CPU 0 instructions: 875000000 cycles: 10769841246 heartbeat IPC: 0.0772327 cumulative IPC: 0.0822494 (Simulation time: 2 hr 55 min 15 sec) 
Heartbeat CPU 0 instructions: 876000002 cycles: 10782456775 heartbeat IPC: 0.0792675 cumulative IPC: 0.0822422 (Simulation time: 2 hr 55 min 26 sec) 
Heartbeat CPU 0 instructions: 877000002 cycles: 10795567088 heartbeat IPC: 0.0762758 cumulative IPC: 0.0822271 (Simulation time: 2 hr 55 min 38 sec) 
Heartbeat CPU 0 instructions: 878000001 cycles: 10808169306 heartbeat IPC: 0.079351 cumulative IPC: 0.0822201 (Simulation time: 2 hr 55 min 49 sec) 
Heartbeat CPU 0 instructions: 879000002 cycles: 10820373594 heartbeat IPC: 0.0819385 cumulative IPC: 0.0822195 (Simulation time: 2 hr 56 min 1 sec) 
Heartbeat CPU 0 instructions: 880000000 cycles: 10832764969 heartbeat IPC: 0.0807011 cumulative IPC: 0.0822159 (Simulation time: 2 hr 56 min 12 sec) 
Heartbeat CPU 0 instructions: 881000002 cycles: 10845441762 heartbeat IPC: 0.0788845 cumulative IPC: 0.0822078 (Simulation time: 2 hr 56 min 23 sec) 
Heartbeat CPU 0 instructions: 882000000 cycles: 10857614883 heartbeat IPC: 0.082148 cumulative IPC: 0.0822077 (Simulation time: 2 hr 56 min 34 sec) 
Heartbeat CPU 0 instructions: 883000002 cycles: 10870336040 heartbeat IPC: 0.0786094 cumulative IPC: 0.082199 (Simulation time: 2 hr 56 min 46 sec) 
Heartbeat CPU 0 instructions: 884000002 cycles: 10882925530 heartbeat IPC: 0.0794313 cumulative IPC: 0.0821924 (Simulation time: 2 hr 56 min 57 sec) 
Heartbeat CPU 0 instructions: 885000001 cycles: 10895363279 heartbeat IPC: 0.0804003 cumulative IPC: 0.0821882 (Simulation time: 2 hr 57 min 9 sec) 
Heartbeat CPU 0 instructions: 886000001 cycles: 10908352787 heartbeat IPC: 0.0769852 cumulative IPC: 0.0821755 (Simulation time: 2 hr 57 min 20 sec) 
Heartbeat CPU 0 instructions: 887000002 cycles: 10921389162 heartbeat IPC: 0.0767085 cumulative IPC: 0.0821621 (Simulation time: 2 hr 57 min 32 sec) 
Heartbeat CPU 0 instructions: 888000000 cycles: 10933813671 heartbeat IPC: 0.0804859 cumulative IPC: 0.0821582 (Simulation time: 2 hr 57 min 44 sec) 
Heartbeat CPU 0 instructions: 889000000 cycles: 10947267381 heartbeat IPC: 0.0743289 cumulative IPC: 0.0821384 (Simulation time: 2 hr 57 min 57 sec) 
Heartbeat CPU 0 instructions: 890000001 cycles: 10960100699 heartbeat IPC: 0.0779222 cumulative IPC: 0.0821283 (Simulation time: 2 hr 58 min 9 sec) 
Heartbeat CPU 0 instructions: 891000000 cycles: 10972523184 heartbeat IPC: 0.0804991 cumulative IPC: 0.0821246 (Simulation time: 2 hr 58 min 21 sec) 
Heartbeat CPU 0 instructions: 892000000 cycles: 10985075342 heartbeat IPC: 0.0796676 cumulative IPC: 0.0821188 (Simulation time: 2 hr 58 min 33 sec) 
Heartbeat CPU 0 instructions: 893000000 cycles: 10998173798 heartbeat IPC: 0.0763449 cumulative IPC: 0.0821048 (Simulation time: 2 hr 58 min 45 sec) 
Heartbeat CPU 0 instructions: 894000000 cycles: 11010762445 heartbeat IPC: 0.0794367 cumulative IPC: 0.0820986 (Simulation time: 2 hr 58 min 57 sec) 
Heartbeat CPU 0 instructions: 895000002 cycles: 11023973600 heartbeat IPC: 0.0756938 cumulative IPC: 0.082083 (Simulation time: 2 hr 59 min 9 sec) 
Heartbeat CPU 0 instructions: 896000001 cycles: 11037198406 heartbeat IPC: 0.0756154 cumulative IPC: 0.0820673 (Simulation time: 2 hr 59 min 21 sec) 
Heartbeat CPU 0 instructions: 897000002 cycles: 11050513378 heartbeat IPC: 0.0751035 cumulative IPC: 0.0820503 (Simulation time: 2 hr 59 min 33 sec) 
Heartbeat CPU 0 instructions: 898000002 cycles: 11063354053 heartbeat IPC: 0.0778775 cumulative IPC: 0.0820404 (Simulation time: 2 hr 59 min 45 sec) 
Heartbeat CPU 0 instructions: 899000001 cycles: 11076494418 heartbeat IPC: 0.0761013 cumulative IPC: 0.0820262 (Simulation time: 2 hr 59 min 57 sec) 
Heartbeat CPU 0 instructions: 900000001 cycles: 11090156022 heartbeat IPC: 0.0731978 cumulative IPC: 0.0820042 (Simulation time: 3 hr 0 min 9 sec) 
Heartbeat CPU 0 instructions: 901000000 cycles: 11102816093 heartbeat IPC: 0.0789884 cumulative IPC: 0.0819973 (Simulation time: 3 hr 0 min 21 sec) 
Heartbeat CPU 0 instructions: 902000000 cycles: 11115410957 heartbeat IPC: 0.0793974 cumulative IPC: 0.0819913 (Simulation time: 3 hr 0 min 32 sec) 
Heartbeat CPU 0 instructions: 903000000 cycles: 11128248922 heartbeat IPC: 0.077894 cumulative IPC: 0.0819818 (Simulation time: 3 hr 0 min 43 sec) 
Heartbeat CPU 0 instructions: 904000003 cycles: 11141193159 heartbeat IPC: 0.0772547 cumulative IPC: 0.0819708 (Simulation time: 3 hr 0 min 55 sec) 
Heartbeat CPU 0 instructions: 905000002 cycles: 11153562086 heartbeat IPC: 0.0808477 cumulative IPC: 0.0819683 (Simulation time: 3 hr 1 min 7 sec) 
Heartbeat CPU 0 instructions: 906000002 cycles: 11165919392 heartbeat IPC: 0.0809238 cumulative IPC: 0.0819659 (Simulation time: 3 hr 1 min 18 sec) 
Heartbeat CPU 0 instructions: 907000002 cycles: 11177332253 heartbeat IPC: 0.0876205 cumulative IPC: 0.0819775 (Simulation time: 3 hr 1 min 29 sec) 
Heartbeat CPU 0 instructions: 908000002 cycles: 11195567065 heartbeat IPC: 0.0548402 cumulative IPC: 0.081889 (Simulation time: 3 hr 1 min 48 sec) 
Heartbeat CPU 0 instructions: 909000002 cycles: 11208701240 heartbeat IPC: 0.0761373 cumulative IPC: 0.0818756 (Simulation time: 3 hr 2 min 1 sec) 
Heartbeat CPU 0 instructions: 910000001 cycles: 11220729312 heartbeat IPC: 0.0831388 cumulative IPC: 0.0818783 (Simulation time: 3 hr 2 min 12 sec) 
Heartbeat CPU 0 instructions: 911000002 cycles: 11232807702 heartbeat IPC: 0.0827926 cumulative IPC: 0.0818802 (Simulation time: 3 hr 2 min 24 sec) 
Heartbeat CPU 0 instructions: 912000002 cycles: 11245005733 heartbeat IPC: 0.0819804 cumulative IPC: 0.0818804 (Simulation time: 3 hr 2 min 36 sec) 
Heartbeat CPU 0 instructions: 913000000 cycles: 11255191317 heartbeat IPC: 0.0981778 cumulative IPC: 0.0819098 (Simulation time: 3 hr 2 min 46 sec) 
Heartbeat CPU 0 instructions: 914000001 cycles: 11266868882 heartbeat IPC: 0.0856344 cumulative IPC: 0.0819175 (Simulation time: 3 hr 2 min 57 sec) 
Heartbeat CPU 0 instructions: 915000000 cycles: 11279062608 heartbeat IPC: 0.0820093 cumulative IPC: 0.0819177 (Simulation time: 3 hr 3 min 8 sec) 
Heartbeat CPU 0 instructions: 916000001 cycles: 11292258654 heartbeat IPC: 0.0757804 cumulative IPC: 0.0819035 (Simulation time: 3 hr 3 min 20 sec) 
Heartbeat CPU 0 instructions: 917000000 cycles: 11304782417 heartbeat IPC: 0.0798481 cumulative IPC: 0.0818989 (Simulation time: 3 hr 3 min 31 sec) 
Heartbeat CPU 0 instructions: 918000001 cycles: 11317026113 heartbeat IPC: 0.0816748 cumulative IPC: 0.0818985 (Simulation time: 3 hr 3 min 43 sec) 
Heartbeat CPU 0 instructions: 919000000 cycles: 11330475242 heartbeat IPC: 0.0743542 cumulative IPC: 0.0818807 (Simulation time: 3 hr 3 min 55 sec) 
Heartbeat CPU 0 instructions: 920000000 cycles: 11342943221 heartbeat IPC: 0.0802055 cumulative IPC: 0.0818771 (Simulation time: 3 hr 4 min 6 sec) 
Heartbeat CPU 0 instructions: 921000000 cycles: 11355396572 heartbeat IPC: 0.0802997 cumulative IPC: 0.0818737 (Simulation time: 3 hr 4 min 18 sec) 
Heartbeat CPU 0 instructions: 922000001 cycles: 11367647452 heartbeat IPC: 0.0816269 cumulative IPC: 0.0818732 (Simulation time: 3 hr 4 min 29 sec) 
Heartbeat CPU 0 instructions: 923000000 cycles: 11381376223 heartbeat IPC: 0.0728397 cumulative IPC: 0.0818517 (Simulation time: 3 hr 4 min 41 sec) 
Heartbeat CPU 0 instructions: 924000000 cycles: 11394391952 heartbeat IPC: 0.0768301 cumulative IPC: 0.0818404 (Simulation time: 3 hr 4 min 52 sec) 
Heartbeat CPU 0 instructions: 925000000 cycles: 11406798983 heartbeat IPC: 0.0805995 cumulative IPC: 0.0818378 (Simulation time: 3 hr 5 min 4 sec) 
Heartbeat CPU 0 instructions: 926000001 cycles: 11419743870 heartbeat IPC: 0.0772507 cumulative IPC: 0.0818276 (Simulation time: 3 hr 5 min 16 sec) 
Heartbeat CPU 0 instructions: 927000000 cycles: 11432672843 heartbeat IPC: 0.0773456 cumulative IPC: 0.0818176 (Simulation time: 3 hr 5 min 28 sec) 
Heartbeat CPU 0 instructions: 928000002 cycles: 11444952138 heartbeat IPC: 0.0814381 cumulative IPC: 0.0818168 (Simulation time: 3 hr 5 min 40 sec) 
Heartbeat CPU 0 instructions: 929000001 cycles: 11457956796 heartbeat IPC: 0.0768954 cumulative IPC: 0.0818059 (Simulation time: 3 hr 5 min 52 sec) 
Heartbeat CPU 0 instructions: 930000000 cycles: 11469775628 heartbeat IPC: 0.0846106 cumulative IPC: 0.0818115 (Simulation time: 3 hr 6 min 3 sec) 
Heartbeat CPU 0 instructions: 931000000 cycles: 11482343028 heartbeat IPC: 0.079571 cumulative IPC: 0.0818067 (Simulation time: 3 hr 6 min 15 sec) 
Heartbeat CPU 0 instructions: 932000000 cycles: 11494875503 heartbeat IPC: 0.0797927 cumulative IPC: 0.0818025 (Simulation time: 3 hr 6 min 26 sec) 
Heartbeat CPU 0 instructions: 933000001 cycles: 11507008808 heartbeat IPC: 0.0824179 cumulative IPC: 0.0818037 (Simulation time: 3 hr 6 min 37 sec) 
Heartbeat CPU 0 instructions: 934000001 cycles: 11519760259 heartbeat IPC: 0.0784224 cumulative IPC: 0.0817964 (Simulation time: 3 hr 6 min 49 sec) 
Heartbeat CPU 0 instructions: 935000000 cycles: 11532101165 heartbeat IPC: 0.0810312 cumulative IPC: 0.0817949 (Simulation time: 3 hr 7 min 0 sec) 
Heartbeat CPU 0 instructions: 936000000 cycles: 11544126633 heartbeat IPC: 0.0831568 cumulative IPC: 0.0817976 (Simulation time: 3 hr 7 min 12 sec) 
Heartbeat CPU 0 instructions: 937000002 cycles: 11555483282 heartbeat IPC: 0.0880543 cumulative IPC: 0.0818095 (Simulation time: 3 hr 7 min 23 sec) 
Heartbeat CPU 0 instructions: 938000002 cycles: 11567839665 heartbeat IPC: 0.0809298 cumulative IPC: 0.0818077 (Simulation time: 3 hr 7 min 35 sec) 
Heartbeat CPU 0 instructions: 939000001 cycles: 11580407879 heartbeat IPC: 0.0795657 cumulative IPC: 0.081803 (Simulation time: 3 hr 7 min 46 sec) 
Heartbeat CPU 0 instructions: 940000001 cycles: 11593629482 heartbeat IPC: 0.0756338 cumulative IPC: 0.0817894 (Simulation time: 3 hr 7 min 59 sec) 
Heartbeat CPU 0 instructions: 941000000 cycles: 11606853682 heartbeat IPC: 0.0756189 cumulative IPC: 0.0817758 (Simulation time: 3 hr 8 min 10 sec) 
Heartbeat CPU 0 instructions: 942000000 cycles: 11619213594 heartbeat IPC: 0.0809067 cumulative IPC: 0.081774 (Simulation time: 3 hr 8 min 22 sec) 
Heartbeat CPU 0 instructions: 943000000 cycles: 11632067182 heartbeat IPC: 0.0777993 cumulative IPC: 0.0817655 (Simulation time: 3 hr 8 min 35 sec) 
Heartbeat CPU 0 instructions: 944000000 cycles: 11644966144 heartbeat IPC: 0.0775256 cumulative IPC: 0.0817565 (Simulation time: 3 hr 8 min 47 sec) 
Heartbeat CPU 0 instructions: 945000000 cycles: 11657582499 heartbeat IPC: 0.0792622 cumulative IPC: 0.0817513 (Simulation time: 3 hr 9 min 0 sec) 
Heartbeat CPU 0 instructions: 946000000 cycles: 11670056194 heartbeat IPC: 0.0801687 cumulative IPC: 0.081748 (Simulation time: 3 hr 9 min 12 sec) 
Heartbeat CPU 0 instructions: 947000001 cycles: 11682441929 heartbeat IPC: 0.0807381 cumulative IPC: 0.081746 (Simulation time: 3 hr 9 min 24 sec) 
Heartbeat CPU 0 instructions: 948000000 cycles: 11694239596 heartbeat IPC: 0.0847624 cumulative IPC: 0.0817518 (Simulation time: 3 hr 9 min 36 sec) 
Heartbeat CPU 0 instructions: 949000000 cycles: 11706551030 heartbeat IPC: 0.0812253 cumulative IPC: 0.0817508 (Simulation time: 3 hr 9 min 48 sec) 
Heartbeat CPU 0 instructions: 950000000 cycles: 11718736558 heartbeat IPC: 0.0820646 cumulative IPC: 0.0817514 (Simulation time: 3 hr 10 min 0 sec) 
Finished CPU 0 instructions: 500000002 cycles: 6116104007 cumulative IPC: 0.0817514 (Simulation time: 3 hr 10 min 0 sec) 

ChampSim completed all CPUs

Region of Interest Statistics

CPU 0 cumulative IPC: 0.0817514 instructions: 500000002 cycles: 6116104007
L1D TOTAL     ACCESS:  106257149  HIT:   20839582  MISS:   85417567
L1D LOAD      ACCESS:  101915727  HIT:   16696318  MISS:   85219409
L1D RFO       ACCESS:    4341422  HIT:    4143264  MISS:     198158
L1D PREFETCH  ACCESS:          0  HIT:          0  MISS:          0
L1D WRITEBACK ACCESS:          0  HIT:          0  MISS:          0
L1D PREFETCH  REQUESTED:          0  ISSUED:          0  USEFUL:          0  USELESS:          0
L1D AVERAGE MISS LATENCY: 136.736 cycles
L1I TOTAL     ACCESS:   99887713  HIT:   99887713  MISS:          0
L1I LOAD      ACCESS:   99887713  HIT:   99887713  MISS:          0
L1I RFO       ACCESS:          0  HIT:          0  MISS:          0
L1I PREFETCH  ACCESS:          0  HIT:          0  MISS:          0
L1I WRITEBACK ACCESS:          0  HIT:          0  MISS:          0
L1I PREFETCH  REQUESTED:          0  ISSUED:          0  USEFUL:          0  USELESS:          0
L1I AVERAGE MISS LATENCY: -nan cycles
L2C TOTAL     ACCESS:   87760173  HIT:   27112534  MISS:   60647639
L2C LOAD      ACCESS:   85219272  HIT:   24707590  MISS:   60511682
L2C RFO       ACCESS:     198145  HIT:      62196  MISS:     135949
L2C PREFETCH  ACCESS:          0  HIT:          0  MISS:          0
L2C WRITEBACK ACCESS:    2342756  HIT:    2342748  MISS:          8
L2C PREFETCH  REQUESTED:          0  ISSUED:          0  USEFUL:          0  USELESS:          0
L2C AVERAGE MISS LATENCY: 171.495 cycles
LLC TOTAL     ACCESS:   62445698  HIT:   18831983  MISS:   43613715
LLC LOAD      ACCESS:   60511680  HIT:   17014379  MISS:   43497301
LLC RFO       ACCESS:     135949  HIT:      31831  MISS:     104118
LLC PREFETCH  ACCESS:          0  HIT:          0  MISS:          0
LLC WRITEBACK ACCESS:    1798069  HIT:    1785773  MISS:      12296
LLC PREFETCH  REQUESTED:          0  ISSUED:          0  USEFUL:          0  USELESS:          0
LLC AVERAGE MISS LATENCY: 193.846 cycles
Major fault: 0 Minor fault: 428297

DRAM Statistics
 CHANNEL 0
 RQ ROW_BUFFER_HIT:   11477463  ROW_BUFFER_MISS:   10336188
 DBUS_CONGESTED:   29445029
 WQ ROW_BUFFER_HIT:     401531  ROW_BUFFER_MISS:     394374  FULL:          0

 CHANNEL 1
 RQ ROW_BUFFER_HIT:   11470490  ROW_BUFFER_MISS:   10317162
 DBUS_CONGESTED:   29445029
 WQ ROW_BUFFER_HIT:     409281  ROW_BUFFER_MISS:     390773  FULL:          0

 AVG_CONGESTED_CYCLE: 18

CPU 0 Branch Prediction Accuracy: 93.5422% MPKI: 19.6887 Average ROB Occupancy at Mispredict: 30.6641

Branch types
NOT_BRANCH: 347558959 69.5118%
BRANCH_DIRECT_JUMP: 1546994 0.309399%
BRANCH_INDIRECT: 0 0%
BRANCH_CONDITIONAL: 150853634 30.1707%
BRANCH_DIRECT_CALL: 20249 0.0040498%
BRANCH_INDIRECT_CALL: 0 0%
BRANCH_RETURN: 20249 0.0040498%
BRANCH_OTHER: 0 0%


gzip: stdout: Broken pipe
