
*** ChampSim Multicore Out-of-Order Simulator ***

Warmup Instructions: 1000000
Prefetch Warmup Instructions: 450000000
Simulation Instructions: 500000000
Stat Printing Period: 1000000
Number of CPUs: 1
LLC sets: 2048
LLC ways: 16
Off-chip DRAM Size: 32768 MB Channels: 2 Width: 64-bit Data Rate: 1024 MT/s

CPU 0 runs /scratch/cluster/cmolder/ML-DPC/ChampSimTraces/spec06/471.omnetpp-s1.trace.gz
Read seed: 1083
Heartbeat CPU 0 instructions: 1000000 cycles: 457878 heartbeat IPC: 2.18399 cumulative IPC: 2.18399 (Simulation time: 0 hr 0 min 4 sec) 

Warmup complete CPU 0 instructions: 1000004 cycles: 457879 (Simulation time: 0 hr 0 min 4 sec) 

Heartbeat CPU 0 instructions: 2000000 cycles: 2956327 heartbeat IPC: 0.400248 cumulative IPC: 0.400247 (Simulation time: 0 hr 0 min 10 sec) 
Heartbeat CPU 0 instructions: 3000001 cycles: 6041457 heartbeat IPC: 0.324136 cumulative IPC: 0.358193 (Simulation time: 0 hr 0 min 16 sec) 
Heartbeat CPU 0 instructions: 4000003 cycles: 8933687 heartbeat IPC: 0.345755 cumulative IPC: 0.353948 (Simulation time: 0 hr 0 min 22 sec) 
Heartbeat CPU 0 instructions: 5000001 cycles: 12053470 heartbeat IPC: 0.320534 cumulative IPC: 0.344958 (Simulation time: 0 hr 0 min 29 sec) 
Heartbeat CPU 0 instructions: 6000002 cycles: 16059523 heartbeat IPC: 0.249623 cumulative IPC: 0.320479 (Simulation time: 0 hr 0 min 36 sec) 
Heartbeat CPU 0 instructions: 7000000 cycles: 20106571 heartbeat IPC: 0.247093 cumulative IPC: 0.305364 (Simulation time: 0 hr 0 min 43 sec) 
Heartbeat CPU 0 instructions: 8000001 cycles: 22885593 heartbeat IPC: 0.359839 cumulative IPC: 0.312114 (Simulation time: 0 hr 0 min 50 sec) 
Heartbeat CPU 0 instructions: 9000002 cycles: 26274119 heartbeat IPC: 0.295114 cumulative IPC: 0.309882 (Simulation time: 0 hr 0 min 56 sec) 
Heartbeat CPU 0 instructions: 10000003 cycles: 29664019 heartbeat IPC: 0.294994 cumulative IPC: 0.308154 (Simulation time: 0 hr 1 min 2 sec) 
Heartbeat CPU 0 instructions: 11000000 cycles: 32422355 heartbeat IPC: 0.362536 cumulative IPC: 0.312847 (Simulation time: 0 hr 1 min 9 sec) 
Heartbeat CPU 0 instructions: 12000003 cycles: 35253282 heartbeat IPC: 0.353242 cumulative IPC: 0.316134 (Simulation time: 0 hr 1 min 15 sec) 
Heartbeat CPU 0 instructions: 13000003 cycles: 38233533 heartbeat IPC: 0.335542 cumulative IPC: 0.317665 (Simulation time: 0 hr 1 min 21 sec) 
Heartbeat CPU 0 instructions: 14000002 cycles: 41450159 heartbeat IPC: 0.310884 cumulative IPC: 0.317133 (Simulation time: 0 hr 1 min 27 sec) 
Heartbeat CPU 0 instructions: 15000000 cycles: 45478566 heartbeat IPC: 0.248237 cumulative IPC: 0.310968 (Simulation time: 0 hr 1 min 35 sec) 
Heartbeat CPU 0 instructions: 16000000 cycles: 49366354 heartbeat IPC: 0.257216 cumulative IPC: 0.306695 (Simulation time: 0 hr 1 min 42 sec) 
Heartbeat CPU 0 instructions: 17000001 cycles: 52500965 heartbeat IPC: 0.319019 cumulative IPC: 0.307438 (Simulation time: 0 hr 1 min 49 sec) 
Heartbeat CPU 0 instructions: 18000001 cycles: 55934098 heartbeat IPC: 0.291279 cumulative IPC: 0.306438 (Simulation time: 0 hr 1 min 56 sec) 
Heartbeat CPU 0 instructions: 19000001 cycles: 59857817 heartbeat IPC: 0.25486 cumulative IPC: 0.303031 (Simulation time: 0 hr 2 min 3 sec) 
Heartbeat CPU 0 instructions: 20000000 cycles: 63575486 heartbeat IPC: 0.268985 cumulative IPC: 0.301025 (Simulation time: 0 hr 2 min 10 sec) 
Heartbeat CPU 0 instructions: 21000001 cycles: 66364873 heartbeat IPC: 0.358502 cumulative IPC: 0.303458 (Simulation time: 0 hr 2 min 16 sec) 
Heartbeat CPU 0 instructions: 22000000 cycles: 69363058 heartbeat IPC: 0.333535 cumulative IPC: 0.304767 (Simulation time: 0 hr 2 min 22 sec) 
Heartbeat CPU 0 instructions: 23000002 cycles: 72385393 heartbeat IPC: 0.330871 cumulative IPC: 0.305863 (Simulation time: 0 hr 2 min 29 sec) 
Heartbeat CPU 0 instructions: 24000001 cycles: 75414863 heartbeat IPC: 0.33009 cumulative IPC: 0.306843 (Simulation time: 0 hr 2 min 36 sec) 
Heartbeat CPU 0 instructions: 25000000 cycles: 78316242 heartbeat IPC: 0.344663 cumulative IPC: 0.308252 (Simulation time: 0 hr 2 min 42 sec) 
Heartbeat CPU 0 instructions: 26000002 cycles: 81560999 heartbeat IPC: 0.30819 cumulative IPC: 0.30825 (Simulation time: 0 hr 2 min 49 sec) 
Heartbeat CPU 0 instructions: 27000000 cycles: 85251099 heartbeat IPC: 0.270995 cumulative IPC: 0.306628 (Simulation time: 0 hr 2 min 55 sec) 
Heartbeat CPU 0 instructions: 28000001 cycles: 89444726 heartbeat IPC: 0.238457 cumulative IPC: 0.303416 (Simulation time: 0 hr 3 min 3 sec) 
Heartbeat CPU 0 instructions: 29000002 cycles: 93009838 heartbeat IPC: 0.280496 cumulative IPC: 0.302533 (Simulation time: 0 hr 3 min 10 sec) 
Heartbeat CPU 0 instructions: 30000002 cycles: 95933647 heartbeat IPC: 0.34202 cumulative IPC: 0.303742 (Simulation time: 0 hr 3 min 16 sec) 
Heartbeat CPU 0 instructions: 31000002 cycles: 99289644 heartbeat IPC: 0.297974 cumulative IPC: 0.303546 (Simulation time: 0 hr 3 min 23 sec) 
Heartbeat CPU 0 instructions: 32000003 cycles: 102133353 heartbeat IPC: 0.351654 cumulative IPC: 0.304892 (Simulation time: 0 hr 3 min 29 sec) 
Heartbeat CPU 0 instructions: 33000000 cycles: 105397080 heartbeat IPC: 0.306397 cumulative IPC: 0.304938 (Simulation time: 0 hr 3 min 35 sec) 
Heartbeat CPU 0 instructions: 34000002 cycles: 109125964 heartbeat IPC: 0.268177 cumulative IPC: 0.303677 (Simulation time: 0 hr 3 min 43 sec) 
Heartbeat CPU 0 instructions: 35000003 cycles: 111942808 heartbeat IPC: 0.355008 cumulative IPC: 0.304974 (Simulation time: 0 hr 3 min 49 sec) 
Heartbeat CPU 0 instructions: 36000000 cycles: 116093116 heartbeat IPC: 0.240945 cumulative IPC: 0.302676 (Simulation time: 0 hr 3 min 57 sec) 
Heartbeat CPU 0 instructions: 37000003 cycles: 120521408 heartbeat IPC: 0.225821 cumulative IPC: 0.299841 (Simulation time: 0 hr 4 min 4 sec) 
Heartbeat CPU 0 instructions: 38000001 cycles: 123726689 heartbeat IPC: 0.311985 cumulative IPC: 0.300157 (Simulation time: 0 hr 4 min 11 sec) 
Heartbeat CPU 0 instructions: 39000000 cycles: 127639661 heartbeat IPC: 0.25556 cumulative IPC: 0.298785 (Simulation time: 0 hr 4 min 18 sec) 
Heartbeat CPU 0 instructions: 40000002 cycles: 130381251 heartbeat IPC: 0.364753 cumulative IPC: 0.300177 (Simulation time: 0 hr 4 min 25 sec) 
Heartbeat CPU 0 instructions: 41000001 cycles: 133309415 heartbeat IPC: 0.341511 cumulative IPC: 0.301088 (Simulation time: 0 hr 4 min 31 sec) 
Heartbeat CPU 0 instructions: 42000002 cycles: 137296801 heartbeat IPC: 0.250791 cumulative IPC: 0.299622 (Simulation time: 0 hr 4 min 38 sec) 
Heartbeat CPU 0 instructions: 43000002 cycles: 141266912 heartbeat IPC: 0.251882 cumulative IPC: 0.298276 (Simulation time: 0 hr 4 min 45 sec) 
Heartbeat CPU 0 instructions: 44000000 cycles: 144647260 heartbeat IPC: 0.295827 cumulative IPC: 0.298219 (Simulation time: 0 hr 4 min 52 sec) 
Heartbeat CPU 0 instructions: 45000002 cycles: 148076058 heartbeat IPC: 0.291648 cumulative IPC: 0.298066 (Simulation time: 0 hr 4 min 58 sec) 
Heartbeat CPU 0 instructions: 46000003 cycles: 151395341 heartbeat IPC: 0.30127 cumulative IPC: 0.298137 (Simulation time: 0 hr 5 min 5 sec) 
Heartbeat CPU 0 instructions: 47000001 cycles: 153564100 heartbeat IPC: 0.461092 cumulative IPC: 0.300445 (Simulation time: 0 hr 5 min 11 sec) 
Heartbeat CPU 0 instructions: 48000000 cycles: 156796246 heartbeat IPC: 0.309392 cumulative IPC: 0.30063 (Simulation time: 0 hr 5 min 17 sec) 
Heartbeat CPU 0 instructions: 49000001 cycles: 158900051 heartbeat IPC: 0.47533 cumulative IPC: 0.30295 (Simulation time: 0 hr 5 min 22 sec) 
Heartbeat CPU 0 instructions: 50000001 cycles: 162160012 heartbeat IPC: 0.306752 cumulative IPC: 0.303026 (Simulation time: 0 hr 5 min 28 sec) 
Heartbeat CPU 0 instructions: 51000002 cycles: 165288963 heartbeat IPC: 0.319596 cumulative IPC: 0.303341 (Simulation time: 0 hr 5 min 35 sec) 
Heartbeat CPU 0 instructions: 52000000 cycles: 169176345 heartbeat IPC: 0.257242 cumulative IPC: 0.302279 (Simulation time: 0 hr 5 min 43 sec) 
Heartbeat CPU 0 instructions: 53000000 cycles: 173853384 heartbeat IPC: 0.21381 cumulative IPC: 0.299892 (Simulation time: 0 hr 5 min 50 sec) 
Heartbeat CPU 0 instructions: 54000003 cycles: 177617907 heartbeat IPC: 0.265639 cumulative IPC: 0.299165 (Simulation time: 0 hr 5 min 57 sec) 
Heartbeat CPU 0 instructions: 55000000 cycles: 181347910 heartbeat IPC: 0.268095 cumulative IPC: 0.298524 (Simulation time: 0 hr 6 min 4 sec) 
Heartbeat CPU 0 instructions: 56000001 cycles: 185524333 heartbeat IPC: 0.23944 cumulative IPC: 0.297191 (Simulation time: 0 hr 6 min 12 sec) 
Heartbeat CPU 0 instructions: 57000002 cycles: 189089100 heartbeat IPC: 0.280524 cumulative IPC: 0.296876 (Simulation time: 0 hr 6 min 19 sec) 
Heartbeat CPU 0 instructions: 58000000 cycles: 191752830 heartbeat IPC: 0.375413 cumulative IPC: 0.297969 (Simulation time: 0 hr 6 min 25 sec) 
Heartbeat CPU 0 instructions: 59000000 cycles: 195537264 heartbeat IPC: 0.26424 cumulative IPC: 0.297315 (Simulation time: 0 hr 6 min 32 sec) 
Heartbeat CPU 0 instructions: 60000002 cycles: 199902763 heartbeat IPC: 0.229069 cumulative IPC: 0.295821 (Simulation time: 0 hr 6 min 40 sec) 
Heartbeat CPU 0 instructions: 61000001 cycles: 204322188 heartbeat IPC: 0.226274 cumulative IPC: 0.294313 (Simulation time: 0 hr 6 min 47 sec) 
Heartbeat CPU 0 instructions: 62000000 cycles: 208664125 heartbeat IPC: 0.230312 cumulative IPC: 0.292979 (Simulation time: 0 hr 6 min 55 sec) 
Heartbeat CPU 0 instructions: 63000002 cycles: 212180507 heartbeat IPC: 0.284384 cumulative IPC: 0.292836 (Simulation time: 0 hr 7 min 2 sec) 
Heartbeat CPU 0 instructions: 64000000 cycles: 215633028 heartbeat IPC: 0.289643 cumulative IPC: 0.292785 (Simulation time: 0 hr 7 min 8 sec) 
Heartbeat CPU 0 instructions: 65000001 cycles: 218302754 heartbeat IPC: 0.374571 cumulative IPC: 0.293787 (Simulation time: 0 hr 7 min 15 sec) 
Heartbeat CPU 0 instructions: 66000000 cycles: 221121333 heartbeat IPC: 0.354788 cumulative IPC: 0.294566 (Simulation time: 0 hr 7 min 21 sec) 
Heartbeat CPU 0 instructions: 67000003 cycles: 224173797 heartbeat IPC: 0.327605 cumulative IPC: 0.295017 (Simulation time: 0 hr 7 min 27 sec) 
Heartbeat CPU 0 instructions: 68000003 cycles: 227286642 heartbeat IPC: 0.32125 cumulative IPC: 0.295377 (Simulation time: 0 hr 7 min 33 sec) 
Heartbeat CPU 0 instructions: 69000001 cycles: 230385204 heartbeat IPC: 0.32273 cumulative IPC: 0.295746 (Simulation time: 0 hr 7 min 40 sec) 
Heartbeat CPU 0 instructions: 70000000 cycles: 232899642 heartbeat IPC: 0.397703 cumulative IPC: 0.296849 (Simulation time: 0 hr 7 min 46 sec) 
Heartbeat CPU 0 instructions: 71000000 cycles: 236545928 heartbeat IPC: 0.274252 cumulative IPC: 0.2965 (Simulation time: 0 hr 7 min 52 sec) 
Heartbeat CPU 0 instructions: 72000001 cycles: 241002039 heartbeat IPC: 0.224411 cumulative IPC: 0.295164 (Simulation time: 0 hr 8 min 0 sec) 
Heartbeat CPU 0 instructions: 73000003 cycles: 244330983 heartbeat IPC: 0.300396 cumulative IPC: 0.295236 (Simulation time: 0 hr 8 min 6 sec) 
Heartbeat CPU 0 instructions: 74000003 cycles: 247610489 heartbeat IPC: 0.304924 cumulative IPC: 0.295364 (Simulation time: 0 hr 8 min 13 sec) 
Heartbeat CPU 0 instructions: 75000003 cycles: 251733148 heartbeat IPC: 0.242562 cumulative IPC: 0.294498 (Simulation time: 0 hr 8 min 20 sec) 
Heartbeat CPU 0 instructions: 76000000 cycles: 255539435 heartbeat IPC: 0.262722 cumulative IPC: 0.294024 (Simulation time: 0 hr 8 min 28 sec) 
Heartbeat CPU 0 instructions: 77000000 cycles: 260679592 heartbeat IPC: 0.194547 cumulative IPC: 0.292059 (Simulation time: 0 hr 8 min 36 sec) 
Heartbeat CPU 0 instructions: 78000001 cycles: 264016092 heartbeat IPC: 0.299716 cumulative IPC: 0.292156 (Simulation time: 0 hr 8 min 43 sec) 
Heartbeat CPU 0 instructions: 79000003 cycles: 267650013 heartbeat IPC: 0.275185 cumulative IPC: 0.291925 (Simulation time: 0 hr 8 min 50 sec) 
Heartbeat CPU 0 instructions: 80000001 cycles: 270872055 heartbeat IPC: 0.310362 cumulative IPC: 0.292144 (Simulation time: 0 hr 8 min 56 sec) 
Heartbeat CPU 0 instructions: 81000000 cycles: 274810531 heartbeat IPC: 0.253905 cumulative IPC: 0.291595 (Simulation time: 0 hr 9 min 4 sec) 
Heartbeat CPU 0 instructions: 82000001 cycles: 279210493 heartbeat IPC: 0.227275 cumulative IPC: 0.29058 (Simulation time: 0 hr 9 min 12 sec) 
Heartbeat CPU 0 instructions: 83000002 cycles: 282287896 heartbeat IPC: 0.32495 cumulative IPC: 0.290956 (Simulation time: 0 hr 9 min 18 sec) 
Heartbeat CPU 0 instructions: 84000002 cycles: 285806232 heartbeat IPC: 0.284225 cumulative IPC: 0.290873 (Simulation time: 0 hr 9 min 24 sec) 
Heartbeat CPU 0 instructions: 85000001 cycles: 288487492 heartbeat IPC: 0.372959 cumulative IPC: 0.291637 (Simulation time: 0 hr 9 min 30 sec) 
Heartbeat CPU 0 instructions: 86000002 cycles: 291562949 heartbeat IPC: 0.325155 cumulative IPC: 0.291991 (Simulation time: 0 hr 9 min 37 sec) 
Heartbeat CPU 0 instructions: 87000000 cycles: 294882153 heartbeat IPC: 0.301276 cumulative IPC: 0.292095 (Simulation time: 0 hr 9 min 44 sec) 
Heartbeat CPU 0 instructions: 88000000 cycles: 297884471 heartbeat IPC: 0.333076 cumulative IPC: 0.292509 (Simulation time: 0 hr 9 min 50 sec) 
Heartbeat CPU 0 instructions: 89000000 cycles: 300433981 heartbeat IPC: 0.392232 cumulative IPC: 0.293357 (Simulation time: 0 hr 9 min 56 sec) 
Heartbeat CPU 0 instructions: 90000000 cycles: 303667935 heartbeat IPC: 0.309219 cumulative IPC: 0.293526 (Simulation time: 0 hr 10 min 2 sec) 
Heartbeat CPU 0 instructions: 91000002 cycles: 306483524 heartbeat IPC: 0.355166 cumulative IPC: 0.294093 (Simulation time: 0 hr 10 min 8 sec) 
Heartbeat CPU 0 instructions: 92000001 cycles: 310152653 heartbeat IPC: 0.272544 cumulative IPC: 0.293838 (Simulation time: 0 hr 10 min 15 sec) 
Heartbeat CPU 0 instructions: 93000003 cycles: 314639865 heartbeat IPC: 0.222856 cumulative IPC: 0.292824 (Simulation time: 0 hr 10 min 23 sec) 
Heartbeat CPU 0 instructions: 94000003 cycles: 318329392 heartbeat IPC: 0.271037 cumulative IPC: 0.292571 (Simulation time: 0 hr 10 min 29 sec) 
Heartbeat CPU 0 instructions: 95000003 cycles: 322264211 heartbeat IPC: 0.254141 cumulative IPC: 0.292101 (Simulation time: 0 hr 10 min 37 sec) 
Heartbeat CPU 0 instructions: 96000001 cycles: 326776004 heartbeat IPC: 0.221641 cumulative IPC: 0.291127 (Simulation time: 0 hr 10 min 45 sec) 
Heartbeat CPU 0 instructions: 97000000 cycles: 329637004 heartbeat IPC: 0.349528 cumulative IPC: 0.291635 (Simulation time: 0 hr 10 min 51 sec) 
Heartbeat CPU 0 instructions: 98000001 cycles: 333758710 heartbeat IPC: 0.242618 cumulative IPC: 0.291028 (Simulation time: 0 hr 10 min 59 sec) 
Heartbeat CPU 0 instructions: 99000000 cycles: 338133967 heartbeat IPC: 0.228558 cumulative IPC: 0.290219 (Simulation time: 0 hr 11 min 6 sec) 
Heartbeat CPU 0 instructions: 100000003 cycles: 341719873 heartbeat IPC: 0.27887 cumulative IPC: 0.2901 (Simulation time: 0 hr 11 min 13 sec) 
Heartbeat CPU 0 instructions: 101000000 cycles: 345158248 heartbeat IPC: 0.290834 cumulative IPC: 0.290107 (Simulation time: 0 hr 11 min 20 sec) 
Heartbeat CPU 0 instructions: 102000000 cycles: 348186825 heartbeat IPC: 0.330188 cumulative IPC: 0.290456 (Simulation time: 0 hr 11 min 26 sec) 
Heartbeat CPU 0 instructions: 103000001 cycles: 351316989 heartbeat IPC: 0.319472 cumulative IPC: 0.290715 (Simulation time: 0 hr 11 min 34 sec) 
Heartbeat CPU 0 instructions: 104000001 cycles: 354473429 heartbeat IPC: 0.316813 cumulative IPC: 0.290948 (Simulation time: 0 hr 11 min 40 sec) 
Heartbeat CPU 0 instructions: 105000002 cycles: 357674865 heartbeat IPC: 0.31236 cumulative IPC: 0.29114 (Simulation time: 0 hr 11 min 46 sec) 
Heartbeat CPU 0 instructions: 106000001 cycles: 360611318 heartbeat IPC: 0.340547 cumulative IPC: 0.291542 (Simulation time: 0 hr 11 min 52 sec) 
Heartbeat CPU 0 instructions: 107000002 cycles: 364645907 heartbeat IPC: 0.247857 cumulative IPC: 0.291058 (Simulation time: 0 hr 11 min 59 sec) 
Heartbeat CPU 0 instructions: 108000002 cycles: 368624204 heartbeat IPC: 0.251364 cumulative IPC: 0.29063 (Simulation time: 0 hr 12 min 7 sec) 
Heartbeat CPU 0 instructions: 109000001 cycles: 372999081 heartbeat IPC: 0.228578 cumulative IPC: 0.289901 (Simulation time: 0 hr 12 min 15 sec) 
Heartbeat CPU 0 instructions: 110000000 cycles: 376025405 heartbeat IPC: 0.330434 cumulative IPC: 0.290227 (Simulation time: 0 hr 12 min 21 sec) 
Heartbeat CPU 0 instructions: 111000003 cycles: 380299231 heartbeat IPC: 0.233983 cumulative IPC: 0.289595 (Simulation time: 0 hr 12 min 29 sec) 
Heartbeat CPU 0 instructions: 112000002 cycles: 383715847 heartbeat IPC: 0.292687 cumulative IPC: 0.289622 (Simulation time: 0 hr 12 min 35 sec) 
Heartbeat CPU 0 instructions: 113000003 cycles: 386873865 heartbeat IPC: 0.316655 cumulative IPC: 0.289843 (Simulation time: 0 hr 12 min 42 sec) 
Heartbeat CPU 0 instructions: 114000000 cycles: 389252111 heartbeat IPC: 0.420477 cumulative IPC: 0.290642 (Simulation time: 0 hr 12 min 47 sec) 
Heartbeat CPU 0 instructions: 115000001 cycles: 392684163 heartbeat IPC: 0.291371 cumulative IPC: 0.290649 (Simulation time: 0 hr 12 min 54 sec) 
Heartbeat CPU 0 instructions: 116000001 cycles: 396769735 heartbeat IPC: 0.244764 cumulative IPC: 0.290176 (Simulation time: 0 hr 13 min 1 sec) 
Heartbeat CPU 0 instructions: 117000001 cycles: 399597477 heartbeat IPC: 0.353639 cumulative IPC: 0.290625 (Simulation time: 0 hr 13 min 7 sec) 
Heartbeat CPU 0 instructions: 118000002 cycles: 402482469 heartbeat IPC: 0.346622 cumulative IPC: 0.291027 (Simulation time: 0 hr 13 min 14 sec) 
Heartbeat CPU 0 instructions: 119000000 cycles: 405764683 heartbeat IPC: 0.304672 cumulative IPC: 0.291137 (Simulation time: 0 hr 13 min 20 sec) 
Heartbeat CPU 0 instructions: 120000000 cycles: 408740062 heartbeat IPC: 0.336092 cumulative IPC: 0.291465 (Simulation time: 0 hr 13 min 27 sec) 
Heartbeat CPU 0 instructions: 121000000 cycles: 411435233 heartbeat IPC: 0.371034 cumulative IPC: 0.291987 (Simulation time: 0 hr 13 min 33 sec) 
Heartbeat CPU 0 instructions: 122000002 cycles: 414411489 heartbeat IPC: 0.335993 cumulative IPC: 0.292303 (Simulation time: 0 hr 13 min 40 sec) 
Heartbeat CPU 0 instructions: 123000003 cycles: 417392835 heartbeat IPC: 0.335419 cumulative IPC: 0.292612 (Simulation time: 0 hr 13 min 46 sec) 
Heartbeat CPU 0 instructions: 124000000 cycles: 420813043 heartbeat IPC: 0.292379 cumulative IPC: 0.29261 (Simulation time: 0 hr 13 min 53 sec) 
Heartbeat CPU 0 instructions: 125000001 cycles: 423723822 heartbeat IPC: 0.343551 cumulative IPC: 0.29296 (Simulation time: 0 hr 13 min 58 sec) 
Heartbeat CPU 0 instructions: 126000000 cycles: 426661307 heartbeat IPC: 0.340427 cumulative IPC: 0.293287 (Simulation time: 0 hr 14 min 3 sec) 
Heartbeat CPU 0 instructions: 127000001 cycles: 429512652 heartbeat IPC: 0.350712 cumulative IPC: 0.293669 (Simulation time: 0 hr 14 min 7 sec) 
Heartbeat CPU 0 instructions: 128000001 cycles: 432590382 heartbeat IPC: 0.324915 cumulative IPC: 0.293891 (Simulation time: 0 hr 14 min 11 sec) 
Heartbeat CPU 0 instructions: 129000002 cycles: 435261409 heartbeat IPC: 0.374388 cumulative IPC: 0.294386 (Simulation time: 0 hr 14 min 15 sec) 
Heartbeat CPU 0 instructions: 130000001 cycles: 438152041 heartbeat IPC: 0.345945 cumulative IPC: 0.294726 (Simulation time: 0 hr 14 min 20 sec) 
Heartbeat CPU 0 instructions: 131000000 cycles: 441121211 heartbeat IPC: 0.336794 cumulative IPC: 0.29501 (Simulation time: 0 hr 14 min 24 sec) 
Heartbeat CPU 0 instructions: 132000000 cycles: 444399945 heartbeat IPC: 0.304996 cumulative IPC: 0.295084 (Simulation time: 0 hr 14 min 29 sec) 
Heartbeat CPU 0 instructions: 133000000 cycles: 447296394 heartbeat IPC: 0.34525 cumulative IPC: 0.295409 (Simulation time: 0 hr 14 min 33 sec) 
Heartbeat CPU 0 instructions: 134000003 cycles: 450710531 heartbeat IPC: 0.292901 cumulative IPC: 0.29539 (Simulation time: 0 hr 14 min 38 sec) 
Heartbeat CPU 0 instructions: 135000002 cycles: 453787883 heartbeat IPC: 0.324954 cumulative IPC: 0.29559 (Simulation time: 0 hr 14 min 42 sec) 
Heartbeat CPU 0 instructions: 136000003 cycles: 456819013 heartbeat IPC: 0.32991 cumulative IPC: 0.295818 (Simulation time: 0 hr 14 min 46 sec) 
Heartbeat CPU 0 instructions: 137000003 cycles: 459957850 heartbeat IPC: 0.318589 cumulative IPC: 0.295974 (Simulation time: 0 hr 14 min 51 sec) 
Heartbeat CPU 0 instructions: 138000001 cycles: 463571693 heartbeat IPC: 0.276713 cumulative IPC: 0.295824 (Simulation time: 0 hr 14 min 55 sec) 
Heartbeat CPU 0 instructions: 139000001 cycles: 467112248 heartbeat IPC: 0.282442 cumulative IPC: 0.295722 (Simulation time: 0 hr 15 min 0 sec) 
Heartbeat CPU 0 instructions: 140000000 cycles: 470195360 heartbeat IPC: 0.324347 cumulative IPC: 0.29591 (Simulation time: 0 hr 15 min 5 sec) 
Heartbeat CPU 0 instructions: 141000002 cycles: 474483723 heartbeat IPC: 0.23319 cumulative IPC: 0.295343 (Simulation time: 0 hr 15 min 10 sec) 
Heartbeat CPU 0 instructions: 142000000 cycles: 478375975 heartbeat IPC: 0.25692 cumulative IPC: 0.29503 (Simulation time: 0 hr 15 min 15 sec) 
Heartbeat CPU 0 instructions: 143000000 cycles: 482157032 heartbeat IPC: 0.264476 cumulative IPC: 0.29479 (Simulation time: 0 hr 15 min 19 sec) 
Heartbeat CPU 0 instructions: 144000001 cycles: 485676041 heartbeat IPC: 0.284171 cumulative IPC: 0.294713 (Simulation time: 0 hr 15 min 24 sec) 
Heartbeat CPU 0 instructions: 145000001 cycles: 488289278 heartbeat IPC: 0.382667 cumulative IPC: 0.295184 (Simulation time: 0 hr 15 min 28 sec) 
Heartbeat CPU 0 instructions: 146000000 cycles: 492165455 heartbeat IPC: 0.257986 cumulative IPC: 0.294891 (Simulation time: 0 hr 15 min 33 sec) 
Heartbeat CPU 0 instructions: 147000003 cycles: 496431828 heartbeat IPC: 0.234392 cumulative IPC: 0.29437 (Simulation time: 0 hr 15 min 39 sec) 
Heartbeat CPU 0 instructions: 148000001 cycles: 500094843 heartbeat IPC: 0.272999 cumulative IPC: 0.294214 (Simulation time: 0 hr 15 min 43 sec) 
Heartbeat CPU 0 instructions: 149000000 cycles: 503255270 heartbeat IPC: 0.316413 cumulative IPC: 0.294353 (Simulation time: 0 hr 15 min 48 sec) 
Heartbeat CPU 0 instructions: 150000003 cycles: 505181462 heartbeat IPC: 0.519161 cumulative IPC: 0.295211 (Simulation time: 0 hr 15 min 51 sec) 
Heartbeat CPU 0 instructions: 151000000 cycles: 508574461 heartbeat IPC: 0.294724 cumulative IPC: 0.295208 (Simulation time: 0 hr 15 min 56 sec) 
Heartbeat CPU 0 instructions: 152000001 cycles: 512724744 heartbeat IPC: 0.240948 cumulative IPC: 0.294768 (Simulation time: 0 hr 16 min 1 sec) 
Heartbeat CPU 0 instructions: 153000000 cycles: 516862654 heartbeat IPC: 0.241668 cumulative IPC: 0.294343 (Simulation time: 0 hr 16 min 6 sec) 
Heartbeat CPU 0 instructions: 154000000 cycles: 520974764 heartbeat IPC: 0.243184 cumulative IPC: 0.293939 (Simulation time: 0 hr 16 min 11 sec) 
Heartbeat CPU 0 instructions: 155000001 cycles: 524992632 heartbeat IPC: 0.248888 cumulative IPC: 0.293593 (Simulation time: 0 hr 16 min 16 sec) 
Heartbeat CPU 0 instructions: 156000003 cycles: 528726565 heartbeat IPC: 0.267815 cumulative IPC: 0.293411 (Simulation time: 0 hr 16 min 21 sec) 
Heartbeat CPU 0 instructions: 157000002 cycles: 532995046 heartbeat IPC: 0.234275 cumulative IPC: 0.292937 (Simulation time: 0 hr 16 min 26 sec) 
Heartbeat CPU 0 instructions: 158000002 cycles: 537319964 heartbeat IPC: 0.231218 cumulative IPC: 0.29244 (Simulation time: 0 hr 16 min 31 sec) 
Heartbeat CPU 0 instructions: 159000002 cycles: 541014498 heartbeat IPC: 0.27067 cumulative IPC: 0.292291 (Simulation time: 0 hr 16 min 36 sec) 
Heartbeat CPU 0 instructions: 160000002 cycles: 543815149 heartbeat IPC: 0.35706 cumulative IPC: 0.292625 (Simulation time: 0 hr 16 min 41 sec) 
Heartbeat CPU 0 instructions: 161000000 cycles: 547124209 heartbeat IPC: 0.3022 cumulative IPC: 0.292683 (Simulation time: 0 hr 16 min 45 sec) 
Heartbeat CPU 0 instructions: 162000003 cycles: 550196085 heartbeat IPC: 0.325535 cumulative IPC: 0.292867 (Simulation time: 0 hr 16 min 49 sec) 
Heartbeat CPU 0 instructions: 163000001 cycles: 552887814 heartbeat IPC: 0.371508 cumulative IPC: 0.29325 (Simulation time: 0 hr 16 min 54 sec) 
Heartbeat CPU 0 instructions: 164000003 cycles: 555642832 heartbeat IPC: 0.362975 cumulative IPC: 0.293596 (Simulation time: 0 hr 16 min 58 sec) 
Heartbeat CPU 0 instructions: 165000000 cycles: 558765971 heartbeat IPC: 0.32019 cumulative IPC: 0.293745 (Simulation time: 0 hr 17 min 2 sec) 
Heartbeat CPU 0 instructions: 166000002 cycles: 561492077 heartbeat IPC: 0.366824 cumulative IPC: 0.2941 (Simulation time: 0 hr 17 min 7 sec) 
Heartbeat CPU 0 instructions: 167000001 cycles: 564344096 heartbeat IPC: 0.350628 cumulative IPC: 0.294386 (Simulation time: 0 hr 17 min 11 sec) 
Heartbeat CPU 0 instructions: 168000000 cycles: 567490978 heartbeat IPC: 0.317775 cumulative IPC: 0.294515 (Simulation time: 0 hr 17 min 15 sec) 
Heartbeat CPU 0 instructions: 169000001 cycles: 570948159 heartbeat IPC: 0.289253 cumulative IPC: 0.294484 (Simulation time: 0 hr 17 min 20 sec) 
Heartbeat CPU 0 instructions: 170000001 cycles: 574965059 heartbeat IPC: 0.248948 cumulative IPC: 0.294165 (Simulation time: 0 hr 17 min 25 sec) 
Heartbeat CPU 0 instructions: 171000002 cycles: 578747362 heartbeat IPC: 0.264389 cumulative IPC: 0.29397 (Simulation time: 0 hr 17 min 30 sec) 
Heartbeat CPU 0 instructions: 172000000 cycles: 582846465 heartbeat IPC: 0.243955 cumulative IPC: 0.293618 (Simulation time: 0 hr 17 min 35 sec) 
Heartbeat CPU 0 instructions: 173000002 cycles: 586489788 heartbeat IPC: 0.274475 cumulative IPC: 0.293499 (Simulation time: 0 hr 17 min 40 sec) 
Heartbeat CPU 0 instructions: 174000002 cycles: 589534547 heartbeat IPC: 0.328433 cumulative IPC: 0.29368 (Simulation time: 0 hr 17 min 44 sec) 
Heartbeat CPU 0 instructions: 175000001 cycles: 592866687 heartbeat IPC: 0.300107 cumulative IPC: 0.293716 (Simulation time: 0 hr 17 min 49 sec) 
Heartbeat CPU 0 instructions: 176000000 cycles: 596330483 heartbeat IPC: 0.2887 cumulative IPC: 0.293687 (Simulation time: 0 hr 17 min 53 sec) 
Heartbeat CPU 0 instructions: 177000002 cycles: 599372839 heartbeat IPC: 0.328693 cumulative IPC: 0.293865 (Simulation time: 0 hr 17 min 58 sec) 
Heartbeat CPU 0 instructions: 178000003 cycles: 602183556 heartbeat IPC: 0.355781 cumulative IPC: 0.294154 (Simulation time: 0 hr 18 min 2 sec) 
Heartbeat CPU 0 instructions: 179000002 cycles: 605144776 heartbeat IPC: 0.337698 cumulative IPC: 0.294367 (Simulation time: 0 hr 18 min 6 sec) 
Heartbeat CPU 0 instructions: 180000000 cycles: 609095927 heartbeat IPC: 0.25309 cumulative IPC: 0.294099 (Simulation time: 0 hr 18 min 11 sec) 
Heartbeat CPU 0 instructions: 181000001 cycles: 612419882 heartbeat IPC: 0.300847 cumulative IPC: 0.294136 (Simulation time: 0 hr 18 min 16 sec) 
Heartbeat CPU 0 instructions: 182000001 cycles: 615770008 heartbeat IPC: 0.298496 cumulative IPC: 0.29416 (Simulation time: 0 hr 18 min 20 sec) 
Heartbeat CPU 0 instructions: 183000001 cycles: 619913869 heartbeat IPC: 0.241321 cumulative IPC: 0.293806 (Simulation time: 0 hr 18 min 25 sec) 
Heartbeat CPU 0 instructions: 184000001 cycles: 623641996 heartbeat IPC: 0.268231 cumulative IPC: 0.293653 (Simulation time: 0 hr 18 min 30 sec) 
Heartbeat CPU 0 instructions: 185000000 cycles: 627073138 heartbeat IPC: 0.291448 cumulative IPC: 0.293641 (Simulation time: 0 hr 18 min 35 sec) 
Heartbeat CPU 0 instructions: 186000003 cycles: 630305098 heartbeat IPC: 0.309411 cumulative IPC: 0.293722 (Simulation time: 0 hr 18 min 39 sec) 
Heartbeat CPU 0 instructions: 187000000 cycles: 632856738 heartbeat IPC: 0.391904 cumulative IPC: 0.294118 (Simulation time: 0 hr 18 min 44 sec) 
Heartbeat CPU 0 instructions: 188000003 cycles: 636139624 heartbeat IPC: 0.304611 cumulative IPC: 0.294172 (Simulation time: 0 hr 18 min 48 sec) 
Heartbeat CPU 0 instructions: 189000000 cycles: 640050665 heartbeat IPC: 0.255686 cumulative IPC: 0.293937 (Simulation time: 0 hr 18 min 53 sec) 
Heartbeat CPU 0 instructions: 190000000 cycles: 643819476 heartbeat IPC: 0.265336 cumulative IPC: 0.293769 (Simulation time: 0 hr 18 min 58 sec) 
Heartbeat CPU 0 instructions: 191000002 cycles: 647087590 heartbeat IPC: 0.305987 cumulative IPC: 0.293831 (Simulation time: 0 hr 19 min 2 sec) 
Heartbeat CPU 0 instructions: 192000000 cycles: 650918889 heartbeat IPC: 0.261008 cumulative IPC: 0.293638 (Simulation time: 0 hr 19 min 7 sec) 
Heartbeat CPU 0 instructions: 193000001 cycles: 655383334 heartbeat IPC: 0.223992 cumulative IPC: 0.293163 (Simulation time: 0 hr 19 min 12 sec) 
Heartbeat CPU 0 instructions: 194000002 cycles: 658703365 heartbeat IPC: 0.301202 cumulative IPC: 0.293204 (Simulation time: 0 hr 19 min 17 sec) 
Heartbeat CPU 0 instructions: 195000000 cycles: 661771593 heartbeat IPC: 0.32592 cumulative IPC: 0.293355 (Simulation time: 0 hr 19 min 21 sec) 
Heartbeat CPU 0 instructions: 196000001 cycles: 665148546 heartbeat IPC: 0.296125 cumulative IPC: 0.29337 (Simulation time: 0 hr 19 min 26 sec) 
Heartbeat CPU 0 instructions: 197000000 cycles: 669248736 heartbeat IPC: 0.243891 cumulative IPC: 0.293066 (Simulation time: 0 hr 19 min 30 sec) 
Heartbeat CPU 0 instructions: 198000000 cycles: 672601447 heartbeat IPC: 0.298266 cumulative IPC: 0.293092 (Simulation time: 0 hr 19 min 35 sec) 
Heartbeat CPU 0 instructions: 199000003 cycles: 675522151 heartbeat IPC: 0.342384 cumulative IPC: 0.293305 (Simulation time: 0 hr 19 min 39 sec) 
Heartbeat CPU 0 instructions: 200000000 cycles: 678209108 heartbeat IPC: 0.372167 cumulative IPC: 0.293618 (Simulation time: 0 hr 19 min 43 sec) 
Heartbeat CPU 0 instructions: 201000000 cycles: 682506479 heartbeat IPC: 0.2327 cumulative IPC: 0.293234 (Simulation time: 0 hr 19 min 49 sec) 
Heartbeat CPU 0 instructions: 202000003 cycles: 686542459 heartbeat IPC: 0.247772 cumulative IPC: 0.292967 (Simulation time: 0 hr 19 min 54 sec) 
Heartbeat CPU 0 instructions: 203000002 cycles: 691008654 heartbeat IPC: 0.223904 cumulative IPC: 0.29252 (Simulation time: 0 hr 19 min 59 sec) 
Heartbeat CPU 0 instructions: 204000003 cycles: 694037333 heartbeat IPC: 0.330177 cumulative IPC: 0.292685 (Simulation time: 0 hr 20 min 3 sec) 
Heartbeat CPU 0 instructions: 205000002 cycles: 698344406 heartbeat IPC: 0.232176 cumulative IPC: 0.292311 (Simulation time: 0 hr 20 min 8 sec) 
Heartbeat CPU 0 instructions: 206000001 cycles: 702687351 heartbeat IPC: 0.230258 cumulative IPC: 0.291927 (Simulation time: 0 hr 20 min 14 sec) 
Heartbeat CPU 0 instructions: 207000001 cycles: 706617697 heartbeat IPC: 0.254431 cumulative IPC: 0.291719 (Simulation time: 0 hr 20 min 18 sec) 
Heartbeat CPU 0 instructions: 208000001 cycles: 710344876 heartbeat IPC: 0.268299 cumulative IPC: 0.291596 (Simulation time: 0 hr 20 min 23 sec) 
Heartbeat CPU 0 instructions: 209000000 cycles: 713017083 heartbeat IPC: 0.374222 cumulative IPC: 0.291906 (Simulation time: 0 hr 20 min 27 sec) 
Heartbeat CPU 0 instructions: 210000001 cycles: 716116684 heartbeat IPC: 0.322622 cumulative IPC: 0.292039 (Simulation time: 0 hr 20 min 32 sec) 
Heartbeat CPU 0 instructions: 211000000 cycles: 719481986 heartbeat IPC: 0.29715 cumulative IPC: 0.292063 (Simulation time: 0 hr 20 min 36 sec) 
Heartbeat CPU 0 instructions: 212000002 cycles: 724262235 heartbeat IPC: 0.209195 cumulative IPC: 0.291515 (Simulation time: 0 hr 20 min 41 sec) 
Heartbeat CPU 0 instructions: 213000003 cycles: 727333550 heartbeat IPC: 0.325594 cumulative IPC: 0.291659 (Simulation time: 0 hr 20 min 45 sec) 
Heartbeat CPU 0 instructions: 214000000 cycles: 730677266 heartbeat IPC: 0.299068 cumulative IPC: 0.291693 (Simulation time: 0 hr 20 min 50 sec) 
Heartbeat CPU 0 instructions: 215000001 cycles: 733760532 heartbeat IPC: 0.324332 cumulative IPC: 0.29183 (Simulation time: 0 hr 20 min 54 sec) 
Heartbeat CPU 0 instructions: 216000001 cycles: 737296861 heartbeat IPC: 0.282779 cumulative IPC: 0.291787 (Simulation time: 0 hr 20 min 58 sec) 
Heartbeat CPU 0 instructions: 217000001 cycles: 740683054 heartbeat IPC: 0.295317 cumulative IPC: 0.291803 (Simulation time: 0 hr 21 min 3 sec) 
Heartbeat CPU 0 instructions: 218000000 cycles: 744882037 heartbeat IPC: 0.238153 cumulative IPC: 0.2915 (Simulation time: 0 hr 21 min 8 sec) 
Heartbeat CPU 0 instructions: 219000001 cycles: 749306112 heartbeat IPC: 0.226036 cumulative IPC: 0.291114 (Simulation time: 0 hr 21 min 13 sec) 
Heartbeat CPU 0 instructions: 220000000 cycles: 753801247 heartbeat IPC: 0.222463 cumulative IPC: 0.290704 (Simulation time: 0 hr 21 min 18 sec) 
Heartbeat CPU 0 instructions: 221000002 cycles: 757494044 heartbeat IPC: 0.270798 cumulative IPC: 0.290607 (Simulation time: 0 hr 21 min 22 sec) 
Heartbeat CPU 0 instructions: 222000001 cycles: 760412945 heartbeat IPC: 0.342594 cumulative IPC: 0.290807 (Simulation time: 0 hr 21 min 27 sec) 
Heartbeat CPU 0 instructions: 223000002 cycles: 763683458 heartbeat IPC: 0.305763 cumulative IPC: 0.290871 (Simulation time: 0 hr 21 min 31 sec) 
Heartbeat CPU 0 instructions: 224000001 cycles: 766725443 heartbeat IPC: 0.328732 cumulative IPC: 0.291021 (Simulation time: 0 hr 21 min 36 sec) 
Heartbeat CPU 0 instructions: 225000001 cycles: 770069564 heartbeat IPC: 0.299032 cumulative IPC: 0.291056 (Simulation time: 0 hr 21 min 40 sec) 
Heartbeat CPU 0 instructions: 226000000 cycles: 773107318 heartbeat IPC: 0.32919 cumulative IPC: 0.291206 (Simulation time: 0 hr 21 min 44 sec) 
Heartbeat CPU 0 instructions: 227000001 cycles: 776228525 heartbeat IPC: 0.320389 cumulative IPC: 0.291323 (Simulation time: 0 hr 21 min 49 sec) 
Heartbeat CPU 0 instructions: 228000001 cycles: 779534078 heartbeat IPC: 0.302521 cumulative IPC: 0.291371 (Simulation time: 0 hr 21 min 53 sec) 
Heartbeat CPU 0 instructions: 229000002 cycles: 782536123 heartbeat IPC: 0.333107 cumulative IPC: 0.291531 (Simulation time: 0 hr 21 min 58 sec) 
Heartbeat CPU 0 instructions: 230000000 cycles: 785471573 heartbeat IPC: 0.340663 cumulative IPC: 0.291715 (Simulation time: 0 hr 22 min 2 sec) 
Heartbeat CPU 0 instructions: 231000000 cycles: 788647092 heartbeat IPC: 0.314909 cumulative IPC: 0.291808 (Simulation time: 0 hr 22 min 6 sec) 
Heartbeat CPU 0 instructions: 232000002 cycles: 792304141 heartbeat IPC: 0.273445 cumulative IPC: 0.291723 (Simulation time: 0 hr 22 min 11 sec) 
Heartbeat CPU 0 instructions: 233000000 cycles: 796673150 heartbeat IPC: 0.228884 cumulative IPC: 0.291378 (Simulation time: 0 hr 22 min 16 sec) 
Heartbeat CPU 0 instructions: 234000000 cycles: 800814031 heartbeat IPC: 0.241495 cumulative IPC: 0.29112 (Simulation time: 0 hr 22 min 21 sec) 
Heartbeat CPU 0 instructions: 235000000 cycles: 803573278 heartbeat IPC: 0.362418 cumulative IPC: 0.291365 (Simulation time: 0 hr 22 min 25 sec) 
Heartbeat CPU 0 instructions: 236000002 cycles: 806749791 heartbeat IPC: 0.314811 cumulative IPC: 0.291458 (Simulation time: 0 hr 22 min 30 sec) 
Heartbeat CPU 0 instructions: 237000002 cycles: 810329138 heartbeat IPC: 0.279381 cumulative IPC: 0.291404 (Simulation time: 0 hr 22 min 34 sec) 
Heartbeat CPU 0 instructions: 238000000 cycles: 813386890 heartbeat IPC: 0.327037 cumulative IPC: 0.291538 (Simulation time: 0 hr 22 min 38 sec) 
Heartbeat CPU 0 instructions: 239000002 cycles: 816449126 heartbeat IPC: 0.326559 cumulative IPC: 0.29167 (Simulation time: 0 hr 22 min 42 sec) 
Heartbeat CPU 0 instructions: 240000001 cycles: 819448500 heartbeat IPC: 0.333403 cumulative IPC: 0.291823 (Simulation time: 0 hr 22 min 46 sec) 
Heartbeat CPU 0 instructions: 241000000 cycles: 823241468 heartbeat IPC: 0.263645 cumulative IPC: 0.291693 (Simulation time: 0 hr 22 min 51 sec) 
Heartbeat CPU 0 instructions: 242000000 cycles: 826523702 heartbeat IPC: 0.304671 cumulative IPC: 0.291744 (Simulation time: 0 hr 22 min 55 sec) 
Heartbeat CPU 0 instructions: 243000002 cycles: 829620183 heartbeat IPC: 0.322948 cumulative IPC: 0.291861 (Simulation time: 0 hr 22 min 59 sec) 
Heartbeat CPU 0 instructions: 244000003 cycles: 833778190 heartbeat IPC: 0.2405 cumulative IPC: 0.291605 (Simulation time: 0 hr 23 min 4 sec) 
Heartbeat CPU 0 instructions: 245000000 cycles: 837702439 heartbeat IPC: 0.254825 cumulative IPC: 0.291432 (Simulation time: 0 hr 23 min 9 sec) 
Heartbeat CPU 0 instructions: 246000003 cycles: 840875895 heartbeat IPC: 0.315115 cumulative IPC: 0.291522 (Simulation time: 0 hr 23 min 13 sec) 
Heartbeat CPU 0 instructions: 247000000 cycles: 844369930 heartbeat IPC: 0.286201 cumulative IPC: 0.2915 (Simulation time: 0 hr 23 min 17 sec) 
Heartbeat CPU 0 instructions: 248000000 cycles: 846886073 heartbeat IPC: 0.397434 cumulative IPC: 0.291814 (Simulation time: 0 hr 23 min 21 sec) 
Heartbeat CPU 0 instructions: 249000000 cycles: 849828222 heartbeat IPC: 0.339888 cumulative IPC: 0.291981 (Simulation time: 0 hr 23 min 26 sec) 
Heartbeat CPU 0 instructions: 250000000 cycles: 853584893 heartbeat IPC: 0.266193 cumulative IPC: 0.291867 (Simulation time: 0 hr 23 min 30 sec) 
Heartbeat CPU 0 instructions: 251000002 cycles: 857455944 heartbeat IPC: 0.258328 cumulative IPC: 0.291716 (Simulation time: 0 hr 23 min 35 sec) 
Heartbeat CPU 0 instructions: 252000001 cycles: 860834440 heartbeat IPC: 0.295989 cumulative IPC: 0.291733 (Simulation time: 0 hr 23 min 39 sec) 
Heartbeat CPU 0 instructions: 253000000 cycles: 864031629 heartbeat IPC: 0.312774 cumulative IPC: 0.291811 (Simulation time: 0 hr 23 min 43 sec) 
Heartbeat CPU 0 instructions: 254000001 cycles: 868853281 heartbeat IPC: 0.207398 cumulative IPC: 0.291342 (Simulation time: 0 hr 23 min 48 sec) 
Heartbeat CPU 0 instructions: 255000000 cycles: 872284415 heartbeat IPC: 0.291449 cumulative IPC: 0.291342 (Simulation time: 0 hr 23 min 52 sec) 
Heartbeat CPU 0 instructions: 256000000 cycles: 875687954 heartbeat IPC: 0.293812 cumulative IPC: 0.291352 (Simulation time: 0 hr 23 min 57 sec) 
Heartbeat CPU 0 instructions: 257000003 cycles: 879089873 heartbeat IPC: 0.293953 cumulative IPC: 0.291362 (Simulation time: 0 hr 24 min 1 sec) 
Heartbeat CPU 0 instructions: 258000002 cycles: 882917644 heartbeat IPC: 0.261248 cumulative IPC: 0.291231 (Simulation time: 0 hr 24 min 6 sec) 
Heartbeat CPU 0 instructions: 259000000 cycles: 886515737 heartbeat IPC: 0.277924 cumulative IPC: 0.291177 (Simulation time: 0 hr 24 min 10 sec) 
Heartbeat CPU 0 instructions: 260000002 cycles: 889616222 heartbeat IPC: 0.322531 cumulative IPC: 0.291287 (Simulation time: 0 hr 24 min 14 sec) 
Heartbeat CPU 0 instructions: 261000000 cycles: 893685728 heartbeat IPC: 0.24573 cumulative IPC: 0.291079 (Simulation time: 0 hr 24 min 19 sec) 
Heartbeat CPU 0 instructions: 262000002 cycles: 897861905 heartbeat IPC: 0.239454 cumulative IPC: 0.290839 (Simulation time: 0 hr 24 min 24 sec) 
Heartbeat CPU 0 instructions: 263000001 cycles: 901258827 heartbeat IPC: 0.294384 cumulative IPC: 0.290852 (Simulation time: 0 hr 24 min 28 sec) 
Heartbeat CPU 0 instructions: 264000000 cycles: 905254799 heartbeat IPC: 0.250252 cumulative IPC: 0.290673 (Simulation time: 0 hr 24 min 33 sec) 
Heartbeat CPU 0 instructions: 265000001 cycles: 909203133 heartbeat IPC: 0.253272 cumulative IPC: 0.29051 (Simulation time: 0 hr 24 min 38 sec) 
Heartbeat CPU 0 instructions: 266000002 cycles: 911987133 heartbeat IPC: 0.359196 cumulative IPC: 0.29072 (Simulation time: 0 hr 24 min 42 sec) 
Heartbeat CPU 0 instructions: 267000003 cycles: 915460406 heartbeat IPC: 0.287913 cumulative IPC: 0.29071 (Simulation time: 0 hr 24 min 46 sec) 
Heartbeat CPU 0 instructions: 268000003 cycles: 919617717 heartbeat IPC: 0.24054 cumulative IPC: 0.290483 (Simulation time: 0 hr 24 min 51 sec) 
Heartbeat CPU 0 instructions: 269000002 cycles: 924089826 heartbeat IPC: 0.223608 cumulative IPC: 0.290159 (Simulation time: 0 hr 24 min 56 sec) 
Heartbeat CPU 0 instructions: 270000001 cycles: 928502577 heartbeat IPC: 0.226616 cumulative IPC: 0.289857 (Simulation time: 0 hr 25 min 1 sec) 
Heartbeat CPU 0 instructions: 271000001 cycles: 932256368 heartbeat IPC: 0.266397 cumulative IPC: 0.289762 (Simulation time: 0 hr 25 min 5 sec) 
Heartbeat CPU 0 instructions: 272000002 cycles: 935267298 heartbeat IPC: 0.332124 cumulative IPC: 0.289899 (Simulation time: 0 hr 25 min 9 sec) 
Heartbeat CPU 0 instructions: 273000001 cycles: 938536637 heartbeat IPC: 0.305872 cumulative IPC: 0.289954 (Simulation time: 0 hr 25 min 14 sec) 
Heartbeat CPU 0 instructions: 274000000 cycles: 941089916 heartbeat IPC: 0.391653 cumulative IPC: 0.29023 (Simulation time: 0 hr 25 min 18 sec) 
Heartbeat CPU 0 instructions: 275000000 cycles: 944053430 heartbeat IPC: 0.337437 cumulative IPC: 0.290379 (Simulation time: 0 hr 25 min 22 sec) 
Heartbeat CPU 0 instructions: 276000000 cycles: 946930648 heartbeat IPC: 0.347558 cumulative IPC: 0.290552 (Simulation time: 0 hr 25 min 26 sec) 
Heartbeat CPU 0 instructions: 277000001 cycles: 949857530 heartbeat IPC: 0.341661 cumulative IPC: 0.29071 (Simulation time: 0 hr 25 min 30 sec) 
Heartbeat CPU 0 instructions: 278000003 cycles: 952681426 heartbeat IPC: 0.354121 cumulative IPC: 0.290898 (Simulation time: 0 hr 25 min 34 sec) 
Heartbeat CPU 0 instructions: 279000000 cycles: 955375616 heartbeat IPC: 0.371168 cumulative IPC: 0.291125 (Simulation time: 0 hr 25 min 37 sec) 
Heartbeat CPU 0 instructions: 280000003 cycles: 959906399 heartbeat IPC: 0.220713 cumulative IPC: 0.290792 (Simulation time: 0 hr 25 min 42 sec) 
Heartbeat CPU 0 instructions: 281000003 cycles: 964378363 heartbeat IPC: 0.223615 cumulative IPC: 0.29048 (Simulation time: 0 hr 25 min 47 sec) 
Heartbeat CPU 0 instructions: 282000002 cycles: 969304965 heartbeat IPC: 0.202979 cumulative IPC: 0.290035 (Simulation time: 0 hr 25 min 52 sec) 
Heartbeat CPU 0 instructions: 283000002 cycles: 972954018 heartbeat IPC: 0.274044 cumulative IPC: 0.289975 (Simulation time: 0 hr 25 min 57 sec) 
Heartbeat CPU 0 instructions: 284000000 cycles: 977052425 heartbeat IPC: 0.243997 cumulative IPC: 0.289782 (Simulation time: 0 hr 26 min 2 sec) 
Heartbeat CPU 0 instructions: 285000001 cycles: 981247473 heartbeat IPC: 0.238377 cumulative IPC: 0.289563 (Simulation time: 0 hr 26 min 6 sec) 
Heartbeat CPU 0 instructions: 286000000 cycles: 984839621 heartbeat IPC: 0.278385 cumulative IPC: 0.289522 (Simulation time: 0 hr 26 min 11 sec) 
Heartbeat CPU 0 instructions: 287000000 cycles: 987449547 heartbeat IPC: 0.383153 cumulative IPC: 0.289769 (Simulation time: 0 hr 26 min 15 sec) 
Heartbeat CPU 0 instructions: 288000001 cycles: 991197898 heartbeat IPC: 0.266784 cumulative IPC: 0.289682 (Simulation time: 0 hr 26 min 20 sec) 
Heartbeat CPU 0 instructions: 289000000 cycles: 995140091 heartbeat IPC: 0.253666 cumulative IPC: 0.28954 (Simulation time: 0 hr 26 min 24 sec) 
Heartbeat CPU 0 instructions: 290000001 cycles: 999857015 heartbeat IPC: 0.212003 cumulative IPC: 0.289174 (Simulation time: 0 hr 26 min 30 sec) 
Heartbeat CPU 0 instructions: 291000000 cycles: 1004484641 heartbeat IPC: 0.216093 cumulative IPC: 0.288837 (Simulation time: 0 hr 26 min 35 sec) 
Heartbeat CPU 0 instructions: 292000003 cycles: 1008067519 heartbeat IPC: 0.279106 cumulative IPC: 0.288802 (Simulation time: 0 hr 26 min 39 sec) 
Heartbeat CPU 0 instructions: 293000000 cycles: 1011853835 heartbeat IPC: 0.264108 cumulative IPC: 0.28871 (Simulation time: 0 hr 26 min 44 sec) 
Heartbeat CPU 0 instructions: 294000002 cycles: 1015474490 heartbeat IPC: 0.276194 cumulative IPC: 0.288665 (Simulation time: 0 hr 26 min 48 sec) 
Heartbeat CPU 0 instructions: 295000000 cycles: 1018561694 heartbeat IPC: 0.323917 cumulative IPC: 0.288772 (Simulation time: 0 hr 26 min 52 sec) 
Heartbeat CPU 0 instructions: 296000000 cycles: 1022779825 heartbeat IPC: 0.237072 cumulative IPC: 0.288559 (Simulation time: 0 hr 26 min 57 sec) 
Heartbeat CPU 0 instructions: 297000000 cycles: 1026380905 heartbeat IPC: 0.277694 cumulative IPC: 0.288521 (Simulation time: 0 hr 27 min 1 sec) 
Heartbeat CPU 0 instructions: 298000000 cycles: 1028808268 heartbeat IPC: 0.41197 cumulative IPC: 0.288812 (Simulation time: 0 hr 27 min 5 sec) 
Heartbeat CPU 0 instructions: 299000003 cycles: 1032200401 heartbeat IPC: 0.294801 cumulative IPC: 0.288832 (Simulation time: 0 hr 27 min 9 sec) 
Heartbeat CPU 0 instructions: 300000000 cycles: 1034713497 heartbeat IPC: 0.397914 cumulative IPC: 0.289097 (Simulation time: 0 hr 27 min 13 sec) 
Heartbeat CPU 0 instructions: 301000001 cycles: 1037608602 heartbeat IPC: 0.345411 cumulative IPC: 0.289254 (Simulation time: 0 hr 27 min 17 sec) 
Heartbeat CPU 0 instructions: 302000002 cycles: 1041181244 heartbeat IPC: 0.279905 cumulative IPC: 0.289222 (Simulation time: 0 hr 27 min 22 sec) 
Heartbeat CPU 0 instructions: 303000003 cycles: 1045281358 heartbeat IPC: 0.243896 cumulative IPC: 0.289044 (Simulation time: 0 hr 27 min 26 sec) 
Heartbeat CPU 0 instructions: 304000000 cycles: 1049025343 heartbeat IPC: 0.267094 cumulative IPC: 0.288966 (Simulation time: 0 hr 27 min 31 sec) 
Heartbeat CPU 0 instructions: 305000002 cycles: 1052169826 heartbeat IPC: 0.318018 cumulative IPC: 0.289053 (Simulation time: 0 hr 27 min 35 sec) 
Heartbeat CPU 0 instructions: 306000001 cycles: 1054759858 heartbeat IPC: 0.386095 cumulative IPC: 0.289291 (Simulation time: 0 hr 27 min 38 sec) 
Heartbeat CPU 0 instructions: 307000000 cycles: 1057712227 heartbeat IPC: 0.338711 cumulative IPC: 0.289429 (Simulation time: 0 hr 27 min 42 sec) 
Heartbeat CPU 0 instructions: 308000000 cycles: 1061138798 heartbeat IPC: 0.291837 cumulative IPC: 0.289437 (Simulation time: 0 hr 27 min 47 sec) 
Heartbeat CPU 0 instructions: 309000002 cycles: 1064192578 heartbeat IPC: 0.327464 cumulative IPC: 0.289546 (Simulation time: 0 hr 27 min 51 sec) 
Heartbeat CPU 0 instructions: 310000000 cycles: 1066595522 heartbeat IPC: 0.416155 cumulative IPC: 0.289831 (Simulation time: 0 hr 27 min 54 sec) 
Heartbeat CPU 0 instructions: 311000000 cycles: 1070803073 heartbeat IPC: 0.237668 cumulative IPC: 0.289626 (Simulation time: 0 hr 27 min 59 sec) 
Heartbeat CPU 0 instructions: 312000000 cycles: 1075077963 heartbeat IPC: 0.233924 cumulative IPC: 0.289405 (Simulation time: 0 hr 28 min 4 sec) 
Heartbeat CPU 0 instructions: 313000001 cycles: 1080261083 heartbeat IPC: 0.192934 cumulative IPC: 0.288942 (Simulation time: 0 hr 28 min 9 sec) 
Heartbeat CPU 0 instructions: 314000003 cycles: 1085113788 heartbeat IPC: 0.206071 cumulative IPC: 0.288571 (Simulation time: 0 hr 28 min 15 sec) 
Heartbeat CPU 0 instructions: 315000000 cycles: 1089856960 heartbeat IPC: 0.210829 cumulative IPC: 0.288232 (Simulation time: 0 hr 28 min 20 sec) 
Heartbeat CPU 0 instructions: 316000000 cycles: 1093451187 heartbeat IPC: 0.278224 cumulative IPC: 0.288199 (Simulation time: 0 hr 28 min 24 sec) 
Heartbeat CPU 0 instructions: 317000000 cycles: 1097422247 heartbeat IPC: 0.251822 cumulative IPC: 0.288068 (Simulation time: 0 hr 28 min 29 sec) 
Heartbeat CPU 0 instructions: 318000000 cycles: 1100933191 heartbeat IPC: 0.284824 cumulative IPC: 0.288057 (Simulation time: 0 hr 28 min 33 sec) 
Heartbeat CPU 0 instructions: 319000000 cycles: 1104517526 heartbeat IPC: 0.278992 cumulative IPC: 0.288028 (Simulation time: 0 hr 28 min 38 sec) 
Heartbeat CPU 0 instructions: 320000002 cycles: 1109034561 heartbeat IPC: 0.221385 cumulative IPC: 0.287756 (Simulation time: 0 hr 28 min 43 sec) 
Heartbeat CPU 0 instructions: 321000000 cycles: 1112397026 heartbeat IPC: 0.2974 cumulative IPC: 0.287786 (Simulation time: 0 hr 28 min 47 sec) 
Heartbeat CPU 0 instructions: 322000000 cycles: 1115825114 heartbeat IPC: 0.291708 cumulative IPC: 0.287798 (Simulation time: 0 hr 28 min 51 sec) 
Heartbeat CPU 0 instructions: 323000002 cycles: 1119788323 heartbeat IPC: 0.252321 cumulative IPC: 0.287672 (Simulation time: 0 hr 28 min 56 sec) 
Heartbeat CPU 0 instructions: 324000000 cycles: 1122411226 heartbeat IPC: 0.381256 cumulative IPC: 0.287891 (Simulation time: 0 hr 29 min 0 sec) 
Heartbeat CPU 0 instructions: 325000003 cycles: 1126606852 heartbeat IPC: 0.238344 cumulative IPC: 0.287706 (Simulation time: 0 hr 29 min 4 sec) 
Heartbeat CPU 0 instructions: 326000000 cycles: 1130523318 heartbeat IPC: 0.255331 cumulative IPC: 0.287594 (Simulation time: 0 hr 29 min 9 sec) 
Heartbeat CPU 0 instructions: 327000002 cycles: 1133441163 heartbeat IPC: 0.342719 cumulative IPC: 0.287736 (Simulation time: 0 hr 29 min 13 sec) 
Heartbeat CPU 0 instructions: 328000000 cycles: 1136400036 heartbeat IPC: 0.337966 cumulative IPC: 0.287867 (Simulation time: 0 hr 29 min 17 sec) 
Heartbeat CPU 0 instructions: 329000000 cycles: 1139174029 heartbeat IPC: 0.360491 cumulative IPC: 0.288044 (Simulation time: 0 hr 29 min 21 sec) 
Heartbeat CPU 0 instructions: 330000000 cycles: 1142242745 heartbeat IPC: 0.325869 cumulative IPC: 0.288145 (Simulation time: 0 hr 29 min 25 sec) 
Heartbeat CPU 0 instructions: 331000001 cycles: 1145757551 heartbeat IPC: 0.284511 cumulative IPC: 0.288134 (Simulation time: 0 hr 29 min 29 sec) 
Heartbeat CPU 0 instructions: 332000000 cycles: 1148268659 heartbeat IPC: 0.39823 cumulative IPC: 0.288375 (Simulation time: 0 hr 29 min 33 sec) 
Heartbeat CPU 0 instructions: 333000001 cycles: 1150960136 heartbeat IPC: 0.371544 cumulative IPC: 0.28857 (Simulation time: 0 hr 29 min 37 sec) 
Heartbeat CPU 0 instructions: 334000000 cycles: 1155051494 heartbeat IPC: 0.244417 cumulative IPC: 0.288413 (Simulation time: 0 hr 29 min 42 sec) 
Heartbeat CPU 0 instructions: 335000001 cycles: 1159112912 heartbeat IPC: 0.24622 cumulative IPC: 0.288265 (Simulation time: 0 hr 29 min 47 sec) 
Heartbeat CPU 0 instructions: 336000000 cycles: 1163998377 heartbeat IPC: 0.204689 cumulative IPC: 0.287914 (Simulation time: 0 hr 29 min 52 sec) 
Heartbeat CPU 0 instructions: 337000000 cycles: 1167694404 heartbeat IPC: 0.270561 cumulative IPC: 0.287859 (Simulation time: 0 hr 29 min 56 sec) 
Heartbeat CPU 0 instructions: 338000001 cycles: 1170930484 heartbeat IPC: 0.309016 cumulative IPC: 0.287918 (Simulation time: 0 hr 30 min 0 sec) 
Heartbeat CPU 0 instructions: 339000000 cycles: 1173994067 heartbeat IPC: 0.326415 cumulative IPC: 0.288018 (Simulation time: 0 hr 30 min 4 sec) 
Heartbeat CPU 0 instructions: 340000001 cycles: 1177768208 heartbeat IPC: 0.264961 cumulative IPC: 0.287944 (Simulation time: 0 hr 30 min 9 sec) 
Heartbeat CPU 0 instructions: 341000000 cycles: 1180735108 heartbeat IPC: 0.337052 cumulative IPC: 0.288068 (Simulation time: 0 hr 30 min 13 sec) 
Heartbeat CPU 0 instructions: 342000001 cycles: 1184372499 heartbeat IPC: 0.274923 cumulative IPC: 0.288028 (Simulation time: 0 hr 30 min 17 sec) 
Heartbeat CPU 0 instructions: 343000000 cycles: 1187413886 heartbeat IPC: 0.328797 cumulative IPC: 0.288132 (Simulation time: 0 hr 30 min 21 sec) 
Heartbeat CPU 0 instructions: 344000001 cycles: 1191918161 heartbeat IPC: 0.222012 cumulative IPC: 0.287882 (Simulation time: 0 hr 30 min 26 sec) 
Heartbeat CPU 0 instructions: 345000001 cycles: 1197021365 heartbeat IPC: 0.195955 cumulative IPC: 0.28749 (Simulation time: 0 hr 30 min 31 sec) 
Heartbeat CPU 0 instructions: 346000000 cycles: 1200278256 heartbeat IPC: 0.307041 cumulative IPC: 0.287543 (Simulation time: 0 hr 30 min 36 sec) 
Heartbeat CPU 0 instructions: 347000003 cycles: 1203828487 heartbeat IPC: 0.281673 cumulative IPC: 0.287526 (Simulation time: 0 hr 30 min 40 sec) 
Heartbeat CPU 0 instructions: 348000002 cycles: 1207257188 heartbeat IPC: 0.291655 cumulative IPC: 0.287537 (Simulation time: 0 hr 30 min 44 sec) 
Heartbeat CPU 0 instructions: 349000001 cycles: 1210921699 heartbeat IPC: 0.272887 cumulative IPC: 0.287493 (Simulation time: 0 hr 30 min 49 sec) 
Heartbeat CPU 0 instructions: 350000003 cycles: 1215189309 heartbeat IPC: 0.234324 cumulative IPC: 0.287306 (Simulation time: 0 hr 30 min 54 sec) 
Heartbeat CPU 0 instructions: 351000003 cycles: 1218543248 heartbeat IPC: 0.298157 cumulative IPC: 0.287336 (Simulation time: 0 hr 30 min 58 sec) 
Heartbeat CPU 0 instructions: 352000000 cycles: 1222581753 heartbeat IPC: 0.247616 cumulative IPC: 0.287205 (Simulation time: 0 hr 31 min 3 sec) 
Heartbeat CPU 0 instructions: 353000002 cycles: 1225451892 heartbeat IPC: 0.348416 cumulative IPC: 0.287348 (Simulation time: 0 hr 31 min 7 sec) 
Heartbeat CPU 0 instructions: 354000000 cycles: 1229195664 heartbeat IPC: 0.26711 cumulative IPC: 0.287287 (Simulation time: 0 hr 31 min 11 sec) 
Heartbeat CPU 0 instructions: 355000000 cycles: 1233150444 heartbeat IPC: 0.252859 cumulative IPC: 0.287176 (Simulation time: 0 hr 31 min 16 sec) 
Heartbeat CPU 0 instructions: 356000000 cycles: 1236206166 heartbeat IPC: 0.327255 cumulative IPC: 0.287275 (Simulation time: 0 hr 31 min 20 sec) 
Heartbeat CPU 0 instructions: 357000002 cycles: 1239831980 heartbeat IPC: 0.275801 cumulative IPC: 0.287242 (Simulation time: 0 hr 31 min 24 sec) 
Heartbeat CPU 0 instructions: 358000000 cycles: 1242627643 heartbeat IPC: 0.357696 cumulative IPC: 0.2874 (Simulation time: 0 hr 31 min 28 sec) 
Heartbeat CPU 0 instructions: 359000001 cycles: 1246461278 heartbeat IPC: 0.260849 cumulative IPC: 0.287319 (Simulation time: 0 hr 31 min 33 sec) 
Heartbeat CPU 0 instructions: 360000000 cycles: 1250037862 heartbeat IPC: 0.279596 cumulative IPC: 0.287297 (Simulation time: 0 hr 31 min 37 sec) 
Heartbeat CPU 0 instructions: 361000001 cycles: 1253164166 heartbeat IPC: 0.319867 cumulative IPC: 0.287378 (Simulation time: 0 hr 31 min 41 sec) 
Heartbeat CPU 0 instructions: 362000003 cycles: 1255893693 heartbeat IPC: 0.366365 cumulative IPC: 0.28755 (Simulation time: 0 hr 31 min 45 sec) 
Heartbeat CPU 0 instructions: 363000000 cycles: 1258677844 heartbeat IPC: 0.359175 cumulative IPC: 0.287708 (Simulation time: 0 hr 31 min 49 sec) 
Heartbeat CPU 0 instructions: 364000000 cycles: 1261137170 heartbeat IPC: 0.406615 cumulative IPC: 0.28794 (Simulation time: 0 hr 31 min 53 sec) 
Heartbeat CPU 0 instructions: 365000002 cycles: 1265596001 heartbeat IPC: 0.224274 cumulative IPC: 0.287716 (Simulation time: 0 hr 31 min 58 sec) 
Heartbeat CPU 0 instructions: 366000002 cycles: 1269747996 heartbeat IPC: 0.240848 cumulative IPC: 0.287562 (Simulation time: 0 hr 32 min 2 sec) 
Heartbeat CPU 0 instructions: 367000001 cycles: 1272901478 heartbeat IPC: 0.317109 cumulative IPC: 0.287636 (Simulation time: 0 hr 32 min 6 sec) 
Heartbeat CPU 0 instructions: 368000002 cycles: 1276306578 heartbeat IPC: 0.293677 cumulative IPC: 0.287652 (Simulation time: 0 hr 32 min 11 sec) 
Heartbeat CPU 0 instructions: 369000003 cycles: 1279601305 heartbeat IPC: 0.303516 cumulative IPC: 0.287693 (Simulation time: 0 hr 32 min 15 sec) 
Heartbeat CPU 0 instructions: 370000000 cycles: 1283315163 heartbeat IPC: 0.269261 cumulative IPC: 0.287639 (Simulation time: 0 hr 32 min 19 sec) 
Heartbeat CPU 0 instructions: 371000000 cycles: 1286479421 heartbeat IPC: 0.31603 cumulative IPC: 0.287709 (Simulation time: 0 hr 32 min 23 sec) 
Heartbeat CPU 0 instructions: 372000002 cycles: 1289974198 heartbeat IPC: 0.286142 cumulative IPC: 0.287705 (Simulation time: 0 hr 32 min 28 sec) 
Heartbeat CPU 0 instructions: 373000000 cycles: 1294347720 heartbeat IPC: 0.228648 cumulative IPC: 0.287505 (Simulation time: 0 hr 32 min 32 sec) 
Heartbeat CPU 0 instructions: 374000000 cycles: 1299262671 heartbeat IPC: 0.203461 cumulative IPC: 0.287187 (Simulation time: 0 hr 32 min 37 sec) 
Heartbeat CPU 0 instructions: 375000000 cycles: 1303143681 heartbeat IPC: 0.257665 cumulative IPC: 0.287099 (Simulation time: 0 hr 32 min 42 sec) 
Heartbeat CPU 0 instructions: 376000003 cycles: 1307411936 heartbeat IPC: 0.234288 cumulative IPC: 0.286927 (Simulation time: 0 hr 32 min 47 sec) 
Heartbeat CPU 0 instructions: 377000002 cycles: 1310289203 heartbeat IPC: 0.347552 cumulative IPC: 0.28706 (Simulation time: 0 hr 32 min 51 sec) 
Heartbeat CPU 0 instructions: 378000000 cycles: 1314221028 heartbeat IPC: 0.254334 cumulative IPC: 0.286962 (Simulation time: 0 hr 32 min 55 sec) 
Heartbeat CPU 0 instructions: 379000001 cycles: 1318484981 heartbeat IPC: 0.234524 cumulative IPC: 0.286792 (Simulation time: 0 hr 33 min 0 sec) 
Heartbeat CPU 0 instructions: 380000000 cycles: 1321345319 heartbeat IPC: 0.349609 cumulative IPC: 0.286928 (Simulation time: 0 hr 33 min 4 sec) 
Heartbeat CPU 0 instructions: 381000001 cycles: 1325555560 heartbeat IPC: 0.237516 cumulative IPC: 0.286771 (Simulation time: 0 hr 33 min 9 sec) 
Heartbeat CPU 0 instructions: 382000000 cycles: 1328373081 heartbeat IPC: 0.354922 cumulative IPC: 0.286916 (Simulation time: 0 hr 33 min 13 sec) 
Heartbeat CPU 0 instructions: 383000001 cycles: 1332606699 heartbeat IPC: 0.236205 cumulative IPC: 0.286755 (Simulation time: 0 hr 33 min 17 sec) 
Heartbeat CPU 0 instructions: 384000001 cycles: 1336338908 heartbeat IPC: 0.267938 cumulative IPC: 0.286702 (Simulation time: 0 hr 33 min 22 sec) 
Heartbeat CPU 0 instructions: 385000000 cycles: 1339817661 heartbeat IPC: 0.287459 cumulative IPC: 0.286704 (Simulation time: 0 hr 33 min 26 sec) 
Heartbeat CPU 0 instructions: 386000001 cycles: 1343113004 heartbeat IPC: 0.303459 cumulative IPC: 0.286745 (Simulation time: 0 hr 33 min 30 sec) 
Heartbeat CPU 0 instructions: 387000000 cycles: 1346223181 heartbeat IPC: 0.321525 cumulative IPC: 0.286826 (Simulation time: 0 hr 33 min 34 sec) 
Heartbeat CPU 0 instructions: 388000003 cycles: 1350028186 heartbeat IPC: 0.262813 cumulative IPC: 0.286758 (Simulation time: 0 hr 33 min 39 sec) 
Heartbeat CPU 0 instructions: 389000001 cycles: 1353117203 heartbeat IPC: 0.323727 cumulative IPC: 0.286842 (Simulation time: 0 hr 33 min 43 sec) 
Heartbeat CPU 0 instructions: 390000001 cycles: 1356338715 heartbeat IPC: 0.310413 cumulative IPC: 0.286898 (Simulation time: 0 hr 33 min 47 sec) 
Heartbeat CPU 0 instructions: 391000003 cycles: 1360837227 heartbeat IPC: 0.222296 cumulative IPC: 0.286685 (Simulation time: 0 hr 33 min 52 sec) 
Heartbeat CPU 0 instructions: 392000000 cycles: 1365370244 heartbeat IPC: 0.220603 cumulative IPC: 0.286465 (Simulation time: 0 hr 33 min 57 sec) 
Heartbeat CPU 0 instructions: 393000003 cycles: 1368969158 heartbeat IPC: 0.277862 cumulative IPC: 0.286443 (Simulation time: 0 hr 34 min 1 sec) 
Heartbeat CPU 0 instructions: 394000003 cycles: 1372295008 heartbeat IPC: 0.300675 cumulative IPC: 0.286477 (Simulation time: 0 hr 34 min 5 sec) 
Heartbeat CPU 0 instructions: 395000001 cycles: 1375050769 heartbeat IPC: 0.362875 cumulative IPC: 0.28663 (Simulation time: 0 hr 34 min 9 sec) 
Heartbeat CPU 0 instructions: 396000000 cycles: 1378832989 heartbeat IPC: 0.264395 cumulative IPC: 0.286569 (Simulation time: 0 hr 34 min 14 sec) 
Heartbeat CPU 0 instructions: 397000003 cycles: 1381601149 heartbeat IPC: 0.361252 cumulative IPC: 0.286719 (Simulation time: 0 hr 34 min 18 sec) 
Heartbeat CPU 0 instructions: 398000001 cycles: 1384160370 heartbeat IPC: 0.390743 cumulative IPC: 0.286911 (Simulation time: 0 hr 34 min 21 sec) 
Heartbeat CPU 0 instructions: 399000001 cycles: 1388293937 heartbeat IPC: 0.241922 cumulative IPC: 0.286777 (Simulation time: 0 hr 34 min 26 sec) 
Heartbeat CPU 0 instructions: 400000000 cycles: 1391383490 heartbeat IPC: 0.323671 cumulative IPC: 0.286859 (Simulation time: 0 hr 34 min 30 sec) 
Heartbeat CPU 0 instructions: 401000003 cycles: 1395291799 heartbeat IPC: 0.255866 cumulative IPC: 0.286772 (Simulation time: 0 hr 34 min 34 sec) 
Heartbeat CPU 0 instructions: 402000000 cycles: 1399809263 heartbeat IPC: 0.221362 cumulative IPC: 0.286561 (Simulation time: 0 hr 34 min 39 sec) 
Heartbeat CPU 0 instructions: 403000000 cycles: 1403200708 heartbeat IPC: 0.29486 cumulative IPC: 0.286581 (Simulation time: 0 hr 34 min 44 sec) 
Heartbeat CPU 0 instructions: 404000000 cycles: 1407476455 heartbeat IPC: 0.233877 cumulative IPC: 0.286421 (Simulation time: 0 hr 34 min 49 sec) 
Heartbeat CPU 0 instructions: 405000001 cycles: 1412193834 heartbeat IPC: 0.211982 cumulative IPC: 0.286172 (Simulation time: 0 hr 34 min 53 sec) 
Heartbeat CPU 0 instructions: 406000003 cycles: 1415960094 heartbeat IPC: 0.265516 cumulative IPC: 0.286118 (Simulation time: 0 hr 34 min 58 sec) 
Heartbeat CPU 0 instructions: 407000000 cycles: 1419810607 heartbeat IPC: 0.259705 cumulative IPC: 0.286046 (Simulation time: 0 hr 35 min 2 sec) 
Heartbeat CPU 0 instructions: 408000001 cycles: 1422562461 heartbeat IPC: 0.363392 cumulative IPC: 0.286196 (Simulation time: 0 hr 35 min 6 sec) 
Heartbeat CPU 0 instructions: 409000001 cycles: 1426653241 heartbeat IPC: 0.244452 cumulative IPC: 0.286076 (Simulation time: 0 hr 35 min 11 sec) 
Heartbeat CPU 0 instructions: 410000000 cycles: 1430393697 heartbeat IPC: 0.267347 cumulative IPC: 0.286027 (Simulation time: 0 hr 35 min 15 sec) 
Heartbeat CPU 0 instructions: 411000000 cycles: 1433250413 heartbeat IPC: 0.350052 cumulative IPC: 0.286154 (Simulation time: 0 hr 35 min 19 sec) 
Heartbeat CPU 0 instructions: 412000003 cycles: 1437046262 heartbeat IPC: 0.263446 cumulative IPC: 0.286094 (Simulation time: 0 hr 35 min 24 sec) 
Heartbeat CPU 0 instructions: 413000001 cycles: 1440416155 heartbeat IPC: 0.296745 cumulative IPC: 0.286119 (Simulation time: 0 hr 35 min 28 sec) 
Heartbeat CPU 0 instructions: 414000000 cycles: 1445265805 heartbeat IPC: 0.2062 cumulative IPC: 0.285851 (Simulation time: 0 hr 35 min 33 sec) 
Heartbeat CPU 0 instructions: 415000001 cycles: 1449616576 heartbeat IPC: 0.229845 cumulative IPC: 0.285683 (Simulation time: 0 hr 35 min 38 sec) 
Heartbeat CPU 0 instructions: 416000000 cycles: 1452780407 heartbeat IPC: 0.316072 cumulative IPC: 0.285749 (Simulation time: 0 hr 35 min 42 sec) 
Heartbeat CPU 0 instructions: 417000002 cycles: 1456432870 heartbeat IPC: 0.273788 cumulative IPC: 0.285719 (Simulation time: 0 hr 35 min 46 sec) 
Heartbeat CPU 0 instructions: 418000000 cycles: 1460660055 heartbeat IPC: 0.236564 cumulative IPC: 0.285577 (Simulation time: 0 hr 35 min 51 sec) 
Heartbeat CPU 0 instructions: 419000002 cycles: 1463573506 heartbeat IPC: 0.343236 cumulative IPC: 0.285692 (Simulation time: 0 hr 35 min 55 sec) 
Heartbeat CPU 0 instructions: 420000003 cycles: 1468043072 heartbeat IPC: 0.223736 cumulative IPC: 0.285503 (Simulation time: 0 hr 36 min 0 sec) 
Heartbeat CPU 0 instructions: 421000002 cycles: 1472175127 heartbeat IPC: 0.24201 cumulative IPC: 0.285381 (Simulation time: 0 hr 36 min 4 sec) 
Heartbeat CPU 0 instructions: 422000001 cycles: 1475545734 heartbeat IPC: 0.296682 cumulative IPC: 0.285407 (Simulation time: 0 hr 36 min 9 sec) 
Heartbeat CPU 0 instructions: 423000000 cycles: 1479525520 heartbeat IPC: 0.25127 cumulative IPC: 0.285315 (Simulation time: 0 hr 36 min 13 sec) 
Heartbeat CPU 0 instructions: 424000001 cycles: 1482743893 heartbeat IPC: 0.310716 cumulative IPC: 0.28537 (Simulation time: 0 hr 36 min 18 sec) 
Heartbeat CPU 0 instructions: 425000001 cycles: 1487008077 heartbeat IPC: 0.234511 cumulative IPC: 0.285224 (Simulation time: 0 hr 36 min 22 sec) 
Heartbeat CPU 0 instructions: 426000002 cycles: 1490409671 heartbeat IPC: 0.29398 cumulative IPC: 0.285244 (Simulation time: 0 hr 36 min 27 sec) 
Heartbeat CPU 0 instructions: 427000000 cycles: 1494210485 heartbeat IPC: 0.263101 cumulative IPC: 0.285188 (Simulation time: 0 hr 36 min 31 sec) 
Heartbeat CPU 0 instructions: 428000000 cycles: 1497947342 heartbeat IPC: 0.267605 cumulative IPC: 0.285144 (Simulation time: 0 hr 36 min 35 sec) 
Heartbeat CPU 0 instructions: 429000000 cycles: 1500688053 heartbeat IPC: 0.364869 cumulative IPC: 0.28529 (Simulation time: 0 hr 36 min 39 sec) 
Heartbeat CPU 0 instructions: 430000002 cycles: 1503324970 heartbeat IPC: 0.379232 cumulative IPC: 0.285454 (Simulation time: 0 hr 36 min 43 sec) 
Heartbeat CPU 0 instructions: 431000002 cycles: 1507219322 heartbeat IPC: 0.256782 cumulative IPC: 0.28538 (Simulation time: 0 hr 36 min 48 sec) 
Heartbeat CPU 0 instructions: 432000001 cycles: 1510674727 heartbeat IPC: 0.289401 cumulative IPC: 0.285389 (Simulation time: 0 hr 36 min 52 sec) 
Heartbeat CPU 0 instructions: 433000002 cycles: 1514065206 heartbeat IPC: 0.294944 cumulative IPC: 0.285411 (Simulation time: 0 hr 36 min 57 sec) 
Heartbeat CPU 0 instructions: 434000003 cycles: 1518082724 heartbeat IPC: 0.24891 cumulative IPC: 0.285314 (Simulation time: 0 hr 37 min 2 sec) 
Heartbeat CPU 0 instructions: 435000002 cycles: 1522475903 heartbeat IPC: 0.227625 cumulative IPC: 0.285148 (Simulation time: 0 hr 37 min 7 sec) 
Heartbeat CPU 0 instructions: 436000002 cycles: 1526001728 heartbeat IPC: 0.283622 cumulative IPC: 0.285144 (Simulation time: 0 hr 37 min 11 sec) 
Heartbeat CPU 0 instructions: 437000000 cycles: 1530254859 heartbeat IPC: 0.23512 cumulative IPC: 0.285005 (Simulation time: 0 hr 37 min 16 sec) 
Heartbeat CPU 0 instructions: 438000001 cycles: 1533027502 heartbeat IPC: 0.360667 cumulative IPC: 0.285142 (Simulation time: 0 hr 37 min 20 sec) 
Heartbeat CPU 0 instructions: 439000003 cycles: 1537326907 heartbeat IPC: 0.232591 cumulative IPC: 0.284995 (Simulation time: 0 hr 37 min 25 sec) 
Heartbeat CPU 0 instructions: 440000000 cycles: 1541102272 heartbeat IPC: 0.264874 cumulative IPC: 0.284946 (Simulation time: 0 hr 37 min 29 sec) 
Heartbeat CPU 0 instructions: 441000003 cycles: 1544896137 heartbeat IPC: 0.263584 cumulative IPC: 0.284893 (Simulation time: 0 hr 37 min 34 sec) 
Heartbeat CPU 0 instructions: 442000001 cycles: 1548142103 heartbeat IPC: 0.308074 cumulative IPC: 0.284942 (Simulation time: 0 hr 37 min 38 sec) 
Heartbeat CPU 0 instructions: 443000002 cycles: 1551180903 heartbeat IPC: 0.329078 cumulative IPC: 0.285028 (Simulation time: 0 hr 37 min 42 sec) 
Heartbeat CPU 0 instructions: 444000002 cycles: 1555433617 heartbeat IPC: 0.235144 cumulative IPC: 0.284892 (Simulation time: 0 hr 37 min 47 sec) 
Heartbeat CPU 0 instructions: 445000000 cycles: 1559031972 heartbeat IPC: 0.277904 cumulative IPC: 0.284876 (Simulation time: 0 hr 37 min 51 sec) 
Heartbeat CPU 0 instructions: 446000000 cycles: 1562661700 heartbeat IPC: 0.275503 cumulative IPC: 0.284854 (Simulation time: 0 hr 37 min 55 sec) 
Heartbeat CPU 0 instructions: 447000000 cycles: 1566921879 heartbeat IPC: 0.234732 cumulative IPC: 0.284718 (Simulation time: 0 hr 38 min 0 sec) 
Heartbeat CPU 0 instructions: 448000000 cycles: 1571766013 heartbeat IPC: 0.206435 cumulative IPC: 0.284476 (Simulation time: 0 hr 38 min 6 sec) 
Heartbeat CPU 0 instructions: 449000003 cycles: 1574977500 heartbeat IPC: 0.311383 cumulative IPC: 0.284531 (Simulation time: 0 hr 38 min 10 sec) 
Heartbeat CPU 0 instructions: 450000003 cycles: 1578777089 heartbeat IPC: 0.263186 cumulative IPC: 0.28448 (Simulation time: 0 hr 38 min 14 sec) 

Warmup complete CPU 0 instructions: 450000003 cycles: 1578777089 (Simulation time: 0 hr 38 min 14 sec) 

Heartbeat CPU 0 instructions: 451000000 cycles: 1580960931 heartbeat IPC: 0.457907 cumulative IPC: 0.457907 (Simulation time: 0 hr 38 min 18 sec) 
Heartbeat CPU 0 instructions: 452000003 cycles: 1583656543 heartbeat IPC: 0.370974 cumulative IPC: 0.409882 (Simulation time: 0 hr 38 min 22 sec) 
Heartbeat CPU 0 instructions: 453000002 cycles: 1586176679 heartbeat IPC: 0.396804 cumulative IPC: 0.405428 (Simulation time: 0 hr 38 min 26 sec) 
Heartbeat CPU 0 instructions: 454000001 cycles: 1588520401 heartbeat IPC: 0.426671 cumulative IPC: 0.410538 (Simulation time: 0 hr 38 min 30 sec) 
Heartbeat CPU 0 instructions: 455000000 cycles: 1590946041 heartbeat IPC: 0.412262 cumulative IPC: 0.410881 (Simulation time: 0 hr 38 min 33 sec) 
Heartbeat CPU 0 instructions: 456000001 cycles: 1592986318 heartbeat IPC: 0.49013 cumulative IPC: 0.422261 (Simulation time: 0 hr 38 min 37 sec) 
Heartbeat CPU 0 instructions: 457000001 cycles: 1595545881 heartbeat IPC: 0.390692 cumulative IPC: 0.417442 (Simulation time: 0 hr 38 min 41 sec) 
Heartbeat CPU 0 instructions: 458000001 cycles: 1598372921 heartbeat IPC: 0.353727 cumulative IPC: 0.40825 (Simulation time: 0 hr 38 min 45 sec) 
Heartbeat CPU 0 instructions: 459000003 cycles: 1601011381 heartbeat IPC: 0.37901 cumulative IPC: 0.40478 (Simulation time: 0 hr 38 min 49 sec) 
Heartbeat CPU 0 instructions: 460000000 cycles: 1603479525 heartbeat IPC: 0.405162 cumulative IPC: 0.404818 (Simulation time: 0 hr 38 min 53 sec) 
Heartbeat CPU 0 instructions: 461000003 cycles: 1606109848 heartbeat IPC: 0.380183 cumulative IPC: 0.402447 (Simulation time: 0 hr 38 min 57 sec) 
Heartbeat CPU 0 instructions: 462000000 cycles: 1608454732 heartbeat IPC: 0.426459 cumulative IPC: 0.404345 (Simulation time: 0 hr 39 min 1 sec) 
Heartbeat CPU 0 instructions: 463000003 cycles: 1611142506 heartbeat IPC: 0.372056 cumulative IPC: 0.401663 (Simulation time: 0 hr 39 min 5 sec) 
Heartbeat CPU 0 instructions: 464000002 cycles: 1613691543 heartbeat IPC: 0.392305 cumulative IPC: 0.40098 (Simulation time: 0 hr 39 min 9 sec) 
Heartbeat CPU 0 instructions: 465000000 cycles: 1615834632 heartbeat IPC: 0.466615 cumulative IPC: 0.404776 (Simulation time: 0 hr 39 min 12 sec) 
Heartbeat CPU 0 instructions: 466000002 cycles: 1617373455 heartbeat IPC: 0.649849 cumulative IPC: 0.414547 (Simulation time: 0 hr 39 min 16 sec) 
Heartbeat CPU 0 instructions: 467000001 cycles: 1619808575 heartbeat IPC: 0.410657 cumulative IPC: 0.414316 (Simulation time: 0 hr 39 min 19 sec) 
Heartbeat CPU 0 instructions: 468000003 cycles: 1622035044 heartbeat IPC: 0.449143 cumulative IPC: 0.416108 (Simulation time: 0 hr 39 min 23 sec) 
Heartbeat CPU 0 instructions: 469000003 cycles: 1624251103 heartbeat IPC: 0.451252 cumulative IPC: 0.417821 (Simulation time: 0 hr 39 min 27 sec) 
Heartbeat CPU 0 instructions: 470000000 cycles: 1626508817 heartbeat IPC: 0.442925 cumulative IPC: 0.419008 (Simulation time: 0 hr 39 min 30 sec) 
Heartbeat CPU 0 instructions: 471000003 cycles: 1628606595 heartbeat IPC: 0.476696 cumulative IPC: 0.421437 (Simulation time: 0 hr 39 min 34 sec) 
Heartbeat CPU 0 instructions: 472000000 cycles: 1631228758 heartbeat IPC: 0.381363 cumulative IPC: 0.419434 (Simulation time: 0 hr 39 min 38 sec) 
Heartbeat CPU 0 instructions: 473000000 cycles: 1634066215 heartbeat IPC: 0.352428 cumulative IPC: 0.415995 (Simulation time: 0 hr 39 min 42 sec) 
Heartbeat CPU 0 instructions: 474000000 cycles: 1636430962 heartbeat IPC: 0.422878 cumulative IPC: 0.416277 (Simulation time: 0 hr 39 min 46 sec) 
Heartbeat CPU 0 instructions: 475000000 cycles: 1638323289 heartbeat IPC: 0.52845 cumulative IPC: 0.419842 (Simulation time: 0 hr 39 min 49 sec) 
Heartbeat CPU 0 instructions: 476000003 cycles: 1640737165 heartbeat IPC: 0.414273 cumulative IPC: 0.419625 (Simulation time: 0 hr 39 min 53 sec) 
Heartbeat CPU 0 instructions: 477000000 cycles: 1642955330 heartbeat IPC: 0.450822 cumulative IPC: 0.420703 (Simulation time: 0 hr 39 min 57 sec) 
Heartbeat CPU 0 instructions: 478000003 cycles: 1645325805 heartbeat IPC: 0.421858 cumulative IPC: 0.420744 (Simulation time: 0 hr 40 min 1 sec) 
Heartbeat CPU 0 instructions: 479000002 cycles: 1647878859 heartbeat IPC: 0.391687 cumulative IPC: 0.419671 (Simulation time: 0 hr 40 min 4 sec) 
Heartbeat CPU 0 instructions: 480000003 cycles: 1650706125 heartbeat IPC: 0.353699 cumulative IPC: 0.417078 (Simulation time: 0 hr 40 min 9 sec) 
Heartbeat CPU 0 instructions: 481000001 cycles: 1652698892 heartbeat IPC: 0.501814 cumulative IPC: 0.419362 (Simulation time: 0 hr 40 min 12 sec) 
Heartbeat CPU 0 instructions: 482000002 cycles: 1655322220 heartbeat IPC: 0.381196 cumulative IPC: 0.418054 (Simulation time: 0 hr 40 min 16 sec) 
Heartbeat CPU 0 instructions: 483000002 cycles: 1657324679 heartbeat IPC: 0.499386 cumulative IPC: 0.420127 (Simulation time: 0 hr 40 min 20 sec) 
Heartbeat CPU 0 instructions: 484000000 cycles: 1659636552 heartbeat IPC: 0.432549 cumulative IPC: 0.420483 (Simulation time: 0 hr 40 min 23 sec) 
Heartbeat CPU 0 instructions: 485000001 cycles: 1661729139 heartbeat IPC: 0.477878 cumulative IPC: 0.42193 (Simulation time: 0 hr 40 min 27 sec) 
Heartbeat CPU 0 instructions: 486000002 cycles: 1663409432 heartbeat IPC: 0.595135 cumulative IPC: 0.425369 (Simulation time: 0 hr 40 min 30 sec) 
Heartbeat CPU 0 instructions: 487000001 cycles: 1665564540 heartbeat IPC: 0.464013 cumulative IPC: 0.426329 (Simulation time: 0 hr 40 min 34 sec) 
Heartbeat CPU 0 instructions: 488000002 cycles: 1668295241 heartbeat IPC: 0.366207 cumulative IPC: 0.424495 (Simulation time: 0 hr 40 min 38 sec) 
Heartbeat CPU 0 instructions: 489000000 cycles: 1670515709 heartbeat IPC: 0.450355 cumulative IPC: 0.425121 (Simulation time: 0 hr 40 min 41 sec) 
Heartbeat CPU 0 instructions: 490000001 cycles: 1672781637 heartbeat IPC: 0.441321 cumulative IPC: 0.425511 (Simulation time: 0 hr 40 min 45 sec) 
Heartbeat CPU 0 instructions: 491000000 cycles: 1675604292 heartbeat IPC: 0.354276 cumulative IPC: 0.423435 (Simulation time: 0 hr 40 min 49 sec) 
Heartbeat CPU 0 instructions: 492000003 cycles: 1677911070 heartbeat IPC: 0.433506 cumulative IPC: 0.423669 (Simulation time: 0 hr 40 min 53 sec) 
Heartbeat CPU 0 instructions: 493000003 cycles: 1679815680 heartbeat IPC: 0.525042 cumulative IPC: 0.42558 (Simulation time: 0 hr 40 min 57 sec) 
Heartbeat CPU 0 instructions: 494000000 cycles: 1682497751 heartbeat IPC: 0.372845 cumulative IPC: 0.424216 (Simulation time: 0 hr 41 min 0 sec) 
Heartbeat CPU 0 instructions: 495000000 cycles: 1684556157 heartbeat IPC: 0.485813 cumulative IPC: 0.425415 (Simulation time: 0 hr 41 min 4 sec) 
Heartbeat CPU 0 instructions: 496000000 cycles: 1687247220 heartbeat IPC: 0.3716 cumulative IPC: 0.42408 (Simulation time: 0 hr 41 min 8 sec) 
Heartbeat CPU 0 instructions: 497000001 cycles: 1689720607 heartbeat IPC: 0.404304 cumulative IPC: 0.423639 (Simulation time: 0 hr 41 min 12 sec) 
Heartbeat CPU 0 instructions: 498000002 cycles: 1692037215 heartbeat IPC: 0.431666 cumulative IPC: 0.423803 (Simulation time: 0 hr 41 min 16 sec) 
Heartbeat CPU 0 instructions: 499000000 cycles: 1694155924 heartbeat IPC: 0.471985 cumulative IPC: 0.424688 (Simulation time: 0 hr 41 min 19 sec) 
Heartbeat CPU 0 instructions: 500000001 cycles: 1695953840 heartbeat IPC: 0.5562 cumulative IPC: 0.426706 (Simulation time: 0 hr 41 min 23 sec) 
Heartbeat CPU 0 instructions: 501000003 cycles: 1698483597 heartbeat IPC: 0.395296 cumulative IPC: 0.426042 (Simulation time: 0 hr 41 min 26 sec) 
Heartbeat CPU 0 instructions: 502000001 cycles: 1701305883 heartbeat IPC: 0.354322 cumulative IPC: 0.42439 (Simulation time: 0 hr 41 min 30 sec) 
Heartbeat CPU 0 instructions: 503000002 cycles: 1703985746 heartbeat IPC: 0.373154 cumulative IPC: 0.423293 (Simulation time: 0 hr 41 min 34 sec) 
Heartbeat CPU 0 instructions: 504000000 cycles: 1706054454 heartbeat IPC: 0.483393 cumulative IPC: 0.42427 (Simulation time: 0 hr 41 min 38 sec) 
Heartbeat CPU 0 instructions: 505000001 cycles: 1708464874 heartbeat IPC: 0.414866 cumulative IPC: 0.424095 (Simulation time: 0 hr 41 min 42 sec) 
Heartbeat CPU 0 instructions: 506000000 cycles: 1710770424 heartbeat IPC: 0.433736 cumulative IPC: 0.424264 (Simulation time: 0 hr 41 min 45 sec) 
Heartbeat CPU 0 instructions: 507000001 cycles: 1713471831 heartbeat IPC: 0.370178 cumulative IPC: 0.423179 (Simulation time: 0 hr 41 min 49 sec) 
Heartbeat CPU 0 instructions: 508000000 cycles: 1715500457 heartbeat IPC: 0.492944 cumulative IPC: 0.424214 (Simulation time: 0 hr 41 min 53 sec) 
Heartbeat CPU 0 instructions: 509000001 cycles: 1718265049 heartbeat IPC: 0.361717 cumulative IPC: 0.422976 (Simulation time: 0 hr 41 min 57 sec) 
Heartbeat CPU 0 instructions: 510000000 cycles: 1720787715 heartbeat IPC: 0.396406 cumulative IPC: 0.422504 (Simulation time: 0 hr 42 min 1 sec) 
Heartbeat CPU 0 instructions: 511000002 cycles: 1723077621 heartbeat IPC: 0.4367 cumulative IPC: 0.422729 (Simulation time: 0 hr 42 min 4 sec) 
Heartbeat CPU 0 instructions: 512000001 cycles: 1725443203 heartbeat IPC: 0.422729 cumulative IPC: 0.422729 (Simulation time: 0 hr 42 min 8 sec) 
Heartbeat CPU 0 instructions: 513000000 cycles: 1727415913 heartbeat IPC: 0.506916 cumulative IPC: 0.423846 (Simulation time: 0 hr 42 min 12 sec) 
Heartbeat CPU 0 instructions: 514000002 cycles: 1729893948 heartbeat IPC: 0.403546 cumulative IPC: 0.423513 (Simulation time: 0 hr 42 min 15 sec) 
Heartbeat CPU 0 instructions: 515000001 cycles: 1732736118 heartbeat IPC: 0.351843 cumulative IPC: 0.42219 (Simulation time: 0 hr 42 min 19 sec) 
Heartbeat CPU 0 instructions: 516000003 cycles: 1735390758 heartbeat IPC: 0.3767 cumulative IPC: 0.421419 (Simulation time: 0 hr 42 min 23 sec) 
Heartbeat CPU 0 instructions: 517000000 cycles: 1738369148 heartbeat IPC: 0.335751 cumulative IPC: 0.41982 (Simulation time: 0 hr 42 min 27 sec) 
Heartbeat CPU 0 instructions: 518000001 cycles: 1740354735 heartbeat IPC: 0.50363 cumulative IPC: 0.42085 (Simulation time: 0 hr 42 min 31 sec) 
Heartbeat CPU 0 instructions: 519000003 cycles: 1742616345 heartbeat IPC: 0.442164 cumulative IPC: 0.421144 (Simulation time: 0 hr 42 min 35 sec) 
Heartbeat CPU 0 instructions: 520000000 cycles: 1744871433 heartbeat IPC: 0.44344 cumulative IPC: 0.421447 (Simulation time: 0 hr 42 min 38 sec) 
Heartbeat CPU 0 instructions: 521000002 cycles: 1746742046 heartbeat IPC: 0.534585 cumulative IPC: 0.422707 (Simulation time: 0 hr 42 min 42 sec) 
Heartbeat CPU 0 instructions: 522000002 cycles: 1749233787 heartbeat IPC: 0.401326 cumulative IPC: 0.422395 (Simulation time: 0 hr 42 min 46 sec) 
Heartbeat CPU 0 instructions: 523000002 cycles: 1750947613 heartbeat IPC: 0.58349 cumulative IPC: 0.423998 (Simulation time: 0 hr 42 min 49 sec) 
Heartbeat CPU 0 instructions: 524000000 cycles: 1753420704 heartbeat IPC: 0.404351 cumulative IPC: 0.42372 (Simulation time: 0 hr 42 min 53 sec) 
Heartbeat CPU 0 instructions: 525000003 cycles: 1756057430 heartbeat IPC: 0.379259 cumulative IPC: 0.423059 (Simulation time: 0 hr 42 min 57 sec) 
Heartbeat CPU 0 instructions: 526000002 cycles: 1758450304 heartbeat IPC: 0.417907 cumulative IPC: 0.42299 (Simulation time: 0 hr 43 min 0 sec) 
Heartbeat CPU 0 instructions: 527000003 cycles: 1760531778 heartbeat IPC: 0.480429 cumulative IPC: 0.423648 (Simulation time: 0 hr 43 min 4 sec) 
Heartbeat CPU 0 instructions: 528000000 cycles: 1762555434 heartbeat IPC: 0.494154 cumulative IPC: 0.424424 (Simulation time: 0 hr 43 min 8 sec) 
Heartbeat CPU 0 instructions: 529000001 cycles: 1764890468 heartbeat IPC: 0.42826 cumulative IPC: 0.424472 (Simulation time: 0 hr 43 min 11 sec) 
Heartbeat CPU 0 instructions: 530000001 cycles: 1767052214 heartbeat IPC: 0.462589 cumulative IPC: 0.42491 (Simulation time: 0 hr 43 min 15 sec) 
Heartbeat CPU 0 instructions: 531000002 cycles: 1769284357 heartbeat IPC: 0.448 cumulative IPC: 0.425181 (Simulation time: 0 hr 43 min 19 sec) 
Heartbeat CPU 0 instructions: 532000001 cycles: 1771403223 heartbeat IPC: 0.47195 cumulative IPC: 0.425695 (Simulation time: 0 hr 43 min 22 sec) 
Heartbeat CPU 0 instructions: 533000003 cycles: 1773456641 heartbeat IPC: 0.486994 cumulative IPC: 0.426342 (Simulation time: 0 hr 43 min 26 sec) 
Heartbeat CPU 0 instructions: 534000001 cycles: 1775790914 heartbeat IPC: 0.428398 cumulative IPC: 0.426366 (Simulation time: 0 hr 43 min 30 sec) 
Heartbeat CPU 0 instructions: 535000001 cycles: 1777962611 heartbeat IPC: 0.460469 cumulative IPC: 0.426738 (Simulation time: 0 hr 43 min 33 sec) 
Heartbeat CPU 0 instructions: 536000002 cycles: 1780520614 heartbeat IPC: 0.39093 cumulative IPC: 0.426284 (Simulation time: 0 hr 43 min 37 sec) 
Heartbeat CPU 0 instructions: 537000002 cycles: 1782518346 heartbeat IPC: 0.500568 cumulative IPC: 0.427012 (Simulation time: 0 hr 43 min 41 sec) 
Heartbeat CPU 0 instructions: 538000001 cycles: 1785157339 heartbeat IPC: 0.378932 cumulative IPC: 0.426397 (Simulation time: 0 hr 43 min 45 sec) 
Heartbeat CPU 0 instructions: 539000000 cycles: 1787884842 heartbeat IPC: 0.366635 cumulative IPC: 0.425618 (Simulation time: 0 hr 43 min 49 sec) 
Heartbeat CPU 0 instructions: 540000003 cycles: 1789896079 heartbeat IPC: 0.497208 cumulative IPC: 0.4263 (Simulation time: 0 hr 43 min 52 sec) 
Heartbeat CPU 0 instructions: 541000002 cycles: 1792168611 heartbeat IPC: 0.440037 cumulative IPC: 0.426446 (Simulation time: 0 hr 43 min 56 sec) 
Heartbeat CPU 0 instructions: 542000003 cycles: 1794295504 heartbeat IPC: 0.47017 cumulative IPC: 0.426878 (Simulation time: 0 hr 44 min 0 sec) 
Heartbeat CPU 0 instructions: 543000000 cycles: 1796667654 heartbeat IPC: 0.421557 cumulative IPC: 0.42682 (Simulation time: 0 hr 44 min 4 sec) 
Heartbeat CPU 0 instructions: 544000000 cycles: 1798735669 heartbeat IPC: 0.483555 cumulative IPC: 0.427353 (Simulation time: 0 hr 44 min 7 sec) 
Heartbeat CPU 0 instructions: 545000001 cycles: 1801176621 heartbeat IPC: 0.409677 cumulative IPC: 0.427159 (Simulation time: 0 hr 44 min 11 sec) 
[...]
Heartbeat CPU 0 instructions: 835000000 cycles: 2481002324 heartbeat IPC: 0.372892 cumulative IPC: 0.426723 (Simulation time: 1 hr 2 min 16 sec) 
Heartbeat CPU 0 instructions: 836000000 cycles: 2483715037 heartbeat IPC: 0.368635 cumulative IPC: 0.426549 (Simulation time: 1 hr 2 min 20 sec) 
Heartbeat CPU 0 instructions: 837000000 cycles: 2485629142 heartbeat IPC: 0.522437 cumulative IPC: 0.426751 (Simulation time: 1 hr 2 min 23 sec) 
Heartbeat CPU 0 instructions: 838000000 cycles: 2488292624 heartbeat IPC: 0.375448 cumulative IPC: 0.426601 (Simulation time: 1 hr 2 min 27 sec) 
Heartbeat CPU 0 instructions: 839000001 cycles: 2490969164 heartbeat IPC: 0.373617 cumulative IPC: 0.426445 (Simulation time: 1 hr 2 min 31 sec) 
Heartbeat CPU 0 instructions: 840000003 cycles: 2493039409 heartbeat IPC: 0.483036 cumulative IPC: 0.426573 (Simulation time: 1 hr 2 min 35 sec) 
Heartbeat CPU 0 instructions: 841000002 cycles: 2495348269 heartbeat IPC: 0.433114 cumulative IPC: 0.42659 (Simulation time: 1 hr 2 min 39 sec) 
Heartbeat CPU 0 instructions: 842000003 cycles: 2498009487 heartbeat IPC: 0.375768 cumulative IPC: 0.426443 (Simulation time: 1 hr 2 min 43 sec) 
Heartbeat CPU 0 instructions: 843000000 cycles: 2500462920 heartbeat IPC: 0.407591 cumulative IPC: 0.426393 (Simulation time: 1 hr 2 min 46 sec) 
Heartbeat CPU 0 instructions: 844000000 cycles: 2502492829 heartbeat IPC: 0.492633 cumulative IPC: 0.426538 (Simulation time: 1 hr 2 min 50 sec) 
Heartbeat CPU 0 instructions: 845000000 cycles: 2504426106 heartbeat IPC: 0.517256 cumulative IPC: 0.426728 (Simulation time: 1 hr 2 min 54 sec) 
Heartbeat CPU 0 instructions: 846000000 cycles: 2507205544 heartbeat IPC: 0.359785 cumulative IPC: 0.426527 (Simulation time: 1 hr 2 min 57 sec) 
Heartbeat CPU 0 instructions: 847000000 cycles: 2509982371 heartbeat IPC: 0.360123 cumulative IPC: 0.426329 (Simulation time: 1 hr 3 min 1 sec) 
Heartbeat CPU 0 instructions: 848000000 cycles: 2512419007 heartbeat IPC: 0.410402 cumulative IPC: 0.426288 (Simulation time: 1 hr 3 min 5 sec) 
Heartbeat CPU 0 instructions: 849000002 cycles: 2514870457 heartbeat IPC: 0.407923 cumulative IPC: 0.42624 (Simulation time: 1 hr 3 min 9 sec) 
Heartbeat CPU 0 instructions: 850000001 cycles: 2516964669 heartbeat IPC: 0.477506 cumulative IPC: 0.426354 (Simulation time: 1 hr 3 min 13 sec) 
Heartbeat CPU 0 instructions: 851000001 cycles: 2519250803 heartbeat IPC: 0.43742 cumulative IPC: 0.426381 (Simulation time: 1 hr 3 min 16 sec) 
Heartbeat CPU 0 instructions: 852000001 cycles: 2521195106 heartbeat IPC: 0.514323 cumulative IPC: 0.426562 (Simulation time: 1 hr 3 min 20 sec) 
Heartbeat CPU 0 instructions: 853000001 cycles: 2523230271 heartbeat IPC: 0.491361 cumulative IPC: 0.426702 (Simulation time: 1 hr 3 min 23 sec) 
Heartbeat CPU 0 instructions: 854000002 cycles: 2525411957 heartbeat IPC: 0.458362 cumulative IPC: 0.426775 (Simulation time: 1 hr 3 min 27 sec) 
Heartbeat CPU 0 instructions: 855000002 cycles: 2528234085 heartbeat IPC: 0.354343 cumulative IPC: 0.42656 (Simulation time: 1 hr 3 min 31 sec) 
Heartbeat CPU 0 instructions: 856000000 cycles: 2530913645 heartbeat IPC: 0.373195 cumulative IPC: 0.426409 (Simulation time: 1 hr 3 min 35 sec) 
Heartbeat CPU 0 instructions: 857000000 cycles: 2532868544 heartbeat IPC: 0.511535 cumulative IPC: 0.426584 (Simulation time: 1 hr 3 min 38 sec) 
Heartbeat CPU 0 instructions: 858000000 cycles: 2535273008 heartbeat IPC: 0.415893 cumulative IPC: 0.426557 (Simulation time: 1 hr 3 min 42 sec) 
Heartbeat CPU 0 instructions: 859000002 cycles: 2537693176 heartbeat IPC: 0.413195 cumulative IPC: 0.426523 (Simulation time: 1 hr 3 min 46 sec) 
Heartbeat CPU 0 instructions: 860000000 cycles: 2540572947 heartbeat IPC: 0.347249 cumulative IPC: 0.426286 (Simulation time: 1 hr 3 min 50 sec) 
Heartbeat CPU 0 instructions: 861000000 cycles: 2543040473 heartbeat IPC: 0.405264 cumulative IPC: 0.426232 (Simulation time: 1 hr 3 min 53 sec) 
Heartbeat CPU 0 instructions: 862000003 cycles: 2545824781 heartbeat IPC: 0.359157 cumulative IPC: 0.426039 (Simulation time: 1 hr 3 min 57 sec) 
Heartbeat CPU 0 instructions: 863000000 cycles: 2547808578 heartbeat IPC: 0.504082 cumulative IPC: 0.426199 (Simulation time: 1 hr 4 min 1 sec) 
Heartbeat CPU 0 instructions: 864000003 cycles: 2550640875 heartbeat IPC: 0.353071 cumulative IPC: 0.425986 (Simulation time: 1 hr 4 min 5 sec) 
Heartbeat CPU 0 instructions: 865000002 cycles: 2553539144 heartbeat IPC: 0.345033 cumulative IPC: 0.425745 (Simulation time: 1 hr 4 min 9 sec) 
Heartbeat CPU 0 instructions: 866000000 cycles: 2555687667 heartbeat IPC: 0.465435 cumulative IPC: 0.425832 (Simulation time: 1 hr 4 min 13 sec) 
Heartbeat CPU 0 instructions: 867000002 cycles: 2558447168 heartbeat IPC: 0.362385 cumulative IPC: 0.425653 (Simulation time: 1 hr 4 min 17 sec) 
Heartbeat CPU 0 instructions: 868000000 cycles: 2561120137 heartbeat IPC: 0.374115 cumulative IPC: 0.425513 (Simulation time: 1 hr 4 min 20 sec) 
Heartbeat CPU 0 instructions: 869000000 cycles: 2563347220 heartbeat IPC: 0.449018 cumulative IPC: 0.425566 (Simulation time: 1 hr 4 min 24 sec) 
Heartbeat CPU 0 instructions: 870000003 cycles: 2565326898 heartbeat IPC: 0.505134 cumulative IPC: 0.425726 (Simulation time: 1 hr 4 min 28 sec) 
Heartbeat CPU 0 instructions: 871000001 cycles: 2568113474 heartbeat IPC: 0.358863 cumulative IPC: 0.425538 (Simulation time: 1 hr 4 min 32 sec) 
Heartbeat CPU 0 instructions: 872000003 cycles: 2570997415 heartbeat IPC: 0.346748 cumulative IPC: 0.425309 (Simulation time: 1 hr 4 min 36 sec) 
Heartbeat CPU 0 instructions: 873000002 cycles: 2573626049 heartbeat IPC: 0.380425 cumulative IPC: 0.42519 (Simulation time: 1 hr 4 min 40 sec) 
Heartbeat CPU 0 instructions: 874000000 cycles: 2575936656 heartbeat IPC: 0.432786 cumulative IPC: 0.425208 (Simulation time: 1 hr 4 min 44 sec) 
Heartbeat CPU 0 instructions: 875000000 cycles: 2578193214 heartbeat IPC: 0.443153 cumulative IPC: 0.425248 (Simulation time: 1 hr 4 min 47 sec) 
Heartbeat CPU 0 instructions: 876000000 cycles: 2580889308 heartbeat IPC: 0.370907 cumulative IPC: 0.425102 (Simulation time: 1 hr 4 min 51 sec) 
Heartbeat CPU 0 instructions: 877000001 cycles: 2583817711 heartbeat IPC: 0.341483 cumulative IPC: 0.424858 (Simulation time: 1 hr 4 min 55 sec) 
Heartbeat CPU 0 instructions: 878000002 cycles: 2586777844 heartbeat IPC: 0.337823 cumulative IPC: 0.424603 (Simulation time: 1 hr 4 min 58 sec) 
Heartbeat CPU 0 instructions: 879000002 cycles: 2589265177 heartbeat IPC: 0.402037 cumulative IPC: 0.424547 (Simulation time: 1 hr 5 min 2 sec) 
Heartbeat CPU 0 instructions: 880000000 cycles: 2591313910 heartbeat IPC: 0.488106 cumulative IPC: 0.424676 (Simulation time: 1 hr 5 min 6 sec) 
Heartbeat CPU 0 instructions: 881000000 cycles: 2594332903 heartbeat IPC: 0.331236 cumulative IPC: 0.424398 (Simulation time: 1 hr 5 min 10 sec) 
Heartbeat CPU 0 instructions: 882000001 cycles: 2597090752 heartbeat IPC: 0.362602 cumulative IPC: 0.424231 (Simulation time: 1 hr 5 min 14 sec) 
Heartbeat CPU 0 instructions: 883000003 cycles: 2598891854 heartbeat IPC: 0.555217 cumulative IPC: 0.424462 (Simulation time: 1 hr 5 min 17 sec) 
Heartbeat CPU 0 instructions: 884000002 cycles: 2601493030 heartbeat IPC: 0.384441 cumulative IPC: 0.42436 (Simulation time: 1 hr 5 min 21 sec) 
Heartbeat CPU 0 instructions: 885000000 cycles: 2604247676 heartbeat IPC: 0.363022 cumulative IPC: 0.424195 (Simulation time: 1 hr 5 min 25 sec) 
Heartbeat CPU 0 instructions: 886000001 cycles: 2606449248 heartbeat IPC: 0.454221 cumulative IPC: 0.42426 (Simulation time: 1 hr 5 min 28 sec) 
Heartbeat CPU 0 instructions: 887000000 cycles: 2608434919 heartbeat IPC: 0.503608 cumulative IPC: 0.424413 (Simulation time: 1 hr 5 min 32 sec) 
Heartbeat CPU 0 instructions: 888000000 cycles: 2611331074 heartbeat IPC: 0.345285 cumulative IPC: 0.424191 (Simulation time: 1 hr 5 min 36 sec) 
Heartbeat CPU 0 instructions: 889000003 cycles: 2614096426 heartbeat IPC: 0.361619 cumulative IPC: 0.424024 (Simulation time: 1 hr 5 min 40 sec) 
Heartbeat CPU 0 instructions: 890000000 cycles: 2616828350 heartbeat IPC: 0.366041 cumulative IPC: 0.423871 (Simulation time: 1 hr 5 min 44 sec) 
Heartbeat CPU 0 instructions: 891000000 cycles: 2619235027 heartbeat IPC: 0.415511 cumulative IPC: 0.423852 (Simulation time: 1 hr 5 min 47 sec) 
Heartbeat CPU 0 instructions: 892000001 cycles: 2621379353 heartbeat IPC: 0.466347 cumulative IPC: 0.423939 (Simulation time: 1 hr 5 min 51 sec) 
Heartbeat CPU 0 instructions: 893000002 cycles: 2623184182 heartbeat IPC: 0.55407 cumulative IPC: 0.424164 (Simulation time: 1 hr 5 min 54 sec) 
Heartbeat CPU 0 instructions: 894000000 cycles: 2624881946 heartbeat IPC: 0.589009 cumulative IPC: 0.424432 (Simulation time: 1 hr 5 min 57 sec) 
Heartbeat CPU 0 instructions: 895000002 cycles: 2627787956 heartbeat IPC: 0.344115 cumulative IPC: 0.424209 (Simulation time: 1 hr 6 min 1 sec) 
Heartbeat CPU 0 instructions: 896000002 cycles: 2630698745 heartbeat IPC: 0.343549 cumulative IPC: 0.423986 (Simulation time: 1 hr 6 min 5 sec) 
Heartbeat CPU 0 instructions: 897000001 cycles: 2633172721 heartbeat IPC: 0.404207 cumulative IPC: 0.42394 (Simulation time: 1 hr 6 min 9 sec) 
Heartbeat CPU 0 instructions: 898000001 cycles: 2635828336 heartbeat IPC: 0.376561 cumulative IPC: 0.42382 (Simulation time: 1 hr 6 min 12 sec) 
Heartbeat CPU 0 instructions: 899000003 cycles: 2638285289 heartbeat IPC: 0.407009 cumulative IPC: 0.423782 (Simulation time: 1 hr 6 min 16 sec) 
Heartbeat CPU 0 instructions: 900000001 cycles: 2640296500 heartbeat IPC: 0.497212 cumulative IPC: 0.423921 (Simulation time: 1 hr 6 min 20 sec) 
Heartbeat CPU 0 instructions: 901000000 cycles: 2643173871 heartbeat IPC: 0.347539 cumulative IPC: 0.423714 (Simulation time: 1 hr 6 min 24 sec) 
Heartbeat CPU 0 instructions: 902000000 cycles: 2646142164 heartbeat IPC: 0.336894 cumulative IPC: 0.423473 (Simulation time: 1 hr 6 min 28 sec) 
Heartbeat CPU 0 instructions: 903000003 cycles: 2648871723 heartbeat IPC: 0.366361 cumulative IPC: 0.423327 (Simulation time: 1 hr 6 min 32 sec) 
Heartbeat CPU 0 instructions: 904000001 cycles: 2651354193 heartbeat IPC: 0.402824 cumulative IPC: 0.42328 (Simulation time: 1 hr 6 min 35 sec) 
Heartbeat CPU 0 instructions: 905000002 cycles: 2653452749 heartbeat IPC: 0.476519 cumulative IPC: 0.423384 (Simulation time: 1 hr 6 min 39 sec) 
Heartbeat CPU 0 instructions: 906000002 cycles: 2655754052 heartbeat IPC: 0.434536 cumulative IPC: 0.423407 (Simulation time: 1 hr 6 min 43 sec) 
Heartbeat CPU 0 instructions: 907000002 cycles: 2657749714 heartbeat IPC: 0.501087 cumulative IPC: 0.423551 (Simulation time: 1 hr 6 min 46 sec) 
Heartbeat CPU 0 instructions: 908000003 cycles: 2659907712 heartbeat IPC: 0.463393 cumulative IPC: 0.423631 (Simulation time: 1 hr 6 min 50 sec) 
Heartbeat CPU 0 instructions: 909000002 cycles: 2661835149 heartbeat IPC: 0.518823 cumulative IPC: 0.4238 (Simulation time: 1 hr 6 min 53 sec) 
Heartbeat CPU 0 instructions: 910000001 cycles: 2664298097 heartbeat IPC: 0.406017 cumulative IPC: 0.42376 (Simulation time: 1 hr 6 min 57 sec) 
Heartbeat CPU 0 instructions: 911000000 cycles: 2666986217 heartbeat IPC: 0.372007 cumulative IPC: 0.423632 (Simulation time: 1 hr 7 min 1 sec) 
Heartbeat CPU 0 instructions: 912000003 cycles: 2669319982 heartbeat IPC: 0.428493 cumulative IPC: 0.423642 (Simulation time: 1 hr 7 min 4 sec) 
Heartbeat CPU 0 instructions: 913000000 cycles: 2671841322 heartbeat IPC: 0.396613 cumulative IPC: 0.42358 (Simulation time: 1 hr 7 min 8 sec) 
Heartbeat CPU 0 instructions: 914000001 cycles: 2674106287 heartbeat IPC: 0.441508 cumulative IPC: 0.423617 (Simulation time: 1 hr 7 min 12 sec) 
Heartbeat CPU 0 instructions: 915000002 cycles: 2676480628 heartbeat IPC: 0.42117 cumulative IPC: 0.423612 (Simulation time: 1 hr 7 min 16 sec) 
Heartbeat CPU 0 instructions: 916000003 cycles: 2679638680 heartbeat IPC: 0.316651 cumulative IPC: 0.423305 (Simulation time: 1 hr 7 min 20 sec) 
Heartbeat CPU 0 instructions: 917000000 cycles: 2681608900 heartbeat IPC: 0.507556 cumulative IPC: 0.423455 (Simulation time: 1 hr 7 min 24 sec) 
Heartbeat CPU 0 instructions: 918000002 cycles: 2683621892 heartbeat IPC: 0.496774 cumulative IPC: 0.423589 (Simulation time: 1 hr 7 min 27 sec) 
Heartbeat CPU 0 instructions: 919000003 cycles: 2685809244 heartbeat IPC: 0.457174 cumulative IPC: 0.423655 (Simulation time: 1 hr 7 min 30 sec) 
Heartbeat CPU 0 instructions: 920000003 cycles: 2688110441 heartbeat IPC: 0.434556 cumulative IPC: 0.423678 (Simulation time: 1 hr 7 min 34 sec) 
Heartbeat CPU 0 instructions: 921000002 cycles: 2690458073 heartbeat IPC: 0.425961 cumulative IPC: 0.423683 (Simulation time: 1 hr 7 min 38 sec) 
Heartbeat CPU 0 instructions: 922000001 cycles: 2692704153 heartbeat IPC: 0.44522 cumulative IPC: 0.423726 (Simulation time: 1 hr 7 min 42 sec) 
Heartbeat CPU 0 instructions: 923000001 cycles: 2694945707 heartbeat IPC: 0.446119 cumulative IPC: 0.423771 (Simulation time: 1 hr 7 min 45 sec) 
Heartbeat CPU 0 instructions: 924000000 cycles: 2697141316 heartbeat IPC: 0.455454 cumulative IPC: 0.423833 (Simulation time: 1 hr 7 min 49 sec) 
Heartbeat CPU 0 instructions: 925000001 cycles: 2699438777 heartbeat IPC: 0.435264 cumulative IPC: 0.423857 (Simulation time: 1 hr 7 min 52 sec) 
Heartbeat CPU 0 instructions: 926000000 cycles: 2701685794 heartbeat IPC: 0.445034 cumulative IPC: 0.423899 (Simulation time: 1 hr 7 min 56 sec) 
Heartbeat CPU 0 instructions: 927000002 cycles: 2703761164 heartbeat IPC: 0.481843 cumulative IPC: 0.424006 (Simulation time: 1 hr 7 min 59 sec) 
Heartbeat CPU 0 instructions: 928000002 cycles: 2705802515 heartbeat IPC: 0.489872 cumulative IPC: 0.424125 (Simulation time: 1 hr 8 min 3 sec) 
Heartbeat CPU 0 instructions: 929000001 cycles: 2707839968 heartbeat IPC: 0.490808 cumulative IPC: 0.424246 (Simulation time: 1 hr 8 min 6 sec) 
Heartbeat CPU 0 instructions: 930000001 cycles: 2709822424 heartbeat IPC: 0.504425 cumulative IPC: 0.424386 (Simulation time: 1 hr 8 min 9 sec) 
Heartbeat CPU 0 instructions: 931000002 cycles: 2711951600 heartbeat IPC: 0.469666 cumulative IPC: 0.424471 (Simulation time: 1 hr 8 min 13 sec) 
Heartbeat CPU 0 instructions: 932000000 cycles: 2713893123 heartbeat IPC: 0.515059 cumulative IPC: 0.424626 (Simulation time: 1 hr 8 min 17 sec) 
Heartbeat CPU 0 instructions: 933000003 cycles: 2716402009 heartbeat IPC: 0.398584 cumulative IPC: 0.424569 (Simulation time: 1 hr 8 min 20 sec) 
Heartbeat CPU 0 instructions: 934000000 cycles: 2718564522 heartbeat IPC: 0.462424 cumulative IPC: 0.424641 (Simulation time: 1 hr 8 min 24 sec) 
Heartbeat CPU 0 instructions: 935000000 cycles: 2720537574 heartbeat IPC: 0.506829 cumulative IPC: 0.424783 (Simulation time: 1 hr 8 min 27 sec) 
Heartbeat CPU 0 instructions: 936000002 cycles: 2722580285 heartbeat IPC: 0.489546 cumulative IPC: 0.424898 (Simulation time: 1 hr 8 min 31 sec) 
Heartbeat CPU 0 instructions: 937000002 cycles: 2725177027 heartbeat IPC: 0.385098 cumulative IPC: 0.424808 (Simulation time: 1 hr 8 min 35 sec) 
Heartbeat CPU 0 instructions: 938000002 cycles: 2727478417 heartbeat IPC: 0.43452 cumulative IPC: 0.424828 (Simulation time: 1 hr 8 min 38 sec) 
Heartbeat CPU 0 instructions: 939000000 cycles: 2729623833 heartbeat IPC: 0.466109 cumulative IPC: 0.424905 (Simulation time: 1 hr 8 min 42 sec) 
Heartbeat CPU 0 instructions: 940000000 cycles: 2732308765 heartbeat IPC: 0.372449 cumulative IPC: 0.424782 (Simulation time: 1 hr 8 min 46 sec) 
Heartbeat CPU 0 instructions: 941000003 cycles: 2734735147 heartbeat IPC: 0.412138 cumulative IPC: 0.424756 (Simulation time: 1 hr 8 min 50 sec) 
Heartbeat CPU 0 instructions: 942000000 cycles: 2737221806 heartbeat IPC: 0.402145 cumulative IPC: 0.424707 (Simulation time: 1 hr 8 min 54 sec) 
Heartbeat CPU 0 instructions: 943000001 cycles: 2739629480 heartbeat IPC: 0.415339 cumulative IPC: 0.424688 (Simulation time: 1 hr 8 min 57 sec) 
Heartbeat CPU 0 instructions: 944000000 cycles: 2741520801 heartbeat IPC: 0.52873 cumulative IPC: 0.424857 (Simulation time: 1 hr 9 min 1 sec) 
Heartbeat CPU 0 instructions: 945000001 cycles: 2744094811 heartbeat IPC: 0.388499 cumulative IPC: 0.424777 (Simulation time: 1 hr 9 min 5 sec) 
Heartbeat CPU 0 instructions: 946000000 cycles: 2746563324 heartbeat IPC: 0.405102 cumulative IPC: 0.424735 (Simulation time: 1 hr 9 min 9 sec) 
Heartbeat CPU 0 instructions: 947000003 cycles: 2748853449 heartbeat IPC: 0.436659 cumulative IPC: 0.424759 (Simulation time: 1 hr 9 min 13 sec) 
Heartbeat CPU 0 instructions: 948000000 cycles: 2750876574 heartbeat IPC: 0.494283 cumulative IPC: 0.424879 (Simulation time: 1 hr 9 min 16 sec) 
Heartbeat CPU 0 instructions: 949000001 cycles: 2753254239 heartbeat IPC: 0.420581 cumulative IPC: 0.42487 (Simulation time: 1 hr 9 min 20 sec) 
Heartbeat CPU 0 instructions: 950000001 cycles: 2755193914 heartbeat IPC: 0.51555 cumulative IPC: 0.425019 (Simulation time: 1 hr 9 min 23 sec) 
Finished CPU 0 instructions: 500000001 cycles: 1176416831 cumulative IPC: 0.425019 (Simulation time: 1 hr 9 min 23 sec) 

ChampSim completed all CPUs

Region of Interest Statistics

CPU 0 cumulative IPC: 0.425019 instructions: 500000001 cycles: 1176416831
L1D TOTAL     ACCESS:  176203534  HIT:  163634224  MISS:   12569310
L1D LOAD      ACCESS:   98187224  HIT:   87151044  MISS:   11036180
L1D RFO       ACCESS:   78016310  HIT:   76483180  MISS:    1533130
L1D PREFETCH  ACCESS:          0  HIT:          0  MISS:          0
L1D WRITEBACK ACCESS:          0  HIT:          0  MISS:          0
L1D PREFETCH  REQUESTED:          0  ISSUED:          0  USEFUL:          0  USELESS:          0
L1D AVERAGE MISS LATENCY: 104.879 cycles
L1I TOTAL     ACCESS:  104446788  HIT:  104433686  MISS:      13102
L1I LOAD      ACCESS:  104446788  HIT:  104433686  MISS:      13102
L1I RFO       ACCESS:          0  HIT:          0  MISS:          0
L1I PREFETCH  ACCESS:          0  HIT:          0  MISS:          0
L1I WRITEBACK ACCESS:          0  HIT:          0  MISS:          0
L1I PREFETCH  REQUESTED:          0  ISSUED:          0  USEFUL:          0  USELESS:          0
L1I AVERAGE MISS LATENCY: 54.1181 cycles
L2C TOTAL     ACCESS:   17961153  HIT:    7106533  MISS:   10854620
L2C LOAD      ACCESS:   11048411  HIT:    1643343  MISS:    9405068
L2C RFO       ACCESS:    1533096  HIT:      95669  MISS:    1437427
L2C PREFETCH  ACCESS:          0  HIT:          0  MISS:          0
L2C WRITEBACK ACCESS:    5379646  HIT:    5367521  MISS:      12125
L2C PREFETCH  REQUESTED:          0  ISSUED:          0  USEFUL:          0  USELESS:          0
L2C AVERAGE MISS LATENCY: 99.8237 cycles
LLC TOTAL     ACCESS:   24274546  HIT:   14764145  MISS:    9510401
LLC LOAD      ACCESS:    9405062  HIT:    7333214  MISS:    2071848
LLC RFO       ACCESS:    1437427  HIT:     272693  MISS:    1164734
LLC PREFETCH  ACCESS:    8748363  HIT:    2483248  MISS:    6265115
LLC WRITEBACK ACCESS:    4683694  HIT:    4674990  MISS:       8704
LLC PREFETCH  REQUESTED:    9402873  ISSUED:    9402802  USEFUL:    5536861  USELESS:     725199
LLC AVERAGE MISS LATENCY: 211.802 cycles
Major fault: 0 Minor fault: 36358
performance stats:
mapping cache size: 468704
divergence: 6900321

DRAM Statistics
 CHANNEL 0
 RQ ROW_BUFFER_HIT:    1466134  ROW_BUFFER_MISS:    3289070
 DBUS_CONGESTED:    5940660
 WQ ROW_BUFFER_HIT:     657543  ROW_BUFFER_MISS:    1250764  FULL:          0

 CHANNEL 1
 RQ ROW_BUFFER_HIT:    1469074  ROW_BUFFER_MISS:    3277238
 DBUS_CONGESTED:    5940660
 WQ ROW_BUFFER_HIT:     654048  ROW_BUFFER_MISS:    1250950  FULL:          0

 AVG_CONGESTED_CYCLE: 18

CPU 0 Branch Prediction Accuracy: 98.4343% MPKI: 3.76231 Average ROB Occupancy at Mispredict: 99.9184

Branch types
NOT_BRANCH: 379852179 75.9704%
BRANCH_DIRECT_JUMP: 8777463 1.75549%
BRANCH_INDIRECT: 1706905 0.341381%
BRANCH_CONDITIONAL: 81114942 16.223%
BRANCH_DIRECT_CALL: 12087033 2.41741%
BRANCH_INDIRECT_CALL: 2187376 0.437475%
BRANCH_RETURN: 14274407 2.85488%
BRANCH_OTHER: 0 0%


gzip: stdout: Broken pipe
