
*** ChampSim Multicore Out-of-Order Simulator ***

Warmup Instructions: 1000000
Prefetch Warmup Instructions: 450000000
Simulation Instructions: 500000000
Stat Printing Period: 1000000
Number of CPUs: 1
LLC sets: 2048
LLC ways: 16
Off-chip DRAM Size: 32768 MB Channels: 2 Width: 64-bit Data Rate: 1024 MT/s

CPU 0 runs /scratch/cluster/cmolder/ML-DPC/ChampSimTraces/spec06/471.omnetpp-s2.trace.gz
Read seed: 984
Heartbeat CPU 0 instructions: 1000002 cycles: 367657 heartbeat IPC: 2.71993 cumulative IPC: 2.71993 (Simulation time: 0 hr 0 min 5 sec) 

Warmup complete CPU 0 instructions: 1000002 cycles: 367657 (Simulation time: 0 hr 0 min 5 sec) 

Heartbeat CPU 0 instructions: 2000002 cycles: 2675475 heartbeat IPC: 0.43331 cumulative IPC: 0.43331 (Simulation time: 0 hr 0 min 9 sec) 
Heartbeat CPU 0 instructions: 3000002 cycles: 5085446 heartbeat IPC: 0.414943 cumulative IPC: 0.423927 (Simulation time: 0 hr 0 min 14 sec) 
Heartbeat CPU 0 instructions: 4000001 cycles: 7371155 heartbeat IPC: 0.437501 cumulative IPC: 0.428357 (Simulation time: 0 hr 0 min 18 sec) 
Heartbeat CPU 0 instructions: 5000003 cycles: 9609238 heartbeat IPC: 0.446812 cumulative IPC: 0.432826 (Simulation time: 0 hr 0 min 22 sec) 
Heartbeat CPU 0 instructions: 6000000 cycles: 11863425 heartbeat IPC: 0.443618 cumulative IPC: 0.434942 (Simulation time: 0 hr 0 min 27 sec) 
Heartbeat CPU 0 instructions: 7000001 cycles: 14253199 heartbeat IPC: 0.41845 cumulative IPC: 0.432104 (Simulation time: 0 hr 0 min 31 sec) 
Heartbeat CPU 0 instructions: 8000000 cycles: 17106759 heartbeat IPC: 0.350439 cumulative IPC: 0.418182 (Simulation time: 0 hr 0 min 36 sec) 
Heartbeat CPU 0 instructions: 9000002 cycles: 19638065 heartbeat IPC: 0.395054 cumulative IPC: 0.415144 (Simulation time: 0 hr 0 min 40 sec) 
Heartbeat CPU 0 instructions: 10000001 cycles: 22509598 heartbeat IPC: 0.348246 cumulative IPC: 0.406468 (Simulation time: 0 hr 0 min 45 sec) 
Heartbeat CPU 0 instructions: 11000000 cycles: 25170810 heartbeat IPC: 0.375768 cumulative IPC: 0.403174 (Simulation time: 0 hr 0 min 50 sec) 
Heartbeat CPU 0 instructions: 12000001 cycles: 25654932 heartbeat IPC: 2.0656 cumulative IPC: 0.435001 (Simulation time: 0 hr 0 min 53 sec) 
Heartbeat CPU 0 instructions: 13000000 cycles: 26120850 heartbeat IPC: 2.1463 cumulative IPC: 0.465962 (Simulation time: 0 hr 0 min 56 sec) 
Heartbeat CPU 0 instructions: 14000000 cycles: 26573291 heartbeat IPC: 2.21023 cumulative IPC: 0.496076 (Simulation time: 0 hr 0 min 59 sec) 
Heartbeat CPU 0 instructions: 15000002 cycles: 27035692 heartbeat IPC: 2.16263 cumulative IPC: 0.524973 (Simulation time: 0 hr 1 min 2 sec) 
Heartbeat CPU 0 instructions: 16000003 cycles: 29341283 heartbeat IPC: 0.433729 cumulative IPC: 0.517712 (Simulation time: 0 hr 1 min 7 sec) 
Heartbeat CPU 0 instructions: 17000000 cycles: 31725971 heartbeat IPC: 0.419341 cumulative IPC: 0.510231 (Simulation time: 0 hr 1 min 11 sec) 
Heartbeat CPU 0 instructions: 18000003 cycles: 33973251 heartbeat IPC: 0.444984 cumulative IPC: 0.505868 (Simulation time: 0 hr 1 min 16 sec) 
Heartbeat CPU 0 instructions: 19000000 cycles: 36270280 heartbeat IPC: 0.435344 cumulative IPC: 0.501356 (Simulation time: 0 hr 1 min 20 sec) 
Heartbeat CPU 0 instructions: 20000000 cycles: 39186324 heartbeat IPC: 0.34293 cumulative IPC: 0.489455 (Simulation time: 0 hr 1 min 25 sec) 
Heartbeat CPU 0 instructions: 21000001 cycles: 42099603 heartbeat IPC: 0.343256 cumulative IPC: 0.479249 (Simulation time: 0 hr 1 min 30 sec) 
Heartbeat CPU 0 instructions: 22000000 cycles: 44847733 heartbeat IPC: 0.363883 cumulative IPC: 0.472121 (Simulation time: 0 hr 1 min 35 sec) 
Heartbeat CPU 0 instructions: 23000001 cycles: 47194812 heartbeat IPC: 0.426062 cumulative IPC: 0.469813 (Simulation time: 0 hr 1 min 39 sec) 
Heartbeat CPU 0 instructions: 24000001 cycles: 49458287 heartbeat IPC: 0.441799 cumulative IPC: 0.468521 (Simulation time: 0 hr 1 min 44 sec) 
Heartbeat CPU 0 instructions: 25000001 cycles: 51736078 heartbeat IPC: 0.439022 cumulative IPC: 0.467213 (Simulation time: 0 hr 1 min 48 sec) 
Heartbeat CPU 0 instructions: 26000003 cycles: 53982616 heartbeat IPC: 0.44513 cumulative IPC: 0.466288 (Simulation time: 0 hr 1 min 52 sec) 
Heartbeat CPU 0 instructions: 27000000 cycles: 56277101 heartbeat IPC: 0.435826 cumulative IPC: 0.465038 (Simulation time: 0 hr 1 min 57 sec) 
Heartbeat CPU 0 instructions: 28000000 cycles: 58531751 heartbeat IPC: 0.443528 cumulative IPC: 0.464204 (Simulation time: 0 hr 2 min 1 sec) 
Heartbeat CPU 0 instructions: 29000003 cycles: 60923199 heartbeat IPC: 0.418158 cumulative IPC: 0.462385 (Simulation time: 0 hr 2 min 6 sec) 
Heartbeat CPU 0 instructions: 30000001 cycles: 63195461 heartbeat IPC: 0.440089 cumulative IPC: 0.461579 (Simulation time: 0 hr 2 min 10 sec) 
Heartbeat CPU 0 instructions: 31000003 cycles: 65426245 heartbeat IPC: 0.448274 cumulative IPC: 0.461123 (Simulation time: 0 hr 2 min 14 sec) 
Heartbeat CPU 0 instructions: 32000000 cycles: 67716303 heartbeat IPC: 0.436669 cumulative IPC: 0.460291 (Simulation time: 0 hr 2 min 19 sec) 
Heartbeat CPU 0 instructions: 33000000 cycles: 70420682 heartbeat IPC: 0.369771 cumulative IPC: 0.456797 (Simulation time: 0 hr 2 min 23 sec) 
Heartbeat CPU 0 instructions: 34000002 cycles: 73285026 heartbeat IPC: 0.349121 cumulative IPC: 0.452567 (Simulation time: 0 hr 2 min 28 sec) 
Heartbeat CPU 0 instructions: 35000002 cycles: 75892289 heartbeat IPC: 0.383544 cumulative IPC: 0.450184 (Simulation time: 0 hr 2 min 32 sec) 
Heartbeat CPU 0 instructions: 36000001 cycles: 78718487 heartbeat IPC: 0.353832 cumulative IPC: 0.446709 (Simulation time: 0 hr 2 min 37 sec) 
Heartbeat CPU 0 instructions: 37000002 cycles: 81005394 heartbeat IPC: 0.437272 cumulative IPC: 0.446441 (Simulation time: 0 hr 2 min 41 sec) 
Heartbeat CPU 0 instructions: 38000000 cycles: 83636228 heartbeat IPC: 0.380107 cumulative IPC: 0.444345 (Simulation time: 0 hr 2 min 46 sec) 
Heartbeat CPU 0 instructions: 39000002 cycles: 85654567 heartbeat IPC: 0.495458 cumulative IPC: 0.445555 (Simulation time: 0 hr 2 min 49 sec) 
Heartbeat CPU 0 instructions: 40000003 cycles: 86113415 heartbeat IPC: 2.17937 cumulative IPC: 0.454833 (Simulation time: 0 hr 2 min 52 sec) 
Heartbeat CPU 0 instructions: 41000002 cycles: 86567071 heartbeat IPC: 2.20431 cumulative IPC: 0.46404 (Simulation time: 0 hr 2 min 55 sec) 
Heartbeat CPU 0 instructions: 42000002 cycles: 87024664 heartbeat IPC: 2.18535 cumulative IPC: 0.47313 (Simulation time: 0 hr 2 min 58 sec) 
Heartbeat CPU 0 instructions: 43000000 cycles: 87660903 heartbeat IPC: 1.57173 cumulative IPC: 0.481137 (Simulation time: 0 hr 3 min 2 sec) 
Heartbeat CPU 0 instructions: 44000000 cycles: 89992007 heartbeat IPC: 0.428981 cumulative IPC: 0.47978 (Simulation time: 0 hr 3 min 6 sec) 
Heartbeat CPU 0 instructions: 45000001 cycles: 92375619 heartbeat IPC: 0.419532 cumulative IPC: 0.478219 (Simulation time: 0 hr 3 min 11 sec) 
Heartbeat CPU 0 instructions: 46000001 cycles: 95283743 heartbeat IPC: 0.343864 cumulative IPC: 0.474103 (Simulation time: 0 hr 3 min 15 sec) 
Heartbeat CPU 0 instructions: 47000001 cycles: 98194786 heartbeat IPC: 0.343519 cumulative IPC: 0.470217 (Simulation time: 0 hr 3 min 20 sec) 
Heartbeat CPU 0 instructions: 48000000 cycles: 100863328 heartbeat IPC: 0.374736 cumulative IPC: 0.467682 (Simulation time: 0 hr 3 min 25 sec) 
Heartbeat CPU 0 instructions: 49000001 cycles: 103322074 heartbeat IPC: 0.406712 cumulative IPC: 0.466226 (Simulation time: 0 hr 3 min 30 sec) 
Heartbeat CPU 0 instructions: 50000001 cycles: 105625194 heartbeat IPC: 0.434194 cumulative IPC: 0.465525 (Simulation time: 0 hr 3 min 34 sec) 
Heartbeat CPU 0 instructions: 51000003 cycles: 107921909 heartbeat IPC: 0.435405 cumulative IPC: 0.464882 (Simulation time: 0 hr 3 min 39 sec) 
Heartbeat CPU 0 instructions: 52000000 cycles: 110208163 heartbeat IPC: 0.437395 cumulative IPC: 0.46431 (Simulation time: 0 hr 3 min 43 sec) 
Heartbeat CPU 0 instructions: 53000000 cycles: 112509376 heartbeat IPC: 0.434553 cumulative IPC: 0.463699 (Simulation time: 0 hr 3 min 47 sec) 
Heartbeat CPU 0 instructions: 54000001 cycles: 114792357 heartbeat IPC: 0.438024 cumulative IPC: 0.463187 (Simulation time: 0 hr 3 min 52 sec) 
Heartbeat CPU 0 instructions: 55000000 cycles: 117301311 heartbeat IPC: 0.398572 cumulative IPC: 0.4618 (Simulation time: 0 hr 3 min 57 sec) 
Heartbeat CPU 0 instructions: 56000000 cycles: 119575087 heartbeat IPC: 0.439797 cumulative IPC: 0.461381 (Simulation time: 0 hr 4 min 1 sec) 
Heartbeat CPU 0 instructions: 57000000 cycles: 121846245 heartbeat IPC: 0.440304 cumulative IPC: 0.460987 (Simulation time: 0 hr 4 min 5 sec) 
Heartbeat CPU 0 instructions: 58000002 cycles: 124350864 heartbeat IPC: 0.399263 cumulative IPC: 0.45974 (Simulation time: 0 hr 4 min 10 sec) 
Heartbeat CPU 0 instructions: 59000002 cycles: 127226985 heartbeat IPC: 0.347691 cumulative IPC: 0.457199 (Simulation time: 0 hr 4 min 15 sec) 
Heartbeat CPU 0 instructions: 60000000 cycles: 129721727 heartbeat IPC: 0.400842 cumulative IPC: 0.456112 (Simulation time: 0 hr 4 min 19 sec) 
Heartbeat CPU 0 instructions: 61000002 cycles: 132376730 heartbeat IPC: 0.376648 cumulative IPC: 0.454514 (Simulation time: 0 hr 4 min 24 sec) 
Heartbeat CPU 0 instructions: 62000001 cycles: 135251439 heartbeat IPC: 0.347861 cumulative IPC: 0.452241 (Simulation time: 0 hr 4 min 29 sec) 
Heartbeat CPU 0 instructions: 63000002 cycles: 137568539 heartbeat IPC: 0.431574 cumulative IPC: 0.451892 (Simulation time: 0 hr 4 min 33 sec) 
Heartbeat CPU 0 instructions: 64000000 cycles: 139871312 heartbeat IPC: 0.434258 cumulative IPC: 0.451601 (Simulation time: 0 hr 4 min 38 sec) 
Heartbeat CPU 0 instructions: 65000002 cycles: 142165547 heartbeat IPC: 0.435876 cumulative IPC: 0.451347 (Simulation time: 0 hr 4 min 42 sec) 
Heartbeat CPU 0 instructions: 66000000 cycles: 145884723 heartbeat IPC: 0.268876 cumulative IPC: 0.446683 (Simulation time: 0 hr 4 min 47 sec) 
Heartbeat CPU 0 instructions: 67000000 cycles: 146999748 heartbeat IPC: 0.896841 cumulative IPC: 0.450106 (Simulation time: 0 hr 4 min 51 sec) 
Heartbeat CPU 0 instructions: 68000001 cycles: 147456250 heartbeat IPC: 2.19057 cumulative IPC: 0.455508 (Simulation time: 0 hr 4 min 55 sec) 
Heartbeat CPU 0 instructions: 69000000 cycles: 147912905 heartbeat IPC: 2.18983 cumulative IPC: 0.460876 (Simulation time: 0 hr 4 min 58 sec) 
Heartbeat CPU 0 instructions: 70000000 cycles: 148365070 heartbeat IPC: 2.21158 cumulative IPC: 0.466224 (Simulation time: 0 hr 5 min 1 sec) 
Heartbeat CPU 0 instructions: 71000000 cycles: 148839789 heartbeat IPC: 2.10651 cumulative IPC: 0.471469 (Simulation time: 0 hr 5 min 4 sec) 
Heartbeat CPU 0 instructions: 72000001 cycles: 151694394 heartbeat IPC: 0.350312 cumulative IPC: 0.469183 (Simulation time: 0 hr 5 min 8 sec) 
Heartbeat CPU 0 instructions: 73000001 cycles: 154674053 heartbeat IPC: 0.335609 cumulative IPC: 0.466604 (Simulation time: 0 hr 5 min 13 sec) 
Heartbeat CPU 0 instructions: 74000002 cycles: 157587403 heartbeat IPC: 0.343248 cumulative IPC: 0.464318 (Simulation time: 0 hr 5 min 17 sec) 
Heartbeat CPU 0 instructions: 75000000 cycles: 159965086 heartbeat IPC: 0.420577 cumulative IPC: 0.463667 (Simulation time: 0 hr 5 min 22 sec) 
Heartbeat CPU 0 instructions: 76000001 cycles: 162264418 heartbeat IPC: 0.434909 cumulative IPC: 0.463258 (Simulation time: 0 hr 5 min 26 sec) 
Heartbeat CPU 0 instructions: 77000000 cycles: 164545722 heartbeat IPC: 0.438345 cumulative IPC: 0.462912 (Simulation time: 0 hr 5 min 30 sec) 
Heartbeat CPU 0 instructions: 78000000 cycles: 166846140 heartbeat IPC: 0.434704 cumulative IPC: 0.462522 (Simulation time: 0 hr 5 min 35 sec) 
Heartbeat CPU 0 instructions: 79000000 cycles: 169141893 heartbeat IPC: 0.435587 cumulative IPC: 0.462156 (Simulation time: 0 hr 5 min 39 sec) 
Heartbeat CPU 0 instructions: 80000002 cycles: 171428340 heartbeat IPC: 0.437361 cumulative IPC: 0.461824 (Simulation time: 0 hr 5 min 43 sec) 
Heartbeat CPU 0 instructions: 81000003 cycles: 173871718 heartbeat IPC: 0.40927 cumulative IPC: 0.461084 (Simulation time: 0 hr 5 min 48 sec) 
Heartbeat CPU 0 instructions: 82000002 cycles: 176140105 heartbeat IPC: 0.440841 cumulative IPC: 0.460823 (Simulation time: 0 hr 5 min 52 sec) 
Heartbeat CPU 0 instructions: 83000000 cycles: 178443661 heartbeat IPC: 0.434111 cumulative IPC: 0.460478 (Simulation time: 0 hr 5 min 57 sec) 
Heartbeat CPU 0 instructions: 84000000 cycles: 180787796 heartbeat IPC: 0.426597 cumulative IPC: 0.460037 (Simulation time: 0 hr 6 min 1 sec) 
Heartbeat CPU 0 instructions: 85000000 cycles: 183690044 heartbeat IPC: 0.344561 cumulative IPC: 0.458209 (Simulation time: 0 hr 6 min 6 sec) 
Heartbeat CPU 0 instructions: 86000000 cycles: 186572006 heartbeat IPC: 0.346986 cumulative IPC: 0.456488 (Simulation time: 0 hr 6 min 11 sec) 
Heartbeat CPU 0 instructions: 87000001 cycles: 189179068 heartbeat IPC: 0.383574 cumulative IPC: 0.455481 (Simulation time: 0 hr 6 min 15 sec) 
Heartbeat CPU 0 instructions: 88000000 cycles: 191661583 heartbeat IPC: 0.402817 cumulative IPC: 0.454798 (Simulation time: 0 hr 6 min 20 sec) 
Heartbeat CPU 0 instructions: 89000001 cycles: 194251355 heartbeat IPC: 0.386135 cumulative IPC: 0.45388 (Simulation time: 0 hr 6 min 25 sec) 
Heartbeat CPU 0 instructions: 90000000 cycles: 196567491 heartbeat IPC: 0.431753 cumulative IPC: 0.453619 (Simulation time: 0 hr 6 min 29 sec) 
Heartbeat CPU 0 instructions: 91000002 cycles: 198894379 heartbeat IPC: 0.429759 cumulative IPC: 0.453339 (Simulation time: 0 hr 6 min 34 sec) 
Heartbeat CPU 0 instructions: 92000002 cycles: 201403463 heartbeat IPC: 0.398552 cumulative IPC: 0.452656 (Simulation time: 0 hr 6 min 38 sec) 
Heartbeat CPU 0 instructions: 93000001 cycles: 203691166 heartbeat IPC: 0.437119 cumulative IPC: 0.452481 (Simulation time: 0 hr 6 min 43 sec) 
Heartbeat CPU 0 instructions: 94000001 cycles: 207865894 heartbeat IPC: 0.239537 cumulative IPC: 0.448197 (Simulation time: 0 hr 6 min 48 sec) 
Heartbeat CPU 0 instructions: 95000001 cycles: 208386117 heartbeat IPC: 1.92225 cumulative IPC: 0.451883 (Simulation time: 0 hr 6 min 51 sec) 
Heartbeat CPU 0 instructions: 96000000 cycles: 208846846 heartbeat IPC: 2.17047 cumulative IPC: 0.455681 (Simulation time: 0 hr 6 min 54 sec) 
Heartbeat CPU 0 instructions: 97000002 cycles: 209296720 heartbeat IPC: 2.22285 cumulative IPC: 0.459486 (Simulation time: 0 hr 6 min 57 sec) 
Heartbeat CPU 0 instructions: 98000002 cycles: 209755904 heartbeat IPC: 2.17778 cumulative IPC: 0.463254 (Simulation time: 0 hr 7 min 1 sec) 
Heartbeat CPU 0 instructions: 99000000 cycles: 211034645 heartbeat IPC: 0.782018 cumulative IPC: 0.465189 (Simulation time: 0 hr 7 min 5 sec) 
Heartbeat CPU 0 instructions: 100000000 cycles: 214042578 heartbeat IPC: 0.332454 cumulative IPC: 0.463321 (Simulation time: 0 hr 7 min 9 sec) 
Heartbeat CPU 0 instructions: 101000000 cycles: 216652420 heartbeat IPC: 0.383165 cumulative IPC: 0.462353 (Simulation time: 0 hr 7 min 14 sec) 
Heartbeat CPU 0 instructions: 102000000 cycles: 219164386 heartbeat IPC: 0.398095 cumulative IPC: 0.461616 (Simulation time: 0 hr 7 min 18 sec) 
Heartbeat CPU 0 instructions: 103000001 cycles: 221478337 heartbeat IPC: 0.432162 cumulative IPC: 0.461307 (Simulation time: 0 hr 7 min 23 sec) 
Heartbeat CPU 0 instructions: 104000002 cycles: 223804276 heartbeat IPC: 0.429934 cumulative IPC: 0.460981 (Simulation time: 0 hr 7 min 27 sec) 
Heartbeat CPU 0 instructions: 105000002 cycles: 226089633 heartbeat IPC: 0.437568 cumulative IPC: 0.460744 (Simulation time: 0 hr 7 min 31 sec) 
Heartbeat CPU 0 instructions: 106000000 cycles: 228535509 heartbeat IPC: 0.408851 cumulative IPC: 0.460188 (Simulation time: 0 hr 7 min 36 sec) 
Heartbeat CPU 0 instructions: 107000001 cycles: 230821760 heartbeat IPC: 0.437398 cumulative IPC: 0.459961 (Simulation time: 0 hr 7 min 40 sec) 
Heartbeat CPU 0 instructions: 108000003 cycles: 233137757 heartbeat IPC: 0.43178 cumulative IPC: 0.459681 (Simulation time: 0 hr 7 min 44 sec) 
Heartbeat CPU 0 instructions: 109000000 cycles: 235431006 heartbeat IPC: 0.436061 cumulative IPC: 0.459451 (Simulation time: 0 hr 7 min 48 sec) 
Heartbeat CPU 0 instructions: 110000000 cycles: 237774335 heartbeat IPC: 0.426743 cumulative IPC: 0.459128 (Simulation time: 0 hr 7 min 53 sec) 
Heartbeat CPU 0 instructions: 111000002 cycles: 240293442 heartbeat IPC: 0.396967 cumulative IPC: 0.458475 (Simulation time: 0 hr 7 min 57 sec) 
Heartbeat CPU 0 instructions: 112000000 cycles: 243206736 heartbeat IPC: 0.343253 cumulative IPC: 0.457093 (Simulation time: 0 hr 8 min 2 sec) 
Heartbeat CPU 0 instructions: 113000000 cycles: 245842978 heartbeat IPC: 0.379328 cumulative IPC: 0.456258 (Simulation time: 0 hr 8 min 6 sec) 
Heartbeat CPU 0 instructions: 114000002 cycles: 248725196 heartbeat IPC: 0.346956 cumulative IPC: 0.454989 (Simulation time: 0 hr 8 min 11 sec) 
Heartbeat CPU 0 instructions: 115000001 cycles: 251348540 heartbeat IPC: 0.381192 cumulative IPC: 0.454218 (Simulation time: 0 hr 8 min 15 sec) 
Heartbeat CPU 0 instructions: 116000001 cycles: 253664530 heartbeat IPC: 0.431781 cumulative IPC: 0.454013 (Simulation time: 0 hr 8 min 20 sec) 
Heartbeat CPU 0 instructions: 117000002 cycles: 255996087 heartbeat IPC: 0.428898 cumulative IPC: 0.453784 (Simulation time: 0 hr 8 min 24 sec) 
Heartbeat CPU 0 instructions: 118000001 cycles: 258480372 heartbeat IPC: 0.40253 cumulative IPC: 0.45329 (Simulation time: 0 hr 8 min 28 sec) 
Heartbeat CPU 0 instructions: 119000002 cycles: 260777846 heartbeat IPC: 0.435261 cumulative IPC: 0.453131 (Simulation time: 0 hr 8 min 33 sec) 
Heartbeat CPU 0 instructions: 120000003 cycles: 263109839 heartbeat IPC: 0.428818 cumulative IPC: 0.452915 (Simulation time: 0 hr 8 min 37 sec) 
Heartbeat CPU 0 instructions: 121000000 cycles: 265408235 heartbeat IPC: 0.435085 cumulative IPC: 0.452761 (Simulation time: 0 hr 8 min 41 sec) 
Heartbeat CPU 0 instructions: 122000003 cycles: 269629677 heartbeat IPC: 0.236887 cumulative IPC: 0.449376 (Simulation time: 0 hr 8 min 46 sec) 
Heartbeat CPU 0 instructions: 123000002 cycles: 270129074 heartbeat IPC: 2.00241 cumulative IPC: 0.452251 (Simulation time: 0 hr 8 min 49 sec) 
Heartbeat CPU 0 instructions: 124000000 cycles: 270582126 heartbeat IPC: 2.20725 cumulative IPC: 0.455194 (Simulation time: 0 hr 8 min 52 sec) 
Heartbeat CPU 0 instructions: 125000000 cycles: 271038996 heartbeat IPC: 2.18881 cumulative IPC: 0.45812 (Simulation time: 0 hr 8 min 55 sec) 
Heartbeat CPU 0 instructions: 126000000 cycles: 271590553 heartbeat IPC: 1.81305 cumulative IPC: 0.460876 (Simulation time: 0 hr 8 min 59 sec) 
Heartbeat CPU 0 instructions: 127000000 cycles: 272984291 heartbeat IPC: 0.717495 cumulative IPC: 0.462187 (Simulation time: 0 hr 9 min 3 sec) 
Heartbeat CPU 0 instructions: 128000000 cycles: 275928868 heartbeat IPC: 0.339607 cumulative IPC: 0.460878 (Simulation time: 0 hr 9 min 7 sec) 
Heartbeat CPU 0 instructions: 129000001 cycles: 278512858 heartbeat IPC: 0.386999 cumulative IPC: 0.460191 (Simulation time: 0 hr 9 min 12 sec) 
Heartbeat CPU 0 instructions: 130000001 cycles: 280852597 heartbeat IPC: 0.427398 cumulative IPC: 0.459918 (Simulation time: 0 hr 9 min 16 sec) 
Heartbeat CPU 0 instructions: 131000000 cycles: 283171755 heartbeat IPC: 0.431191 cumulative IPC: 0.459682 (Simulation time: 0 hr 9 min 21 sec) 
Heartbeat CPU 0 instructions: 132000000 cycles: 285553615 heartbeat IPC: 0.41984 cumulative IPC: 0.459349 (Simulation time: 0 hr 9 min 25 sec) 
Heartbeat CPU 0 instructions: 133000001 cycles: 287940340 heartbeat IPC: 0.418985 cumulative IPC: 0.459014 (Simulation time: 0 hr 9 min 30 sec) 
Heartbeat CPU 0 instructions: 134000000 cycles: 290255794 heartbeat IPC: 0.43188 cumulative IPC: 0.458798 (Simulation time: 0 hr 9 min 34 sec) 
Heartbeat CPU 0 instructions: 135000000 cycles: 292580993 heartbeat IPC: 0.430071 cumulative IPC: 0.458569 (Simulation time: 0 hr 9 min 38 sec) 
Heartbeat CPU 0 instructions: 136000000 cycles: 294878073 heartbeat IPC: 0.435335 cumulative IPC: 0.458388 (Simulation time: 0 hr 9 min 43 sec) 
Heartbeat CPU 0 instructions: 137000000 cycles: 297205997 heartbeat IPC: 0.429567 cumulative IPC: 0.458162 (Simulation time: 0 hr 9 min 47 sec) 
Heartbeat CPU 0 instructions: 138000002 cycles: 300009279 heartbeat IPC: 0.356725 cumulative IPC: 0.457213 (Simulation time: 0 hr 9 min 51 sec) 
Heartbeat CPU 0 instructions: 139000001 cycles: 302269815 heartbeat IPC: 0.442373 cumulative IPC: 0.457102 (Simulation time: 0 hr 9 min 56 sec) 
Heartbeat CPU 0 instructions: 140000000 cycles: 305186087 heartbeat IPC: 0.342903 cumulative IPC: 0.456009 (Simulation time: 0 hr 10 min 0 sec) 
Heartbeat CPU 0 instructions: 141000000 cycles: 308098949 heartbeat IPC: 0.343305 cumulative IPC: 0.454942 (Simulation time: 0 hr 10 min 5 sec) 
Heartbeat CPU 0 instructions: 142000002 cycles: 310910624 heartbeat IPC: 0.355661 cumulative IPC: 0.454043 (Simulation time: 0 hr 10 min 10 sec) 
Heartbeat CPU 0 instructions: 143000000 cycles: 313249055 heartbeat IPC: 0.427636 cumulative IPC: 0.453846 (Simulation time: 0 hr 10 min 14 sec) 
Heartbeat CPU 0 instructions: 144000003 cycles: 315664457 heartbeat IPC: 0.414011 cumulative IPC: 0.453541 (Simulation time: 0 hr 10 min 19 sec) 
Heartbeat CPU 0 instructions: 145000000 cycles: 317982093 heartbeat IPC: 0.431473 cumulative IPC: 0.45338 (Simulation time: 0 hr 10 min 23 sec) 
Heartbeat CPU 0 instructions: 146000003 cycles: 320313244 heartbeat IPC: 0.428974 cumulative IPC: 0.453202 (Simulation time: 0 hr 10 min 28 sec) 
Heartbeat CPU 0 instructions: 147000001 cycles: 322661844 heartbeat IPC: 0.425785 cumulative IPC: 0.453002 (Simulation time: 0 hr 10 min 32 sec) 
Heartbeat CPU 0 instructions: 148000002 cycles: 325008115 heartbeat IPC: 0.426209 cumulative IPC: 0.452809 (Simulation time: 0 hr 10 min 36 sec) 
Heartbeat CPU 0 instructions: 149000000 cycles: 327342780 heartbeat IPC: 0.428326 cumulative IPC: 0.452634 (Simulation time: 0 hr 10 min 41 sec) 
Heartbeat CPU 0 instructions: 150000001 cycles: 331603985 heartbeat IPC: 0.234676 cumulative IPC: 0.44983 (Simulation time: 0 hr 10 min 47 sec) 
Heartbeat CPU 0 instructions: 151000002 cycles: 332285996 heartbeat IPC: 1.46625 cumulative IPC: 0.451918 (Simulation time: 0 hr 10 min 51 sec) 
Heartbeat CPU 0 instructions: 152000001 cycles: 332739521 heartbeat IPC: 2.20495 cumulative IPC: 0.45431 (Simulation time: 0 hr 10 min 54 sec) 
Heartbeat CPU 0 instructions: 153000000 cycles: 333187896 heartbeat IPC: 2.23027 cumulative IPC: 0.456703 (Simulation time: 0 hr 10 min 57 sec) 
Heartbeat CPU 0 instructions: 154000000 cycles: 333645582 heartbeat IPC: 2.1849 cumulative IPC: 0.459076 (Simulation time: 0 hr 11 min 0 sec) 
Heartbeat CPU 0 instructions: 155000000 cycles: 335212445 heartbeat IPC: 0.638218 cumulative IPC: 0.459915 (Simulation time: 0 hr 11 min 3 sec) 
Heartbeat CPU 0 instructions: 156000001 cycles: 338201701 heartbeat IPC: 0.334532 cumulative IPC: 0.458805 (Simulation time: 0 hr 11 min 8 sec) 
Heartbeat CPU 0 instructions: 157000002 cycles: 340661611 heartbeat IPC: 0.406519 cumulative IPC: 0.458427 (Simulation time: 0 hr 11 min 12 sec) 
Heartbeat CPU 0 instructions: 158000001 cycles: 343016503 heartbeat IPC: 0.424648 cumulative IPC: 0.458195 (Simulation time: 0 hr 11 min 16 sec) 
Heartbeat CPU 0 instructions: 159000002 cycles: 345523716 heartbeat IPC: 0.39885 cumulative IPC: 0.457764 (Simulation time: 0 hr 11 min 21 sec) 
Heartbeat CPU 0 instructions: 160000000 cycles: 347854395 heartbeat IPC: 0.429059 cumulative IPC: 0.457571 (Simulation time: 0 hr 11 min 25 sec) 
Heartbeat CPU 0 instructions: 161000001 cycles: 350201340 heartbeat IPC: 0.426086 cumulative IPC: 0.45736 (Simulation time: 0 hr 11 min 30 sec) 
Heartbeat CPU 0 instructions: 162000000 cycles: 352539679 heartbeat IPC: 0.427654 cumulative IPC: 0.457163 (Simulation time: 0 hr 11 min 34 sec) 
Heartbeat CPU 0 instructions: 163000001 cycles: 354886874 heartbeat IPC: 0.426041 cumulative IPC: 0.456957 (Simulation time: 0 hr 11 min 38 sec) 
Heartbeat CPU 0 instructions: 164000001 cycles: 357401795 heartbeat IPC: 0.397627 cumulative IPC: 0.456539 (Simulation time: 0 hr 11 min 43 sec) 
Heartbeat CPU 0 instructions: 165000000 cycles: 359745212 heartbeat IPC: 0.426727 cumulative IPC: 0.456345 (Simulation time: 0 hr 11 min 47 sec) 
Heartbeat CPU 0 instructions: 166000000 cycles: 362257405 heartbeat IPC: 0.398059 cumulative IPC: 0.45594 (Simulation time: 0 hr 11 min 51 sec) 
Heartbeat CPU 0 instructions: 167000001 cycles: 364789708 heartbeat IPC: 0.394898 cumulative IPC: 0.455516 (Simulation time: 0 hr 11 min 56 sec) 
Heartbeat CPU 0 instructions: 168000002 cycles: 367707725 heartbeat IPC: 0.342699 cumulative IPC: 0.45462 (Simulation time: 0 hr 12 min 0 sec) 
Heartbeat CPU 0 instructions: 169000000 cycles: 370583452 heartbeat IPC: 0.347737 cumulative IPC: 0.453789 (Simulation time: 0 hr 12 min 5 sec) 
Heartbeat CPU 0 instructions: 170000003 cycles: 373363770 heartbeat IPC: 0.359672 cumulative IPC: 0.453088 (Simulation time: 0 hr 12 min 9 sec) 
Heartbeat CPU 0 instructions: 171000002 cycles: 375764050 heartbeat IPC: 0.416618 cumulative IPC: 0.452855 (Simulation time: 0 hr 12 min 14 sec) 
Heartbeat CPU 0 instructions: 172000000 cycles: 378136477 heartbeat IPC: 0.421508 cumulative IPC: 0.452658 (Simulation time: 0 hr 12 min 18 sec) 
Heartbeat CPU 0 instructions: 173000001 cycles: 380476057 heartbeat IPC: 0.427428 cumulative IPC: 0.452502 (Simulation time: 0 hr 12 min 22 sec) 
Heartbeat CPU 0 instructions: 174000001 cycles: 382827922 heartbeat IPC: 0.425194 cumulative IPC: 0.452335 (Simulation time: 0 hr 12 min 27 sec) 
Heartbeat CPU 0 instructions: 175000000 cycles: 385197738 heartbeat IPC: 0.421973 cumulative IPC: 0.452148 (Simulation time: 0 hr 12 min 31 sec) 
Heartbeat CPU 0 instructions: 176000000 cycles: 387637447 heartbeat IPC: 0.409885 cumulative IPC: 0.451881 (Simulation time: 0 hr 12 min 36 sec) 
Heartbeat CPU 0 instructions: 177000002 cycles: 389994186 heartbeat IPC: 0.424316 cumulative IPC: 0.451715 (Simulation time: 0 hr 12 min 40 sec) 
Heartbeat CPU 0 instructions: 178000001 cycles: 394275895 heartbeat IPC: 0.233551 cumulative IPC: 0.449343 (Simulation time: 0 hr 12 min 46 sec) 
Heartbeat CPU 0 instructions: 179000001 cycles: 394774936 heartbeat IPC: 2.00384 cumulative IPC: 0.45131 (Simulation time: 0 hr 12 min 49 sec) 
Heartbeat CPU 0 instructions: 180000002 cycles: 395228045 heartbeat IPC: 2.20698 cumulative IPC: 0.453325 (Simulation time: 0 hr 12 min 52 sec) 
Heartbeat CPU 0 instructions: 181000000 cycles: 395677330 heartbeat IPC: 2.22575 cumulative IPC: 0.455339 (Simulation time: 0 hr 12 min 55 sec) 
Heartbeat CPU 0 instructions: 182000001 cycles: 396135118 heartbeat IPC: 2.18442 cumulative IPC: 0.457339 (Simulation time: 0 hr 12 min 59 sec) 
Heartbeat CPU 0 instructions: 183000001 cycles: 397757850 heartbeat IPC: 0.616245 cumulative IPC: 0.457988 (Simulation time: 0 hr 13 min 3 sec) 
Heartbeat CPU 0 instructions: 184000000 cycles: 400786866 heartbeat IPC: 0.33014 cumulative IPC: 0.457021 (Simulation time: 0 hr 13 min 8 sec) 
Heartbeat CPU 0 instructions: 185000003 cycles: 403429146 heartbeat IPC: 0.378462 cumulative IPC: 0.456506 (Simulation time: 0 hr 13 min 13 sec) 
Heartbeat CPU 0 instructions: 186000002 cycles: 405796474 heartbeat IPC: 0.422417 cumulative IPC: 0.456307 (Simulation time: 0 hr 13 min 18 sec) 
Heartbeat CPU 0 instructions: 187000000 cycles: 408178826 heartbeat IPC: 0.419752 cumulative IPC: 0.456093 (Simulation time: 0 hr 13 min 22 sec) 
Heartbeat CPU 0 instructions: 188000000 cycles: 410536908 heartbeat IPC: 0.424073 cumulative IPC: 0.455909 (Simulation time: 0 hr 13 min 27 sec) 
Heartbeat CPU 0 instructions: 189000000 cycles: 412876431 heartbeat IPC: 0.427438 cumulative IPC: 0.455748 (Simulation time: 0 hr 13 min 31 sec) 
Heartbeat CPU 0 instructions: 190000000 cycles: 415431938 heartbeat IPC: 0.391312 cumulative IPC: 0.455351 (Simulation time: 0 hr 13 min 36 sec) 
Heartbeat CPU 0 instructions: 191000002 cycles: 417777990 heartbeat IPC: 0.426249 cumulative IPC: 0.455188 (Simulation time: 0 hr 13 min 40 sec) 
Heartbeat CPU 0 instructions: 192000002 cycles: 420112367 heartbeat IPC: 0.42838 cumulative IPC: 0.455038 (Simulation time: 0 hr 13 min 45 sec) 
Heartbeat CPU 0 instructions: 193000000 cycles: 422474570 heartbeat IPC: 0.423333 cumulative IPC: 0.454861 (Simulation time: 0 hr 13 min 49 sec) 
Heartbeat CPU 0 instructions: 194000000 cycles: 424865746 heartbeat IPC: 0.418204 cumulative IPC: 0.454655 (Simulation time: 0 hr 13 min 54 sec) 
Heartbeat CPU 0 instructions: 195000000 cycles: 427397342 heartbeat IPC: 0.395008 cumulative IPC: 0.454301 (Simulation time: 0 hr 13 min 58 sec) 
Heartbeat CPU 0 instructions: 196000001 cycles: 429943369 heartbeat IPC: 0.392769 cumulative IPC: 0.453936 (Simulation time: 0 hr 14 min 3 sec) 
Heartbeat CPU 0 instructions: 197000002 cycles: 432846341 heartbeat IPC: 0.344475 cumulative IPC: 0.453202 (Simulation time: 0 hr 14 min 7 sec) 
Heartbeat CPU 0 instructions: 198000000 cycles: 435743274 heartbeat IPC: 0.345192 cumulative IPC: 0.452483 (Simulation time: 0 hr 14 min 12 sec) 
Heartbeat CPU 0 instructions: 199000002 cycles: 438610528 heartbeat IPC: 0.348766 cumulative IPC: 0.451804 (Simulation time: 0 hr 14 min 17 sec) 
Heartbeat CPU 0 instructions: 200000000 cycles: 440998250 heartbeat IPC: 0.418808 cumulative IPC: 0.451625 (Simulation time: 0 hr 14 min 21 sec) 
Heartbeat CPU 0 instructions: 201000001 cycles: 443369917 heartbeat IPC: 0.421645 cumulative IPC: 0.451465 (Simulation time: 0 hr 14 min 26 sec) 
Heartbeat CPU 0 instructions: 202000001 cycles: 445847800 heartbeat IPC: 0.40357 cumulative IPC: 0.451199 (Simulation time: 0 hr 14 min 31 sec) 
Heartbeat CPU 0 instructions: 203000001 cycles: 448206678 heartbeat IPC: 0.42393 cumulative IPC: 0.451055 (Simulation time: 0 hr 14 min 35 sec) 
Heartbeat CPU 0 instructions: 204000000 cycles: 450588681 heartbeat IPC: 0.419814 cumulative IPC: 0.45089 (Simulation time: 0 hr 14 min 40 sec) 
Heartbeat CPU 0 instructions: 205000003 cycles: 452936958 heartbeat IPC: 0.425845 cumulative IPC: 0.45076 (Simulation time: 0 hr 14 min 44 sec) 
Heartbeat CPU 0 instructions: 206000001 cycles: 457209208 heartbeat IPC: 0.234068 cumulative IPC: 0.448733 (Simulation time: 0 hr 14 min 50 sec) 
Heartbeat CPU 0 instructions: 207000000 cycles: 457709873 heartbeat IPC: 1.99734 cumulative IPC: 0.450429 (Simulation time: 0 hr 14 min 53 sec) 
Heartbeat CPU 0 instructions: 208000002 cycles: 458170732 heartbeat IPC: 2.16987 cumulative IPC: 0.452159 (Simulation time: 0 hr 14 min 56 sec) 
Heartbeat CPU 0 instructions: 209000000 cycles: 458620085 heartbeat IPC: 2.22542 cumulative IPC: 0.453898 (Simulation time: 0 hr 14 min 59 sec) 
Heartbeat CPU 0 instructions: 210000002 cycles: 459264661 heartbeat IPC: 1.55141 cumulative IPC: 0.45544 (Simulation time: 0 hr 15 min 3 sec) 
Heartbeat CPU 0 instructions: 211000001 cycles: 460131893 heartbeat IPC: 1.15309 cumulative IPC: 0.456756 (Simulation time: 0 hr 15 min 6 sec) 
Heartbeat CPU 0 instructions: 212000000 cycles: 463134487 heartbeat IPC: 0.333045 cumulative IPC: 0.455953 (Simulation time: 0 hr 15 min 11 sec) 
Heartbeat CPU 0 instructions: 213000000 cycles: 466129408 heartbeat IPC: 0.333899 cumulative IPC: 0.455168 (Simulation time: 0 hr 15 min 16 sec) 
Heartbeat CPU 0 instructions: 214000002 cycles: 468757050 heartbeat IPC: 0.38057 cumulative IPC: 0.45475 (Simulation time: 0 hr 15 min 21 sec) 
Heartbeat CPU 0 instructions: 215000002 cycles: 471136379 heartbeat IPC: 0.420287 cumulative IPC: 0.454576 (Simulation time: 0 hr 15 min 25 sec) 
Heartbeat CPU 0 instructions: 216000000 cycles: 473524680 heartbeat IPC: 0.418707 cumulative IPC: 0.454395 (Simulation time: 0 hr 15 min 30 sec) 
Heartbeat CPU 0 instructions: 217000000 cycles: 476075454 heartbeat IPC: 0.392038 cumulative IPC: 0.45406 (Simulation time: 0 hr 15 min 35 sec) 
Heartbeat CPU 0 instructions: 218000002 cycles: 478440197 heartbeat IPC: 0.42288 cumulative IPC: 0.453906 (Simulation time: 0 hr 15 min 39 sec) 
Heartbeat CPU 0 instructions: 219000000 cycles: 480830702 heartbeat IPC: 0.418321 cumulative IPC: 0.453729 (Simulation time: 0 hr 15 min 44 sec) 
Heartbeat CPU 0 instructions: 220000000 cycles: 483220525 heartbeat IPC: 0.418441 cumulative IPC: 0.453554 (Simulation time: 0 hr 15 min 48 sec) 
Heartbeat CPU 0 instructions: 221000003 cycles: 485591187 heartbeat IPC: 0.421824 cumulative IPC: 0.453399 (Simulation time: 0 hr 15 min 53 sec) 
Heartbeat CPU 0 instructions: 222000000 cycles: 488046303 heartbeat IPC: 0.407311 cumulative IPC: 0.453167 (Simulation time: 0 hr 15 min 57 sec) 
Heartbeat CPU 0 instructions: 223000002 cycles: 490448668 heartbeat IPC: 0.416257 cumulative IPC: 0.452986 (Simulation time: 0 hr 16 min 2 sec) 
Heartbeat CPU 0 instructions: 224000000 cycles: 492833078 heartbeat IPC: 0.41939 cumulative IPC: 0.452824 (Simulation time: 0 hr 16 min 6 sec) 
Heartbeat CPU 0 instructions: 225000002 cycles: 495585170 heartbeat IPC: 0.363361 cumulative IPC: 0.452326 (Simulation time: 0 hr 16 min 11 sec) 
Heartbeat CPU 0 instructions: 226000001 cycles: 498460603 heartbeat IPC: 0.347773 cumulative IPC: 0.451723 (Simulation time: 0 hr 16 min 15 sec) 
Heartbeat CPU 0 instructions: 227000001 cycles: 501311636 heartbeat IPC: 0.35075 cumulative IPC: 0.451148 (Simulation time: 0 hr 16 min 20 sec) 
Heartbeat CPU 0 instructions: 228000001 cycles: 503483778 heartbeat IPC: 0.460375 cumulative IPC: 0.451188 (Simulation time: 0 hr 16 min 24 sec) 
Heartbeat CPU 0 instructions: 229000000 cycles: 506405087 heartbeat IPC: 0.342312 cumulative IPC: 0.45056 (Simulation time: 0 hr 16 min 29 sec) 
Heartbeat CPU 0 instructions: 230000000 cycles: 509072310 heartbeat IPC: 0.374922 cumulative IPC: 0.450163 (Simulation time: 0 hr 16 min 34 sec) 
Heartbeat CPU 0 instructions: 231000000 cycles: 511426834 heartbeat IPC: 0.424714 cumulative IPC: 0.450046 (Simulation time: 0 hr 16 min 38 sec) 
Heartbeat CPU 0 instructions: 232000000 cycles: 513817107 heartbeat IPC: 0.418362 cumulative IPC: 0.449898 (Simulation time: 0 hr 16 min 42 sec) 
Heartbeat CPU 0 instructions: 233000000 cycles: 516207637 heartbeat IPC: 0.418317 cumulative IPC: 0.449752 (Simulation time: 0 hr 16 min 47 sec) 
Heartbeat CPU 0 instructions: 234000001 cycles: 520051554 heartbeat IPC: 0.260152 cumulative IPC: 0.448349 (Simulation time: 0 hr 16 min 52 sec) 
Heartbeat CPU 0 instructions: 235000000 cycles: 521231358 heartbeat IPC: 0.847598 cumulative IPC: 0.449254 (Simulation time: 0 hr 16 min 56 sec) 
Heartbeat CPU 0 instructions: 236000002 cycles: 521685447 heartbeat IPC: 2.20222 cumulative IPC: 0.450781 (Simulation time: 0 hr 16 min 59 sec) 
Heartbeat CPU 0 instructions: 237000000 cycles: 522143529 heartbeat IPC: 2.18301 cumulative IPC: 0.452301 (Simulation time: 0 hr 17 min 2 sec) 
Heartbeat CPU 0 instructions: 238000003 cycles: 522594547 heartbeat IPC: 2.21721 cumulative IPC: 0.453826 (Simulation time: 0 hr 17 min 6 sec) 
Heartbeat CPU 0 instructions: 239000000 cycles: 523063839 heartbeat IPC: 2.13086 cumulative IPC: 0.455331 (Simulation time: 0 hr 17 min 9 sec) 
Heartbeat CPU 0 instructions: 240000000 cycles: 525874639 heartbeat IPC: 0.355771 cumulative IPC: 0.454799 (Simulation time: 0 hr 17 min 13 sec) 
Heartbeat CPU 0 instructions: 241000000 cycles: 528867948 heartbeat IPC: 0.334078 cumulative IPC: 0.454115 (Simulation time: 0 hr 17 min 18 sec) 
Heartbeat CPU 0 instructions: 242000000 cycles: 531839415 heartbeat IPC: 0.336534 cumulative IPC: 0.453458 (Simulation time: 0 hr 17 min 23 sec) 
Heartbeat CPU 0 instructions: 243000002 cycles: 534478208 heartbeat IPC: 0.378962 cumulative IPC: 0.45309 (Simulation time: 0 hr 17 min 27 sec) 
Heartbeat CPU 0 instructions: 244000003 cycles: 537058267 heartbeat IPC: 0.387588 cumulative IPC: 0.452775 (Simulation time: 0 hr 17 min 32 sec) 
Heartbeat CPU 0 instructions: 245000001 cycles: 539429688 heartbeat IPC: 0.421687 cumulative IPC: 0.452638 (Simulation time: 0 hr 17 min 36 sec) 
Heartbeat CPU 0 instructions: 246000000 cycles: 541821450 heartbeat IPC: 0.418101 cumulative IPC: 0.452486 (Simulation time: 0 hr 17 min 41 sec) 
Heartbeat CPU 0 instructions: 247000000 cycles: 544209924 heartbeat IPC: 0.418677 cumulative IPC: 0.452337 (Simulation time: 0 hr 17 min 45 sec) 
Heartbeat CPU 0 instructions: 248000003 cycles: 546778939 heartbeat IPC: 0.389255 cumulative IPC: 0.45204 (Simulation time: 0 hr 17 min 50 sec) 
Heartbeat CPU 0 instructions: 249000001 cycles: 549163061 heartbeat IPC: 0.419441 cumulative IPC: 0.451899 (Simulation time: 0 hr 17 min 55 sec) 
Heartbeat CPU 0 instructions: 250000000 cycles: 551544833 heartbeat IPC: 0.419855 cumulative IPC: 0.45176 (Simulation time: 0 hr 17 min 59 sec) 
Heartbeat CPU 0 instructions: 251000000 cycles: 553972569 heartbeat IPC: 0.411906 cumulative IPC: 0.451586 (Simulation time: 0 hr 18 min 4 sec) 
Heartbeat CPU 0 instructions: 252000003 cycles: 556366296 heartbeat IPC: 0.41776 cumulative IPC: 0.45144 (Simulation time: 0 hr 18 min 8 sec) 
Heartbeat CPU 0 instructions: 253000000 cycles: 558766951 heartbeat IPC: 0.416552 cumulative IPC: 0.45129 (Simulation time: 0 hr 18 min 12 sec) 
Heartbeat CPU 0 instructions: 254000000 cycles: 561349669 heartbeat IPC: 0.387189 cumulative IPC: 0.450995 (Simulation time: 0 hr 18 min 17 sec) 
Heartbeat CPU 0 instructions: 255000003 cycles: 563724666 heartbeat IPC: 0.421054 cumulative IPC: 0.450869 (Simulation time: 0 hr 18 min 21 sec) 
Heartbeat CPU 0 instructions: 256000002 cycles: 566211951 heartbeat IPC: 0.402044 cumulative IPC: 0.450654 (Simulation time: 0 hr 18 min 26 sec) 
Heartbeat CPU 0 instructions: 257000000 cycles: 569153888 heartbeat IPC: 0.339911 cumulative IPC: 0.450081 (Simulation time: 0 hr 18 min 30 sec) 
Heartbeat CPU 0 instructions: 258000001 cycles: 572076256 heartbeat IPC: 0.342189 cumulative IPC: 0.44953 (Simulation time: 0 hr 18 min 35 sec) 
Heartbeat CPU 0 instructions: 259000001 cycles: 574979655 heartbeat IPC: 0.344424 cumulative IPC: 0.448999 (Simulation time: 0 hr 18 min 40 sec) 
Heartbeat CPU 0 instructions: 260000001 cycles: 577684653 heartbeat IPC: 0.369686 cumulative IPC: 0.448627 (Simulation time: 0 hr 18 min 45 sec) 
Heartbeat CPU 0 instructions: 261000000 cycles: 580114806 heartbeat IPC: 0.411496 cumulative IPC: 0.448471 (Simulation time: 0 hr 18 min 49 sec) 
Heartbeat CPU 0 instructions: 262000001 cycles: 582571866 heartbeat IPC: 0.406991 cumulative IPC: 0.448296 (Simulation time: 0 hr 18 min 54 sec) 
Heartbeat CPU 0 instructions: 263000000 cycles: 585007982 heartbeat IPC: 0.410489 cumulative IPC: 0.448139 (Simulation time: 0 hr 18 min 59 sec) 
Heartbeat CPU 0 instructions: 264000000 cycles: 585477992 heartbeat IPC: 2.12761 cumulative IPC: 0.449488 (Simulation time: 0 hr 19 min 2 sec) 
Heartbeat CPU 0 instructions: 265000002 cycles: 585930889 heartbeat IPC: 2.20801 cumulative IPC: 0.450848 (Simulation time: 0 hr 19 min 5 sec) 
Heartbeat CPU 0 instructions: 266000002 cycles: 586390417 heartbeat IPC: 2.17615 cumulative IPC: 0.452201 (Simulation time: 0 hr 19 min 8 sec) 
Heartbeat CPU 0 instructions: 267000001 cycles: 586838224 heartbeat IPC: 2.2331 cumulative IPC: 0.453561 (Simulation time: 0 hr 19 min 11 sec) 
Heartbeat CPU 0 instructions: 268000002 cycles: 589266456 heartbeat IPC: 0.411823 cumulative IPC: 0.453389 (Simulation time: 0 hr 19 min 16 sec) 
Heartbeat CPU 0 instructions: 269000002 cycles: 591846737 heartbeat IPC: 0.387555 cumulative IPC: 0.453101 (Simulation time: 0 hr 19 min 20 sec) 
Heartbeat CPU 0 instructions: 270000000 cycles: 594365735 heartbeat IPC: 0.396982 cumulative IPC: 0.452863 (Simulation time: 0 hr 19 min 25 sec) 
Heartbeat CPU 0 instructions: 271000000 cycles: 597326435 heartbeat IPC: 0.337758 cumulative IPC: 0.452293 (Simulation time: 0 hr 19 min 29 sec) 
Heartbeat CPU 0 instructions: 272000000 cycles: 600260326 heartbeat IPC: 0.340844 cumulative IPC: 0.451747 (Simulation time: 0 hr 19 min 34 sec) 
Heartbeat CPU 0 instructions: 273000002 cycles: 603206001 heartbeat IPC: 0.339481 cumulative IPC: 0.451199 (Simulation time: 0 hr 19 min 39 sec) 
Heartbeat CPU 0 instructions: 274000001 cycles: 605715034 heartbeat IPC: 0.39856 cumulative IPC: 0.450981 (Simulation time: 0 hr 19 min 44 sec) 
Heartbeat CPU 0 instructions: 275000000 cycles: 608186691 heartbeat IPC: 0.404586 cumulative IPC: 0.450792 (Simulation time: 0 hr 19 min 48 sec) 
Heartbeat CPU 0 instructions: 276000001 cycles: 610584404 heartbeat IPC: 0.417065 cumulative IPC: 0.45066 (Simulation time: 0 hr 19 min 53 sec) 
Heartbeat CPU 0 instructions: 277000003 cycles: 612988927 heartbeat IPC: 0.415884 cumulative IPC: 0.450523 (Simulation time: 0 hr 19 min 57 sec) 
Heartbeat CPU 0 instructions: 278000000 cycles: 615387331 heartbeat IPC: 0.416943 cumulative IPC: 0.450392 (Simulation time: 0 hr 20 min 1 sec) 
Heartbeat CPU 0 instructions: 279000001 cycles: 617818593 heartbeat IPC: 0.411309 cumulative IPC: 0.450238 (Simulation time: 0 hr 20 min 6 sec) 
Heartbeat CPU 0 instructions: 280000000 cycles: 620351002 heartbeat IPC: 0.394881 cumulative IPC: 0.450012 (Simulation time: 0 hr 20 min 10 sec) 
Heartbeat CPU 0 instructions: 281000000 cycles: 622740832 heartbeat IPC: 0.41844 cumulative IPC: 0.449891 (Simulation time: 0 hr 20 min 15 sec) 
Heartbeat CPU 0 instructions: 282000000 cycles: 625165027 heartbeat IPC: 0.412508 cumulative IPC: 0.449746 (Simulation time: 0 hr 20 min 19 sec) 
Heartbeat CPU 0 instructions: 283000001 cycles: 627582693 heartbeat IPC: 0.413622 cumulative IPC: 0.449607 (Simulation time: 0 hr 20 min 23 sec) 
Heartbeat CPU 0 instructions: 284000002 cycles: 629986548 heartbeat IPC: 0.415999 cumulative IPC: 0.449478 (Simulation time: 0 hr 20 min 28 sec) 
Heartbeat CPU 0 instructions: 285000000 cycles: 632399077 heartbeat IPC: 0.414502 cumulative IPC: 0.449345 (Simulation time: 0 hr 20 min 32 sec) 
Heartbeat CPU 0 instructions: 286000000 cycles: 635005170 heartbeat IPC: 0.383716 cumulative IPC: 0.449075 (Simulation time: 0 hr 20 min 37 sec) 
Heartbeat CPU 0 instructions: 287000001 cycles: 637591342 heartbeat IPC: 0.386672 cumulative IPC: 0.448822 (Simulation time: 0 hr 20 min 41 sec) 
Heartbeat CPU 0 instructions: 288000000 cycles: 640512253 heartbeat IPC: 0.342359 cumulative IPC: 0.448336 (Simulation time: 0 hr 20 min 46 sec) 
Heartbeat CPU 0 instructions: 289000000 cycles: 643410468 heartbeat IPC: 0.34504 cumulative IPC: 0.447871 (Simulation time: 0 hr 20 min 50 sec) 
Heartbeat CPU 0 instructions: 290000001 cycles: 646302933 heartbeat IPC: 0.345726 cumulative IPC: 0.447413 (Simulation time: 0 hr 20 min 55 sec) 
Heartbeat CPU 0 instructions: 291000001 cycles: 649030028 heartbeat IPC: 0.366691 cumulative IPC: 0.447074 (Simulation time: 0 hr 21 min 0 sec) 
Heartbeat CPU 0 instructions: 292000002 cycles: 649499825 heartbeat IPC: 2.12858 cumulative IPC: 0.448291 (Simulation time: 0 hr 21 min 3 sec) 
Heartbeat CPU 0 instructions: 293000001 cycles: 649959780 heartbeat IPC: 2.17412 cumulative IPC: 0.449513 (Simulation time: 0 hr 21 min 6 sec) 
Heartbeat CPU 0 instructions: 294000001 cycles: 650596371 heartbeat IPC: 1.57087 cumulative IPC: 0.450611 (Simulation time: 0 hr 21 min 9 sec) 
Heartbeat CPU 0 instructions: 295000002 cycles: 651047444 heartbeat IPC: 2.21694 cumulative IPC: 0.451835 (Simulation time: 0 hr 21 min 12 sec) 
Heartbeat CPU 0 instructions: 296000001 cycles: 653517901 heartbeat IPC: 0.404783 cumulative IPC: 0.451657 (Simulation time: 0 hr 21 min 17 sec) 
Heartbeat CPU 0 instructions: 297000000 cycles: 655910193 heartbeat IPC: 0.418009 cumulative IPC: 0.451534 (Simulation time: 0 hr 21 min 21 sec) 
Heartbeat CPU 0 instructions: 298000000 cycles: 658321380 heartbeat IPC: 0.414733 cumulative IPC: 0.4514 (Simulation time: 0 hr 21 min 25 sec) 
Heartbeat CPU 0 instructions: 299000000 cycles: 660726131 heartbeat IPC: 0.415843 cumulative IPC: 0.45127 (Simulation time: 0 hr 21 min 29 sec) 
Heartbeat CPU 0 instructions: 300000002 cycles: 663198991 heartbeat IPC: 0.404391 cumulative IPC: 0.451095 (Simulation time: 0 hr 21 min 34 sec) 
Heartbeat CPU 0 instructions: 301000001 cycles: 665785321 heartbeat IPC: 0.386648 cumulative IPC: 0.450845 (Simulation time: 0 hr 21 min 38 sec) 
Heartbeat CPU 0 instructions: 302000002 cycles: 668698145 heartbeat IPC: 0.34331 cumulative IPC: 0.450376 (Simulation time: 0 hr 21 min 43 sec) 
Heartbeat CPU 0 instructions: 303000001 cycles: 671636367 heartbeat IPC: 0.340342 cumulative IPC: 0.449894 (Simulation time: 0 hr 21 min 48 sec) 
Heartbeat CPU 0 instructions: 304000002 cycles: 674571891 heartbeat IPC: 0.340655 cumulative IPC: 0.449419 (Simulation time: 0 hr 21 min 52 sec) 
Heartbeat CPU 0 instructions: 305000002 cycles: 677184795 heartbeat IPC: 0.382716 cumulative IPC: 0.449161 (Simulation time: 0 hr 21 min 57 sec) 
Heartbeat CPU 0 instructions: 306000001 cycles: 679606675 heartbeat IPC: 0.412902 cumulative IPC: 0.449032 (Simulation time: 0 hr 22 min 1 sec) 
Heartbeat CPU 0 instructions: 307000001 cycles: 682131713 heartbeat IPC: 0.396034 cumulative IPC: 0.448836 (Simulation time: 0 hr 22 min 6 sec) 
Heartbeat CPU 0 instructions: 308000000 cycles: 684525475 heartbeat IPC: 0.417752 cumulative IPC: 0.448727 (Simulation time: 0 hr 22 min 10 sec) 
Heartbeat CPU 0 instructions: 309000003 cycles: 686961222 heartbeat IPC: 0.410553 cumulative IPC: 0.448591 (Simulation time: 0 hr 22 min 14 sec) 
Heartbeat CPU 0 instructions: 310000002 cycles: 689376842 heartbeat IPC: 0.413972 cumulative IPC: 0.44847 (Simulation time: 0 hr 22 min 19 sec) 
Heartbeat CPU 0 instructions: 311000002 cycles: 691775894 heartbeat IPC: 0.416831 cumulative IPC: 0.44836 (Simulation time: 0 hr 22 min 23 sec) 
Heartbeat CPU 0 instructions: 312000000 cycles: 694412008 heartbeat IPC: 0.379346 cumulative IPC: 0.448098 (Simulation time: 0 hr 22 min 28 sec) 
Heartbeat CPU 0 instructions: 313000000 cycles: 696837601 heartbeat IPC: 0.41227 cumulative IPC: 0.447973 (Simulation time: 0 hr 22 min 32 sec) 
Heartbeat CPU 0 instructions: 314000002 cycles: 699246958 heartbeat IPC: 0.415049 cumulative IPC: 0.44786 (Simulation time: 0 hr 22 min 36 sec) 
Heartbeat CPU 0 instructions: 315000003 cycles: 701671024 heartbeat IPC: 0.41253 cumulative IPC: 0.447738 (Simulation time: 0 hr 22 min 41 sec) 
Heartbeat CPU 0 instructions: 316000001 cycles: 704081919 heartbeat IPC: 0.414783 cumulative IPC: 0.447625 (Simulation time: 0 hr 22 min 45 sec) 
Heartbeat CPU 0 instructions: 317000000 cycles: 706507902 heartbeat IPC: 0.412204 cumulative IPC: 0.447503 (Simulation time: 0 hr 22 min 49 sec) 
Heartbeat CPU 0 instructions: 318000001 cycles: 709196571 heartbeat IPC: 0.371932 cumulative IPC: 0.447217 (Simulation time: 0 hr 22 min 54 sec) 
Heartbeat CPU 0 instructions: 319000000 cycles: 713606284 heartbeat IPC: 0.226772 cumulative IPC: 0.445854 (Simulation time: 0 hr 23 min 0 sec) 
Heartbeat CPU 0 instructions: 320000000 cycles: 714092302 heartbeat IPC: 2.05754 cumulative IPC: 0.446951 (Simulation time: 0 hr 23 min 3 sec) 
Heartbeat CPU 0 instructions: 321000000 cycles: 714551839 heartbeat IPC: 2.1761 cumulative IPC: 0.448064 (Simulation time: 0 hr 23 min 6 sec) 
Heartbeat CPU 0 instructions: 322000001 cycles: 715012267 heartbeat IPC: 2.17189 cumulative IPC: 0.449174 (Simulation time: 0 hr 23 min 9 sec) 
Heartbeat CPU 0 instructions: 323000001 cycles: 715474147 heartbeat IPC: 2.16506 cumulative IPC: 0.450283 (Simulation time: 0 hr 23 min 12 sec) 
Heartbeat CPU 0 instructions: 324000002 cycles: 717197167 heartbeat IPC: 0.580377 cumulative IPC: 0.450595 (Simulation time: 0 hr 23 min 16 sec) 
Heartbeat CPU 0 instructions: 325000000 cycles: 720385332 heartbeat IPC: 0.313659 cumulative IPC: 0.449989 (Simulation time: 0 hr 23 min 20 sec) 
Heartbeat CPU 0 instructions: 326000002 cycles: 722945960 heartbeat IPC: 0.39053 cumulative IPC: 0.449778 (Simulation time: 0 hr 23 min 25 sec) 
Heartbeat CPU 0 instructions: 327000000 cycles: 725354700 heartbeat IPC: 0.415154 cumulative IPC: 0.449663 (Simulation time: 0 hr 23 min 30 sec) 
Heartbeat CPU 0 instructions: 328000002 cycles: 727763729 heartbeat IPC: 0.415106 cumulative IPC: 0.449549 (Simulation time: 0 hr 23 min 34 sec) 
Heartbeat CPU 0 instructions: 329000000 cycles: 730213564 heartbeat IPC: 0.40819 cumulative IPC: 0.44941 (Simulation time: 0 hr 23 min 39 sec) 
Heartbeat CPU 0 instructions: 330000000 cycles: 734624192 heartbeat IPC: 0.226725 cumulative IPC: 0.448072 (Simulation time: 0 hr 23 min 45 sec) 
Heartbeat CPU 0 instructions: 331000001 cycles: 737091060 heartbeat IPC: 0.405373 cumulative IPC: 0.447929 (Simulation time: 0 hr 23 min 49 sec) 
Heartbeat CPU 0 instructions: 332000003 cycles: 739676313 heartbeat IPC: 0.38681 cumulative IPC: 0.447716 (Simulation time: 0 hr 23 min 54 sec) 
Heartbeat CPU 0 instructions: 333000001 cycles: 742083749 heartbeat IPC: 0.415379 cumulative IPC: 0.447611 (Simulation time: 0 hr 23 min 59 sec) 
Heartbeat CPU 0 instructions: 334000001 cycles: 744528757 heartbeat IPC: 0.408997 cumulative IPC: 0.447484 (Simulation time: 0 hr 24 min 3 sec) 
Heartbeat CPU 0 instructions: 335000000 cycles: 748912291 heartbeat IPC: 0.228126 cumulative IPC: 0.446199 (Simulation time: 0 hr 24 min 9 sec) 
Heartbeat CPU 0 instructions: 336000000 cycles: 751380413 heartbeat IPC: 0.405166 cumulative IPC: 0.446064 (Simulation time: 0 hr 24 min 14 sec) 
Heartbeat CPU 0 instructions: 337000000 cycles: 753817487 heartbeat IPC: 0.410328 cumulative IPC: 0.445949 (Simulation time: 0 hr 24 min 18 sec) 
Heartbeat CPU 0 instructions: 338000003 cycles: 756471072 heartbeat IPC: 0.37685 cumulative IPC: 0.445706 (Simulation time: 0 hr 24 min 23 sec) 
Heartbeat CPU 0 instructions: 339000001 cycles: 758888820 heartbeat IPC: 0.413607 cumulative IPC: 0.445604 (Simulation time: 0 hr 24 min 28 sec) 
Heartbeat CPU 0 instructions: 340000000 cycles: 763258515 heartbeat IPC: 0.228849 cumulative IPC: 0.444362 (Simulation time: 0 hr 24 min 34 sec) 
Heartbeat CPU 0 instructions: 341000000 cycles: 765715040 heartbeat IPC: 0.407079 cumulative IPC: 0.444243 (Simulation time: 0 hr 24 min 38 sec) 
Heartbeat CPU 0 instructions: 342000002 cycles: 768165687 heartbeat IPC: 0.408056 cumulative IPC: 0.444127 (Simulation time: 0 hr 24 min 42 sec) 
Heartbeat CPU 0 instructions: 343000000 cycles: 770586566 heartbeat IPC: 0.413072 cumulative IPC: 0.44403 (Simulation time: 0 hr 24 min 47 sec) 
Heartbeat CPU 0 instructions: 344000003 cycles: 773147734 heartbeat IPC: 0.390448 cumulative IPC: 0.443852 (Simulation time: 0 hr 24 min 51 sec) 
Heartbeat CPU 0 instructions: 345000000 cycles: 777515313 heartbeat IPC: 0.228959 cumulative IPC: 0.442644 (Simulation time: 0 hr 24 min 57 sec) 
Heartbeat CPU 0 instructions: 346000001 cycles: 777995060 heartbeat IPC: 2.08443 cumulative IPC: 0.443657 (Simulation time: 0 hr 25 min 0 sec) 
Heartbeat CPU 0 instructions: 347000003 cycles: 778450995 heartbeat IPC: 2.1933 cumulative IPC: 0.444682 (Simulation time: 0 hr 25 min 3 sec) 
Heartbeat CPU 0 instructions: 348000000 cycles: 778908992 heartbeat IPC: 2.18341 cumulative IPC: 0.445705 (Simulation time: 0 hr 25 min 5 sec) 
Heartbeat CPU 0 instructions: 349000003 cycles: 779363455 heartbeat IPC: 2.20041 cumulative IPC: 0.446729 (Simulation time: 0 hr 25 min 8 sec) 
Heartbeat CPU 0 instructions: 350000000 cycles: 781902163 heartbeat IPC: 0.3939 cumulative IPC: 0.446557 (Simulation time: 0 hr 25 min 13 sec) 
Heartbeat CPU 0 instructions: 351000002 cycles: 784351618 heartbeat IPC: 0.408255 cumulative IPC: 0.446438 (Simulation time: 0 hr 25 min 17 sec) 
Heartbeat CPU 0 instructions: 352000000 cycles: 786946276 heartbeat IPC: 0.385406 cumulative IPC: 0.446236 (Simulation time: 0 hr 25 min 22 sec) 
Heartbeat CPU 0 instructions: 353000003 cycles: 789356256 heartbeat IPC: 0.414942 cumulative IPC: 0.446141 (Simulation time: 0 hr 25 min 26 sec) 
Heartbeat CPU 0 instructions: 354000000 cycles: 792041810 heartbeat IPC: 0.372362 cumulative IPC: 0.445891 (Simulation time: 0 hr 25 min 31 sec) 
Heartbeat CPU 0 instructions: 355000002 cycles: 795164240 heartbeat IPC: 0.320264 cumulative IPC: 0.445397 (Simulation time: 0 hr 25 min 35 sec) 
Heartbeat CPU 0 instructions: 356000001 cycles: 798284327 heartbeat IPC: 0.320504 cumulative IPC: 0.444909 (Simulation time: 0 hr 25 min 40 sec) 
Heartbeat CPU 0 instructions: 357000002 cycles: 801118412 heartbeat IPC: 0.352848 cumulative IPC: 0.444583 (Simulation time: 0 hr 25 min 45 sec) 
Heartbeat CPU 0 instructions: 358000000 cycles: 803720919 heartbeat IPC: 0.384244 cumulative IPC: 0.444387 (Simulation time: 0 hr 25 min 50 sec) 
Heartbeat CPU 0 instructions: 359000001 cycles: 806185176 heartbeat IPC: 0.405802 cumulative IPC: 0.444269 (Simulation time: 0 hr 25 min 54 sec) 
Heartbeat CPU 0 instructions: 360000002 cycles: 808637450 heartbeat IPC: 0.407785 cumulative IPC: 0.444159 (Simulation time: 0 hr 25 min 58 sec) 
Heartbeat CPU 0 instructions: 361000000 cycles: 811133058 heartbeat IPC: 0.400703 cumulative IPC: 0.444025 (Simulation time: 0 hr 26 min 3 sec) 
Heartbeat CPU 0 instructions: 362000001 cycles: 813574252 heartbeat IPC: 0.409636 cumulative IPC: 0.443922 (Simulation time: 0 hr 26 min 7 sec) 
Heartbeat CPU 0 instructions: 363000000 cycles: 816187906 heartbeat IPC: 0.382606 cumulative IPC: 0.443725 (Simulation time: 0 hr 26 min 12 sec) 
Heartbeat CPU 0 instructions: 364000002 cycles: 818599299 heartbeat IPC: 0.414699 cumulative IPC: 0.44364 (Simulation time: 0 hr 26 min 16 sec) 
Heartbeat CPU 0 instructions: 365000002 cycles: 821055065 heartbeat IPC: 0.407205 cumulative IPC: 0.443531 (Simulation time: 0 hr 26 min 21 sec) 
Heartbeat CPU 0 instructions: 366000003 cycles: 825486969 heartbeat IPC: 0.225637 cumulative IPC: 0.44236 (Simulation time: 0 hr 26 min 26 sec) 
Heartbeat CPU 0 instructions: 367000000 cycles: 825955645 heartbeat IPC: 2.13366 cumulative IPC: 0.44332 (Simulation time: 0 hr 26 min 29 sec) 
Heartbeat CPU 0 instructions: 368000001 cycles: 826412936 heartbeat IPC: 2.18679 cumulative IPC: 0.444286 (Simulation time: 0 hr 26 min 32 sec) 
Heartbeat CPU 0 instructions: 369000001 cycles: 826864627 heartbeat IPC: 2.2139 cumulative IPC: 0.445253 (Simulation time: 0 hr 26 min 35 sec) 
Heartbeat CPU 0 instructions: 370000003 cycles: 827321811 heartbeat IPC: 2.18731 cumulative IPC: 0.446216 (Simulation time: 0 hr 26 min 39 sec) 
Heartbeat CPU 0 instructions: 371000003 cycles: 829810684 heartbeat IPC: 0.401788 cumulative IPC: 0.446082 (Simulation time: 0 hr 26 min 43 sec) 
Heartbeat CPU 0 instructions: 372000000 cycles: 832366512 heartbeat IPC: 0.391261 cumulative IPC: 0.445914 (Simulation time: 0 hr 26 min 48 sec) 
Heartbeat CPU 0 instructions: 373000001 cycles: 834834048 heartbeat IPC: 0.405263 cumulative IPC: 0.445794 (Simulation time: 0 hr 26 min 52 sec) 
Heartbeat CPU 0 instructions: 374000000 cycles: 837301936 heartbeat IPC: 0.405204 cumulative IPC: 0.445674 (Simulation time: 0 hr 26 min 56 sec) 
Heartbeat CPU 0 instructions: 375000001 cycles: 839769337 heartbeat IPC: 0.405285 cumulative IPC: 0.445555 (Simulation time: 0 hr 27 min 1 sec) 
Heartbeat CPU 0 instructions: 376000000 cycles: 842238601 heartbeat IPC: 0.404979 cumulative IPC: 0.445436 (Simulation time: 0 hr 27 min 5 sec) 
Heartbeat CPU 0 instructions: 377000002 cycles: 845160965 heartbeat IPC: 0.342189 cumulative IPC: 0.445079 (Simulation time: 0 hr 27 min 11 sec) 
Heartbeat CPU 0 instructions: 378000001 cycles: 847921807 heartbeat IPC: 0.362208 cumulative IPC: 0.444809 (Simulation time: 0 hr 27 min 15 sec) 
Heartbeat CPU 0 instructions: 379000001 cycles: 851026048 heartbeat IPC: 0.32214 cumulative IPC: 0.444362 (Simulation time: 0 hr 27 min 20 sec) 
Heartbeat CPU 0 instructions: 380000001 cycles: 854126298 heartbeat IPC: 0.322555 cumulative IPC: 0.443919 (Simulation time: 0 hr 27 min 25 sec) 
Heartbeat CPU 0 instructions: 381000000 cycles: 856623883 heartbeat IPC: 0.400386 cumulative IPC: 0.443792 (Simulation time: 0 hr 27 min 30 sec) 
Heartbeat CPU 0 instructions: 382000000 cycles: 859090397 heartbeat IPC: 0.40543 cumulative IPC: 0.443682 (Simulation time: 0 hr 27 min 34 sec) 
Heartbeat CPU 0 instructions: 383000003 cycles: 861538774 heartbeat IPC: 0.408435 cumulative IPC: 0.443582 (Simulation time: 0 hr 27 min 39 sec) 
Heartbeat CPU 0 instructions: 384000000 cycles: 864175936 heartbeat IPC: 0.379194 cumulative IPC: 0.443385 (Simulation time: 0 hr 27 min 44 sec) 
Heartbeat CPU 0 instructions: 385000000 cycles: 866649972 heartbeat IPC: 0.404198 cumulative IPC: 0.443274 (Simulation time: 0 hr 27 min 48 sec) 
Heartbeat CPU 0 instructions: 386000003 cycles: 869119337 heartbeat IPC: 0.404964 cumulative IPC: 0.443165 (Simulation time: 0 hr 27 min 53 sec) 
Heartbeat CPU 0 instructions: 387000001 cycles: 873610962 heartbeat IPC: 0.222636 cumulative IPC: 0.44203 (Simulation time: 0 hr 27 min 59 sec) 
Heartbeat CPU 0 instructions: 388000000 cycles: 874108921 heartbeat IPC: 2.0082 cumulative IPC: 0.442923 (Simulation time: 0 hr 28 min 2 sec) 
Heartbeat CPU 0 instructions: 389000003 cycles: 874561058 heartbeat IPC: 2.21173 cumulative IPC: 0.443838 (Simulation time: 0 hr 28 min 5 sec) 
Heartbeat CPU 0 instructions: 390000001 cycles: 875019750 heartbeat IPC: 2.18011 cumulative IPC: 0.444748 (Simulation time: 0 hr 28 min 9 sec) 
Heartbeat CPU 0 instructions: 391000003 cycles: 875669143 heartbeat IPC: 1.5399 cumulative IPC: 0.445561 (Simulation time: 0 hr 28 min 12 sec) 
Heartbeat CPU 0 instructions: 392000000 cycles: 878051066 heartbeat IPC: 0.419828 cumulative IPC: 0.445491 (Simulation time: 0 hr 28 min 17 sec) 
Heartbeat CPU 0 instructions: 393000001 cycles: 880608127 heartbeat IPC: 0.391074 cumulative IPC: 0.445333 (Simulation time: 0 hr 28 min 21 sec) 
Heartbeat CPU 0 instructions: 394000000 cycles: 883088294 heartbeat IPC: 0.403198 cumulative IPC: 0.445214 (Simulation time: 0 hr 28 min 26 sec) 
Heartbeat CPU 0 instructions: 395000000 cycles: 885585693 heartbeat IPC: 0.400417 cumulative IPC: 0.445088 (Simulation time: 0 hr 28 min 30 sec) 
Heartbeat CPU 0 instructions: 396000000 cycles: 888064032 heartbeat IPC: 0.403496 cumulative IPC: 0.444972 (Simulation time: 0 hr 28 min 35 sec) 
Heartbeat CPU 0 instructions: 397000001 cycles: 890637497 heartbeat IPC: 0.388582 cumulative IPC: 0.444809 (Simulation time: 0 hr 28 min 40 sec) 
Heartbeat CPU 0 instructions: 398000000 cycles: 893056900 heartbeat IPC: 0.413325 cumulative IPC: 0.444724 (Simulation time: 0 hr 28 min 44 sec) 
Heartbeat CPU 0 instructions: 399000001 cycles: 895537152 heartbeat IPC: 0.403185 cumulative IPC: 0.444609 (Simulation time: 0 hr 28 min 49 sec) 
Heartbeat CPU 0 instructions: 400000001 cycles: 898072825 heartbeat IPC: 0.394373 cumulative IPC: 0.444467 (Simulation time: 0 hr 28 min 54 sec) 
Heartbeat CPU 0 instructions: 401000000 cycles: 901146162 heartbeat IPC: 0.325379 cumulative IPC: 0.44406 (Simulation time: 0 hr 28 min 59 sec) 
Heartbeat CPU 0 instructions: 402000001 cycles: 904178803 heartbeat IPC: 0.329746 cumulative IPC: 0.443677 (Simulation time: 0 hr 29 min 4 sec) 
Heartbeat CPU 0 instructions: 403000002 cycles: 907213315 heartbeat IPC: 0.329543 cumulative IPC: 0.443295 (Simulation time: 0 hr 29 min 8 sec) 
Heartbeat CPU 0 instructions: 404000002 cycles: 909561949 heartbeat IPC: 0.425779 cumulative IPC: 0.44325 (Simulation time: 0 hr 29 min 13 sec) 
Heartbeat CPU 0 instructions: 405000001 cycles: 912387809 heartbeat IPC: 0.353874 cumulative IPC: 0.442973 (Simulation time: 0 hr 29 min 18 sec) 
Heartbeat CPU 0 instructions: 406000002 cycles: 914869336 heartbeat IPC: 0.402978 cumulative IPC: 0.442864 (Simulation time: 0 hr 29 min 23 sec) 
Heartbeat CPU 0 instructions: 407000000 cycles: 917375905 heartbeat IPC: 0.398951 cumulative IPC: 0.442744 (Simulation time: 0 hr 29 min 27 sec) 
Heartbeat CPU 0 instructions: 408000002 cycles: 921150056 heartbeat IPC: 0.264961 cumulative IPC: 0.442015 (Simulation time: 0 hr 29 min 33 sec) 
Heartbeat CPU 0 instructions: 409000001 cycles: 922382816 heartbeat IPC: 0.811187 cumulative IPC: 0.442509 (Simulation time: 0 hr 29 min 37 sec) 
Heartbeat CPU 0 instructions: 410000002 cycles: 922977056 heartbeat IPC: 1.68282 cumulative IPC: 0.443308 (Simulation time: 0 hr 29 min 40 sec) 
Heartbeat CPU 0 instructions: 411000001 cycles: 923494690 heartbeat IPC: 1.93186 cumulative IPC: 0.444143 (Simulation time: 0 hr 29 min 44 sec) 
Heartbeat CPU 0 instructions: 412000002 cycles: 923945118 heartbeat IPC: 2.22011 cumulative IPC: 0.445009 (Simulation time: 0 hr 29 min 47 sec) 
Heartbeat CPU 0 instructions: 413000000 cycles: 924961774 heartbeat IPC: 0.983615 cumulative IPC: 0.445601 (Simulation time: 0 hr 29 min 50 sec) 
Heartbeat CPU 0 instructions: 414000001 cycles: 928117898 heartbeat IPC: 0.316845 cumulative IPC: 0.445163 (Simulation time: 0 hr 29 min 55 sec) 
Heartbeat CPU 0 instructions: 415000000 cycles: 931291575 heartbeat IPC: 0.315092 cumulative IPC: 0.444719 (Simulation time: 0 hr 30 min 0 sec) 
Heartbeat CPU 0 instructions: 416000002 cycles: 933864345 heartbeat IPC: 0.388687 cumulative IPC: 0.444565 (Simulation time: 0 hr 30 min 5 sec) 
Heartbeat CPU 0 instructions: 417000003 cycles: 936367351 heartbeat IPC: 0.39952 cumulative IPC: 0.444445 (Simulation time: 0 hr 30 min 10 sec) 
Heartbeat CPU 0 instructions: 418000000 cycles: 938985822 heartbeat IPC: 0.381901 cumulative IPC: 0.44427 (Simulation time: 0 hr 30 min 15 sec) 
Heartbeat CPU 0 instructions: 419000003 cycles: 941480203 heartbeat IPC: 0.400902 cumulative IPC: 0.444155 (Simulation time: 0 hr 30 min 19 sec) 
Heartbeat CPU 0 instructions: 420000002 cycles: 943983470 heartbeat IPC: 0.399478 cumulative IPC: 0.444037 (Simulation time: 0 hr 30 min 24 sec) 
Heartbeat CPU 0 instructions: 421000000 cycles: 946476942 heartbeat IPC: 0.401046 cumulative IPC: 0.443923 (Simulation time: 0 hr 30 min 29 sec) 
Heartbeat CPU 0 instructions: 422000000 cycles: 948931783 heartbeat IPC: 0.407358 cumulative IPC: 0.443829 (Simulation time: 0 hr 30 min 33 sec) 
Heartbeat CPU 0 instructions: 423000001 cycles: 951526863 heartbeat IPC: 0.385345 cumulative IPC: 0.443669 (Simulation time: 0 hr 30 min 38 sec) 
Heartbeat CPU 0 instructions: 424000002 cycles: 953976083 heartbeat IPC: 0.408294 cumulative IPC: 0.443578 (Simulation time: 0 hr 30 min 42 sec) 
Heartbeat CPU 0 instructions: 425000000 cycles: 956655387 heartbeat IPC: 0.373231 cumulative IPC: 0.443381 (Simulation time: 0 hr 30 min 47 sec) 
Heartbeat CPU 0 instructions: 426000002 cycles: 959766532 heartbeat IPC: 0.321426 cumulative IPC: 0.442986 (Simulation time: 0 hr 30 min 52 sec) 
Heartbeat CPU 0 instructions: 427000001 cycles: 962839724 heartbeat IPC: 0.325394 cumulative IPC: 0.44261 (Simulation time: 0 hr 30 min 56 sec) 
Heartbeat CPU 0 instructions: 428000000 cycles: 965904865 heartbeat IPC: 0.326249 cumulative IPC: 0.442241 (Simulation time: 0 hr 31 min 1 sec) 
Heartbeat CPU 0 instructions: 429000000 cycles: 968463942 heartbeat IPC: 0.390766 cumulative IPC: 0.442105 (Simulation time: 0 hr 31 min 6 sec) 
Heartbeat CPU 0 instructions: 430000000 cycles: 971080459 heartbeat IPC: 0.382187 cumulative IPC: 0.441943 (Simulation time: 0 hr 31 min 11 sec) 
Heartbeat CPU 0 instructions: 431000003 cycles: 971555695 heartbeat IPC: 2.10422 cumulative IPC: 0.442757 (Simulation time: 0 hr 31 min 14 sec) 
Heartbeat CPU 0 instructions: 432000002 cycles: 972006572 heartbeat IPC: 2.2179 cumulative IPC: 0.44358 (Simulation time: 0 hr 31 min 17 sec) 
Heartbeat CPU 0 instructions: 433000003 cycles: 972463533 heartbeat IPC: 2.18837 cumulative IPC: 0.444401 (Simulation time: 0 hr 31 min 20 sec) 
Heartbeat CPU 0 instructions: 434000002 cycles: 972913218 heartbeat IPC: 2.22378 cumulative IPC: 0.445223 (Simulation time: 0 hr 31 min 23 sec) 
Heartbeat CPU 0 instructions: 435000001 cycles: 975394413 heartbeat IPC: 0.403031 cumulative IPC: 0.445116 (Simulation time: 0 hr 31 min 27 sec) 
Heartbeat CPU 0 instructions: 436000002 cycles: 978231180 heartbeat IPC: 0.352514 cumulative IPC: 0.444847 (Simulation time: 0 hr 31 min 32 sec) 
Heartbeat CPU 0 instructions: 437000001 cycles: 981413949 heartbeat IPC: 0.314192 cumulative IPC: 0.444423 (Simulation time: 0 hr 31 min 37 sec) 
Heartbeat CPU 0 instructions: 438000002 cycles: 984218915 heartbeat IPC: 0.356511 cumulative IPC: 0.444173 (Simulation time: 0 hr 31 min 42 sec) 
Heartbeat CPU 0 instructions: 439000002 cycles: 987324939 heartbeat IPC: 0.321955 cumulative IPC: 0.443788 (Simulation time: 0 hr 31 min 46 sec) 
Heartbeat CPU 0 instructions: 440000000 cycles: 989977049 heartbeat IPC: 0.377058 cumulative IPC: 0.443609 (Simulation time: 0 hr 31 min 51 sec) 
Heartbeat CPU 0 instructions: 441000002 cycles: 992484224 heartbeat IPC: 0.398856 cumulative IPC: 0.443496 (Simulation time: 0 hr 31 min 56 sec) 
Heartbeat CPU 0 instructions: 442000000 cycles: 994956599 heartbeat IPC: 0.404469 cumulative IPC: 0.443399 (Simulation time: 0 hr 32 min 0 sec) 
Heartbeat CPU 0 instructions: 443000002 cycles: 997671077 heartbeat IPC: 0.368396 cumulative IPC: 0.443195 (Simulation time: 0 hr 32 min 5 sec) 
Heartbeat CPU 0 instructions: 444000001 cycles: 1000140721 heartbeat IPC: 0.404916 cumulative IPC: 0.443101 (Simulation time: 0 hr 32 min 9 sec) 
Heartbeat CPU 0 instructions: 445000000 cycles: 1002645297 heartbeat IPC: 0.399269 cumulative IPC: 0.442991 (Simulation time: 0 hr 32 min 14 sec) 
Heartbeat CPU 0 instructions: 446000002 cycles: 1005172556 heartbeat IPC: 0.395686 cumulative IPC: 0.442872 (Simulation time: 0 hr 32 min 18 sec) 
Heartbeat CPU 0 instructions: 447000000 cycles: 1007645468 heartbeat IPC: 0.404381 cumulative IPC: 0.442778 (Simulation time: 0 hr 32 min 23 sec) 
Heartbeat CPU 0 instructions: 448000003 cycles: 1010160024 heartbeat IPC: 0.397686 cumulative IPC: 0.442665 (Simulation time: 0 hr 32 min 27 sec) 
Heartbeat CPU 0 instructions: 449000000 cycles: 1012866798 heartbeat IPC: 0.369442 cumulative IPC: 0.44247 (Simulation time: 0 hr 32 min 32 sec) 
Heartbeat CPU 0 instructions: 450000002 cycles: 1015717260 heartbeat IPC: 0.350821 cumulative IPC: 0.442212 (Simulation time: 0 hr 32 min 36 sec) 

Warmup complete CPU 0 instructions: 450000002 cycles: 1015717260 (Simulation time: 0 hr 32 min 36 sec) 

Heartbeat CPU 0 instructions: 451000000 cycles: 1019735973 heartbeat IPC: 0.248835 cumulative IPC: 0.248835 (Simulation time: 0 hr 32 min 42 sec) 
Heartbeat CPU 0 instructions: 452000000 cycles: 1020208253 heartbeat IPC: 2.11739 cumulative IPC: 0.445335 (Simulation time: 0 hr 32 min 45 sec) 
Heartbeat CPU 0 instructions: 453000002 cycles: 1020660409 heartbeat IPC: 2.21163 cumulative IPC: 0.606901 (Simulation time: 0 hr 32 min 48 sec) 
Heartbeat CPU 0 instructions: 454000000 cycles: 1021118183 heartbeat IPC: 2.18448 cumulative IPC: 0.740614 (Simulation time: 0 hr 32 min 51 sec) 
Heartbeat CPU 0 instructions: 455000002 cycles: 1021571168 heartbeat IPC: 2.20758 cumulative IPC: 0.85413 (Simulation time: 0 hr 32 min 55 sec) 
Heartbeat CPU 0 instructions: 456000000 cycles: 1024016411 heartbeat IPC: 0.408956 cumulative IPC: 0.722965 (Simulation time: 0 hr 32 min 59 sec) 
Heartbeat CPU 0 instructions: 457000001 cycles: 1026550415 heartbeat IPC: 0.394633 cumulative IPC: 0.646164 (Simulation time: 0 hr 33 min 4 sec) 
Heartbeat CPU 0 instructions: 458000000 cycles: 1028983633 heartbeat IPC: 0.410978 cumulative IPC: 0.603028 (Simulation time: 0 hr 33 min 9 sec) 
Heartbeat CPU 0 instructions: 459000002 cycles: 1031398264 heartbeat IPC: 0.414143 cumulative IPC: 0.573943 (Simulation time: 0 hr 33 min 13 sec) 
Heartbeat CPU 0 instructions: 460000002 cycles: 1033796129 heartbeat IPC: 0.417038 cumulative IPC: 0.553132 (Simulation time: 0 hr 33 min 18 sec) 
Heartbeat CPU 0 instructions: 461000000 cycles: 1036690518 heartbeat IPC: 0.345495 cumulative IPC: 0.524477 (Simulation time: 0 hr 33 min 23 sec) 
Heartbeat CPU 0 instructions: 462000000 cycles: 1039657798 heartbeat IPC: 0.337009 cumulative IPC: 0.501242 (Simulation time: 0 hr 33 min 27 sec) 
Heartbeat CPU 0 instructions: 463000001 cycles: 1042633729 heartbeat IPC: 0.33603 cumulative IPC: 0.482976 (Simulation time: 0 hr 33 min 32 sec) 
Heartbeat CPU 0 instructions: 464000000 cycles: 1045285529 heartbeat IPC: 0.377102 cumulative IPC: 0.47348 (Simulation time: 0 hr 33 min 37 sec) 
Heartbeat CPU 0 instructions: 465000001 cycles: 1047824751 heartbeat IPC: 0.393822 cumulative IPC: 0.467181 (Simulation time: 0 hr 33 min 42 sec) 
Heartbeat CPU 0 instructions: 466000000 cycles: 1050235389 heartbeat IPC: 0.414828 cumulative IPC: 0.463524 (Simulation time: 0 hr 33 min 46 sec) 
Heartbeat CPU 0 instructions: 467000002 cycles: 1052647389 heartbeat IPC: 0.414595 cumulative IPC: 0.460329 (Simulation time: 0 hr 33 min 51 sec) 
Heartbeat CPU 0 instructions: 468000000 cycles: 1055042099 heartbeat IPC: 0.417586 cumulative IPC: 0.457726 (Simulation time: 0 hr 33 min 55 sec) 
Heartbeat CPU 0 instructions: 469000002 cycles: 1057618905 heartbeat IPC: 0.388078 cumulative IPC: 0.453443 (Simulation time: 0 hr 34 min 0 sec) 
Heartbeat CPU 0 instructions: 470000000 cycles: 1060027989 heartbeat IPC: 0.415095 cumulative IPC: 0.451358 (Simulation time: 0 hr 34 min 4 sec) 
Heartbeat CPU 0 instructions: 471000001 cycles: 1062448033 heartbeat IPC: 0.413216 cumulative IPC: 0.449383 (Simulation time: 0 hr 34 min 8 sec) 
Heartbeat CPU 0 instructions: 472000000 cycles: 1066796568 heartbeat IPC: 0.229962 cumulative IPC: 0.430703 (Simulation time: 0 hr 34 min 14 sec) 
Heartbeat CPU 0 instructions: 473000000 cycles: 1067274806 heartbeat IPC: 2.09101 cumulative IPC: 0.446103 (Simulation time: 0 hr 34 min 17 sec) 
Heartbeat CPU 0 instructions: 474000002 cycles: 1067727361 heartbeat IPC: 2.20968 cumulative IPC: 0.461449 (Simulation time: 0 hr 34 min 20 sec) 
Heartbeat CPU 0 instructions: 475000000 cycles: 1068187250 heartbeat IPC: 2.17443 cumulative IPC: 0.476463 (Simulation time: 0 hr 34 min 23 sec) 
Heartbeat CPU 0 instructions: 476000001 cycles: 1068636936 heartbeat IPC: 2.22378 cumulative IPC: 0.491311 (Simulation time: 0 hr 34 min 27 sec) 
Heartbeat CPU 0 instructions: 477000001 cycles: 1071173399 heartbeat IPC: 0.39425 cumulative IPC: 0.486871 (Simulation time: 0 hr 34 min 32 sec) 
Heartbeat CPU 0 instructions: 478000002 cycles: 1073614781 heartbeat IPC: 0.409604 cumulative IPC: 0.483613 (Simulation time: 0 hr 34 min 37 sec) 
Heartbeat CPU 0 instructions: 479000001 cycles: 1076039196 heartbeat IPC: 0.41247 cumulative IPC: 0.480754 (Simulation time: 0 hr 34 min 41 sec) 
Heartbeat CPU 0 instructions: 480000003 cycles: 1078445198 heartbeat IPC: 0.415628 cumulative IPC: 0.478256 (Simulation time: 0 hr 34 min 46 sec) 
Heartbeat CPU 0 instructions: 481000001 cycles: 1080840333 heartbeat IPC: 0.417512 cumulative IPC: 0.476022 (Simulation time: 0 hr 34 min 50 sec) 
Heartbeat CPU 0 instructions: 482000001 cycles: 1083221044 heartbeat IPC: 0.420043 cumulative IPC: 0.474047 (Simulation time: 0 hr 34 min 54 sec) 
Heartbeat CPU 0 instructions: 483000002 cycles: 1085699785 heartbeat IPC: 0.403431 cumulative IPC: 0.471546 (Simulation time: 0 hr 34 min 59 sec) 
Heartbeat CPU 0 instructions: 484000000 cycles: 1088118347 heartbeat IPC: 0.413468 cumulative IPC: 0.469606 (Simulation time: 0 hr 35 min 3 sec) 
Heartbeat CPU 0 instructions: 485000000 cycles: 1090546688 heartbeat IPC: 0.411804 cumulative IPC: 0.46773 (Simulation time: 0 hr 35 min 8 sec) 
Heartbeat CPU 0 instructions: 486000000 cycles: 1093529785 heartbeat IPC: 0.335222 cumulative IPC: 0.46265 (Simulation time: 0 hr 35 min 12 sec) 
Heartbeat CPU 0 instructions: 487000002 cycles: 1096465069 heartbeat IPC: 0.340683 cumulative IPC: 0.458217 (Simulation time: 0 hr 35 min 17 sec) 
Heartbeat CPU 0 instructions: 488000001 cycles: 1099373916 heartbeat IPC: 0.343778 cumulative IPC: 0.454238 (Simulation time: 0 hr 35 min 22 sec) 
Heartbeat CPU 0 instructions: 489000002 cycles: 1101620831 heartbeat IPC: 0.445055 cumulative IPC: 0.453997 (Simulation time: 0 hr 35 min 27 sec) 
Heartbeat CPU 0 instructions: 490000001 cycles: 1104589924 heartbeat IPC: 0.336803 cumulative IPC: 0.450082 (Simulation time: 0 hr 35 min 31 sec) 
Heartbeat CPU 0 instructions: 491000000 cycles: 1107042945 heartbeat IPC: 0.40766 cumulative IPC: 0.448943 (Simulation time: 0 hr 35 min 36 sec) 
Heartbeat CPU 0 instructions: 492000000 cycles: 1109451771 heartbeat IPC: 0.41514 cumulative IPC: 0.448074 (Simulation time: 0 hr 35 min 40 sec) 
Heartbeat CPU 0 instructions: 493000001 cycles: 1112728434 heartbeat IPC: 0.305189 cumulative IPC: 0.443248 (Simulation time: 0 hr 35 min 45 sec) 
Heartbeat CPU 0 instructions: 494000002 cycles: 1114310403 heartbeat IPC: 0.632124 cumulative IPC: 0.446279 (Simulation time: 0 hr 35 min 49 sec) 
Heartbeat CPU 0 instructions: 495000000 cycles: 1114761702 heartbeat IPC: 2.21582 cumulative IPC: 0.454341 (Simulation time: 0 hr 35 min 52 sec) 
Heartbeat CPU 0 instructions: 496000003 cycles: 1115220255 heartbeat IPC: 2.18078 cumulative IPC: 0.462298 (Simulation time: 0 hr 35 min 55 sec) 
Heartbeat CPU 0 instructions: 497000000 cycles: 1115798252 heartbeat IPC: 1.73011 cumulative IPC: 0.46962 (Simulation time: 0 hr 35 min 59 sec) 
Heartbeat CPU 0 instructions: 498000001 cycles: 1116393272 heartbeat IPC: 1.68062 cumulative IPC: 0.476777 (Simulation time: 0 hr 36 min 2 sec) 
Heartbeat CPU 0 instructions: 499000000 cycles: 1119487610 heartbeat IPC: 0.323171 cumulative IPC: 0.472197 (Simulation time: 0 hr 36 min 7 sec) 
Heartbeat CPU 0 instructions: 500000000 cycles: 1122514291 heartbeat IPC: 0.330395 cumulative IPC: 0.468178 (Simulation time: 0 hr 36 min 12 sec) 
Heartbeat CPU 0 instructions: 501000000 cycles: 1125495407 heartbeat IPC: 0.335445 cumulative IPC: 0.464573 (Simulation time: 0 hr 36 min 16 sec) 
Heartbeat CPU 0 instructions: 502000003 cycles: 1127931623 heartbeat IPC: 0.410474 cumulative IPC: 0.463399 (Simulation time: 0 hr 36 min 21 sec) 
Heartbeat CPU 0 instructions: 503000002 cycles: 1130472482 heartbeat IPC: 0.393567 cumulative IPC: 0.461853 (Simulation time: 0 hr 36 min 26 sec) 
Heartbeat CPU 0 instructions: 504000002 cycles: 1132916847 heartbeat IPC: 0.409104 cumulative IPC: 0.460752 (Simulation time: 0 hr 36 min 30 sec) 
Heartbeat CPU 0 instructions: 505000001 cycles: 1135341783 heartbeat IPC: 0.412382 cumulative IPC: 0.459772 (Simulation time: 0 hr 36 min 34 sec) 
Heartbeat CPU 0 instructions: 506000000 cycles: 1137779541 heartbeat IPC: 0.410213 cumulative IPC: 0.458782 (Simulation time: 0 hr 36 min 39 sec) 
Heartbeat CPU 0 instructions: 507000003 cycles: 1140181568 heartbeat IPC: 0.416316 cumulative IPC: 0.457963 (Simulation time: 0 hr 36 min 43 sec) 
Heartbeat CPU 0 instructions: 508000001 cycles: 1142606494 heartbeat IPC: 0.412383 cumulative IPC: 0.457092 (Simulation time: 0 hr 36 min 47 sec) 
Heartbeat CPU 0 instructions: 509000001 cycles: 1145120599 heartbeat IPC: 0.397756 cumulative IPC: 0.455939 (Simulation time: 0 hr 36 min 52 sec) 
Heartbeat CPU 0 instructions: 510000000 cycles: 1147577967 heartbeat IPC: 0.406939 cumulative IPC: 0.455026 (Simulation time: 0 hr 36 min 56 sec) 
Heartbeat CPU 0 instructions: 511000002 cycles: 1150007150 heartbeat IPC: 0.411662 cumulative IPC: 0.454241 (Simulation time: 0 hr 37 min 0 sec) 
Heartbeat CPU 0 instructions: 512000000 cycles: 1152836556 heartbeat IPC: 0.35343 cumulative IPC: 0.452161 (Simulation time: 0 hr 37 min 5 sec) 
Heartbeat CPU 0 instructions: 513000000 cycles: 1155758802 heartbeat IPC: 0.342203 cumulative IPC: 0.449867 (Simulation time: 0 hr 37 min 10 sec) 
Heartbeat CPU 0 instructions: 514000000 cycles: 1158686983 heartbeat IPC: 0.341509 cumulative IPC: 0.447647 (Simulation time: 0 hr 37 min 14 sec) 
Heartbeat CPU 0 instructions: 515000000 cycles: 1161656753 heartbeat IPC: 0.336726 cumulative IPC: 0.44539 (Simulation time: 0 hr 37 min 19 sec) 
Heartbeat CPU 0 instructions: 516000001 cycles: 1162220476 heartbeat IPC: 1.77392 cumulative IPC: 0.450502 (Simulation time: 0 hr 37 min 22 sec) 
Heartbeat CPU 0 instructions: 517000000 cycles: 1162678579 heartbeat IPC: 2.18291 cumulative IPC: 0.455902 (Simulation time: 0 hr 37 min 25 sec) 
Heartbeat CPU 0 instructions: 518000003 cycles: 1163128124 heartbeat IPC: 2.22448 cumulative IPC: 0.461296 (Simulation time: 0 hr 37 min 28 sec) 
Heartbeat CPU 0 instructions: 519000001 cycles: 1163588315 heartbeat IPC: 2.17301 cumulative IPC: 0.466623 (Simulation time: 0 hr 37 min 31 sec) 
Heartbeat CPU 0 instructions: 520000001 cycles: 1166062519 heartbeat IPC: 0.40417 cumulative IPC: 0.465595 (Simulation time: 0 hr 37 min 35 sec) 
Heartbeat CPU 0 instructions: 521000000 cycles: 1168496170 heartbeat IPC: 0.410905 cumulative IPC: 0.464724 (Simulation time: 0 hr 37 min 39 sec) 
Heartbeat CPU 0 instructions: 522000003 cycles: 1170923736 heartbeat IPC: 0.411936 cumulative IPC: 0.463898 (Simulation time: 0 hr 37 min 44 sec) 
Heartbeat CPU 0 instructions: 523000001 cycles: 1173493079 heartbeat IPC: 0.389204 cumulative IPC: 0.462682 (Simulation time: 0 hr 37 min 48 sec) 
Heartbeat CPU 0 instructions: 524000002 cycles: 1176057647 heartbeat IPC: 0.38993 cumulative IPC: 0.461518 (Simulation time: 0 hr 37 min 53 sec) 
Heartbeat CPU 0 instructions: 525000001 cycles: 1179013403 heartbeat IPC: 0.338323 cumulative IPC: 0.459288 (Simulation time: 0 hr 37 min 57 sec) 
Heartbeat CPU 0 instructions: 526000001 cycles: 1181993859 heartbeat IPC: 0.335519 cumulative IPC: 0.45707 (Simulation time: 0 hr 38 min 2 sec) 
Heartbeat CPU 0 instructions: 527000000 cycles: 1184945139 heartbeat IPC: 0.338836 cumulative IPC: 0.455008 (Simulation time: 0 hr 38 min 6 sec) 
Heartbeat CPU 0 instructions: 528000000 cycles: 1187574192 heartbeat IPC: 0.380365 cumulative IPC: 0.453866 (Simulation time: 0 hr 38 min 11 sec) 
Heartbeat CPU 0 instructions: 529000001 cycles: 1190138152 heartbeat IPC: 0.390022 cumulative IPC: 0.452927 (Simulation time: 0 hr 38 min 15 sec) 
Heartbeat CPU 0 instructions: 530000000 cycles: 1192581514 heartbeat IPC: 0.409272 cumulative IPC: 0.452324 (Simulation time: 0 hr 38 min 19 sec) 
Heartbeat CPU 0 instructions: 531000000 cycles: 1195027965 heartbeat IPC: 0.408755 cumulative IPC: 0.45173 (Simulation time: 0 hr 38 min 24 sec) 
Heartbeat CPU 0 instructions: 532000000 cycles: 1197463472 heartbeat IPC: 0.410592 cumulative IPC: 0.451179 (Simulation time: 0 hr 38 min 28 sec) 
Heartbeat CPU 0 instructions: 533000000 cycles: 1199901199 heartbeat IPC: 0.410218 cumulative IPC: 0.450636 (Simulation time: 0 hr 38 min 33 sec) 
Heartbeat CPU 0 instructions: 534000001 cycles: 1202332675 heartbeat IPC: 0.411273 cumulative IPC: 0.450124 (Simulation time: 0 hr 38 min 37 sec) 
Heartbeat CPU 0 instructions: 535000001 cycles: 1204831468 heartbeat IPC: 0.400193 cumulative IPC: 0.449464 (Simulation time: 0 hr 38 min 42 sec) 
Heartbeat CPU 0 instructions: 536000000 cycles: 1207320506 heartbeat IPC: 0.401761 cumulative IPC: 0.448844 (Simulation time: 0 hr 38 min 47 sec) 
Heartbeat CPU 0 instructions: 537000000 cycles: 1209751086 heartbeat IPC: 0.411424 cumulative IPC: 0.448375 (Simulation time: 0 hr 38 min 51 sec) 
Heartbeat CPU 0 instructions: 538000000 cycles: 1212165685 heartbeat IPC: 0.414147 cumulative IPC: 0.447955 (Simulation time: 0 hr 38 min 56 sec) 
Heartbeat CPU 0 instructions: 539000000 cycles: 1214609770 heartbeat IPC: 0.409151 cumulative IPC: 0.447478 (Simulation time: 0 hr 39 min 0 sec) 
Heartbeat CPU 0 instructions: 540000000 cycles: 1217061929 heartbeat IPC: 0.407804 cumulative IPC: 0.446995 (Simulation time: 0 hr 39 min 4 sec) 
Heartbeat CPU 0 instructions: 541000001 cycles: 1219571367 heartbeat IPC: 0.398496 cumulative IPC: 0.446398 (Simulation time: 0 hr 39 min 9 sec) 
Heartbeat CPU 0 instructions: 542000001 cycles: 1222505752 heartbeat IPC: 0.340787 cumulative IPC: 0.444899 (Simulation time: 0 hr 39 min 13 sec) 
Heartbeat CPU 0 instructions: 543000001 cycles: 1226464993 heartbeat IPC: 0.252574 cumulative IPC: 0.441286 (Simulation time: 0 hr 39 min 18 sec) 
Heartbeat CPU 0 instructions: 544000001 cycles: 1226935278 heartbeat IPC: 2.12637 cumulative IPC: 0.445038 (Simulation time: 0 hr 39 min 21 sec) 
Heartbeat CPU 0 instructions: 545000003 cycles: 1227386142 heartbeat IPC: 2.21797 cumulative IPC: 0.448814 (Simulation time: 0 hr 39 min 24 sec) 
Heartbeat CPU 0 instructions: 546000000 cycles: 1227845938 heartbeat IPC: 2.17487 cumulative IPC: 0.452555 (Simulation time: 0 hr 39 min 27 sec) 
Heartbeat CPU 0 instructions: 547000001 cycles: 1228298119 heartbeat IPC: 2.21151 cumulative IPC: 0.456297 (Simulation time: 0 hr 39 min 30 sec) 
[...]
Heartbeat CPU 0 instructions: 835000000 cycles: 1896832311 heartbeat IPC: 0.391382 cumulative IPC: 0.436946 (Simulation time: 1 hr 0 min 31 sec) 
Heartbeat CPU 0 instructions: 836000000 cycles: 1899390486 heartbeat IPC: 0.390904 cumulative IPC: 0.436813 (Simulation time: 1 hr 0 min 36 sec) 
Heartbeat CPU 0 instructions: 837000002 cycles: 1901913483 heartbeat IPC: 0.396355 cumulative IPC: 0.436698 (Simulation time: 1 hr 0 min 40 sec) 
Heartbeat CPU 0 instructions: 838000000 cycles: 1904465745 heartbeat IPC: 0.391809 cumulative IPC: 0.436569 (Simulation time: 1 hr 0 min 44 sec) 
Heartbeat CPU 0 instructions: 839000000 cycles: 1907003706 heartbeat IPC: 0.394017 cumulative IPC: 0.436448 (Simulation time: 1 hr 0 min 49 sec) 
Heartbeat CPU 0 instructions: 840000002 cycles: 1909686704 heartbeat IPC: 0.372718 cumulative IPC: 0.436257 (Simulation time: 1 hr 0 min 54 sec) 
Heartbeat CPU 0 instructions: 841000002 cycles: 1912242513 heartbeat IPC: 0.391266 cumulative IPC: 0.436128 (Simulation time: 1 hr 0 min 58 sec) 
Heartbeat CPU 0 instructions: 842000001 cycles: 1915090520 heartbeat IPC: 0.351122 cumulative IPC: 0.435859 (Simulation time: 1 hr 1 min 3 sec) 
Heartbeat CPU 0 instructions: 843000001 cycles: 1918014401 heartbeat IPC: 0.342011 cumulative IPC: 0.435555 (Simulation time: 1 hr 1 min 8 sec) 
Heartbeat CPU 0 instructions: 844000001 cycles: 1920596353 heartbeat IPC: 0.387304 cumulative IPC: 0.435417 (Simulation time: 1 hr 1 min 12 sec) 
Heartbeat CPU 0 instructions: 845000001 cycles: 1923550190 heartbeat IPC: 0.338543 cumulative IPC: 0.435102 (Simulation time: 1 hr 1 min 17 sec) 
Heartbeat CPU 0 instructions: 846000000 cycles: 1926089217 heartbeat IPC: 0.393851 cumulative IPC: 0.434987 (Simulation time: 1 hr 1 min 22 sec) 
Heartbeat CPU 0 instructions: 847000000 cycles: 1929040832 heartbeat IPC: 0.338798 cumulative IPC: 0.434676 (Simulation time: 1 hr 1 min 27 sec) 
Heartbeat CPU 0 instructions: 848000002 cycles: 1931953634 heartbeat IPC: 0.343313 cumulative IPC: 0.434386 (Simulation time: 1 hr 1 min 31 sec) 
Heartbeat CPU 0 instructions: 849000000 cycles: 1934496567 heartbeat IPC: 0.393246 cumulative IPC: 0.434272 (Simulation time: 1 hr 1 min 36 sec) 
Heartbeat CPU 0 instructions: 850000002 cycles: 1937447717 heartbeat IPC: 0.338852 cumulative IPC: 0.433966 (Simulation time: 1 hr 1 min 41 sec) 
Heartbeat CPU 0 instructions: 851000000 cycles: 1940118266 heartbeat IPC: 0.374454 cumulative IPC: 0.433794 (Simulation time: 1 hr 1 min 45 sec) 
Heartbeat CPU 0 instructions: 852000001 cycles: 1942774239 heartbeat IPC: 0.37651 cumulative IPC: 0.43363 (Simulation time: 1 hr 1 min 50 sec) 
Heartbeat CPU 0 instructions: 853000001 cycles: 1945342857 heartbeat IPC: 0.389314 cumulative IPC: 0.433508 (Simulation time: 1 hr 1 min 54 sec) 
Heartbeat CPU 0 instructions: 854000002 cycles: 1947890475 heartbeat IPC: 0.392524 cumulative IPC: 0.433396 (Simulation time: 1 hr 1 min 59 sec) 
Heartbeat CPU 0 instructions: 855000000 cycles: 1950880331 heartbeat IPC: 0.334464 cumulative IPC: 0.43308 (Simulation time: 1 hr 2 min 4 sec) 
Heartbeat CPU 0 instructions: 856000003 cycles: 1953113481 heartbeat IPC: 0.447799 cumulative IPC: 0.433115 (Simulation time: 1 hr 2 min 8 sec) 
Heartbeat CPU 0 instructions: 857000002 cycles: 1953568737 heartbeat IPC: 2.19656 cumulative IPC: 0.433971 (Simulation time: 1 hr 2 min 11 sec) 
Heartbeat CPU 0 instructions: 858000000 cycles: 1954028589 heartbeat IPC: 2.17461 cumulative IPC: 0.434824 (Simulation time: 1 hr 2 min 14 sec) 
Heartbeat CPU 0 instructions: 859000001 cycles: 1954479967 heartbeat IPC: 2.21544 cumulative IPC: 0.43568 (Simulation time: 1 hr 2 min 17 sec) 
Heartbeat CPU 0 instructions: 860000000 cycles: 1955062532 heartbeat IPC: 1.71654 cumulative IPC: 0.436474 (Simulation time: 1 hr 2 min 21 sec) 
Heartbeat CPU 0 instructions: 861000001 cycles: 1957697323 heartbeat IPC: 0.379537 cumulative IPC: 0.436315 (Simulation time: 1 hr 2 min 26 sec) 
Heartbeat CPU 0 instructions: 862000001 cycles: 1960453521 heartbeat IPC: 0.362819 cumulative IPC: 0.436101 (Simulation time: 1 hr 2 min 30 sec) 
Heartbeat CPU 0 instructions: 863000002 cycles: 1963475374 heartbeat IPC: 0.330923 cumulative IPC: 0.435765 (Simulation time: 1 hr 2 min 35 sec) 
Heartbeat CPU 0 instructions: 864000000 cycles: 1966481588 heartbeat IPC: 0.332644 cumulative IPC: 0.435439 (Simulation time: 1 hr 2 min 40 sec) 
Heartbeat CPU 0 instructions: 865000000 cycles: 1969451526 heartbeat IPC: 0.336707 cumulative IPC: 0.435132 (Simulation time: 1 hr 2 min 45 sec) 
Heartbeat CPU 0 instructions: 866000002 cycles: 1972434148 heartbeat IPC: 0.335276 cumulative IPC: 0.43482 (Simulation time: 1 hr 2 min 49 sec) 
Heartbeat CPU 0 instructions: 867000001 cycles: 1975102817 heartbeat IPC: 0.374718 cumulative IPC: 0.434653 (Simulation time: 1 hr 2 min 54 sec) 
Heartbeat CPU 0 instructions: 868000001 cycles: 1978010968 heartbeat IPC: 0.343861 cumulative IPC: 0.434379 (Simulation time: 1 hr 2 min 59 sec) 
Heartbeat CPU 0 instructions: 869000000 cycles: 1980582256 heartbeat IPC: 0.38891 cumulative IPC: 0.434258 (Simulation time: 1 hr 3 min 3 sec) 
Heartbeat CPU 0 instructions: 870000000 cycles: 1983145968 heartbeat IPC: 0.390059 cumulative IPC: 0.434141 (Simulation time: 1 hr 3 min 8 sec) 
Heartbeat CPU 0 instructions: 871000003 cycles: 1985754095 heartbeat IPC: 0.383418 cumulative IPC: 0.434004 (Simulation time: 1 hr 3 min 12 sec) 
Heartbeat CPU 0 instructions: 872000000 cycles: 1988468119 heartbeat IPC: 0.368455 cumulative IPC: 0.433821 (Simulation time: 1 hr 3 min 17 sec) 
Heartbeat CPU 0 instructions: 873000000 cycles: 1991079808 heartbeat IPC: 0.382894 cumulative IPC: 0.433685 (Simulation time: 1 hr 3 min 22 sec) 
Heartbeat CPU 0 instructions: 874000000 cycles: 1993669571 heartbeat IPC: 0.386136 cumulative IPC: 0.433559 (Simulation time: 1 hr 3 min 27 sec) 
Heartbeat CPU 0 instructions: 875000001 cycles: 1996242631 heartbeat IPC: 0.388643 cumulative IPC: 0.433441 (Simulation time: 1 hr 3 min 32 sec) 
Heartbeat CPU 0 instructions: 876000002 cycles: 1998812102 heartbeat IPC: 0.389186 cumulative IPC: 0.433325 (Simulation time: 1 hr 3 min 36 sec) 
Heartbeat CPU 0 instructions: 877000001 cycles: 2001405978 heartbeat IPC: 0.385523 cumulative IPC: 0.4332 (Simulation time: 1 hr 3 min 41 sec) 
Heartbeat CPU 0 instructions: 878000002 cycles: 2004108518 heartbeat IPC: 0.370023 cumulative IPC: 0.433027 (Simulation time: 1 hr 3 min 46 sec) 
Heartbeat CPU 0 instructions: 879000002 cycles: 2006705638 heartbeat IPC: 0.385042 cumulative IPC: 0.432901 (Simulation time: 1 hr 3 min 51 sec) 
Heartbeat CPU 0 instructions: 880000000 cycles: 2009270772 heartbeat IPC: 0.389842 cumulative IPC: 0.43279 (Simulation time: 1 hr 3 min 55 sec) 
Heartbeat CPU 0 instructions: 881000001 cycles: 2011815426 heartbeat IPC: 0.392981 cumulative IPC: 0.432688 (Simulation time: 1 hr 4 min 0 sec) 
Heartbeat CPU 0 instructions: 882000003 cycles: 2014384027 heartbeat IPC: 0.389318 cumulative IPC: 0.432577 (Simulation time: 1 hr 4 min 4 sec) 
Heartbeat CPU 0 instructions: 883000001 cycles: 2016952763 heartbeat IPC: 0.389296 cumulative IPC: 0.432466 (Simulation time: 1 hr 4 min 9 sec) 
Heartbeat CPU 0 instructions: 884000000 cycles: 2021673983 heartbeat IPC: 0.211809 cumulative IPC: 0.43143 (Simulation time: 1 hr 4 min 15 sec) 
Heartbeat CPU 0 instructions: 885000001 cycles: 2022153478 heartbeat IPC: 2.08553 cumulative IPC: 0.432218 (Simulation time: 1 hr 4 min 18 sec) 
Heartbeat CPU 0 instructions: 886000002 cycles: 2022747738 heartbeat IPC: 1.68277 cumulative IPC: 0.432956 (Simulation time: 1 hr 4 min 22 sec) 
Heartbeat CPU 0 instructions: 887000001 cycles: 2023201628 heartbeat IPC: 2.20317 cumulative IPC: 0.433754 (Simulation time: 1 hr 4 min 25 sec) 
Heartbeat CPU 0 instructions: 888000000 cycles: 2023658623 heartbeat IPC: 2.18821 cumulative IPC: 0.434549 (Simulation time: 1 hr 4 min 28 sec) 
Heartbeat CPU 0 instructions: 889000000 cycles: 2024105719 heartbeat IPC: 2.23666 cumulative IPC: 0.435348 (Simulation time: 1 hr 4 min 31 sec) 
Heartbeat CPU 0 instructions: 890000000 cycles: 2026722119 heartbeat IPC: 0.382205 cumulative IPC: 0.435211 (Simulation time: 1 hr 4 min 36 sec) 
Heartbeat CPU 0 instructions: 891000000 cycles: 2029343601 heartbeat IPC: 0.381464 cumulative IPC: 0.435072 (Simulation time: 1 hr 4 min 40 sec) 
Heartbeat CPU 0 instructions: 892000002 cycles: 2032024452 heartbeat IPC: 0.373017 cumulative IPC: 0.434908 (Simulation time: 1 hr 4 min 46 sec) 
Heartbeat CPU 0 instructions: 893000000 cycles: 2034609928 heartbeat IPC: 0.386775 cumulative IPC: 0.434786 (Simulation time: 1 hr 4 min 50 sec) 
Heartbeat CPU 0 instructions: 894000003 cycles: 2037187444 heartbeat IPC: 0.387972 cumulative IPC: 0.434668 (Simulation time: 1 hr 4 min 55 sec) 
Heartbeat CPU 0 instructions: 895000000 cycles: 2039868526 heartbeat IPC: 0.372983 cumulative IPC: 0.434506 (Simulation time: 1 hr 4 min 59 sec) 
Heartbeat CPU 0 instructions: 896000000 cycles: 2044503242 heartbeat IPC: 0.215763 cumulative IPC: 0.433521 (Simulation time: 1 hr 5 min 5 sec) 
Heartbeat CPU 0 instructions: 897000003 cycles: 2047075166 heartbeat IPC: 0.388815 cumulative IPC: 0.433409 (Simulation time: 1 hr 5 min 10 sec) 
Heartbeat CPU 0 instructions: 898000001 cycles: 2049806907 heartbeat IPC: 0.366066 cumulative IPC: 0.433231 (Simulation time: 1 hr 5 min 15 sec) 
Heartbeat CPU 0 instructions: 899000003 cycles: 2052398051 heartbeat IPC: 0.385931 cumulative IPC: 0.433113 (Simulation time: 1 hr 5 min 20 sec) 
Heartbeat CPU 0 instructions: 900000001 cycles: 2054978613 heartbeat IPC: 0.387512 cumulative IPC: 0.433 (Simulation time: 1 hr 5 min 25 sec) 
Heartbeat CPU 0 instructions: 901000000 cycles: 2059664729 heartbeat IPC: 0.213396 cumulative IPC: 0.432014 (Simulation time: 1 hr 5 min 31 sec) 
Heartbeat CPU 0 instructions: 902000000 cycles: 2062257118 heartbeat IPC: 0.385745 cumulative IPC: 0.431899 (Simulation time: 1 hr 5 min 35 sec) 
Heartbeat CPU 0 instructions: 903000001 cycles: 2064848505 heartbeat IPC: 0.385894 cumulative IPC: 0.431786 (Simulation time: 1 hr 5 min 40 sec) 
Heartbeat CPU 0 instructions: 904000000 cycles: 2067535802 heartbeat IPC: 0.372121 cumulative IPC: 0.431633 (Simulation time: 1 hr 5 min 45 sec) 
Heartbeat CPU 0 instructions: 905000002 cycles: 2070131479 heartbeat IPC: 0.385257 cumulative IPC: 0.431519 (Simulation time: 1 hr 5 min 50 sec) 
Heartbeat CPU 0 instructions: 906000002 cycles: 2074816463 heartbeat IPC: 0.213448 cumulative IPC: 0.430555 (Simulation time: 1 hr 5 min 55 sec) 
Heartbeat CPU 0 instructions: 907000001 cycles: 2077386321 heartbeat IPC: 0.389126 cumulative IPC: 0.430454 (Simulation time: 1 hr 6 min 0 sec) 
Heartbeat CPU 0 instructions: 908000000 cycles: 2079961231 heartbeat IPC: 0.388363 cumulative IPC: 0.430352 (Simulation time: 1 hr 6 min 5 sec) 
Heartbeat CPU 0 instructions: 909000002 cycles: 2082551062 heartbeat IPC: 0.386126 cumulative IPC: 0.430245 (Simulation time: 1 hr 6 min 9 sec) 
Heartbeat CPU 0 instructions: 910000002 cycles: 2085216451 heartbeat IPC: 0.37518 cumulative IPC: 0.430108 (Simulation time: 1 hr 6 min 14 sec) 
Heartbeat CPU 0 instructions: 911000001 cycles: 2089930303 heartbeat IPC: 0.212141 cumulative IPC: 0.429151 (Simulation time: 1 hr 6 min 19 sec) 
Heartbeat CPU 0 instructions: 912000000 cycles: 2090425899 heartbeat IPC: 2.01777 cumulative IPC: 0.429884 (Simulation time: 1 hr 6 min 23 sec) 
Heartbeat CPU 0 instructions: 913000000 cycles: 2090877975 heartbeat IPC: 2.21202 cumulative IPC: 0.430633 (Simulation time: 1 hr 6 min 25 sec) 
Heartbeat CPU 0 instructions: 914000000 cycles: 2091337343 heartbeat IPC: 2.1769 cumulative IPC: 0.431379 (Simulation time: 1 hr 6 min 29 sec) 
Heartbeat CPU 0 instructions: 915000001 cycles: 2091788760 heartbeat IPC: 2.21525 cumulative IPC: 0.432127 (Simulation time: 1 hr 6 min 31 sec) 
Heartbeat CPU 0 instructions: 916000002 cycles: 2094182902 heartbeat IPC: 0.417687 cumulative IPC: 0.432095 (Simulation time: 1 hr 6 min 36 sec) 
Heartbeat CPU 0 instructions: 917000001 cycles: 2096976328 heartbeat IPC: 0.357983 cumulative IPC: 0.431904 (Simulation time: 1 hr 6 min 40 sec) 
Heartbeat CPU 0 instructions: 918000003 cycles: 2099544454 heartbeat IPC: 0.38939 cumulative IPC: 0.431803 (Simulation time: 1 hr 6 min 45 sec) 
Heartbeat CPU 0 instructions: 919000000 cycles: 2102289328 heartbeat IPC: 0.364314 cumulative IPC: 0.431633 (Simulation time: 1 hr 6 min 50 sec) 
Heartbeat CPU 0 instructions: 920000000 cycles: 2104915644 heartbeat IPC: 0.380762 cumulative IPC: 0.43151 (Simulation time: 1 hr 6 min 54 sec) 
Heartbeat CPU 0 instructions: 921000001 cycles: 2107508233 heartbeat IPC: 0.385715 cumulative IPC: 0.431401 (Simulation time: 1 hr 6 min 58 sec) 
Heartbeat CPU 0 instructions: 922000002 cycles: 2110091776 heartbeat IPC: 0.387066 cumulative IPC: 0.431297 (Simulation time: 1 hr 7 min 3 sec) 
Heartbeat CPU 0 instructions: 923000000 cycles: 2112711644 heartbeat IPC: 0.381698 cumulative IPC: 0.431178 (Simulation time: 1 hr 7 min 7 sec) 
Heartbeat CPU 0 instructions: 924000000 cycles: 2115302185 heartbeat IPC: 0.38602 cumulative IPC: 0.431072 (Simulation time: 1 hr 7 min 12 sec) 
Heartbeat CPU 0 instructions: 925000000 cycles: 2118016260 heartbeat IPC: 0.36845 cumulative IPC: 0.430918 (Simulation time: 1 hr 7 min 16 sec) 
Heartbeat CPU 0 instructions: 926000001 cycles: 2120620987 heartbeat IPC: 0.383918 cumulative IPC: 0.430807 (Simulation time: 1 hr 7 min 21 sec) 
Heartbeat CPU 0 instructions: 927000002 cycles: 2123246770 heartbeat IPC: 0.380839 cumulative IPC: 0.430688 (Simulation time: 1 hr 7 min 25 sec) 
Heartbeat CPU 0 instructions: 928000000 cycles: 2125858261 heartbeat IPC: 0.382922 cumulative IPC: 0.430576 (Simulation time: 1 hr 7 min 30 sec) 
Heartbeat CPU 0 instructions: 929000001 cycles: 2128468775 heartbeat IPC: 0.383067 cumulative IPC: 0.430464 (Simulation time: 1 hr 7 min 35 sec) 
Heartbeat CPU 0 instructions: 930000002 cycles: 2131053636 heartbeat IPC: 0.386868 cumulative IPC: 0.430363 (Simulation time: 1 hr 7 min 39 sec) 
Heartbeat CPU 0 instructions: 931000003 cycles: 2133746934 heartbeat IPC: 0.371292 cumulative IPC: 0.430221 (Simulation time: 1 hr 7 min 44 sec) 
Heartbeat CPU 0 instructions: 932000002 cycles: 2136435970 heartbeat IPC: 0.37188 cumulative IPC: 0.430081 (Simulation time: 1 hr 7 min 49 sec) 
Heartbeat CPU 0 instructions: 933000002 cycles: 2141137990 heartbeat IPC: 0.212675 cumulative IPC: 0.429173 (Simulation time: 1 hr 7 min 55 sec) 
Heartbeat CPU 0 instructions: 934000001 cycles: 2141613324 heartbeat IPC: 2.10378 cumulative IPC: 0.42988 (Simulation time: 1 hr 7 min 59 sec) 
Heartbeat CPU 0 instructions: 935000000 cycles: 2142065342 heartbeat IPC: 2.2123 cumulative IPC: 0.430595 (Simulation time: 1 hr 8 min 2 sec) 
Heartbeat CPU 0 instructions: 936000002 cycles: 2142524216 heartbeat IPC: 2.17925 cumulative IPC: 0.431307 (Simulation time: 1 hr 8 min 5 sec) 
Heartbeat CPU 0 instructions: 937000003 cycles: 2142975197 heartbeat IPC: 2.21739 cumulative IPC: 0.432022 (Simulation time: 1 hr 8 min 8 sec) 
Heartbeat CPU 0 instructions: 938000001 cycles: 2145632938 heartbeat IPC: 0.376259 cumulative IPC: 0.431891 (Simulation time: 1 hr 8 min 13 sec) 
Heartbeat CPU 0 instructions: 939000001 cycles: 2148324572 heartbeat IPC: 0.371522 cumulative IPC: 0.431747 (Simulation time: 1 hr 8 min 18 sec) 
Heartbeat CPU 0 instructions: 940000002 cycles: 2150931027 heartbeat IPC: 0.383663 cumulative IPC: 0.431637 (Simulation time: 1 hr 8 min 23 sec) 
Heartbeat CPU 0 instructions: 941000001 cycles: 2153551473 heartbeat IPC: 0.381614 cumulative IPC: 0.431522 (Simulation time: 1 hr 8 min 28 sec) 
Heartbeat CPU 0 instructions: 942000001 cycles: 2156139454 heartbeat IPC: 0.386402 cumulative IPC: 0.431419 (Simulation time: 1 hr 8 min 33 sec) 
Heartbeat CPU 0 instructions: 943000002 cycles: 2158741793 heartbeat IPC: 0.38427 cumulative IPC: 0.431312 (Simulation time: 1 hr 8 min 37 sec) 
Heartbeat CPU 0 instructions: 944000000 cycles: 2161360405 heartbeat IPC: 0.381881 cumulative IPC: 0.431199 (Simulation time: 1 hr 8 min 42 sec) 
Heartbeat CPU 0 instructions: 945000002 cycles: 2164098396 heartbeat IPC: 0.365232 cumulative IPC: 0.431042 (Simulation time: 1 hr 8 min 47 sec) 
Heartbeat CPU 0 instructions: 946000000 cycles: 2166693862 heartbeat IPC: 0.385287 cumulative IPC: 0.430938 (Simulation time: 1 hr 8 min 52 sec) 
Heartbeat CPU 0 instructions: 947000001 cycles: 2169314396 heartbeat IPC: 0.381602 cumulative IPC: 0.430826 (Simulation time: 1 hr 8 min 57 sec) 
Heartbeat CPU 0 instructions: 948000001 cycles: 2172303495 heartbeat IPC: 0.334549 cumulative IPC: 0.430577 (Simulation time: 1 hr 9 min 2 sec) 
Heartbeat CPU 0 instructions: 949000001 cycles: 2175259863 heartbeat IPC: 0.338253 cumulative IPC: 0.430342 (Simulation time: 1 hr 9 min 7 sec) 
Heartbeat CPU 0 instructions: 950000000 cycles: 2177886183 heartbeat IPC: 0.380761 cumulative IPC: 0.43023 (Simulation time: 1 hr 9 min 12 sec) 
Finished CPU 0 instructions: 500000001 cycles: 1162168924 cumulative IPC: 0.43023 (Simulation time: 1 hr 9 min 12 sec) 

ChampSim completed all CPUs

Region of Interest Statistics

CPU 0 cumulative IPC: 0.43023 instructions: 500000001 cycles: 1162168924
L1D TOTAL     ACCESS:   71132665  HIT:   57152305  MISS:   13980360
L1D LOAD      ACCESS:   47936136  HIT:   34142729  MISS:   13793407
L1D RFO       ACCESS:   23196529  HIT:   23009576  MISS:     186953
L1D PREFETCH  ACCESS:          0  HIT:          0  MISS:          0
L1D WRITEBACK ACCESS:          0  HIT:          0  MISS:          0
L1D PREFETCH  REQUESTED:          0  ISSUED:          0  USEFUL:          0  USELESS:          0
L1D AVERAGE MISS LATENCY: 262.191 cycles
L1I TOTAL     ACCESS:   97690554  HIT:   97630901  MISS:      59653
L1I LOAD      ACCESS:   97690554  HIT:   97630901  MISS:      59653
L1I RFO       ACCESS:          0  HIT:          0  MISS:          0
L1I PREFETCH  ACCESS:          0  HIT:          0  MISS:          0
L1I WRITEBACK ACCESS:          0  HIT:          0  MISS:          0
L1I PREFETCH  REQUESTED:          0  ISSUED:          0  USEFUL:          0  USELESS:          0
L1I AVERAGE MISS LATENCY: 108.753 cycles
L2C TOTAL     ACCESS:   14474315  HIT:     531584  MISS:   13942731
L2C LOAD      ACCESS:   13853057  HIT:      87614  MISS:   13765443
L2C RFO       ACCESS:     186953  HIT:       9665  MISS:     177288
L2C PREFETCH  ACCESS:          0  HIT:          0  MISS:          0
L2C WRITEBACK ACCESS:     434305  HIT:     434305  MISS:          0
L2C PREFETCH  REQUESTED:          0  ISSUED:          0  USEFUL:          0  USELESS:          0
L2C AVERAGE MISS LATENCY: 151.193 cycles
LLC TOTAL     ACCESS:   23580944  HIT:   17943486  MISS:    5637458
LLC LOAD      ACCESS:   13765436  HIT:    9207084  MISS:    4558352
LLC RFO       ACCESS:     177288  HIT:      71318  MISS:     105970
LLC PREFETCH  ACCESS:    9213831  HIT:    8240695  MISS:     973136
LLC WRITEBACK ACCESS:     424389  HIT:     424389  MISS:          0
LLC PREFETCH  REQUESTED:   13690038  ISSUED:   13681423  USEFUL:     965033  USELESS:       8074
LLC AVERAGE MISS LATENCY: 186.517 cycles
Major fault: 0 Minor fault: 19708
performance stats:
mapping cache size: 279742
divergence: 1585622

DRAM Statistics
 CHANNEL 0
 RQ ROW_BUFFER_HIT:    1138044  ROW_BUFFER_MISS:    1708390
 DBUS_CONGESTED:    1628644
 WQ ROW_BUFFER_HIT:      92516  ROW_BUFFER_MISS:      58285  FULL:          0

 CHANNEL 1
 RQ ROW_BUFFER_HIT:    1104306  ROW_BUFFER_MISS:    1686590
 DBUS_CONGESTED:    1628644
 WQ ROW_BUFFER_HIT:      93308  ROW_BUFFER_MISS:      61403  FULL:          0

 AVG_CONGESTED_CYCLE: 16

CPU 0 Branch Prediction Accuracy: 99.768% MPKI: 0.74798 Average ROB Occupancy at Mispredict: 55.2108

Branch types
NOT_BRANCH: 338824915 67.765%
BRANCH_DIRECT_JUMP: 6254573 1.25091%
BRANCH_INDIRECT: 241692 0.0483384%
BRANCH_CONDITIONAL: 148705491 29.7411%
BRANCH_DIRECT_CALL: 2745583 0.549117%
BRANCH_INDIRECT_CALL: 241077 0.0482154%
BRANCH_RETURN: 2986660 0.597332%
BRANCH_OTHER: 0 0%


gzip: stdout: Broken pipe
