
*** ChampSim Multicore Out-of-Order Simulator ***

Warmup Instructions: 1000000
Prefetch Warmup Instructions: 450000000
Simulation Instructions: 500000000
Stat Printing Period: 1000000
Number of CPUs: 1
LLC sets: 2048
LLC ways: 16
Off-chip DRAM Size: 32768 MB Channels: 2 Width: 64-bit Data Rate: 1024 MT/s

CPU 0 runs /scratch/cluster/cmolder/ML-DPC/ChampSimTraces/spec06/471.omnetpp-s0.trace.gz
Read seed: 1036
Heartbeat CPU 0 instructions: 1000000 cycles: 363762 heartbeat IPC: 2.74905 cumulative IPC: 2.74905 (Simulation time: 0 hr 0 min 5 sec) 

Warmup complete CPU 0 instructions: 1000004 cycles: 363763 (Simulation time: 0 hr 0 min 5 sec) 

Heartbeat CPU 0 instructions: 2000000 cycles: 3076658 heartbeat IPC: 0.36861 cumulative IPC: 0.368608 (Simulation time: 0 hr 0 min 10 sec) 
Heartbeat CPU 0 instructions: 3000000 cycles: 3741377 heartbeat IPC: 1.5044 cumulative IPC: 0.592133 (Simulation time: 0 hr 0 min 13 sec) 
Heartbeat CPU 0 instructions: 4000002 cycles: 6765957 heartbeat IPC: 0.330625 cumulative IPC: 0.468589 (Simulation time: 0 hr 0 min 17 sec) 
Heartbeat CPU 0 instructions: 5000002 cycles: 9733729 heartbeat IPC: 0.336953 cumulative IPC: 0.426896 (Simulation time: 0 hr 0 min 22 sec) 
Heartbeat CPU 0 instructions: 6000001 cycles: 12158469 heartbeat IPC: 0.412415 cumulative IPC: 0.423919 (Simulation time: 0 hr 0 min 26 sec) 
Heartbeat CPU 0 instructions: 7000003 cycles: 15464079 heartbeat IPC: 0.302517 cumulative IPC: 0.397343 (Simulation time: 0 hr 0 min 31 sec) 
Heartbeat CPU 0 instructions: 8000003 cycles: 15912506 heartbeat IPC: 2.23002 cumulative IPC: 0.450197 (Simulation time: 0 hr 0 min 34 sec) 
Heartbeat CPU 0 instructions: 9000002 cycles: 16359207 heartbeat IPC: 2.23863 cumulative IPC: 0.500142 (Simulation time: 0 hr 0 min 37 sec) 
Heartbeat CPU 0 instructions: 10000000 cycles: 16804969 heartbeat IPC: 2.24335 cumulative IPC: 0.547405 (Simulation time: 0 hr 0 min 39 sec) 
Heartbeat CPU 0 instructions: 11000000 cycles: 17251682 heartbeat IPC: 2.23857 cumulative IPC: 0.592139 (Simulation time: 0 hr 0 min 42 sec) 
Heartbeat CPU 0 instructions: 12000002 cycles: 17703976 heartbeat IPC: 2.21096 cumulative IPC: 0.634363 (Simulation time: 0 hr 0 min 45 sec) 
Heartbeat CPU 0 instructions: 13000002 cycles: 18160886 heartbeat IPC: 2.18861 cumulative IPC: 0.674266 (Simulation time: 0 hr 0 min 48 sec) 
Heartbeat CPU 0 instructions: 14000000 cycles: 18604332 heartbeat IPC: 2.25506 cumulative IPC: 0.712697 (Simulation time: 0 hr 0 min 51 sec) 
Heartbeat CPU 0 instructions: 15000001 cycles: 19047876 heartbeat IPC: 2.25457 cumulative IPC: 0.7493 (Simulation time: 0 hr 0 min 54 sec) 
Heartbeat CPU 0 instructions: 16000002 cycles: 19494086 heartbeat IPC: 2.2411 cumulative IPC: 0.784095 (Simulation time: 0 hr 0 min 57 sec) 
Heartbeat CPU 0 instructions: 17000001 cycles: 19946814 heartbeat IPC: 2.20883 cumulative IPC: 0.817033 (Simulation time: 0 hr 0 min 59 sec) 
Heartbeat CPU 0 instructions: 18000000 cycles: 20391220 heartbeat IPC: 2.25019 cumulative IPC: 0.848834 (Simulation time: 0 hr 1 min 2 sec) 
Heartbeat CPU 0 instructions: 19000002 cycles: 20835158 heartbeat IPC: 2.25257 cumulative IPC: 0.879276 (Simulation time: 0 hr 1 min 5 sec) 
Heartbeat CPU 0 instructions: 20000003 cycles: 23907828 heartbeat IPC: 0.32545 cumulative IPC: 0.806997 (Simulation time: 0 hr 1 min 10 sec) 
Heartbeat CPU 0 instructions: 21000001 cycles: 26024212 heartbeat IPC: 0.472503 cumulative IPC: 0.779409 (Simulation time: 0 hr 1 min 14 sec) 
Heartbeat CPU 0 instructions: 22000000 cycles: 27338104 heartbeat IPC: 0.761097 cumulative IPC: 0.778517 (Simulation time: 0 hr 1 min 17 sec) 
Heartbeat CPU 0 instructions: 23000003 cycles: 30332957 heartbeat IPC: 0.333907 cumulative IPC: 0.734087 (Simulation time: 0 hr 1 min 22 sec) 
Heartbeat CPU 0 instructions: 24000000 cycles: 33294735 heartbeat IPC: 0.337634 cumulative IPC: 0.698431 (Simulation time: 0 hr 1 min 26 sec) 
Heartbeat CPU 0 instructions: 25000000 cycles: 35581867 heartbeat IPC: 0.437229 cumulative IPC: 0.681468 (Simulation time: 0 hr 1 min 30 sec) 
Heartbeat CPU 0 instructions: 26000001 cycles: 36717299 heartbeat IPC: 0.880723 cumulative IPC: 0.687691 (Simulation time: 0 hr 1 min 34 sec) 
Heartbeat CPU 0 instructions: 27000000 cycles: 39685028 heartbeat IPC: 0.336958 cumulative IPC: 0.66122 (Simulation time: 0 hr 1 min 39 sec) 
Heartbeat CPU 0 instructions: 28000001 cycles: 42696303 heartbeat IPC: 0.332086 cumulative IPC: 0.637807 (Simulation time: 0 hr 1 min 43 sec) 
Heartbeat CPU 0 instructions: 29000001 cycles: 45188056 heartbeat IPC: 0.401324 cumulative IPC: 0.624661 (Simulation time: 0 hr 1 min 48 sec) 
Heartbeat CPU 0 instructions: 30000003 cycles: 46127898 heartbeat IPC: 1.06401 cumulative IPC: 0.633684 (Simulation time: 0 hr 1 min 51 sec) 
Heartbeat CPU 0 instructions: 31000001 cycles: 49099378 heartbeat IPC: 0.336532 cumulative IPC: 0.615566 (Simulation time: 0 hr 1 min 56 sec) 
Heartbeat CPU 0 instructions: 32000000 cycles: 52110646 heartbeat IPC: 0.332086 cumulative IPC: 0.59907 (Simulation time: 0 hr 2 min 0 sec) 
Heartbeat CPU 0 instructions: 33000000 cycles: 54829096 heartbeat IPC: 0.367857 cumulative IPC: 0.58753 (Simulation time: 0 hr 2 min 5 sec) 
Heartbeat CPU 0 instructions: 34000002 cycles: 55563673 heartbeat IPC: 1.36133 cumulative IPC: 0.597827 (Simulation time: 0 hr 2 min 8 sec) 
Heartbeat CPU 0 instructions: 35000000 cycles: 58576664 heartbeat IPC: 0.331895 cumulative IPC: 0.584063 (Simulation time: 0 hr 2 min 13 sec) 
Heartbeat CPU 0 instructions: 36000001 cycles: 61606836 heartbeat IPC: 0.330015 cumulative IPC: 0.571493 (Simulation time: 0 hr 2 min 18 sec) 
Heartbeat CPU 0 instructions: 37000002 cycles: 64201599 heartbeat IPC: 0.385392 cumulative IPC: 0.563929 (Simulation time: 0 hr 2 min 22 sec) 
Heartbeat CPU 0 instructions: 38000001 cycles: 65049429 heartbeat IPC: 1.17948 cumulative IPC: 0.571997 (Simulation time: 0 hr 2 min 26 sec) 
Heartbeat CPU 0 instructions: 39000001 cycles: 67974313 heartbeat IPC: 0.341894 cumulative IPC: 0.562042 (Simulation time: 0 hr 2 min 30 sec) 
Heartbeat CPU 0 instructions: 40000001 cycles: 70966528 heartbeat IPC: 0.334201 cumulative IPC: 0.552386 (Simulation time: 0 hr 2 min 35 sec) 
Heartbeat CPU 0 instructions: 41000000 cycles: 73435749 heartbeat IPC: 0.404986 cumulative IPC: 0.547405 (Simulation time: 0 hr 2 min 39 sec) 
Heartbeat CPU 0 instructions: 42000000 cycles: 74405016 heartbeat IPC: 1.03171 cumulative IPC: 0.553745 (Simulation time: 0 hr 2 min 43 sec) 
Heartbeat CPU 0 instructions: 43000000 cycles: 79701088 heartbeat IPC: 0.188819 cumulative IPC: 0.529385 (Simulation time: 0 hr 2 min 49 sec) 
Heartbeat CPU 0 instructions: 44000000 cycles: 80154526 heartbeat IPC: 2.20537 cumulative IPC: 0.538909 (Simulation time: 0 hr 2 min 52 sec) 
Heartbeat CPU 0 instructions: 45000000 cycles: 80605019 heartbeat IPC: 2.21979 cumulative IPC: 0.548346 (Simulation time: 0 hr 2 min 55 sec) 
Heartbeat CPU 0 instructions: 46000001 cycles: 81055125 heartbeat IPC: 2.2217 cumulative IPC: 0.55768 (Simulation time: 0 hr 2 min 58 sec) 
Heartbeat CPU 0 instructions: 47000002 cycles: 81500435 heartbeat IPC: 2.24563 cumulative IPC: 0.566945 (Simulation time: 0 hr 3 min 1 sec) 
Heartbeat CPU 0 instructions: 48000003 cycles: 81948246 heartbeat IPC: 2.23309 cumulative IPC: 0.57609 (Simulation time: 0 hr 3 min 4 sec) 
Heartbeat CPU 0 instructions: 49000001 cycles: 82399228 heartbeat IPC: 2.21738 cumulative IPC: 0.585113 (Simulation time: 0 hr 3 min 7 sec) 
Heartbeat CPU 0 instructions: 50000002 cycles: 82848590 heartbeat IPC: 2.22538 cumulative IPC: 0.594049 (Simulation time: 0 hr 3 min 10 sec) 
Heartbeat CPU 0 instructions: 51000003 cycles: 83296768 heartbeat IPC: 2.23126 cumulative IPC: 0.602896 (Simulation time: 0 hr 3 min 13 sec) 
Heartbeat CPU 0 instructions: 52000001 cycles: 83741892 heartbeat IPC: 2.24656 cumulative IPC: 0.611671 (Simulation time: 0 hr 3 min 16 sec) 
Heartbeat CPU 0 instructions: 53000000 cycles: 84190128 heartbeat IPC: 2.23097 cumulative IPC: 0.62033 (Simulation time: 0 hr 3 min 19 sec) 
Heartbeat CPU 0 instructions: 54000001 cycles: 84645933 heartbeat IPC: 2.19392 cumulative IPC: 0.62884 (Simulation time: 0 hr 3 min 22 sec) 
Heartbeat CPU 0 instructions: 55000000 cycles: 85088154 heartbeat IPC: 2.26131 cumulative IPC: 0.637361 (Simulation time: 0 hr 3 min 24 sec) 
Heartbeat CPU 0 instructions: 56000002 cycles: 86928905 heartbeat IPC: 0.543258 cumulative IPC: 0.63536 (Simulation time: 0 hr 3 min 28 sec) 
Heartbeat CPU 0 instructions: 57000000 cycles: 88481334 heartbeat IPC: 0.644151 cumulative IPC: 0.635514 (Simulation time: 0 hr 3 min 32 sec) 
Heartbeat CPU 0 instructions: 58000001 cycles: 91410596 heartbeat IPC: 0.341383 cumulative IPC: 0.626051 (Simulation time: 0 hr 3 min 36 sec) 
Heartbeat CPU 0 instructions: 59000000 cycles: 94371122 heartbeat IPC: 0.337777 cumulative IPC: 0.616973 (Simulation time: 0 hr 3 min 41 sec) 
Heartbeat CPU 0 instructions: 60000001 cycles: 96419348 heartbeat IPC: 0.488228 cumulative IPC: 0.614228 (Simulation time: 0 hr 3 min 45 sec) 
Heartbeat CPU 0 instructions: 61000002 cycles: 97812933 heartbeat IPC: 0.717574 cumulative IPC: 0.615706 (Simulation time: 0 hr 3 min 48 sec) 
Heartbeat CPU 0 instructions: 62000002 cycles: 100782928 heartbeat IPC: 0.336701 cumulative IPC: 0.607454 (Simulation time: 0 hr 3 min 53 sec) 
Heartbeat CPU 0 instructions: 63000001 cycles: 103716997 heartbeat IPC: 0.340823 cumulative IPC: 0.599884 (Simulation time: 0 hr 3 min 57 sec) 
Heartbeat CPU 0 instructions: 64000002 cycles: 105947750 heartbeat IPC: 0.44828 cumulative IPC: 0.596681 (Simulation time: 0 hr 4 min 1 sec) 
Heartbeat CPU 0 instructions: 65000002 cycles: 107144147 heartbeat IPC: 0.835843 cumulative IPC: 0.599361 (Simulation time: 0 hr 4 min 4 sec) 
Heartbeat CPU 0 instructions: 66000000 cycles: 110154168 heartbeat IPC: 0.332223 cumulative IPC: 0.592037 (Simulation time: 0 hr 4 min 9 sec) 
Heartbeat CPU 0 instructions: 67000000 cycles: 113140023 heartbeat IPC: 0.334912 cumulative IPC: 0.58523 (Simulation time: 0 hr 4 min 14 sec) 
Heartbeat CPU 0 instructions: 68000002 cycles: 115592342 heartbeat IPC: 0.407778 cumulative IPC: 0.581453 (Simulation time: 0 hr 4 min 18 sec) 
Heartbeat CPU 0 instructions: 69000000 cycles: 116581296 heartbeat IPC: 1.01117 cumulative IPC: 0.58511 (Simulation time: 0 hr 4 min 21 sec) 
Heartbeat CPU 0 instructions: 70000000 cycles: 119590548 heartbeat IPC: 0.332309 cumulative IPC: 0.578729 (Simulation time: 0 hr 4 min 26 sec) 
Heartbeat CPU 0 instructions: 71000002 cycles: 122599286 heartbeat IPC: 0.332366 cumulative IPC: 0.572665 (Simulation time: 0 hr 4 min 31 sec) 
Heartbeat CPU 0 instructions: 72000002 cycles: 125066748 heartbeat IPC: 0.405275 cumulative IPC: 0.569353 (Simulation time: 0 hr 4 min 35 sec) 
Heartbeat CPU 0 instructions: 73000001 cycles: 126064041 heartbeat IPC: 1.00271 cumulative IPC: 0.572791 (Simulation time: 0 hr 4 min 39 sec) 
Heartbeat CPU 0 instructions: 74000000 cycles: 129090143 heartbeat IPC: 0.330458 cumulative IPC: 0.567094 (Simulation time: 0 hr 4 min 43 sec) 
Heartbeat CPU 0 instructions: 75000002 cycles: 132059342 heartbeat IPC: 0.336792 cumulative IPC: 0.561902 (Simulation time: 0 hr 4 min 48 sec) 
Heartbeat CPU 0 instructions: 76000000 cycles: 134388495 heartbeat IPC: 0.42934 cumulative IPC: 0.559598 (Simulation time: 0 hr 4 min 52 sec) 
Heartbeat CPU 0 instructions: 77000000 cycles: 135499461 heartbeat IPC: 0.900118 cumulative IPC: 0.562398 (Simulation time: 0 hr 4 min 56 sec) 
Heartbeat CPU 0 instructions: 78000002 cycles: 138491738 heartbeat IPC: 0.334194 cumulative IPC: 0.557454 (Simulation time: 0 hr 5 min 0 sec) 
Heartbeat CPU 0 instructions: 79000001 cycles: 141551753 heartbeat IPC: 0.326795 cumulative IPC: 0.552455 (Simulation time: 0 hr 5 min 5 sec) 
Heartbeat CPU 0 instructions: 80000002 cycles: 142940022 heartbeat IPC: 0.720322 cumulative IPC: 0.554089 (Simulation time: 0 hr 5 min 9 sec) 
Heartbeat CPU 0 instructions: 81000002 cycles: 144988879 heartbeat IPC: 0.488077 cumulative IPC: 0.553154 (Simulation time: 0 hr 5 min 13 sec) 
Heartbeat CPU 0 instructions: 82000001 cycles: 147976292 heartbeat IPC: 0.334737 cumulative IPC: 0.548734 (Simulation time: 0 hr 5 min 18 sec) 
Heartbeat CPU 0 instructions: 83000002 cycles: 150938928 heartbeat IPC: 0.337538 cumulative IPC: 0.544578 (Simulation time: 0 hr 5 min 23 sec) 
Heartbeat CPU 0 instructions: 84000002 cycles: 152292920 heartbeat IPC: 0.738557 cumulative IPC: 0.546307 (Simulation time: 0 hr 5 min 26 sec) 
Heartbeat CPU 0 instructions: 85000000 cycles: 154372311 heartbeat IPC: 0.480909 cumulative IPC: 0.545424 (Simulation time: 0 hr 5 min 30 sec) 
Heartbeat CPU 0 instructions: 86000000 cycles: 157299126 heartbeat IPC: 0.341668 cumulative IPC: 0.541624 (Simulation time: 0 hr 5 min 35 sec) 
Heartbeat CPU 0 instructions: 87000001 cycles: 160289792 heartbeat IPC: 0.334374 cumulative IPC: 0.537749 (Simulation time: 0 hr 5 min 40 sec) 
Heartbeat CPU 0 instructions: 88000000 cycles: 161468119 heartbeat IPC: 0.84866 cumulative IPC: 0.540023 (Simulation time: 0 hr 5 min 43 sec) 
Heartbeat CPU 0 instructions: 89000002 cycles: 166101840 heartbeat IPC: 0.21581 cumulative IPC: 0.530958 (Simulation time: 0 hr 5 min 49 sec) 
Heartbeat CPU 0 instructions: 90000002 cycles: 166547021 heartbeat IPC: 2.24628 cumulative IPC: 0.535553 (Simulation time: 0 hr 5 min 52 sec) 
Heartbeat CPU 0 instructions: 91000001 cycles: 166990697 heartbeat IPC: 2.25389 cumulative IPC: 0.540129 (Simulation time: 0 hr 5 min 55 sec) 
Heartbeat CPU 0 instructions: 92000001 cycles: 167434531 heartbeat IPC: 2.25309 cumulative IPC: 0.544679 (Simulation time: 0 hr 5 min 58 sec) 
Heartbeat CPU 0 instructions: 93000002 cycles: 167879347 heartbeat IPC: 2.24812 cumulative IPC: 0.549203 (Simulation time: 0 hr 6 min 1 sec) 
Heartbeat CPU 0 instructions: 94000002 cycles: 168322930 heartbeat IPC: 2.25437 cumulative IPC: 0.553706 (Simulation time: 0 hr 6 min 4 sec) 
Heartbeat CPU 0 instructions: 95000001 cycles: 168765449 heartbeat IPC: 2.25979 cumulative IPC: 0.558189 (Simulation time: 0 hr 6 min 7 sec) 
Heartbeat CPU 0 instructions: 96000000 cycles: 169208693 heartbeat IPC: 2.25609 cumulative IPC: 0.562646 (Simulation time: 0 hr 6 min 9 sec) 
Heartbeat CPU 0 instructions: 97000000 cycles: 169664942 heartbeat IPC: 2.19179 cumulative IPC: 0.567037 (Simulation time: 0 hr 6 min 12 sec) 
Heartbeat CPU 0 instructions: 98000001 cycles: 170110034 heartbeat IPC: 2.24673 cumulative IPC: 0.571441 (Simulation time: 0 hr 6 min 15 sec) 
Heartbeat CPU 0 instructions: 99000000 cycles: 170553676 heartbeat IPC: 2.25407 cumulative IPC: 0.575827 (Simulation time: 0 hr 6 min 18 sec) 
Heartbeat CPU 0 instructions: 100000001 cycles: 170996479 heartbeat IPC: 2.25834 cumulative IPC: 0.580194 (Simulation time: 0 hr 6 min 21 sec) 
Heartbeat CPU 0 instructions: 101000001 cycles: 171439782 heartbeat IPC: 2.25579 cumulative IPC: 0.584535 (Simulation time: 0 hr 6 min 24 sec) 
Heartbeat CPU 0 instructions: 102000002 cycles: 174448741 heartbeat IPC: 0.332341 cumulative IPC: 0.580176 (Simulation time: 0 hr 6 min 28 sec) 
Heartbeat CPU 0 instructions: 103000000 cycles: 175293687 heartbeat IPC: 1.18351 cumulative IPC: 0.583091 (Simulation time: 0 hr 6 min 31 sec) 
Heartbeat CPU 0 instructions: 104000001 cycles: 177923997 heartbeat IPC: 0.380184 cumulative IPC: 0.580085 (Simulation time: 0 hr 6 min 36 sec) 
Heartbeat CPU 0 instructions: 105000000 cycles: 180938281 heartbeat IPC: 0.331753 cumulative IPC: 0.575939 (Simulation time: 0 hr 6 min 40 sec) 
Heartbeat CPU 0 instructions: 106000003 cycles: 183878664 heartbeat IPC: 0.340093 cumulative IPC: 0.572161 (Simulation time: 0 hr 6 min 44 sec) 
Heartbeat CPU 0 instructions: 107000002 cycles: 184905756 heartbeat IPC: 0.973622 cumulative IPC: 0.574395 (Simulation time: 0 hr 6 min 48 sec) 
Heartbeat CPU 0 instructions: 108000001 cycles: 187366321 heartbeat IPC: 0.40641 cumulative IPC: 0.572185 (Simulation time: 0 hr 6 min 52 sec) 
Heartbeat CPU 0 instructions: 109000000 cycles: 190339841 heartbeat IPC: 0.336301 cumulative IPC: 0.568493 (Simulation time: 0 hr 6 min 57 sec) 
Heartbeat CPU 0 instructions: 110000000 cycles: 193347866 heartbeat IPC: 0.332444 cumulative IPC: 0.564813 (Simulation time: 0 hr 7 min 1 sec) 
Heartbeat CPU 0 instructions: 111000001 cycles: 194557066 heartbeat IPC: 0.826994 cumulative IPC: 0.566446 (Simulation time: 0 hr 7 min 4 sec) 
Heartbeat CPU 0 instructions: 112000003 cycles: 196801271 heartbeat IPC: 0.445593 cumulative IPC: 0.565065 (Simulation time: 0 hr 7 min 8 sec) 
Heartbeat CPU 0 instructions: 113000000 cycles: 199816076 heartbeat IPC: 0.331695 cumulative IPC: 0.561538 (Simulation time: 0 hr 7 min 13 sec) 
Heartbeat CPU 0 instructions: 114000002 cycles: 202820242 heartbeat IPC: 0.332872 cumulative IPC: 0.558145 (Simulation time: 0 hr 7 min 18 sec) 
Heartbeat CPU 0 instructions: 115000000 cycles: 204234804 heartbeat IPC: 0.706931 cumulative IPC: 0.559177 (Simulation time: 0 hr 7 min 22 sec) 
Heartbeat CPU 0 instructions: 116000000 cycles: 206259699 heartbeat IPC: 0.493853 cumulative IPC: 0.558535 (Simulation time: 0 hr 7 min 26 sec) 
Heartbeat CPU 0 instructions: 117000001 cycles: 209266088 heartbeat IPC: 0.332625 cumulative IPC: 0.555283 (Simulation time: 0 hr 7 min 30 sec) 
Heartbeat CPU 0 instructions: 118000000 cycles: 212249422 heartbeat IPC: 0.335195 cumulative IPC: 0.552185 (Simulation time: 0 hr 7 min 35 sec) 
Heartbeat CPU 0 instructions: 119000000 cycles: 213543211 heartbeat IPC: 0.772924 cumulative IPC: 0.553524 (Simulation time: 0 hr 7 min 38 sec) 
Heartbeat CPU 0 instructions: 120000000 cycles: 215673820 heartbeat IPC: 0.469349 cumulative IPC: 0.552691 (Simulation time: 0 hr 7 min 42 sec) 
Heartbeat CPU 0 instructions: 121000000 cycles: 218678351 heartbeat IPC: 0.332831 cumulative IPC: 0.549666 (Simulation time: 0 hr 7 min 47 sec) 
Heartbeat CPU 0 instructions: 122000001 cycles: 221643509 heartbeat IPC: 0.337251 cumulative IPC: 0.546819 (Simulation time: 0 hr 7 min 51 sec) 
Heartbeat CPU 0 instructions: 123000000 cycles: 222835752 heartbeat IPC: 0.838754 cumulative IPC: 0.548384 (Simulation time: 0 hr 7 min 54 sec) 
Heartbeat CPU 0 instructions: 124000000 cycles: 225086716 heartbeat IPC: 0.444254 cumulative IPC: 0.547341 (Simulation time: 0 hr 7 min 58 sec) 
Heartbeat CPU 0 instructions: 125000001 cycles: 228179714 heartbeat IPC: 0.323311 cumulative IPC: 0.544299 (Simulation time: 0 hr 8 min 3 sec) 
Heartbeat CPU 0 instructions: 126000002 cycles: 231023911 heartbeat IPC: 0.351593 cumulative IPC: 0.541923 (Simulation time: 0 hr 8 min 8 sec) 
Heartbeat CPU 0 instructions: 127000000 cycles: 231581760 heartbeat IPC: 1.7926 cumulative IPC: 0.54494 (Simulation time: 0 hr 8 min 11 sec) 
Heartbeat CPU 0 instructions: 128000000 cycles: 234584615 heartbeat IPC: 0.333016 cumulative IPC: 0.542223 (Simulation time: 0 hr 8 min 16 sec) 
Heartbeat CPU 0 instructions: 129000001 cycles: 237572908 heartbeat IPC: 0.33464 cumulative IPC: 0.539608 (Simulation time: 0 hr 8 min 20 sec) 
Heartbeat CPU 0 instructions: 130000002 cycles: 240436432 heartbeat IPC: 0.34922 cumulative IPC: 0.537337 (Simulation time: 0 hr 8 min 24 sec) 
Heartbeat CPU 0 instructions: 131000001 cycles: 241034739 heartbeat IPC: 1.67138 cumulative IPC: 0.540157 (Simulation time: 0 hr 8 min 27 sec) 
Heartbeat CPU 0 instructions: 132000000 cycles: 244052449 heartbeat IPC: 0.331377 cumulative IPC: 0.537571 (Simulation time: 0 hr 8 min 32 sec) 
Heartbeat CPU 0 instructions: 133000000 cycles: 247053761 heartbeat IPC: 0.333188 cumulative IPC: 0.535084 (Simulation time: 0 hr 8 min 37 sec) 
Heartbeat CPU 0 instructions: 134000001 cycles: 249656138 heartbeat IPC: 0.384264 cumulative IPC: 0.53351 (Simulation time: 0 hr 8 min 41 sec) 
Heartbeat CPU 0 instructions: 135000002 cycles: 252753662 heartbeat IPC: 0.322839 cumulative IPC: 0.530925 (Simulation time: 0 hr 8 min 45 sec) 
Heartbeat CPU 0 instructions: 136000002 cycles: 253196889 heartbeat IPC: 2.25618 cumulative IPC: 0.533949 (Simulation time: 0 hr 8 min 48 sec) 
Heartbeat CPU 0 instructions: 137000002 cycles: 253639202 heartbeat IPC: 2.26084 cumulative IPC: 0.536965 (Simulation time: 0 hr 8 min 51 sec) 
Heartbeat CPU 0 instructions: 138000003 cycles: 254081481 heartbeat IPC: 2.26102 cumulative IPC: 0.53997 (Simulation time: 0 hr 8 min 54 sec) 
Heartbeat CPU 0 instructions: 139000000 cycles: 254524274 heartbeat IPC: 2.25838 cumulative IPC: 0.542964 (Simulation time: 0 hr 8 min 58 sec) 
Heartbeat CPU 0 instructions: 140000003 cycles: 254967359 heartbeat IPC: 2.25691 cumulative IPC: 0.545947 (Simulation time: 0 hr 9 min 1 sec) 
Heartbeat CPU 0 instructions: 141000002 cycles: 255420505 heartbeat IPC: 2.20679 cumulative IPC: 0.548897 (Simulation time: 0 hr 9 min 4 sec) 
Heartbeat CPU 0 instructions: 142000003 cycles: 255862906 heartbeat IPC: 2.2604 cumulative IPC: 0.551861 (Simulation time: 0 hr 9 min 7 sec) 
Heartbeat CPU 0 instructions: 143000000 cycles: 256306189 heartbeat IPC: 2.25589 cumulative IPC: 0.554812 (Simulation time: 0 hr 9 min 10 sec) 
Heartbeat CPU 0 instructions: 144000001 cycles: 256750881 heartbeat IPC: 2.24875 cumulative IPC: 0.55775 (Simulation time: 0 hr 9 min 12 sec) 
Heartbeat CPU 0 instructions: 145000000 cycles: 257195707 heartbeat IPC: 2.24807 cumulative IPC: 0.560678 (Simulation time: 0 hr 9 min 16 sec) 
Heartbeat CPU 0 instructions: 146000000 cycles: 257638757 heartbeat IPC: 2.25708 cumulative IPC: 0.563599 (Simulation time: 0 hr 9 min 19 sec) 
Heartbeat CPU 0 instructions: 147000001 cycles: 258082503 heartbeat IPC: 2.25354 cumulative IPC: 0.566509 (Simulation time: 0 hr 9 min 22 sec) 
Heartbeat CPU 0 instructions: 148000003 cycles: 261138123 heartbeat IPC: 0.327266 cumulative IPC: 0.563706 (Simulation time: 0 hr 9 min 27 sec) 
Heartbeat CPU 0 instructions: 149000001 cycles: 263441060 heartbeat IPC: 0.434227 cumulative IPC: 0.562572 (Simulation time: 0 hr 9 min 31 sec) 
Heartbeat CPU 0 instructions: 150000000 cycles: 264589580 heartbeat IPC: 0.870685 cumulative IPC: 0.563912 (Simulation time: 0 hr 9 min 35 sec) 
Heartbeat CPU 0 instructions: 151000000 cycles: 267555076 heartbeat IPC: 0.337212 cumulative IPC: 0.561395 (Simulation time: 0 hr 9 min 40 sec) 
Heartbeat CPU 0 instructions: 152000001 cycles: 270543615 heartbeat IPC: 0.334612 cumulative IPC: 0.558887 (Simulation time: 0 hr 9 min 44 sec) 
Heartbeat CPU 0 instructions: 153000002 cycles: 273026380 heartbeat IPC: 0.402777 cumulative IPC: 0.557465 (Simulation time: 0 hr 9 min 48 sec) 
Heartbeat CPU 0 instructions: 154000000 cycles: 273995923 heartbeat IPC: 1.03141 cumulative IPC: 0.559145 (Simulation time: 0 hr 9 min 51 sec) 
Heartbeat CPU 0 instructions: 155000000 cycles: 276958234 heartbeat IPC: 0.337574 cumulative IPC: 0.556772 (Simulation time: 0 hr 9 min 56 sec) 
Heartbeat CPU 0 instructions: 156000002 cycles: 279969099 heartbeat IPC: 0.332131 cumulative IPC: 0.554353 (Simulation time: 0 hr 10 min 1 sec) 
Heartbeat CPU 0 instructions: 157000000 cycles: 282670899 heartbeat IPC: 0.370123 cumulative IPC: 0.55259 (Simulation time: 0 hr 10 min 6 sec) 
Heartbeat CPU 0 instructions: 158000003 cycles: 283430506 heartbeat IPC: 1.31647 cumulative IPC: 0.55464 (Simulation time: 0 hr 10 min 9 sec) 
Heartbeat CPU 0 instructions: 159000002 cycles: 286425608 heartbeat IPC: 0.333878 cumulative IPC: 0.552328 (Simulation time: 0 hr 10 min 14 sec) 
Heartbeat CPU 0 instructions: 160000001 cycles: 289421374 heartbeat IPC: 0.333804 cumulative IPC: 0.550063 (Simulation time: 0 hr 10 min 18 sec) 
Heartbeat CPU 0 instructions: 161000001 cycles: 292319207 heartbeat IPC: 0.345085 cumulative IPC: 0.548029 (Simulation time: 0 hr 10 min 22 sec) 
Heartbeat CPU 0 instructions: 162000001 cycles: 292861914 heartbeat IPC: 1.84261 cumulative IPC: 0.550431 (Simulation time: 0 hr 10 min 25 sec) 
Heartbeat CPU 0 instructions: 163000000 cycles: 295797341 heartbeat IPC: 0.340666 cumulative IPC: 0.548347 (Simulation time: 0 hr 10 min 30 sec) 
Heartbeat CPU 0 instructions: 164000000 cycles: 298834944 heartbeat IPC: 0.329207 cumulative IPC: 0.546116 (Simulation time: 0 hr 10 min 35 sec) 
Heartbeat CPU 0 instructions: 165000000 cycles: 301615094 heartbeat IPC: 0.359693 cumulative IPC: 0.544396 (Simulation time: 0 hr 10 min 39 sec) 
Heartbeat CPU 0 instructions: 166000002 cycles: 302272556 heartbeat IPC: 1.521 cumulative IPC: 0.546523 (Simulation time: 0 hr 10 min 42 sec) 
Heartbeat CPU 0 instructions: 167000002 cycles: 305198440 heartbeat IPC: 0.341777 cumulative IPC: 0.544557 (Simulation time: 0 hr 10 min 46 sec) 
Heartbeat CPU 0 instructions: 168000000 cycles: 308203227 heartbeat IPC: 0.332802 cumulative IPC: 0.542491 (Simulation time: 0 hr 10 min 51 sec) 
Heartbeat CPU 0 instructions: 169000000 cycles: 310861557 heartbeat IPC: 0.376176 cumulative IPC: 0.541067 (Simulation time: 0 hr 10 min 56 sec) 
Heartbeat CPU 0 instructions: 170000000 cycles: 311627181 heartbeat IPC: 1.30612 cumulative IPC: 0.542948 (Simulation time: 0 hr 10 min 59 sec) 
Heartbeat CPU 0 instructions: 171000003 cycles: 314687671 heartbeat IPC: 0.326746 cumulative IPC: 0.540843 (Simulation time: 0 hr 11 min 4 sec) 
Heartbeat CPU 0 instructions: 172000001 cycles: 317678917 heartbeat IPC: 0.334308 cumulative IPC: 0.538896 (Simulation time: 0 hr 11 min 8 sec) 
Heartbeat CPU 0 instructions: 173000002 cycles: 319447463 heartbeat IPC: 0.565437 cumulative IPC: 0.539043 (Simulation time: 0 hr 11 min 12 sec) 
Heartbeat CPU 0 instructions: 174000000 cycles: 321126795 heartbeat IPC: 0.595474 cumulative IPC: 0.539339 (Simulation time: 0 hr 11 min 15 sec) 
Heartbeat CPU 0 instructions: 175000003 cycles: 324132399 heartbeat IPC: 0.332713 cumulative IPC: 0.537421 (Simulation time: 0 hr 11 min 20 sec) 
Heartbeat CPU 0 instructions: 176000000 cycles: 327139715 heartbeat IPC: 0.332521 cumulative IPC: 0.535535 (Simulation time: 0 hr 11 min 25 sec) 
Heartbeat CPU 0 instructions: 177000000 cycles: 328861732 heartbeat IPC: 0.580714 cumulative IPC: 0.535772 (Simulation time: 0 hr 11 min 28 sec) 
Heartbeat CPU 0 instructions: 178000001 cycles: 330575141 heartbeat IPC: 0.583632 cumulative IPC: 0.53602 (Simulation time: 0 hr 11 min 32 sec) 
Heartbeat CPU 0 instructions: 179000001 cycles: 333539220 heartbeat IPC: 0.337373 cumulative IPC: 0.534253 (Simulation time: 0 hr 11 min 36 sec) 
Heartbeat CPU 0 instructions: 180000001 cycles: 336575603 heartbeat IPC: 0.329339 cumulative IPC: 0.532402 (Simulation time: 0 hr 11 min 41 sec) 
Heartbeat CPU 0 instructions: 181000001 cycles: 337022566 heartbeat IPC: 2.23732 cumulative IPC: 0.534666 (Simulation time: 0 hr 11 min 44 sec) 
Heartbeat CPU 0 instructions: 182000001 cycles: 337466020 heartbeat IPC: 2.25503 cumulative IPC: 0.536929 (Simulation time: 0 hr 11 min 47 sec) 
Heartbeat CPU 0 instructions: 183000001 cycles: 337905148 heartbeat IPC: 2.27724 cumulative IPC: 0.539193 (Simulation time: 0 hr 11 min 49 sec) 
Heartbeat CPU 0 instructions: 184000001 cycles: 338346594 heartbeat IPC: 2.26528 cumulative IPC: 0.541448 (Simulation time: 0 hr 11 min 52 sec) 
Heartbeat CPU 0 instructions: 185000002 cycles: 338787070 heartbeat IPC: 2.27027 cumulative IPC: 0.543698 (Simulation time: 0 hr 11 min 55 sec) 
Heartbeat CPU 0 instructions: 186000002 cycles: 339229027 heartbeat IPC: 2.26266 cumulative IPC: 0.54594 (Simulation time: 0 hr 11 min 58 sec) 
Heartbeat CPU 0 instructions: 187000000 cycles: 339679623 heartbeat IPC: 2.21928 cumulative IPC: 0.548162 (Simulation time: 0 hr 12 min 1 sec) 
Heartbeat CPU 0 instructions: 188000001 cycles: 340120411 heartbeat IPC: 2.26867 cumulative IPC: 0.550394 (Simulation time: 0 hr 12 min 4 sec) 
Heartbeat CPU 0 instructions: 189000001 cycles: 340563998 heartbeat IPC: 2.25435 cumulative IPC: 0.552616 (Simulation time: 0 hr 12 min 7 sec) 
Heartbeat CPU 0 instructions: 190000000 cycles: 341004878 heartbeat IPC: 2.26819 cumulative IPC: 0.554836 (Simulation time: 0 hr 12 min 10 sec) 
Heartbeat CPU 0 instructions: 191000002 cycles: 341448381 heartbeat IPC: 2.25478 cumulative IPC: 0.557047 (Simulation time: 0 hr 12 min 12 sec) 
Heartbeat CPU 0 instructions: 192000001 cycles: 341890404 heartbeat IPC: 2.26232 cumulative IPC: 0.559254 (Simulation time: 0 hr 12 min 15 sec) 
Heartbeat CPU 0 instructions: 193000000 cycles: 342330713 heartbeat IPC: 2.27113 cumulative IPC: 0.561458 (Simulation time: 0 hr 12 min 19 sec) 
Heartbeat CPU 0 instructions: 194000002 cycles: 342783665 heartbeat IPC: 2.20774 cumulative IPC: 0.563635 (Simulation time: 0 hr 12 min 22 sec) 
Heartbeat CPU 0 instructions: 195000000 cycles: 344497225 heartbeat IPC: 0.583579 cumulative IPC: 0.563735 (Simulation time: 0 hr 12 min 25 sec) 
Heartbeat CPU 0 instructions: 196000000 cycles: 346286275 heartbeat IPC: 0.558956 cumulative IPC: 0.56371 (Simulation time: 0 hr 12 min 29 sec) 
Heartbeat CPU 0 instructions: 197000001 cycles: 351634841 heartbeat IPC: 0.186966 cumulative IPC: 0.557974 (Simulation time: 0 hr 12 min 35 sec) 
Heartbeat CPU 0 instructions: 198000000 cycles: 354227974 heartbeat IPC: 0.385634 cumulative IPC: 0.556711 (Simulation time: 0 hr 12 min 39 sec) 
Heartbeat CPU 0 instructions: 199000001 cycles: 355081234 heartbeat IPC: 1.17198 cumulative IPC: 0.558191 (Simulation time: 0 hr 12 min 42 sec) 
Heartbeat CPU 0 instructions: 200000000 cycles: 358083344 heartbeat IPC: 0.333099 cumulative IPC: 0.556302 (Simulation time: 0 hr 12 min 47 sec) 
Heartbeat CPU 0 instructions: 201000000 cycles: 361040320 heartbeat IPC: 0.338183 cumulative IPC: 0.554513 (Simulation time: 0 hr 12 min 51 sec) 
Heartbeat CPU 0 instructions: 202000001 cycles: 363730860 heartbeat IPC: 0.371673 cumulative IPC: 0.55316 (Simulation time: 0 hr 12 min 56 sec) 
Heartbeat CPU 0 instructions: 203000000 cycles: 364438570 heartbeat IPC: 1.41301 cumulative IPC: 0.554831 (Simulation time: 0 hr 12 min 59 sec) 
Heartbeat CPU 0 instructions: 204000003 cycles: 369753120 heartbeat IPC: 0.188163 cumulative IPC: 0.549556 (Simulation time: 0 hr 13 min 5 sec) 
Heartbeat CPU 0 instructions: 205000000 cycles: 372594228 heartbeat IPC: 0.351974 cumulative IPC: 0.548048 (Simulation time: 0 hr 13 min 9 sec) 
Heartbeat CPU 0 instructions: 206000000 cycles: 373214294 heartbeat IPC: 1.61273 cumulative IPC: 0.549818 (Simulation time: 0 hr 13 min 12 sec) 
Heartbeat CPU 0 instructions: 207000001 cycles: 376203603 heartbeat IPC: 0.334526 cumulative IPC: 0.548106 (Simulation time: 0 hr 13 min 17 sec) 
Heartbeat CPU 0 instructions: 208000003 cycles: 379212599 heartbeat IPC: 0.332337 cumulative IPC: 0.546392 (Simulation time: 0 hr 13 min 21 sec) 
Heartbeat CPU 0 instructions: 209000000 cycles: 382112828 heartbeat IPC: 0.344799 cumulative IPC: 0.544861 (Simulation time: 0 hr 13 min 25 sec) 
Heartbeat CPU 0 instructions: 210000000 cycles: 382584850 heartbeat IPC: 2.11855 cumulative IPC: 0.546804 (Simulation time: 0 hr 13 min 28 sec) 
Heartbeat CPU 0 instructions: 211000000 cycles: 387979594 heartbeat IPC: 0.185366 cumulative IPC: 0.541773 (Simulation time: 0 hr 13 min 34 sec) 
Heartbeat CPU 0 instructions: 212000000 cycles: 390912383 heartbeat IPC: 0.340972 cumulative IPC: 0.540266 (Simulation time: 0 hr 13 min 39 sec) 
Heartbeat CPU 0 instructions: 213000001 cycles: 391445770 heartbeat IPC: 1.87481 cumulative IPC: 0.542086 (Simulation time: 0 hr 13 min 42 sec) 
Heartbeat CPU 0 instructions: 214000000 cycles: 394384367 heartbeat IPC: 0.340298 cumulative IPC: 0.540581 (Simulation time: 0 hr 13 min 47 sec) 
Heartbeat CPU 0 instructions: 215000000 cycles: 397393699 heartbeat IPC: 0.3323 cumulative IPC: 0.539002 (Simulation time: 0 hr 13 min 52 sec) 
Heartbeat CPU 0 instructions: 216000001 cycles: 400334946 heartbeat IPC: 0.339992 cumulative IPC: 0.537539 (Simulation time: 0 hr 13 min 56 sec) 
Heartbeat CPU 0 instructions: 217000000 cycles: 400912730 heartbeat IPC: 1.73075 cumulative IPC: 0.53926 (Simulation time: 0 hr 13 min 59 sec) 
Heartbeat CPU 0 instructions: 218000000 cycles: 406138910 heartbeat IPC: 0.191344 cumulative IPC: 0.534779 (Simulation time: 0 hr 14 min 5 sec) 
Heartbeat CPU 0 instructions: 219000000 cycles: 409074121 heartbeat IPC: 0.340691 cumulative IPC: 0.533385 (Simulation time: 0 hr 14 min 10 sec) 
Heartbeat CPU 0 instructions: 220000000 cycles: 409842836 heartbeat IPC: 1.30087 cumulative IPC: 0.534826 (Simulation time: 0 hr 14 min 13 sec) 
Heartbeat CPU 0 instructions: 221000001 cycles: 412532707 heartbeat IPC: 0.371765 cumulative IPC: 0.533762 (Simulation time: 0 hr 14 min 18 sec) 
Heartbeat CPU 0 instructions: 222000003 cycles: 415534014 heartbeat IPC: 0.333189 cumulative IPC: 0.532312 (Simulation time: 0 hr 14 min 22 sec) 
Heartbeat CPU 0 instructions: 223000000 cycles: 418514745 heartbeat IPC: 0.335487 cumulative IPC: 0.530909 (Simulation time: 0 hr 14 min 27 sec) 
Heartbeat CPU 0 instructions: 224000001 cycles: 419305605 heartbeat IPC: 1.26445 cumulative IPC: 0.532293 (Simulation time: 0 hr 14 min 30 sec) 
Heartbeat CPU 0 instructions: 225000003 cycles: 424389746 heartbeat IPC: 0.19669 cumulative IPC: 0.52827 (Simulation time: 0 hr 14 min 36 sec) 
Heartbeat CPU 0 instructions: 226000001 cycles: 424836187 heartbeat IPC: 2.23993 cumulative IPC: 0.53007 (Simulation time: 0 hr 14 min 39 sec) 
Heartbeat CPU 0 instructions: 227000000 cycles: 425280139 heartbeat IPC: 2.25249 cumulative IPC: 0.531869 (Simulation time: 0 hr 14 min 42 sec) 
Heartbeat CPU 0 instructions: 228000002 cycles: 425725069 heartbeat IPC: 2.24755 cumulative IPC: 0.533664 (Simulation time: 0 hr 14 min 45 sec) 
Heartbeat CPU 0 instructions: 229000001 cycles: 426169863 heartbeat IPC: 2.24823 cumulative IPC: 0.535455 (Simulation time: 0 hr 14 min 48 sec) 
Heartbeat CPU 0 instructions: 230000002 cycles: 426612934 heartbeat IPC: 2.25698 cumulative IPC: 0.537244 (Simulation time: 0 hr 14 min 51 sec) 
Heartbeat CPU 0 instructions: 231000000 cycles: 427055531 heartbeat IPC: 2.25939 cumulative IPC: 0.539031 (Simulation time: 0 hr 14 min 54 sec) 
Heartbeat CPU 0 instructions: 232000000 cycles: 427498534 heartbeat IPC: 2.25732 cumulative IPC: 0.540813 (Simulation time: 0 hr 14 min 57 sec) 
Heartbeat CPU 0 instructions: 233000002 cycles: 427941667 heartbeat IPC: 2.25666 cumulative IPC: 0.542591 (Simulation time: 0 hr 15 min 0 sec) 
Heartbeat CPU 0 instructions: 234000000 cycles: 428398067 heartbeat IPC: 2.19106 cumulative IPC: 0.544349 (Simulation time: 0 hr 15 min 3 sec) 
Heartbeat CPU 0 instructions: 235000000 cycles: 428845078 heartbeat IPC: 2.23708 cumulative IPC: 0.546115 (Simulation time: 0 hr 15 min 6 sec) 
Heartbeat CPU 0 instructions: 236000000 cycles: 429289166 heartbeat IPC: 2.25181 cumulative IPC: 0.547881 (Simulation time: 0 hr 15 min 9 sec) 
Heartbeat CPU 0 instructions: 237000002 cycles: 429732612 heartbeat IPC: 2.25507 cumulative IPC: 0.549644 (Simulation time: 0 hr 15 min 12 sec) 
Heartbeat CPU 0 instructions: 238000002 cycles: 432641487 heartbeat IPC: 0.343776 cumulative IPC: 0.548259 (Simulation time: 0 hr 15 min 16 sec) 
Heartbeat CPU 0 instructions: 239000001 cycles: 433180105 heartbeat IPC: 1.8566 cumulative IPC: 0.549887 (Simulation time: 0 hr 15 min 19 sec) 
Heartbeat CPU 0 instructions: 240000001 cycles: 436179391 heartbeat IPC: 0.333413 cumulative IPC: 0.548397 (Simulation time: 0 hr 15 min 24 sec) 
Heartbeat CPU 0 instructions: 241000003 cycles: 439099279 heartbeat IPC: 0.34248 cumulative IPC: 0.547027 (Simulation time: 0 hr 15 min 28 sec) 
Heartbeat CPU 0 instructions: 242000000 cycles: 442080623 heartbeat IPC: 0.335418 cumulative IPC: 0.545598 (Simulation time: 0 hr 15 min 33 sec) 
Heartbeat CPU 0 instructions: 243000001 cycles: 442678256 heartbeat IPC: 1.67327 cumulative IPC: 0.547122 (Simulation time: 0 hr 15 min 36 sec) 
Heartbeat CPU 0 instructions: 244000001 cycles: 445505928 heartbeat IPC: 0.353648 cumulative IPC: 0.545893 (Simulation time: 0 hr 15 min 40 sec) 
Heartbeat CPU 0 instructions: 245000001 cycles: 448473805 heartbeat IPC: 0.336941 cumulative IPC: 0.544509 (Simulation time: 0 hr 15 min 45 sec) 
Heartbeat CPU 0 instructions: 246000000 cycles: 451452823 heartbeat IPC: 0.335681 cumulative IPC: 0.54313 (Simulation time: 0 hr 15 min 49 sec) 
Heartbeat CPU 0 instructions: 247000001 cycles: 452260571 heartbeat IPC: 1.23801 cumulative IPC: 0.544372 (Simulation time: 0 hr 15 min 52 sec) 
Heartbeat CPU 0 instructions: 248000001 cycles: 454919054 heartbeat IPC: 0.376154 cumulative IPC: 0.543388 (Simulation time: 0 hr 15 min 57 sec) 
Heartbeat CPU 0 instructions: 249000001 cycles: 457881171 heartbeat IPC: 0.337596 cumulative IPC: 0.542056 (Simulation time: 0 hr 16 min 1 sec) 
Heartbeat CPU 0 instructions: 250000001 cycles: 460776833 heartbeat IPC: 0.345344 cumulative IPC: 0.540819 (Simulation time: 0 hr 16 min 5 sec) 
Heartbeat CPU 0 instructions: 251000000 cycles: 461805668 heartbeat IPC: 0.971972 cumulative IPC: 0.54178 (Simulation time: 0 hr 16 min 9 sec) 
Heartbeat CPU 0 instructions: 252000000 cycles: 464203854 heartbeat IPC: 0.416982 cumulative IPC: 0.541135 (Simulation time: 0 hr 16 min 13 sec) 
Heartbeat CPU 0 instructions: 253000000 cycles: 467135454 heartbeat IPC: 0.341111 cumulative IPC: 0.539878 (Simulation time: 0 hr 16 min 17 sec) 
Heartbeat CPU 0 instructions: 254000003 cycles: 470109331 heartbeat IPC: 0.336262 cumulative IPC: 0.538589 (Simulation time: 0 hr 16 min 22 sec) 
Heartbeat CPU 0 instructions: 255000002 cycles: 471048954 heartbeat IPC: 1.06426 cumulative IPC: 0.539639 (Simulation time: 0 hr 16 min 25 sec) 
Heartbeat CPU 0 instructions: 256000002 cycles: 473562731 heartbeat IPC: 0.397808 cumulative IPC: 0.538885 (Simulation time: 0 hr 16 min 29 sec) 
Heartbeat CPU 0 instructions: 257000002 cycles: 476568014 heartbeat IPC: 0.332747 cumulative IPC: 0.537584 (Simulation time: 0 hr 16 min 34 sec) 
Heartbeat CPU 0 instructions: 258000002 cycles: 479500698 heartbeat IPC: 0.340985 cumulative IPC: 0.536381 (Simulation time: 0 hr 16 min 38 sec) 
Heartbeat CPU 0 instructions: 259000002 cycles: 480338014 heartbeat IPC: 1.19429 cumulative IPC: 0.537529 (Simulation time: 0 hr 16 min 41 sec) 
Heartbeat CPU 0 instructions: 260000000 cycles: 482964718 heartbeat IPC: 0.380704 cumulative IPC: 0.536675 (Simulation time: 0 hr 16 min 45 sec) 
Heartbeat CPU 0 instructions: 261000001 cycles: 488274546 heartbeat IPC: 0.18833 cumulative IPC: 0.532884 (Simulation time: 0 hr 16 min 51 sec) 
Heartbeat CPU 0 instructions: 262000002 cycles: 488768448 heartbeat IPC: 2.0247 cumulative IPC: 0.534393 (Simulation time: 0 hr 16 min 54 sec) 
Heartbeat CPU 0 instructions: 263000001 cycles: 489211963 heartbeat IPC: 2.25471 cumulative IPC: 0.535954 (Simulation time: 0 hr 16 min 57 sec) 
Heartbeat CPU 0 instructions: 264000000 cycles: 489655309 heartbeat IPC: 2.25557 cumulative IPC: 0.537512 (Simulation time: 0 hr 17 min 0 sec) 
Heartbeat CPU 0 instructions: 265000001 cycles: 490099318 heartbeat IPC: 2.25221 cumulative IPC: 0.539066 (Simulation time: 0 hr 17 min 3 sec) 
Heartbeat CPU 0 instructions: 266000001 cycles: 490543737 heartbeat IPC: 2.25013 cumulative IPC: 0.540618 (Simulation time: 0 hr 17 min 6 sec) 
Heartbeat CPU 0 instructions: 267000000 cycles: 490987448 heartbeat IPC: 2.25372 cumulative IPC: 0.542167 (Simulation time: 0 hr 17 min 8 sec) 
Heartbeat CPU 0 instructions: 268000003 cycles: 491430771 heartbeat IPC: 2.2557 cumulative IPC: 0.543714 (Simulation time: 0 hr 17 min 11 sec) 
Heartbeat CPU 0 instructions: 269000003 cycles: 491874293 heartbeat IPC: 2.25468 cumulative IPC: 0.545258 (Simulation time: 0 hr 17 min 14 sec) 
Heartbeat CPU 0 instructions: 270000002 cycles: 492319405 heartbeat IPC: 2.24662 cumulative IPC: 0.546797 (Simulation time: 0 hr 17 min 17 sec) 
Heartbeat CPU 0 instructions: 271000002 cycles: 492766497 heartbeat IPC: 2.23668 cumulative IPC: 0.548332 (Simulation time: 0 hr 17 min 20 sec) 
Heartbeat CPU 0 instructions: 272000002 cycles: 493211828 heartbeat IPC: 2.24552 cumulative IPC: 0.549865 (Simulation time: 0 hr 17 min 23 sec) 
Heartbeat CPU 0 instructions: 273000003 cycles: 493657141 heartbeat IPC: 2.24561 cumulative IPC: 0.551396 (Simulation time: 0 hr 17 min 25 sec) 
Heartbeat CPU 0 instructions: 274000003 cycles: 494100795 heartbeat IPC: 2.25401 cumulative IPC: 0.552926 (Simulation time: 0 hr 17 min 29 sec) 
Heartbeat CPU 0 instructions: 275000000 cycles: 497150976 heartbeat IPC: 0.327848 cumulative IPC: 0.551544 (Simulation time: 0 hr 17 min 33 sec) 
Heartbeat CPU 0 instructions: 276000000 cycles: 500159582 heartbeat IPC: 0.33238 cumulative IPC: 0.550225 (Simulation time: 0 hr 17 min 38 sec) 
Heartbeat CPU 0 instructions: 277000001 cycles: 503041909 heartbeat IPC: 0.346942 cumulative IPC: 0.549059 (Simulation time: 0 hr 17 min 42 sec) 
Heartbeat CPU 0 instructions: 278000000 cycles: 503558785 heartbeat IPC: 1.9347 cumulative IPC: 0.550482 (Simulation time: 0 hr 17 min 45 sec) 
Heartbeat CPU 0 instructions: 279000002 cycles: 506561888 heartbeat IPC: 0.33299 cumulative IPC: 0.549192 (Simulation time: 0 hr 17 min 50 sec) 
Heartbeat CPU 0 instructions: 280000001 cycles: 509499984 heartbeat IPC: 0.340356 cumulative IPC: 0.547987 (Simulation time: 0 hr 17 min 54 sec) 
Heartbeat CPU 0 instructions: 281000000 cycles: 512470288 heartbeat IPC: 0.336666 cumulative IPC: 0.546761 (Simulation time: 0 hr 17 min 59 sec) 
Heartbeat CPU 0 instructions: 282000000 cycles: 513097916 heartbeat IPC: 1.5933 cumulative IPC: 0.548042 (Simulation time: 0 hr 18 min 2 sec) 
Heartbeat CPU 0 instructions: 283000002 cycles: 515936400 heartbeat IPC: 0.352301 cumulative IPC: 0.546965 (Simulation time: 0 hr 18 min 6 sec) 
Heartbeat CPU 0 instructions: 284000001 cycles: 518920743 heartbeat IPC: 0.335082 cumulative IPC: 0.545745 (Simulation time: 0 hr 18 min 11 sec) 
Heartbeat CPU 0 instructions: 285000000 cycles: 521817274 heartbeat IPC: 0.34524 cumulative IPC: 0.544631 (Simulation time: 0 hr 18 min 15 sec) 
Heartbeat CPU 0 instructions: 286000000 cycles: 522670096 heartbeat IPC: 1.17258 cumulative IPC: 0.545657 (Simulation time: 0 hr 18 min 19 sec) 
Heartbeat CPU 0 instructions: 287000001 cycles: 525219645 heartbeat IPC: 0.392227 cumulative IPC: 0.544912 (Simulation time: 0 hr 18 min 23 sec) 
Heartbeat CPU 0 instructions: 288000001 cycles: 528233394 heartbeat IPC: 0.331813 cumulative IPC: 0.543695 (Simulation time: 0 hr 18 min 27 sec) 
Heartbeat CPU 0 instructions: 289000002 cycles: 531167525 heartbeat IPC: 0.340817 cumulative IPC: 0.542573 (Simulation time: 0 hr 18 min 32 sec) 
Heartbeat CPU 0 instructions: 290000000 cycles: 532064189 heartbeat IPC: 1.11524 cumulative IPC: 0.543539 (Simulation time: 0 hr 18 min 35 sec) 
Heartbeat CPU 0 instructions: 291000001 cycles: 534676975 heartbeat IPC: 0.382734 cumulative IPC: 0.542753 (Simulation time: 0 hr 18 min 39 sec) 
Heartbeat CPU 0 instructions: 292000001 cycles: 537604269 heartbeat IPC: 0.341612 cumulative IPC: 0.541657 (Simulation time: 0 hr 18 min 43 sec) 
Heartbeat CPU 0 instructions: 293000002 cycles: 540583116 heartbeat IPC: 0.335701 cumulative IPC: 0.540521 (Simulation time: 0 hr 18 min 48 sec) 
Heartbeat CPU 0 instructions: 294000001 cycles: 541353387 heartbeat IPC: 1.29824 cumulative IPC: 0.5416 (Simulation time: 0 hr 18 min 51 sec) 
Heartbeat CPU 0 instructions: 295000000 cycles: 544053380 heartbeat IPC: 0.370371 cumulative IPC: 0.54075 (Simulation time: 0 hr 18 min 55 sec) 
Heartbeat CPU 0 instructions: 296000000 cycles: 547053844 heartbeat IPC: 0.333282 cumulative IPC: 0.539611 (Simulation time: 0 hr 19 min 0 sec) 
Heartbeat CPU 0 instructions: 297000000 cycles: 550140015 heartbeat IPC: 0.324026 cumulative IPC: 0.538401 (Simulation time: 0 hr 19 min 4 sec) 
Heartbeat CPU 0 instructions: 298000000 cycles: 552835191 heartbeat IPC: 0.371033 cumulative IPC: 0.537584 (Simulation time: 0 hr 19 min 8 sec) 
Heartbeat CPU 0 instructions: 299000001 cycles: 553285691 heartbeat IPC: 2.21976 cumulative IPC: 0.538955 (Simulation time: 0 hr 19 min 12 sec) 
Heartbeat CPU 0 instructions: 300000000 cycles: 553734043 heartbeat IPC: 2.23039 cumulative IPC: 0.540325 (Simulation time: 0 hr 19 min 14 sec) 
Heartbeat CPU 0 instructions: 301000000 cycles: 554184498 heartbeat IPC: 2.21998 cumulative IPC: 0.541692 (Simulation time: 0 hr 19 min 17 sec) 
Heartbeat CPU 0 instructions: 302000000 cycles: 554634993 heartbeat IPC: 2.21978 cumulative IPC: 0.543055 (Simulation time: 0 hr 19 min 20 sec) 
Heartbeat CPU 0 instructions: 303000003 cycles: 555095443 heartbeat IPC: 2.17179 cumulative IPC: 0.544407 (Simulation time: 0 hr 19 min 23 sec) 
Heartbeat CPU 0 instructions: 304000002 cycles: 555544699 heartbeat IPC: 2.2259 cumulative IPC: 0.545768 (Simulation time: 0 hr 19 min 26 sec) 
Heartbeat CPU 0 instructions: 305000001 cycles: 555993969 heartbeat IPC: 2.22583 cumulative IPC: 0.547126 (Simulation time: 0 hr 19 min 29 sec) 
Heartbeat CPU 0 instructions: 306000000 cycles: 556443566 heartbeat IPC: 2.22421 cumulative IPC: 0.548482 (Simulation time: 0 hr 19 min 32 sec) 
Heartbeat CPU 0 instructions: 307000001 cycles: 556894813 heartbeat IPC: 2.21608 cumulative IPC: 0.549835 (Simulation time: 0 hr 19 min 34 sec) 
Heartbeat CPU 0 instructions: 308000000 cycles: 557343654 heartbeat IPC: 2.22796 cumulative IPC: 0.551187 (Simulation time: 0 hr 19 min 37 sec) 
Heartbeat CPU 0 instructions: 309000002 cycles: 557792412 heartbeat IPC: 2.22838 cumulative IPC: 0.552537 (Simulation time: 0 hr 19 min 40 sec) 
Heartbeat CPU 0 instructions: 310000001 cycles: 558236774 heartbeat IPC: 2.25042 cumulative IPC: 0.55389 (Simulation time: 0 hr 19 min 43 sec) 
Heartbeat CPU 0 instructions: 311000000 cycles: 561275619 heartbeat IPC: 0.329072 cumulative IPC: 0.552671 (Simulation time: 0 hr 19 min 47 sec) 
Heartbeat CPU 0 instructions: 312000000 cycles: 563960220 heartbeat IPC: 0.372495 cumulative IPC: 0.551813 (Simulation time: 0 hr 19 min 52 sec) 
Heartbeat CPU 0 instructions: 313000003 cycles: 564630546 heartbeat IPC: 1.49182 cumulative IPC: 0.55293 (Simulation time: 0 hr 19 min 55 sec) 
Heartbeat CPU 0 instructions: 314000001 cycles: 567623876 heartbeat IPC: 0.334075 cumulative IPC: 0.551775 (Simulation time: 0 hr 20 min 0 sec) 
Heartbeat CPU 0 instructions: 315000001 cycles: 570611208 heartbeat IPC: 0.334747 cumulative IPC: 0.550638 (Simulation time: 0 hr 20 min 4 sec) 
Heartbeat CPU 0 instructions: 316000000 cycles: 573579212 heartbeat IPC: 0.336926 cumulative IPC: 0.549532 (Simulation time: 0 hr 20 min 8 sec) 
Heartbeat CPU 0 instructions: 317000000 cycles: 574066922 heartbeat IPC: 2.0504 cumulative IPC: 0.550807 (Simulation time: 0 hr 20 min 11 sec) 
Heartbeat CPU 0 instructions: 318000001 cycles: 577025285 heartbeat IPC: 0.338025 cumulative IPC: 0.549716 (Simulation time: 0 hr 20 min 16 sec) 
Heartbeat CPU 0 instructions: 319000000 cycles: 580003633 heartbeat IPC: 0.335756 cumulative IPC: 0.548617 (Simulation time: 0 hr 20 min 20 sec) 
Heartbeat CPU 0 instructions: 320000000 cycles: 582934944 heartbeat IPC: 0.341144 cumulative IPC: 0.547573 (Simulation time: 0 hr 20 min 24 sec) 
Heartbeat CPU 0 instructions: 321000001 cycles: 583621070 heartbeat IPC: 1.45746 cumulative IPC: 0.548643 (Simulation time: 0 hr 20 min 27 sec) 
Heartbeat CPU 0 instructions: 322000000 cycles: 586393572 heartbeat IPC: 0.360685 cumulative IPC: 0.547754 (Simulation time: 0 hr 20 min 32 sec) 
Heartbeat CPU 0 instructions: 323000000 cycles: 589356786 heartbeat IPC: 0.337471 cumulative IPC: 0.546696 (Simulation time: 0 hr 20 min 36 sec) 
Heartbeat CPU 0 instructions: 324000001 cycles: 592330676 heartbeat IPC: 0.33626 cumulative IPC: 0.545639 (Simulation time: 0 hr 20 min 41 sec) 
Heartbeat CPU 0 instructions: 325000001 cycles: 593172753 heartbeat IPC: 1.18754 cumulative IPC: 0.54655 (Simulation time: 0 hr 20 min 44 sec) 
Heartbeat CPU 0 instructions: 326000002 cycles: 595800082 heartbeat IPC: 0.380615 cumulative IPC: 0.545818 (Simulation time: 0 hr 20 min 48 sec) 
Heartbeat CPU 0 instructions: 327000000 cycles: 598738503 heartbeat IPC: 0.340318 cumulative IPC: 0.544809 (Simulation time: 0 hr 20 min 53 sec) 
Heartbeat CPU 0 instructions: 328000003 cycles: 601698981 heartbeat IPC: 0.337784 cumulative IPC: 0.54379 (Simulation time: 0 hr 20 min 57 sec) 
Heartbeat CPU 0 instructions: 329000001 cycles: 602410012 heartbeat IPC: 1.40641 cumulative IPC: 0.544809 (Simulation time: 0 hr 21 min 0 sec) 
Heartbeat CPU 0 instructions: 330000000 cycles: 605172183 heartbeat IPC: 0.362034 cumulative IPC: 0.543974 (Simulation time: 0 hr 21 min 4 sec) 
Heartbeat CPU 0 instructions: 331000001 cycles: 608134649 heartbeat IPC: 0.337557 cumulative IPC: 0.542968 (Simulation time: 0 hr 21 min 9 sec) 
Heartbeat CPU 0 instructions: 332000003 cycles: 611118793 heartbeat IPC: 0.335105 cumulative IPC: 0.541952 (Simulation time: 0 hr 21 min 13 sec) 
Heartbeat CPU 0 instructions: 333000000 cycles: 611663767 heartbeat IPC: 1.83494 cumulative IPC: 0.543105 (Simulation time: 0 hr 21 min 16 sec) 
Heartbeat CPU 0 instructions: 334000003 cycles: 617012733 heartbeat IPC: 0.186953 cumulative IPC: 0.540016 (Simulation time: 0 hr 21 min 22 sec) 
Heartbeat CPU 0 instructions: 335000001 cycles: 617457750 heartbeat IPC: 2.2471 cumulative IPC: 0.541247 (Simulation time: 0 hr 21 min 25 sec) 
Heartbeat CPU 0 instructions: 336000000 cycles: 617901284 heartbeat IPC: 2.25462 cumulative IPC: 0.542477 (Simulation time: 0 hr 21 min 28 sec) 
Heartbeat CPU 0 instructions: 337000000 cycles: 618343790 heartbeat IPC: 2.25986 cumulative IPC: 0.543707 (Simulation time: 0 hr 21 min 31 sec) 
Heartbeat CPU 0 instructions: 338000000 cycles: 618787031 heartbeat IPC: 2.25611 cumulative IPC: 0.544934 (Simulation time: 0 hr 21 min 34 sec) 
Heartbeat CPU 0 instructions: 339000000 cycles: 619230259 heartbeat IPC: 2.25618 cumulative IPC: 0.54616 (Simulation time: 0 hr 21 min 36 sec) 
Heartbeat CPU 0 instructions: 340000000 cycles: 619672377 heartbeat IPC: 2.26184 cumulative IPC: 0.547385 (Simulation time: 0 hr 21 min 39 sec) 
Heartbeat CPU 0 instructions: 341000000 cycles: 620114316 heartbeat IPC: 2.26276 cumulative IPC: 0.548608 (Simulation time: 0 hr 21 min 42 sec) 
Heartbeat CPU 0 instructions: 342000002 cycles: 620559915 heartbeat IPC: 2.24417 cumulative IPC: 0.549826 (Simulation time: 0 hr 21 min 45 sec) 
Heartbeat CPU 0 instructions: 343000000 cycles: 621011776 heartbeat IPC: 2.21307 cumulative IPC: 0.551037 (Simulation time: 0 hr 21 min 48 sec) 
Heartbeat CPU 0 instructions: 344000000 cycles: 621459582 heartbeat IPC: 2.23311 cumulative IPC: 0.55225 (Simulation time: 0 hr 21 min 51 sec) 
Heartbeat CPU 0 instructions: 345000002 cycles: 621904479 heartbeat IPC: 2.24772 cumulative IPC: 0.553463 (Simulation time: 0 hr 21 min 54 sec) 
Heartbeat CPU 0 instructions: 346000001 cycles: 622347691 heartbeat IPC: 2.25625 cumulative IPC: 0.554677 (Simulation time: 0 hr 21 min 57 sec) 
Heartbeat CPU 0 instructions: 347000001 cycles: 624933766 heartbeat IPC: 0.386686 cumulative IPC: 0.553981 (Simulation time: 0 hr 22 min 2 sec) 
Heartbeat CPU 0 instructions: 348000001 cycles: 625771087 heartbeat IPC: 1.19429 cumulative IPC: 0.554838 (Simulation time: 0 hr 22 min 5 sec) 
Heartbeat CPU 0 instructions: 349000002 cycles: 628759109 heartbeat IPC: 0.33467 cumulative IPC: 0.553792 (Simulation time: 0 hr 22 min 10 sec) 
Heartbeat CPU 0 instructions: 350000000 cycles: 631767335 heartbeat IPC: 0.332421 cumulative IPC: 0.552737 (Simulation time: 0 hr 22 min 14 sec) 
Heartbeat CPU 0 instructions: 351000000 cycles: 634497614 heartbeat IPC: 0.366263 cumulative IPC: 0.551934 (Simulation time: 0 hr 22 min 19 sec) 
Heartbeat CPU 0 instructions: 352000000 cycles: 635120036 heartbeat IPC: 1.60663 cumulative IPC: 0.552968 (Simulation time: 0 hr 22 min 21 sec) 
Heartbeat CPU 0 instructions: 353000000 cycles: 638042578 heartbeat IPC: 0.342168 cumulative IPC: 0.552002 (Simulation time: 0 hr 22 min 26 sec) 
Heartbeat CPU 0 instructions: 354000003 cycles: 641010256 heartbeat IPC: 0.336965 cumulative IPC: 0.551006 (Simulation time: 0 hr 22 min 30 sec) 
Heartbeat CPU 0 instructions: 355000001 cycles: 644001039 heartbeat IPC: 0.33436 cumulative IPC: 0.549999 (Simulation time: 0 hr 22 min 35 sec) 
Heartbeat CPU 0 instructions: 356000000 cycles: 644531115 heartbeat IPC: 1.88652 cumulative IPC: 0.551099 (Simulation time: 0 hr 22 min 38 sec) 
Heartbeat CPU 0 instructions: 357000002 cycles: 647428422 heartbeat IPC: 0.345149 cumulative IPC: 0.550177 (Simulation time: 0 hr 22 min 43 sec) 
Heartbeat CPU 0 instructions: 358000001 cycles: 650436039 heartbeat IPC: 0.332489 cumulative IPC: 0.54917 (Simulation time: 0 hr 22 min 47 sec) 
Heartbeat CPU 0 instructions: 359000001 cycles: 653415673 heartbeat IPC: 0.335612 cumulative IPC: 0.548195 (Simulation time: 0 hr 22 min 52 sec) 
Heartbeat CPU 0 instructions: 360000002 cycles: 654179235 heartbeat IPC: 1.30965 cumulative IPC: 0.549085 (Simulation time: 0 hr 22 min 56 sec) 
Heartbeat CPU 0 instructions: 361000000 cycles: 656849609 heartbeat IPC: 0.374479 cumulative IPC: 0.548374 (Simulation time: 0 hr 23 min 0 sec) 
Heartbeat CPU 0 instructions: 362000001 cycles: 659818222 heartbeat IPC: 0.336858 cumulative IPC: 0.547422 (Simulation time: 0 hr 23 min 5 sec) 
Heartbeat CPU 0 instructions: 363000000 cycles: 662812508 heartbeat IPC: 0.333969 cumulative IPC: 0.546457 (Simulation time: 0 hr 23 min 10 sec) 
Heartbeat CPU 0 instructions: 364000001 cycles: 663479876 heartbeat IPC: 1.49843 cumulative IPC: 0.547415 (Simulation time: 0 hr 23 min 13 sec) 
Heartbeat CPU 0 instructions: 365000001 cycles: 666200307 heartbeat IPC: 0.367589 cumulative IPC: 0.546681 (Simulation time: 0 hr 23 min 17 sec) 
Heartbeat CPU 0 instructions: 366000000 cycles: 669124868 heartbeat IPC: 0.341931 cumulative IPC: 0.545785 (Simulation time: 0 hr 23 min 22 sec) 
Heartbeat CPU 0 instructions: 367000000 cycles: 672111571 heartbeat IPC: 0.334817 cumulative IPC: 0.544847 (Simulation time: 0 hr 23 min 27 sec) 
Heartbeat CPU 0 instructions: 368000000 cycles: 672695788 heartbeat IPC: 1.71169 cumulative IPC: 0.545861 (Simulation time: 0 hr 23 min 30 sec) 
Heartbeat CPU 0 instructions: 369000001 cycles: 675542518 heartbeat IPC: 0.351281 cumulative IPC: 0.545041 (Simulation time: 0 hr 23 min 34 sec) 
Heartbeat CPU 0 instructions: 370000000 cycles: 680932277 heartbeat IPC: 0.185537 cumulative IPC: 0.542194 (Simulation time: 0 hr 23 min 40 sec) 
Heartbeat CPU 0 instructions: 371000000 cycles: 681409612 heartbeat IPC: 2.09496 cumulative IPC: 0.543282 (Simulation time: 0 hr 23 min 43 sec) 
Heartbeat CPU 0 instructions: 372000001 cycles: 681867154 heartbeat IPC: 2.18559 cumulative IPC: 0.544385 (Simulation time: 0 hr 23 min 46 sec) 
Heartbeat CPU 0 instructions: 373000001 cycles: 682311146 heartbeat IPC: 2.25229 cumulative IPC: 0.545497 (Simulation time: 0 hr 23 min 49 sec) 
Heartbeat CPU 0 instructions: 374000000 cycles: 682754769 heartbeat IPC: 2.25416 cumulative IPC: 0.546607 (Simulation time: 0 hr 23 min 51 sec) 
Heartbeat CPU 0 instructions: 375000003 cycles: 683197665 heartbeat IPC: 2.25787 cumulative IPC: 0.547717 (Simulation time: 0 hr 23 min 54 sec) 
Heartbeat CPU 0 instructions: 376000001 cycles: 683640334 heartbeat IPC: 2.25902 cumulative IPC: 0.548826 (Simulation time: 0 hr 23 min 57 sec) 
Heartbeat CPU 0 instructions: 377000002 cycles: 684085480 heartbeat IPC: 2.24646 cumulative IPC: 0.549931 (Simulation time: 0 hr 24 min 0 sec) 
Heartbeat CPU 0 instructions: 378000000 cycles: 684528065 heartbeat IPC: 2.25945 cumulative IPC: 0.551037 (Simulation time: 0 hr 24 min 3 sec) 
Heartbeat CPU 0 instructions: 379000001 cycles: 684972723 heartbeat IPC: 2.24892 cumulative IPC: 0.55214 (Simulation time: 0 hr 24 min 6 sec) 
Heartbeat CPU 0 instructions: 380000000 cycles: 685417015 heartbeat IPC: 2.25077 cumulative IPC: 0.553242 (Simulation time: 0 hr 24 min 9 sec) 
Heartbeat CPU 0 instructions: 381000003 cycles: 685859479 heartbeat IPC: 2.26008 cumulative IPC: 0.554343 (Simulation time: 0 hr 24 min 12 sec) 
Heartbeat CPU 0 instructions: 382000002 cycles: 686303778 heartbeat IPC: 2.25073 cumulative IPC: 0.555442 (Simulation time: 0 hr 24 min 15 sec) 
Heartbeat CPU 0 instructions: 383000001 cycles: 686747954 heartbeat IPC: 2.25136 cumulative IPC: 0.55654 (Simulation time: 0 hr 24 min 18 sec) 
Heartbeat CPU 0 instructions: 384000001 cycles: 689794939 heartbeat IPC: 0.328193 cumulative IPC: 0.55553 (Simulation time: 0 hr 24 min 23 sec) 
Heartbeat CPU 0 instructions: 385000000 cycles: 692753611 heartbeat IPC: 0.337989 cumulative IPC: 0.554601 (Simulation time: 0 hr 24 min 27 sec) 
Heartbeat CPU 0 instructions: 386000001 cycles: 695359904 heartbeat IPC: 0.383687 cumulative IPC: 0.55396 (Simulation time: 0 hr 24 min 31 sec) 
Heartbeat CPU 0 instructions: 387000001 cycles: 696108361 heartbeat IPC: 1.33608 cumulative IPC: 0.554801 (Simulation time: 0 hr 24 min 34 sec) 
Heartbeat CPU 0 instructions: 388000003 cycles: 699096984 heartbeat IPC: 0.334603 cumulative IPC: 0.553859 (Simulation time: 0 hr 24 min 39 sec) 
Heartbeat CPU 0 instructions: 389000001 cycles: 702093566 heartbeat IPC: 0.333713 cumulative IPC: 0.552919 (Simulation time: 0 hr 24 min 44 sec) 
Heartbeat CPU 0 instructions: 390000000 cycles: 704934166 heartbeat IPC: 0.352038 cumulative IPC: 0.552109 (Simulation time: 0 hr 24 min 48 sec) 
Heartbeat CPU 0 instructions: 391000000 cycles: 705486248 heartbeat IPC: 1.81133 cumulative IPC: 0.553095 (Simulation time: 0 hr 24 min 51 sec) 
Heartbeat CPU 0 instructions: 392000000 cycles: 708445716 heartbeat IPC: 0.337899 cumulative IPC: 0.552196 (Simulation time: 0 hr 24 min 55 sec) 
Heartbeat CPU 0 instructions: 393000001 cycles: 711459914 heartbeat IPC: 0.331764 cumulative IPC: 0.551262 (Simulation time: 0 hr 25 min 0 sec) 
Heartbeat CPU 0 instructions: 394000002 cycles: 714430640 heartbeat IPC: 0.336618 cumulative IPC: 0.550369 (Simulation time: 0 hr 25 min 4 sec) 
Heartbeat CPU 0 instructions: 395000001 cycles: 715055055 heartbeat IPC: 1.6015 cumulative IPC: 0.551287 (Simulation time: 0 hr 25 min 7 sec) 
Heartbeat CPU 0 instructions: 396000000 cycles: 717804399 heartbeat IPC: 0.363723 cumulative IPC: 0.550568 (Simulation time: 0 hr 25 min 12 sec) 
Heartbeat CPU 0 instructions: 397000003 cycles: 720821434 heartbeat IPC: 0.331452 cumulative IPC: 0.549651 (Simulation time: 0 hr 25 min 17 sec) 
Heartbeat CPU 0 instructions: 398000003 cycles: 723808233 heartbeat IPC: 0.334807 cumulative IPC: 0.548764 (Simulation time: 0 hr 25 min 21 sec) 
Heartbeat CPU 0 instructions: 399000000 cycles: 724469921 heartbeat IPC: 1.51128 cumulative IPC: 0.549643 (Simulation time: 0 hr 25 min 24 sec) 
Heartbeat CPU 0 instructions: 400000003 cycles: 727243452 heartbeat IPC: 0.360552 cumulative IPC: 0.548922 (Simulation time: 0 hr 25 min 28 sec) 
Heartbeat CPU 0 instructions: 401000000 cycles: 730211368 heartbeat IPC: 0.336936 cumulative IPC: 0.54806 (Simulation time: 0 hr 25 min 33 sec) 
Heartbeat CPU 0 instructions: 402000000 cycles: 733105278 heartbeat IPC: 0.345553 cumulative IPC: 0.54726 (Simulation time: 0 hr 25 min 38 sec) 
Heartbeat CPU 0 instructions: 403000001 cycles: 733668128 heartbeat IPC: 1.77667 cumulative IPC: 0.548203 (Simulation time: 0 hr 25 min 41 sec) 
Heartbeat CPU 0 instructions: 404000002 cycles: 736577158 heartbeat IPC: 0.343758 cumulative IPC: 0.547396 (Simulation time: 0 hr 25 min 45 sec) 
Heartbeat CPU 0 instructions: 405000003 cycles: 739550654 heartbeat IPC: 0.336305 cumulative IPC: 0.546546 (Simulation time: 0 hr 25 min 50 sec) 
Heartbeat CPU 0 instructions: 406000001 cycles: 742536392 heartbeat IPC: 0.334925 cumulative IPC: 0.545695 (Simulation time: 0 hr 25 min 55 sec) 
Heartbeat CPU 0 instructions: 407000000 cycles: 745399833 heartbeat IPC: 0.34923 cumulative IPC: 0.54494 (Simulation time: 0 hr 25 min 59 sec) 
Heartbeat CPU 0 instructions: 408000003 cycles: 745843373 heartbeat IPC: 2.25459 cumulative IPC: 0.545957 (Simulation time: 0 hr 26 min 2 sec) 
Heartbeat CPU 0 instructions: 409000001 cycles: 746286318 heartbeat IPC: 2.25761 cumulative IPC: 0.546974 (Simulation time: 0 hr 26 min 5 sec) 
Heartbeat CPU 0 instructions: 410000000 cycles: 746729990 heartbeat IPC: 2.25392 cumulative IPC: 0.547988 (Simulation time: 0 hr 26 min 8 sec) 
Heartbeat CPU 0 instructions: 411000000 cycles: 747172706 heartbeat IPC: 2.25878 cumulative IPC: 0.549003 (Simulation time: 0 hr 26 min 11 sec) 
Heartbeat CPU 0 instructions: 412000000 cycles: 747628355 heartbeat IPC: 2.19467 cumulative IPC: 0.550006 (Simulation time: 0 hr 26 min 14 sec) 
Heartbeat CPU 0 instructions: 413000001 cycles: 748071828 heartbeat IPC: 2.25493 cumulative IPC: 0.551017 (Simulation time: 0 hr 26 min 17 sec) 
Heartbeat CPU 0 instructions: 414000002 cycles: 748514235 heartbeat IPC: 2.26036 cumulative IPC: 0.552028 (Simulation time: 0 hr 26 min 20 sec) 
Heartbeat CPU 0 instructions: 415000002 cycles: 748957775 heartbeat IPC: 2.25459 cumulative IPC: 0.553037 (Simulation time: 0 hr 26 min 23 sec) 
Heartbeat CPU 0 instructions: 416000001 cycles: 749402664 heartbeat IPC: 2.24775 cumulative IPC: 0.554043 (Simulation time: 0 hr 26 min 26 sec) 
Heartbeat CPU 0 instructions: 417000002 cycles: 749842407 heartbeat IPC: 2.27406 cumulative IPC: 0.555053 (Simulation time: 0 hr 26 min 29 sec) 
Heartbeat CPU 0 instructions: 418000000 cycles: 750287482 heartbeat IPC: 2.24681 cumulative IPC: 0.556057 (Simulation time: 0 hr 26 min 32 sec) 
Heartbeat CPU 0 instructions: 419000002 cycles: 750729912 heartbeat IPC: 2.26025 cumulative IPC: 0.557061 (Simulation time: 0 hr 26 min 35 sec) 
Heartbeat CPU 0 instructions: 420000000 cycles: 753736062 heartbeat IPC: 0.332651 cumulative IPC: 0.556166 (Simulation time: 0 hr 26 min 40 sec) 
Heartbeat CPU 0 instructions: 421000000 cycles: 756255368 heartbeat IPC: 0.396935 cumulative IPC: 0.555635 (Simulation time: 0 hr 26 min 44 sec) 
Heartbeat CPU 0 instructions: 422000000 cycles: 757135792 heartbeat IPC: 1.13582 cumulative IPC: 0.55631 (Simulation time: 0 hr 26 min 47 sec) 
Heartbeat CPU 0 instructions: 423000001 cycles: 760134819 heartbeat IPC: 0.333442 cumulative IPC: 0.55543 (Simulation time: 0 hr 26 min 52 sec) 
Heartbeat CPU 0 instructions: 424000000 cycles: 763051603 heartbeat IPC: 0.342843 cumulative IPC: 0.554617 (Simulation time: 0 hr 26 min 57 sec) 
Heartbeat CPU 0 instructions: 425000002 cycles: 765792614 heartbeat IPC: 0.36483 cumulative IPC: 0.553938 (Simulation time: 0 hr 27 min 1 sec) 
Heartbeat CPU 0 instructions: 426000000 cycles: 766473577 heartbeat IPC: 1.46851 cumulative IPC: 0.554751 (Simulation time: 0 hr 27 min 4 sec) 
Heartbeat CPU 0 instructions: 427000000 cycles: 769399491 heartbeat IPC: 0.341774 cumulative IPC: 0.55394 (Simulation time: 0 hr 27 min 9 sec) 
Heartbeat CPU 0 instructions: 428000002 cycles: 772358630 heartbeat IPC: 0.337937 cumulative IPC: 0.553113 (Simulation time: 0 hr 27 min 14 sec) 
Heartbeat CPU 0 instructions: 429000000 cycles: 775322778 heartbeat IPC: 0.337364 cumulative IPC: 0.552287 (Simulation time: 0 hr 27 min 18 sec) 
Heartbeat CPU 0 instructions: 430000000 cycles: 775819010 heartbeat IPC: 2.01519 cumulative IPC: 0.553223 (Simulation time: 0 hr 27 min 21 sec) 
Heartbeat CPU 0 instructions: 431000001 cycles: 778754942 heartbeat IPC: 0.340608 cumulative IPC: 0.552421 (Simulation time: 0 hr 27 min 26 sec) 
Heartbeat CPU 0 instructions: 432000001 cycles: 781685149 heartbeat IPC: 0.341273 cumulative IPC: 0.55163 (Simulation time: 0 hr 27 min 31 sec) 
Heartbeat CPU 0 instructions: 433000002 cycles: 784621306 heartbeat IPC: 0.340582 cumulative IPC: 0.550839 (Simulation time: 0 hr 27 min 36 sec) 
Heartbeat CPU 0 instructions: 434000001 cycles: 785272133 heartbeat IPC: 1.53651 cumulative IPC: 0.551657 (Simulation time: 0 hr 27 min 39 sec) 
Heartbeat CPU 0 instructions: 435000003 cycles: 788078860 heartbeat IPC: 0.356288 cumulative IPC: 0.550961 (Simulation time: 0 hr 27 min 44 sec) 
Heartbeat CPU 0 instructions: 436000000 cycles: 791118624 heartbeat IPC: 0.328972 cumulative IPC: 0.550107 (Simulation time: 0 hr 27 min 49 sec) 
Heartbeat CPU 0 instructions: 437000001 cycles: 794076895 heartbeat IPC: 0.338036 cumulative IPC: 0.549317 (Simulation time: 0 hr 27 min 53 sec) 
Heartbeat CPU 0 instructions: 438000001 cycles: 794610740 heartbeat IPC: 1.8732 cumulative IPC: 0.550207 (Simulation time: 0 hr 27 min 57 sec) 
Heartbeat CPU 0 instructions: 439000000 cycles: 797498956 heartbeat IPC: 0.346234 cumulative IPC: 0.549468 (Simulation time: 0 hr 28 min 1 sec) 
Heartbeat CPU 0 instructions: 440000000 cycles: 800427087 heartbeat IPC: 0.341515 cumulative IPC: 0.548707 (Simulation time: 0 hr 28 min 6 sec) 
Heartbeat CPU 0 instructions: 441000001 cycles: 803398762 heartbeat IPC: 0.336511 cumulative IPC: 0.547921 (Simulation time: 0 hr 28 min 11 sec) 
Heartbeat CPU 0 instructions: 442000002 cycles: 803860437 heartbeat IPC: 2.16603 cumulative IPC: 0.548851 (Simulation time: 0 hr 28 min 14 sec) 
Heartbeat CPU 0 instructions: 443000002 cycles: 809328540 heartbeat IPC: 0.182879 cumulative IPC: 0.546377 (Simulation time: 0 hr 28 min 20 sec) 
Heartbeat CPU 0 instructions: 444000002 cycles: 809773945 heartbeat IPC: 2.24515 cumulative IPC: 0.547312 (Simulation time: 0 hr 28 min 23 sec) 
Heartbeat CPU 0 instructions: 445000000 cycles: 810217489 heartbeat IPC: 2.25456 cumulative IPC: 0.548247 (Simulation time: 0 hr 28 min 26 sec) 
Heartbeat CPU 0 instructions: 446000000 cycles: 810661150 heartbeat IPC: 2.25397 cumulative IPC: 0.549181 (Simulation time: 0 hr 28 min 29 sec) 
Heartbeat CPU 0 instructions: 447000002 cycles: 811107479 heartbeat IPC: 2.2405 cumulative IPC: 0.550112 (Simulation time: 0 hr 28 min 32 sec) 
Heartbeat CPU 0 instructions: 448000000 cycles: 811556423 heartbeat IPC: 2.22744 cumulative IPC: 0.55104 (Simulation time: 0 hr 28 min 35 sec) 
Heartbeat CPU 0 instructions: 449000003 cycles: 812006652 heartbeat IPC: 2.2211 cumulative IPC: 0.551967 (Simulation time: 0 hr 28 min 38 sec) 
Heartbeat CPU 0 instructions: 450000002 cycles: 812456267 heartbeat IPC: 2.22412 cumulative IPC: 0.552893 (Simulation time: 0 hr 28 min 41 sec) 

Warmup complete CPU 0 instructions: 450000002 cycles: 812456267 (Simulation time: 0 hr 28 min 41 sec) 

Heartbeat CPU 0 instructions: 451000000 cycles: 812901195 heartbeat IPC: 2.24755 cumulative IPC: 2.24755 (Simulation time: 0 hr 28 min 44 sec) 
Heartbeat CPU 0 instructions: 452000000 cycles: 813351857 heartbeat IPC: 2.21896 cumulative IPC: 2.23316 (Simulation time: 0 hr 28 min 47 sec) 
Heartbeat CPU 0 instructions: 453000000 cycles: 813814512 heartbeat IPC: 2.16144 cumulative IPC: 2.20873 (Simulation time: 0 hr 28 min 50 sec) 
Heartbeat CPU 0 instructions: 454000001 cycles: 814258027 heartbeat IPC: 2.25472 cumulative IPC: 2.22005 (Simulation time: 0 hr 28 min 53 sec) 
Heartbeat CPU 0 instructions: 455000002 cycles: 814700644 heartbeat IPC: 2.25929 cumulative IPC: 2.22779 (Simulation time: 0 hr 28 min 55 sec) 
Heartbeat CPU 0 instructions: 456000000 cycles: 817124937 heartbeat IPC: 0.412491 cumulative IPC: 1.28516 (Simulation time: 0 hr 29 min 0 sec) 
Heartbeat CPU 0 instructions: 457000001 cycles: 818134682 heartbeat IPC: 0.99035 cumulative IPC: 1.23274 (Simulation time: 0 hr 29 min 3 sec) 
Heartbeat CPU 0 instructions: 458000001 cycles: 821127004 heartbeat IPC: 0.334189 cumulative IPC: 0.922643 (Simulation time: 0 hr 29 min 8 sec) 
Heartbeat CPU 0 instructions: 459000002 cycles: 824096116 heartbeat IPC: 0.336801 cumulative IPC: 0.773206 (Simulation time: 0 hr 29 min 12 sec) 
Heartbeat CPU 0 instructions: 460000002 cycles: 826762932 heartbeat IPC: 0.374979 cumulative IPC: 0.698975 (Simulation time: 0 hr 29 min 17 sec) 
Heartbeat CPU 0 instructions: 461000002 cycles: 827556963 heartbeat IPC: 1.2594 cumulative IPC: 0.728443 (Simulation time: 0 hr 29 min 20 sec) 
Heartbeat CPU 0 instructions: 462000000 cycles: 830571686 heartbeat IPC: 0.331705 cumulative IPC: 0.662419 (Simulation time: 0 hr 29 min 25 sec) 
Heartbeat CPU 0 instructions: 463000001 cycles: 833585783 heartbeat IPC: 0.331775 cumulative IPC: 0.615253 (Simulation time: 0 hr 29 min 30 sec) 
Heartbeat CPU 0 instructions: 464000002 cycles: 836458826 heartbeat IPC: 0.348063 cumulative IPC: 0.583271 (Simulation time: 0 hr 29 min 34 sec) 
Heartbeat CPU 0 instructions: 465000003 cycles: 837028265 heartbeat IPC: 1.75612 cumulative IPC: 0.610451 (Simulation time: 0 hr 29 min 37 sec) 
Heartbeat CPU 0 instructions: 466000000 cycles: 840022180 heartbeat IPC: 0.33401 cumulative IPC: 0.580427 (Simulation time: 0 hr 29 min 42 sec) 
Heartbeat CPU 0 instructions: 467000001 cycles: 842940934 heartbeat IPC: 0.342612 cumulative IPC: 0.557657 (Simulation time: 0 hr 29 min 47 sec) 
Heartbeat CPU 0 instructions: 468000002 cycles: 845896115 heartbeat IPC: 0.338389 cumulative IPC: 0.53828 (Simulation time: 0 hr 29 min 51 sec) 
Heartbeat CPU 0 instructions: 469000000 cycles: 846519616 heartbeat IPC: 1.60384 cumulative IPC: 0.557784 (Simulation time: 0 hr 29 min 54 sec) 
Heartbeat CPU 0 instructions: 470000003 cycles: 849314902 heartbeat IPC: 0.357746 cumulative IPC: 0.542614 (Simulation time: 0 hr 29 min 59 sec) 
Heartbeat CPU 0 instructions: 471000001 cycles: 852307579 heartbeat IPC: 0.334148 cumulative IPC: 0.526959 (Simulation time: 0 hr 30 min 4 sec) 
Heartbeat CPU 0 instructions: 472000000 cycles: 855216274 heartbeat IPC: 0.343796 cumulative IPC: 0.514499 (Simulation time: 0 hr 30 min 8 sec) 
Heartbeat CPU 0 instructions: 473000000 cycles: 855757462 heartbeat IPC: 1.84779 cumulative IPC: 0.531163 (Simulation time: 0 hr 30 min 11 sec) 
Heartbeat CPU 0 instructions: 474000000 cycles: 858683771 heartbeat IPC: 0.341727 cumulative IPC: 0.519171 (Simulation time: 0 hr 30 min 16 sec) 
Heartbeat CPU 0 instructions: 475000001 cycles: 861654484 heartbeat IPC: 0.33662 cumulative IPC: 0.508148 (Simulation time: 0 hr 30 min 21 sec) 
Heartbeat CPU 0 instructions: 476000001 cycles: 864614910 heartbeat IPC: 0.337789 cumulative IPC: 0.498479 (Simulation time: 0 hr 30 min 25 sec) 
Heartbeat CPU 0 instructions: 477000002 cycles: 865080042 heartbeat IPC: 2.14993 cumulative IPC: 0.513076 (Simulation time: 0 hr 30 min 28 sec) 
Heartbeat CPU 0 instructions: 478000000 cycles: 868078053 heartbeat IPC: 0.333554 cumulative IPC: 0.5034 (Simulation time: 0 hr 30 min 33 sec) 
Heartbeat CPU 0 instructions: 479000000 cycles: 873398828 heartbeat IPC: 0.187943 cumulative IPC: 0.475858 (Simulation time: 0 hr 30 min 40 sec) 
Heartbeat CPU 0 instructions: 480000000 cycles: 873884226 heartbeat IPC: 2.06017 cumulative IPC: 0.488377 (Simulation time: 0 hr 30 min 43 sec) 
Heartbeat CPU 0 instructions: 481000001 cycles: 874350723 heartbeat IPC: 2.14364 cumulative IPC: 0.500853 (Simulation time: 0 hr 30 min 46 sec) 
Heartbeat CPU 0 instructions: 482000000 cycles: 874804742 heartbeat IPC: 2.20255 cumulative IPC: 0.513244 (Simulation time: 0 hr 30 min 49 sec) 
Heartbeat CPU 0 instructions: 483000003 cycles: 875249408 heartbeat IPC: 2.24889 cumulative IPC: 0.525535 (Simulation time: 0 hr 30 min 52 sec) 
Heartbeat CPU 0 instructions: 484000000 cycles: 875693784 heartbeat IPC: 2.25034 cumulative IPC: 0.537655 (Simulation time: 0 hr 30 min 55 sec) 
Heartbeat CPU 0 instructions: 485000002 cycles: 876137082 heartbeat IPC: 2.25582 cumulative IPC: 0.549616 (Simulation time: 0 hr 30 min 58 sec) 
Heartbeat CPU 0 instructions: 486000003 cycles: 876580101 heartbeat IPC: 2.25724 cumulative IPC: 0.561414 (Simulation time: 0 hr 31 min 1 sec) 
Heartbeat CPU 0 instructions: 487000001 cycles: 877024256 heartbeat IPC: 2.25146 cumulative IPC: 0.573039 (Simulation time: 0 hr 31 min 4 sec) 
Heartbeat CPU 0 instructions: 488000002 cycles: 877466974 heartbeat IPC: 2.25878 cumulative IPC: 0.584519 (Simulation time: 0 hr 31 min 7 sec) 
Heartbeat CPU 0 instructions: 489000002 cycles: 877912453 heartbeat IPC: 2.24477 cumulative IPC: 0.595818 (Simulation time: 0 hr 31 min 10 sec) 
Heartbeat CPU 0 instructions: 490000001 cycles: 878355319 heartbeat IPC: 2.25802 cumulative IPC: 0.606989 (Simulation time: 0 hr 31 min 13 sec) 
Heartbeat CPU 0 instructions: 491000001 cycles: 878796169 heartbeat IPC: 2.26835 cumulative IPC: 0.618029 (Simulation time: 0 hr 31 min 16 sec) 
Heartbeat CPU 0 instructions: 492000000 cycles: 879238978 heartbeat IPC: 2.25831 cumulative IPC: 0.628905 (Simulation time: 0 hr 31 min 19 sec) 
Heartbeat CPU 0 instructions: 493000002 cycles: 882213576 heartbeat IPC: 0.336181 cumulative IPC: 0.616423 (Simulation time: 0 hr 31 min 23 sec) 
Heartbeat CPU 0 instructions: 494000003 cycles: 885198474 heartbeat IPC: 0.33502 cumulative IPC: 0.604876 (Simulation time: 0 hr 31 min 28 sec) 
Heartbeat CPU 0 instructions: 495000000 cycles: 887715949 heartbeat IPC: 0.397222 cumulative IPC: 0.59793 (Simulation time: 0 hr 31 min 32 sec) 
Heartbeat CPU 0 instructions: 496000001 cycles: 888623114 heartbeat IPC: 1.10234 cumulative IPC: 0.603937 (Simulation time: 0 hr 31 min 35 sec) 
Heartbeat CPU 0 instructions: 497000002 cycles: 891577798 heartbeat IPC: 0.338446 cumulative IPC: 0.594023 (Simulation time: 0 hr 31 min 40 sec) 
Heartbeat CPU 0 instructions: 498000000 cycles: 894543986 heartbeat IPC: 0.337132 cumulative IPC: 0.58474 (Simulation time: 0 hr 31 min 45 sec) 
Heartbeat CPU 0 instructions: 499000002 cycles: 897212789 heartbeat IPC: 0.374701 cumulative IPC: 0.578127 (Simulation time: 0 hr 31 min 49 sec) 
Heartbeat CPU 0 instructions: 500000000 cycles: 897913666 heartbeat IPC: 1.42678 cumulative IPC: 0.585087 (Simulation time: 0 hr 31 min 52 sec) 
Heartbeat CPU 0 instructions: 501000001 cycles: 900904718 heartbeat IPC: 0.334331 cumulative IPC: 0.576607 (Simulation time: 0 hr 31 min 57 sec) 
Heartbeat CPU 0 instructions: 502000001 cycles: 903863036 heartbeat IPC: 0.33803 cumulative IPC: 0.568886 (Simulation time: 0 hr 32 min 2 sec) 
Heartbeat CPU 0 instructions: 503000001 cycles: 906788266 heartbeat IPC: 0.341853 cumulative IPC: 0.561845 (Simulation time: 0 hr 32 min 6 sec) 
Heartbeat CPU 0 instructions: 504000000 cycles: 907273089 heartbeat IPC: 2.06261 cumulative IPC: 0.569519 (Simulation time: 0 hr 32 min 10 sec) 
Heartbeat CPU 0 instructions: 505000001 cycles: 910268150 heartbeat IPC: 0.333883 cumulative IPC: 0.562304 (Simulation time: 0 hr 32 min 14 sec) 
Heartbeat CPU 0 instructions: 506000000 cycles: 913232952 heartbeat IPC: 0.33729 cumulative IPC: 0.555684 (Simulation time: 0 hr 32 min 19 sec) 
Heartbeat CPU 0 instructions: 507000001 cycles: 916194110 heartbeat IPC: 0.337706 cumulative IPC: 0.549462 (Simulation time: 0 hr 32 min 23 sec) 
Heartbeat CPU 0 instructions: 508000001 cycles: 916704394 heartbeat IPC: 1.95969 cumulative IPC: 0.556365 (Simulation time: 0 hr 32 min 26 sec) 
Heartbeat CPU 0 instructions: 509000002 cycles: 919637742 heartbeat IPC: 0.340908 cumulative IPC: 0.550468 (Simulation time: 0 hr 32 min 31 sec) 
Heartbeat CPU 0 instructions: 510000001 cycles: 922632649 heartbeat IPC: 0.3339 cumulative IPC: 0.544581 (Simulation time: 0 hr 32 min 36 sec) 
Heartbeat CPU 0 instructions: 511000002 cycles: 925592792 heartbeat IPC: 0.337822 cumulative IPC: 0.539172 (Simulation time: 0 hr 32 min 40 sec) 
Heartbeat CPU 0 instructions: 512000002 cycles: 926055534 heartbeat IPC: 2.16103 cumulative IPC: 0.545778 (Simulation time: 0 hr 32 min 43 sec) 
Heartbeat CPU 0 instructions: 513000003 cycles: 929044291 heartbeat IPC: 0.334588 cumulative IPC: 0.540364 (Simulation time: 0 hr 32 min 48 sec) 
Heartbeat CPU 0 instructions: 514000002 cycles: 932035787 heartbeat IPC: 0.334281 cumulative IPC: 0.535209 (Simulation time: 0 hr 32 min 53 sec) 
Heartbeat CPU 0 instructions: 515000000 cycles: 934867842 heartbeat IPC: 0.3531 cumulative IPC: 0.530996 (Simulation time: 0 hr 32 min 57 sec) 
Heartbeat CPU 0 instructions: 516000000 cycles: 937960257 heartbeat IPC: 0.323372 cumulative IPC: 0.52588 (Simulation time: 0 hr 33 min 2 sec) 
Heartbeat CPU 0 instructions: 517000000 cycles: 938403934 heartbeat IPC: 2.25389 cumulative IPC: 0.531967 (Simulation time: 0 hr 33 min 5 sec) 
Heartbeat CPU 0 instructions: 518000002 cycles: 938846045 heartbeat IPC: 2.26188 cumulative IPC: 0.538018 (Simulation time: 0 hr 33 min 8 sec) 
Heartbeat CPU 0 instructions: 519000003 cycles: 939288036 heartbeat IPC: 2.26249 cumulative IPC: 0.544028 (Simulation time: 0 hr 33 min 11 sec) 
Heartbeat CPU 0 instructions: 520000000 cycles: 939731876 heartbeat IPC: 2.25306 cumulative IPC: 0.549988 (Simulation time: 0 hr 33 min 14 sec) 
Heartbeat CPU 0 instructions: 521000002 cycles: 940182778 heartbeat IPC: 2.21778 cumulative IPC: 0.555875 (Simulation time: 0 hr 33 min 17 sec) 
Heartbeat CPU 0 instructions: 522000000 cycles: 940628572 heartbeat IPC: 2.24318 cumulative IPC: 0.561744 (Simulation time: 0 hr 33 min 20 sec) 
Heartbeat CPU 0 instructions: 523000002 cycles: 941071510 heartbeat IPC: 2.25766 cumulative IPC: 0.567584 (Simulation time: 0 hr 33 min 23 sec) 
Heartbeat CPU 0 instructions: 524000002 cycles: 941514756 heartbeat IPC: 2.25608 cumulative IPC: 0.573383 (Simulation time: 0 hr 33 min 27 sec) 
Heartbeat CPU 0 instructions: 525000000 cycles: 941959557 heartbeat IPC: 2.24819 cumulative IPC: 0.579136 (Simulation time: 0 hr 33 min 30 sec) 
Heartbeat CPU 0 instructions: 526000003 cycles: 942401762 heartbeat IPC: 2.2614 cumulative IPC: 0.584861 (Simulation time: 0 hr 33 min 33 sec) 
Heartbeat CPU 0 instructions: 527000002 cycles: 942844101 heartbeat IPC: 2.26071 cumulative IPC: 0.590546 (Simulation time: 0 hr 33 min 36 sec) 
Heartbeat CPU 0 instructions: 528000000 cycles: 943284379 heartbeat IPC: 2.27129 cumulative IPC: 0.596202 (Simulation time: 0 hr 33 min 39 sec) 
Heartbeat CPU 0 instructions: 529000001 cycles: 946310599 heartbeat IPC: 0.330446 cumulative IPC: 0.590194 (Simulation time: 0 hr 33 min 43 sec) 
Heartbeat CPU 0 instructions: 530000001 cycles: 948730881 heartbeat IPC: 0.413175 cumulative IPC: 0.58705 (Simulation time: 0 hr 33 min 48 sec) 
Heartbeat CPU 0 instructions: 531000000 cycles: 949755238 heartbeat IPC: 0.976221 cumulative IPC: 0.589953 (Simulation time: 0 hr 33 min 51 sec) 
Heartbeat CPU 0 instructions: 532000001 cycles: 952771285 heartbeat IPC: 0.33156 cumulative IPC: 0.584399 (Simulation time: 0 hr 33 min 56 sec) 
Heartbeat CPU 0 instructions: 533000000 cycles: 955781712 heartbeat IPC: 0.332178 cumulative IPC: 0.579102 (Simulation time: 0 hr 34 min 1 sec) 
Heartbeat CPU 0 instructions: 534000001 cycles: 958411701 heartbeat IPC: 0.38023 cumulative IPC: 0.575518 (Simulation time: 0 hr 34 min 5 sec) 
Heartbeat CPU 0 instructions: 535000001 cycles: 959225120 heartbeat IPC: 1.22938 cumulative IPC: 0.579142 (Simulation time: 0 hr 34 min 9 sec) 
Heartbeat CPU 0 instructions: 536000003 cycles: 962207066 heartbeat IPC: 0.335352 cumulative IPC: 0.574287 (Simulation time: 0 hr 34 min 13 sec) 
Heartbeat CPU 0 instructions: 537000000 cycles: 965138708 heartbeat IPC: 0.341105 cumulative IPC: 0.56981 (Simulation time: 0 hr 34 min 18 sec) 
Heartbeat CPU 0 instructions: 538000001 cycles: 967987411 heartbeat IPC: 0.351037 cumulative IPC: 0.565803 (Simulation time: 0 hr 34 min 22 sec) 
Heartbeat CPU 0 instructions: 539000000 cycles: 968563543 heartbeat IPC: 1.73571 cumulative IPC: 0.570121 (Simulation time: 0 hr 34 min 25 sec) 
Heartbeat CPU 0 instructions: 540000002 cycles: 971568419 heartbeat IPC: 0.332793 cumulative IPC: 0.565639 (Simulation time: 0 hr 34 min 30 sec) 
Heartbeat CPU 0 instructions: 541000003 cycles: 974525021 heartbeat IPC: 0.338226 cumulative IPC: 0.56149 (Simulation time: 0 hr 34 min 35 sec) 
Heartbeat CPU 0 instructions: 542000003 cycles: 977486177 heartbeat IPC: 0.337706 cumulative IPC: 0.557475 (Simulation time: 0 hr 34 min 39 sec) 
Heartbeat CPU 0 instructions: 543000002 cycles: 978033977 heartbeat IPC: 1.82548 cumulative IPC: 0.56167 (Simulation time: 0 hr 34 min 42 sec) 
Heartbeat CPU 0 instructions: 544000001 cycles: 980917092 heartbeat IPC: 0.346847 cumulative IPC: 0.557993 (Simulation time: 0 hr 34 min 47 sec) 
Heartbeat CPU 0 instructions: 545000001 cycles: 983959030 heartbeat IPC: 0.328738 cumulative IPC: 0.553927 (Simulation time: 0 hr 34 min 52 sec) 
Heartbeat CPU 0 instructions: 546000003 cycles: 986883058 heartbeat IPC: 0.341995 cumulative IPC: 0.550374 (Simulation time: 0 hr 34 min 56 sec) 
Heartbeat CPU 0 instructions: 547000002 cycles: 987344901 heartbeat IPC: 2.16524 cumulative IPC: 0.554639 (Simulation time: 0 hr 34 min 59 sec) 
Heartbeat CPU 0 instructions: 548000000 cycles: 990361345 heartbeat IPC: 0.331516 cumulative IPC: 0.550856 (Simulation time: 0 hr 35 min 3 sec) 
Heartbeat CPU 0 instructions: 549000000 cycles: 993349862 heartbeat IPC: 0.334614 cumulative IPC: 0.547283 (Simulation time: 0 hr 35 min 8 sec) 
[...]
Heartbeat CPU 0 instructions: 835000001 cycles: 2479956029 heartbeat IPC: 0.143794 cumulative IPC: 0.230885 (Simulation time: 1 hr 3 min 25 sec) 
Heartbeat CPU 0 instructions: 836000000 cycles: 2486900897 heartbeat IPC: 0.143991 cumulative IPC: 0.230524 (Simulation time: 1 hr 3 min 33 sec) 
Heartbeat CPU 0 instructions: 837000001 cycles: 2493909705 heartbeat IPC: 0.142678 cumulative IPC: 0.230158 (Simulation time: 1 hr 3 min 40 sec) 
Heartbeat CPU 0 instructions: 838000000 cycles: 2501564931 heartbeat IPC: 0.13063 cumulative IPC: 0.229707 (Simulation time: 1 hr 3 min 48 sec) 
Heartbeat CPU 0 instructions: 839000000 cycles: 2508444315 heartbeat IPC: 0.145362 cumulative IPC: 0.229365 (Simulation time: 1 hr 3 min 55 sec) 
Heartbeat CPU 0 instructions: 840000001 cycles: 2515398872 heartbeat IPC: 0.143791 cumulative IPC: 0.229015 (Simulation time: 1 hr 4 min 2 sec) 
Heartbeat CPU 0 instructions: 841000002 cycles: 2522403033 heartbeat IPC: 0.142772 cumulative IPC: 0.228662 (Simulation time: 1 hr 4 min 9 sec) 
Heartbeat CPU 0 instructions: 842000001 cycles: 2529364204 heartbeat IPC: 0.143654 cumulative IPC: 0.228317 (Simulation time: 1 hr 4 min 16 sec) 
Heartbeat CPU 0 instructions: 843000001 cycles: 2536323566 heartbeat IPC: 0.143691 cumulative IPC: 0.227976 (Simulation time: 1 hr 4 min 23 sec) 
Heartbeat CPU 0 instructions: 844000002 cycles: 2543113148 heartbeat IPC: 0.147285 cumulative IPC: 0.227659 (Simulation time: 1 hr 4 min 30 sec) 
Heartbeat CPU 0 instructions: 845000001 cycles: 2549994507 heartbeat IPC: 0.14532 cumulative IPC: 0.227333 (Simulation time: 1 hr 4 min 36 sec) 
Heartbeat CPU 0 instructions: 846000000 cycles: 2556913139 heartbeat IPC: 0.144537 cumulative IPC: 0.227005 (Simulation time: 1 hr 4 min 43 sec) 
Heartbeat CPU 0 instructions: 847000000 cycles: 2564078778 heartbeat IPC: 0.139555 cumulative IPC: 0.226647 (Simulation time: 1 hr 4 min 50 sec) 
Heartbeat CPU 0 instructions: 848000001 cycles: 2571438124 heartbeat IPC: 0.135882 cumulative IPC: 0.226267 (Simulation time: 1 hr 4 min 58 sec) 
Heartbeat CPU 0 instructions: 849000000 cycles: 2578454027 heartbeat IPC: 0.142533 cumulative IPC: 0.225935 (Simulation time: 1 hr 5 min 5 sec) 
Heartbeat CPU 0 instructions: 850000001 cycles: 2585350362 heartbeat IPC: 0.145005 cumulative IPC: 0.22562 (Simulation time: 1 hr 5 min 12 sec) 
Heartbeat CPU 0 instructions: 851000000 cycles: 2591820676 heartbeat IPC: 0.154552 cumulative IPC: 0.225361 (Simulation time: 1 hr 5 min 19 sec) 
Heartbeat CPU 0 instructions: 852000002 cycles: 2598702236 heartbeat IPC: 0.145316 cumulative IPC: 0.225053 (Simulation time: 1 hr 5 min 26 sec) 
Heartbeat CPU 0 instructions: 853000001 cycles: 2605590893 heartbeat IPC: 0.145166 cumulative IPC: 0.224746 (Simulation time: 1 hr 5 min 33 sec) 
Heartbeat CPU 0 instructions: 854000002 cycles: 2612521081 heartbeat IPC: 0.144296 cumulative IPC: 0.224436 (Simulation time: 1 hr 5 min 40 sec) 
Heartbeat CPU 0 instructions: 855000000 cycles: 2620113099 heartbeat IPC: 0.131717 cumulative IPC: 0.224047 (Simulation time: 1 hr 5 min 47 sec) 
Heartbeat CPU 0 instructions: 856000001 cycles: 2626890008 heartbeat IPC: 0.14756 cumulative IPC: 0.223761 (Simulation time: 1 hr 5 min 54 sec) 
Heartbeat CPU 0 instructions: 857000000 cycles: 2633835991 heartbeat IPC: 0.143968 cumulative IPC: 0.223457 (Simulation time: 1 hr 6 min 1 sec) 
Heartbeat CPU 0 instructions: 858000000 cycles: 2640753259 heartbeat IPC: 0.144566 cumulative IPC: 0.223158 (Simulation time: 1 hr 6 min 8 sec) 
Heartbeat CPU 0 instructions: 859000000 cycles: 2647738488 heartbeat IPC: 0.143159 cumulative IPC: 0.222854 (Simulation time: 1 hr 6 min 15 sec) 
Heartbeat CPU 0 instructions: 860000001 cycles: 2654719988 heartbeat IPC: 0.143236 cumulative IPC: 0.222552 (Simulation time: 1 hr 6 min 22 sec) 
Heartbeat CPU 0 instructions: 861000000 cycles: 2661488028 heartbeat IPC: 0.147753 cumulative IPC: 0.222278 (Simulation time: 1 hr 6 min 29 sec) 
Heartbeat CPU 0 instructions: 862000000 cycles: 2668364375 heartbeat IPC: 0.145426 cumulative IPC: 0.221994 (Simulation time: 1 hr 6 min 36 sec) 
Heartbeat CPU 0 instructions: 863000001 cycles: 2675279423 heartbeat IPC: 0.144612 cumulative IPC: 0.221706 (Simulation time: 1 hr 6 min 42 sec) 
Heartbeat CPU 0 instructions: 864000000 cycles: 2682164365 heartbeat IPC: 0.145244 cumulative IPC: 0.221425 (Simulation time: 1 hr 6 min 49 sec) 
Heartbeat CPU 0 instructions: 865000000 cycles: 2689103105 heartbeat IPC: 0.144118 cumulative IPC: 0.221139 (Simulation time: 1 hr 6 min 56 sec) 
Heartbeat CPU 0 instructions: 866000002 cycles: 2696757530 heartbeat IPC: 0.130644 cumulative IPC: 0.220771 (Simulation time: 1 hr 7 min 4 sec) 
Heartbeat CPU 0 instructions: 867000001 cycles: 2703560617 heartbeat IPC: 0.146992 cumulative IPC: 0.220506 (Simulation time: 1 hr 7 min 10 sec) 
Heartbeat CPU 0 instructions: 868000002 cycles: 2710471002 heartbeat IPC: 0.14471 cumulative IPC: 0.22023 (Simulation time: 1 hr 7 min 17 sec) 
Heartbeat CPU 0 instructions: 869000000 cycles: 2717404285 heartbeat IPC: 0.144232 cumulative IPC: 0.219954 (Simulation time: 1 hr 7 min 24 sec) 
Heartbeat CPU 0 instructions: 870000000 cycles: 2724364078 heartbeat IPC: 0.143682 cumulative IPC: 0.219676 (Simulation time: 1 hr 7 min 31 sec) 
Heartbeat CPU 0 instructions: 871000001 cycles: 2731340405 heartbeat IPC: 0.143342 cumulative IPC: 0.219398 (Simulation time: 1 hr 7 min 38 sec) 
Heartbeat CPU 0 instructions: 872000000 cycles: 2738088241 heartbeat IPC: 0.148196 cumulative IPC: 0.219149 (Simulation time: 1 hr 7 min 45 sec) 
Heartbeat CPU 0 instructions: 873000002 cycles: 2744960648 heartbeat IPC: 0.14551 cumulative IPC: 0.218887 (Simulation time: 1 hr 7 min 52 sec) 
Heartbeat CPU 0 instructions: 874000000 cycles: 2751823676 heartbeat IPC: 0.145708 cumulative IPC: 0.218628 (Simulation time: 1 hr 7 min 59 sec) 
Heartbeat CPU 0 instructions: 875000001 cycles: 2758873818 heartbeat IPC: 0.141841 cumulative IPC: 0.21835 (Simulation time: 1 hr 8 min 6 sec) 
Heartbeat CPU 0 instructions: 876000001 cycles: 2766373613 heartbeat IPC: 0.133337 cumulative IPC: 0.218024 (Simulation time: 1 hr 8 min 13 sec) 
Heartbeat CPU 0 instructions: 877000001 cycles: 2773387978 heartbeat IPC: 0.142565 cumulative IPC: 0.217754 (Simulation time: 1 hr 8 min 20 sec) 
Heartbeat CPU 0 instructions: 878000001 cycles: 2780292523 heartbeat IPC: 0.144832 cumulative IPC: 0.217498 (Simulation time: 1 hr 8 min 27 sec) 
Heartbeat CPU 0 instructions: 879000002 cycles: 2787147267 heartbeat IPC: 0.145885 cumulative IPC: 0.217249 (Simulation time: 1 hr 8 min 34 sec) 
Heartbeat CPU 0 instructions: 880000000 cycles: 2794044799 heartbeat IPC: 0.144979 cumulative IPC: 0.216998 (Simulation time: 1 hr 8 min 41 sec) 
Heartbeat CPU 0 instructions: 881000000 cycles: 2800951381 heartbeat IPC: 0.144789 cumulative IPC: 0.216747 (Simulation time: 1 hr 8 min 48 sec) 
Heartbeat CPU 0 instructions: 882000000 cycles: 2807914094 heartbeat IPC: 0.143622 cumulative IPC: 0.216492 (Simulation time: 1 hr 8 min 55 sec) 
Heartbeat CPU 0 instructions: 883000000 cycles: 2815261242 heartbeat IPC: 0.136107 cumulative IPC: 0.216197 (Simulation time: 1 hr 9 min 2 sec) 
Heartbeat CPU 0 instructions: 884000001 cycles: 2822168232 heartbeat IPC: 0.144781 cumulative IPC: 0.215951 (Simulation time: 1 hr 9 min 9 sec) 
Heartbeat CPU 0 instructions: 885000002 cycles: 2829083237 heartbeat IPC: 0.144613 cumulative IPC: 0.215707 (Simulation time: 1 hr 9 min 16 sec) 
Heartbeat CPU 0 instructions: 886000000 cycles: 2835970614 heartbeat IPC: 0.145193 cumulative IPC: 0.215467 (Simulation time: 1 hr 9 min 23 sec) 
Heartbeat CPU 0 instructions: 887000000 cycles: 2842984332 heartbeat IPC: 0.142578 cumulative IPC: 0.215215 (Simulation time: 1 hr 9 min 30 sec) 
Heartbeat CPU 0 instructions: 888000000 cycles: 2849994335 heartbeat IPC: 0.142653 cumulative IPC: 0.214965 (Simulation time: 1 hr 9 min 37 sec) 
Heartbeat CPU 0 instructions: 889000000 cycles: 2856807990 heartbeat IPC: 0.146764 cumulative IPC: 0.214738 (Simulation time: 1 hr 9 min 43 sec) 
Heartbeat CPU 0 instructions: 890000000 cycles: 2863655465 heartbeat IPC: 0.146039 cumulative IPC: 0.214509 (Simulation time: 1 hr 9 min 50 sec) 
Heartbeat CPU 0 instructions: 891000000 cycles: 2870553532 heartbeat IPC: 0.144968 cumulative IPC: 0.214276 (Simulation time: 1 hr 9 min 57 sec) 
Heartbeat CPU 0 instructions: 892000000 cycles: 2877442336 heartbeat IPC: 0.145163 cumulative IPC: 0.214045 (Simulation time: 1 hr 10 min 4 sec) 
Heartbeat CPU 0 instructions: 893000002 cycles: 2884423515 heartbeat IPC: 0.143243 cumulative IPC: 0.213806 (Simulation time: 1 hr 10 min 11 sec) 
Heartbeat CPU 0 instructions: 894000000 cycles: 2892011494 heartbeat IPC: 0.131787 cumulative IPC: 0.213507 (Simulation time: 1 hr 10 min 18 sec) 
Heartbeat CPU 0 instructions: 895000002 cycles: 2898797397 heartbeat IPC: 0.147365 cumulative IPC: 0.213292 (Simulation time: 1 hr 10 min 25 sec) 
Heartbeat CPU 0 instructions: 896000001 cycles: 2905702591 heartbeat IPC: 0.144818 cumulative IPC: 0.213066 (Simulation time: 1 hr 10 min 32 sec) 
Heartbeat CPU 0 instructions: 897000000 cycles: 2912622996 heartbeat IPC: 0.1445 cumulative IPC: 0.21284 (Simulation time: 1 hr 10 min 39 sec) 
Heartbeat CPU 0 instructions: 898000002 cycles: 2919617362 heartbeat IPC: 0.142972 cumulative IPC: 0.212608 (Simulation time: 1 hr 10 min 46 sec) 
Heartbeat CPU 0 instructions: 899000000 cycles: 2926664855 heartbeat IPC: 0.141894 cumulative IPC: 0.212373 (Simulation time: 1 hr 10 min 53 sec) 
Heartbeat CPU 0 instructions: 900000001 cycles: 2933363098 heartbeat IPC: 0.149293 cumulative IPC: 0.212173 (Simulation time: 1 hr 11 min 0 sec) 
Heartbeat CPU 0 instructions: 901000000 cycles: 2940185506 heartbeat IPC: 0.146576 cumulative IPC: 0.211963 (Simulation time: 1 hr 11 min 7 sec) 
Heartbeat CPU 0 instructions: 902000000 cycles: 2947092497 heartbeat IPC: 0.144781 cumulative IPC: 0.211746 (Simulation time: 1 hr 11 min 13 sec) 
Heartbeat CPU 0 instructions: 903000001 cycles: 2953991328 heartbeat IPC: 0.144952 cumulative IPC: 0.211531 (Simulation time: 1 hr 11 min 20 sec) 
Heartbeat CPU 0 instructions: 904000000 cycles: 2960924860 heartbeat IPC: 0.144226 cumulative IPC: 0.211313 (Simulation time: 1 hr 11 min 27 sec) 
Heartbeat CPU 0 instructions: 905000000 cycles: 2968532198 heartbeat IPC: 0.131452 cumulative IPC: 0.211032 (Simulation time: 1 hr 11 min 35 sec) 
Heartbeat CPU 0 instructions: 906000002 cycles: 2975339106 heartbeat IPC: 0.14691 cumulative IPC: 0.21083 (Simulation time: 1 hr 11 min 42 sec) 
Heartbeat CPU 0 instructions: 907000000 cycles: 2982199419 heartbeat IPC: 0.145766 cumulative IPC: 0.210624 (Simulation time: 1 hr 11 min 48 sec) 
Heartbeat CPU 0 instructions: 908000001 cycles: 2989159458 heartbeat IPC: 0.143678 cumulative IPC: 0.21041 (Simulation time: 1 hr 11 min 55 sec) 
Heartbeat CPU 0 instructions: 909000002 cycles: 2996070752 heartbeat IPC: 0.144691 cumulative IPC: 0.210202 (Simulation time: 1 hr 12 min 2 sec) 
Heartbeat CPU 0 instructions: 910000000 cycles: 3002994834 heartbeat IPC: 0.144423 cumulative IPC: 0.209994 (Simulation time: 1 hr 12 min 9 sec) 
Heartbeat CPU 0 instructions: 911000000 cycles: 3009716115 heartbeat IPC: 0.148781 cumulative IPC: 0.209807 (Simulation time: 1 hr 12 min 16 sec) 
Heartbeat CPU 0 instructions: 912000000 cycles: 3016554113 heartbeat IPC: 0.146242 cumulative IPC: 0.20961 (Simulation time: 1 hr 12 min 23 sec) 
Heartbeat CPU 0 instructions: 913000000 cycles: 3023499058 heartbeat IPC: 0.14399 cumulative IPC: 0.209403 (Simulation time: 1 hr 12 min 30 sec) 
Heartbeat CPU 0 instructions: 914000000 cycles: 3030675843 heartbeat IPC: 0.139338 cumulative IPC: 0.209177 (Simulation time: 1 hr 12 min 38 sec) 
Heartbeat CPU 0 instructions: 915000000 cycles: 3038007818 heartbeat IPC: 0.136389 cumulative IPC: 0.208937 (Simulation time: 1 hr 12 min 45 sec) 
Heartbeat CPU 0 instructions: 916000002 cycles: 3044948004 heartbeat IPC: 0.144089 cumulative IPC: 0.208735 (Simulation time: 1 hr 12 min 52 sec) 
Heartbeat CPU 0 instructions: 917000000 cycles: 3051791073 heartbeat IPC: 0.146133 cumulative IPC: 0.208544 (Simulation time: 1 hr 12 min 59 sec) 
Heartbeat CPU 0 instructions: 918000000 cycles: 3058648871 heartbeat IPC: 0.145819 cumulative IPC: 0.208353 (Simulation time: 1 hr 13 min 6 sec) 
Heartbeat CPU 0 instructions: 919000000 cycles: 3065527682 heartbeat IPC: 0.145374 cumulative IPC: 0.20816 (Simulation time: 1 hr 13 min 13 sec) 
Heartbeat CPU 0 instructions: 920000000 cycles: 3072418455 heartbeat IPC: 0.145122 cumulative IPC: 0.207968 (Simulation time: 1 hr 13 min 20 sec) 
Heartbeat CPU 0 instructions: 921000001 cycles: 3079338014 heartbeat IPC: 0.144518 cumulative IPC: 0.207774 (Simulation time: 1 hr 13 min 27 sec) 
Heartbeat CPU 0 instructions: 922000002 cycles: 3086806659 heartbeat IPC: 0.133893 cumulative IPC: 0.207532 (Simulation time: 1 hr 13 min 34 sec) 
Heartbeat CPU 0 instructions: 923000002 cycles: 3093794521 heartbeat IPC: 0.143105 cumulative IPC: 0.207334 (Simulation time: 1 hr 13 min 41 sec) 
Heartbeat CPU 0 instructions: 924000000 cycles: 3100670124 heartbeat IPC: 0.145442 cumulative IPC: 0.207148 (Simulation time: 1 hr 13 min 48 sec) 
Heartbeat CPU 0 instructions: 925000001 cycles: 3107557350 heartbeat IPC: 0.145196 cumulative IPC: 0.206963 (Simulation time: 1 hr 13 min 55 sec) 
Heartbeat CPU 0 instructions: 926000000 cycles: 3114474311 heartbeat IPC: 0.144572 cumulative IPC: 0.206775 (Simulation time: 1 hr 14 min 2 sec) 
Heartbeat CPU 0 instructions: 927000002 cycles: 3121442892 heartbeat IPC: 0.143502 cumulative IPC: 0.206584 (Simulation time: 1 hr 14 min 9 sec) 
Heartbeat CPU 0 instructions: 928000002 cycles: 3128371008 heartbeat IPC: 0.144339 cumulative IPC: 0.206398 (Simulation time: 1 hr 14 min 16 sec) 
Heartbeat CPU 0 instructions: 929000000 cycles: 3135378185 heartbeat IPC: 0.142711 cumulative IPC: 0.206206 (Simulation time: 1 hr 14 min 23 sec) 
Heartbeat CPU 0 instructions: 930000002 cycles: 3142371640 heartbeat IPC: 0.142991 cumulative IPC: 0.206016 (Simulation time: 1 hr 14 min 30 sec) 
Heartbeat CPU 0 instructions: 931000000 cycles: 3149403632 heartbeat IPC: 0.142207 cumulative IPC: 0.205824 (Simulation time: 1 hr 14 min 37 sec) 
Heartbeat CPU 0 instructions: 932000002 cycles: 3156980783 heartbeat IPC: 0.131976 cumulative IPC: 0.205585 (Simulation time: 1 hr 14 min 45 sec) 
Heartbeat CPU 0 instructions: 933000000 cycles: 3164113956 heartbeat IPC: 0.14019 cumulative IPC: 0.205387 (Simulation time: 1 hr 14 min 52 sec) 
Heartbeat CPU 0 instructions: 934000000 cycles: 3171192175 heartbeat IPC: 0.141278 cumulative IPC: 0.205195 (Simulation time: 1 hr 14 min 59 sec) 
Heartbeat CPU 0 instructions: 935000000 cycles: 3178221935 heartbeat IPC: 0.142252 cumulative IPC: 0.205008 (Simulation time: 1 hr 15 min 6 sec) 
Heartbeat CPU 0 instructions: 936000002 cycles: 3185095379 heartbeat IPC: 0.145488 cumulative IPC: 0.204835 (Simulation time: 1 hr 15 min 13 sec) 
Heartbeat CPU 0 instructions: 937000001 cycles: 3192001362 heartbeat IPC: 0.144802 cumulative IPC: 0.204661 (Simulation time: 1 hr 15 min 21 sec) 
Heartbeat CPU 0 instructions: 938000002 cycles: 3198921485 heartbeat IPC: 0.144506 cumulative IPC: 0.204487 (Simulation time: 1 hr 15 min 27 sec) 
Heartbeat CPU 0 instructions: 939000000 cycles: 3205834642 heartbeat IPC: 0.144651 cumulative IPC: 0.204314 (Simulation time: 1 hr 15 min 34 sec) 
Heartbeat CPU 0 instructions: 940000000 cycles: 3212762396 heartbeat IPC: 0.144347 cumulative IPC: 0.204141 (Simulation time: 1 hr 15 min 41 sec) 
Heartbeat CPU 0 instructions: 941000001 cycles: 3220150688 heartbeat IPC: 0.135349 cumulative IPC: 0.20393 (Simulation time: 1 hr 15 min 49 sec) 
Heartbeat CPU 0 instructions: 942000000 cycles: 3227059165 heartbeat IPC: 0.14475 cumulative IPC: 0.20376 (Simulation time: 1 hr 15 min 55 sec) 
Heartbeat CPU 0 instructions: 943000000 cycles: 3233983393 heartbeat IPC: 0.14442 cumulative IPC: 0.203591 (Simulation time: 1 hr 16 min 2 sec) 
Heartbeat CPU 0 instructions: 944000000 cycles: 3240916409 heartbeat IPC: 0.144237 cumulative IPC: 0.203421 (Simulation time: 1 hr 16 min 9 sec) 
Heartbeat CPU 0 instructions: 945000000 cycles: 3247900876 heartbeat IPC: 0.143175 cumulative IPC: 0.203248 (Simulation time: 1 hr 16 min 17 sec) 
Heartbeat CPU 0 instructions: 946000000 cycles: 3254832216 heartbeat IPC: 0.144272 cumulative IPC: 0.203081 (Simulation time: 1 hr 16 min 24 sec) 
Heartbeat CPU 0 instructions: 947000001 cycles: 3261773655 heartbeat IPC: 0.144062 cumulative IPC: 0.202914 (Simulation time: 1 hr 16 min 31 sec) 
Heartbeat CPU 0 instructions: 948000001 cycles: 3268760163 heartbeat IPC: 0.143133 cumulative IPC: 0.202744 (Simulation time: 1 hr 16 min 39 sec) 
Heartbeat CPU 0 instructions: 949000000 cycles: 3275693593 heartbeat IPC: 0.144229 cumulative IPC: 0.202579 (Simulation time: 1 hr 16 min 46 sec) 
Heartbeat CPU 0 instructions: 950000001 cycles: 3282711685 heartbeat IPC: 0.142489 cumulative IPC: 0.202408 (Simulation time: 1 hr 16 min 53 sec) 
Finished CPU 0 instructions: 500000001 cycles: 2470255419 cumulative IPC: 0.202408 (Simulation time: 1 hr 16 min 53 sec) 

ChampSim completed all CPUs

Region of Interest Statistics

CPU 0 cumulative IPC: 0.202408 instructions: 500000001 cycles: 2470255419
L1D TOTAL     ACCESS:   60286441  HIT:   30252236  MISS:   30034205
L1D LOAD      ACCESS:   52256058  HIT:   22282331  MISS:   29973727
L1D RFO       ACCESS:    8030383  HIT:    7969905  MISS:      60478
L1D PREFETCH  ACCESS:          0  HIT:          0  MISS:          0
L1D WRITEBACK ACCESS:          0  HIT:          0  MISS:          0
L1D PREFETCH  REQUESTED:          0  ISSUED:          0  USEFUL:          0  USELESS:          0
L1D AVERAGE MISS LATENCY: 267.705 cycles
L1I TOTAL     ACCESS:   96915863  HIT:   96911232  MISS:       4631
L1I LOAD      ACCESS:   96915863  HIT:   96911232  MISS:       4631
L1I RFO       ACCESS:          0  HIT:          0  MISS:          0
L1I PREFETCH  ACCESS:          0  HIT:          0  MISS:          0
L1I WRITEBACK ACCESS:          0  HIT:          0  MISS:          0
L1I PREFETCH  REQUESTED:          0  ISSUED:          0  USEFUL:          0  USELESS:          0
L1I AVERAGE MISS LATENCY: 189.421 cycles
L2C TOTAL     ACCESS:   30118936  HIT:     354714  MISS:   29764222
L2C LOAD      ACCESS:   29978357  HIT:     274529  MISS:   29703828
L2C RFO       ACCESS:      60478  HIT:        638  MISS:      59840
L2C PREFETCH  ACCESS:          0  HIT:          0  MISS:          0
L2C WRITEBACK ACCESS:      80101  HIT:      79547  MISS:        554
L2C PREFETCH  REQUESTED:          0  ISSUED:          0  USEFUL:          0  USELESS:          0
L2C AVERAGE MISS LATENCY: 167.968 cycles
LLC TOTAL     ACCESS:   29861407  HIT:   16856444  MISS:   13004963
LLC LOAD      ACCESS:   29703828  HIT:   16754808  MISS:   12949020
LLC RFO       ACCESS:      59840  HIT:      21159  MISS:      38681
LLC PREFETCH  ACCESS:      17957  HIT:        786  MISS:      17171
LLC WRITEBACK ACCESS:      79782  HIT:      79691  MISS:         91
LLC PREFETCH  REQUESTED:      18400  ISSUED:      18381  USEFUL:       1816  USELESS:      14699
LLC AVERAGE MISS LATENCY: 201.45 cycles
Major fault: 0 Minor fault: 22841

DRAM Statistics
 CHANNEL 0
 RQ ROW_BUFFER_HIT:    2774872  ROW_BUFFER_MISS:    3729291
 DBUS_CONGESTED:    3289663
 WQ ROW_BUFFER_HIT:       7986  ROW_BUFFER_MISS:      19580  FULL:          0

 CHANNEL 1
 RQ ROW_BUFFER_HIT:    2809959  ROW_BUFFER_MISS:    3690747
 DBUS_CONGESTED:    3289663
 WQ ROW_BUFFER_HIT:       7863  ROW_BUFFER_MISS:      19172  FULL:          0

 AVG_CONGESTED_CYCLE: 18

CPU 0 Branch Prediction Accuracy: 99.8639% MPKI: 0.499602 Average ROB Occupancy at Mispredict: 122.745

Branch types
NOT_BRANCH: 316494051 63.2988%
BRANCH_DIRECT_JUMP: 3251330 0.650266%
BRANCH_INDIRECT: 70303 0.0140606%
BRANCH_CONDITIONAL: 178194583 35.6389%
BRANCH_DIRECT_CALL: 900078 0.180016%
BRANCH_INDIRECT_CALL: 94923 0.0189846%
BRANCH_RETURN: 995004 0.199001%
BRANCH_OTHER: 0 0%


gzip: stdout: Broken pipe
