
*** ChampSim Multicore Out-of-Order Simulator ***

Warmup Instructions: 1000000
Prefetch Warmup Instructions: 450000000
Simulation Instructions: 500000000
Stat Printing Period: 1000000
Number of CPUs: 1
LLC sets: 2048
LLC ways: 16
Off-chip DRAM Size: 32768 MB Channels: 2 Width: 64-bit Data Rate: 1024 MT/s

CPU 0 runs /scratch/cluster/cmolder/ML-DPC/ChampSimTraces/spec06/471.omnetpp-s1.trace.gz
Read seed: 1083
Heartbeat CPU 0 instructions: 1000000 cycles: 457878 heartbeat IPC: 2.18399 cumulative IPC: 2.18399 (Simulation time: 0 hr 0 min 7 sec) 

Warmup complete CPU 0 instructions: 1000004 cycles: 457879 (Simulation time: 0 hr 0 min 7 sec) 

Heartbeat CPU 0 instructions: 2000000 cycles: 2956327 heartbeat IPC: 0.400248 cumulative IPC: 0.400247 (Simulation time: 0 hr 0 min 14 sec) 
Heartbeat CPU 0 instructions: 3000001 cycles: 6041457 heartbeat IPC: 0.324136 cumulative IPC: 0.358193 (Simulation time: 0 hr 0 min 22 sec) 
Heartbeat CPU 0 instructions: 4000003 cycles: 8933687 heartbeat IPC: 0.345755 cumulative IPC: 0.353948 (Simulation time: 0 hr 0 min 30 sec) 
Heartbeat CPU 0 instructions: 5000001 cycles: 12053470 heartbeat IPC: 0.320534 cumulative IPC: 0.344958 (Simulation time: 0 hr 0 min 39 sec) 
Heartbeat CPU 0 instructions: 6000002 cycles: 16059523 heartbeat IPC: 0.249623 cumulative IPC: 0.320479 (Simulation time: 0 hr 0 min 48 sec) 
Heartbeat CPU 0 instructions: 7000000 cycles: 20106571 heartbeat IPC: 0.247093 cumulative IPC: 0.305364 (Simulation time: 0 hr 0 min 57 sec) 
Heartbeat CPU 0 instructions: 8000001 cycles: 22885593 heartbeat IPC: 0.359839 cumulative IPC: 0.312114 (Simulation time: 0 hr 1 min 5 sec) 
Heartbeat CPU 0 instructions: 9000002 cycles: 26274119 heartbeat IPC: 0.295114 cumulative IPC: 0.309882 (Simulation time: 0 hr 1 min 13 sec) 
Heartbeat CPU 0 instructions: 10000003 cycles: 29664019 heartbeat IPC: 0.294994 cumulative IPC: 0.308154 (Simulation time: 0 hr 1 min 21 sec) 
Heartbeat CPU 0 instructions: 11000000 cycles: 32422355 heartbeat IPC: 0.362536 cumulative IPC: 0.312847 (Simulation time: 0 hr 1 min 29 sec) 
Heartbeat CPU 0 instructions: 12000003 cycles: 35253282 heartbeat IPC: 0.353242 cumulative IPC: 0.316134 (Simulation time: 0 hr 1 min 37 sec) 
Heartbeat CPU 0 instructions: 13000003 cycles: 38233533 heartbeat IPC: 0.335542 cumulative IPC: 0.317665 (Simulation time: 0 hr 1 min 45 sec) 
Heartbeat CPU 0 instructions: 14000002 cycles: 41450159 heartbeat IPC: 0.310884 cumulative IPC: 0.317133 (Simulation time: 0 hr 1 min 52 sec) 
Heartbeat CPU 0 instructions: 15000000 cycles: 45478566 heartbeat IPC: 0.248237 cumulative IPC: 0.310968 (Simulation time: 0 hr 2 min 2 sec) 
Heartbeat CPU 0 instructions: 16000000 cycles: 49366354 heartbeat IPC: 0.257216 cumulative IPC: 0.306695 (Simulation time: 0 hr 2 min 11 sec) 
Heartbeat CPU 0 instructions: 17000001 cycles: 52500965 heartbeat IPC: 0.319019 cumulative IPC: 0.307438 (Simulation time: 0 hr 2 min 19 sec) 
Heartbeat CPU 0 instructions: 18000001 cycles: 55934098 heartbeat IPC: 0.291279 cumulative IPC: 0.306438 (Simulation time: 0 hr 2 min 28 sec) 
Heartbeat CPU 0 instructions: 19000001 cycles: 59857817 heartbeat IPC: 0.25486 cumulative IPC: 0.303031 (Simulation time: 0 hr 2 min 37 sec) 
Heartbeat CPU 0 instructions: 20000000 cycles: 63575486 heartbeat IPC: 0.268985 cumulative IPC: 0.301025 (Simulation time: 0 hr 2 min 46 sec) 
Heartbeat CPU 0 instructions: 21000001 cycles: 66364873 heartbeat IPC: 0.358502 cumulative IPC: 0.303458 (Simulation time: 0 hr 2 min 54 sec) 
Heartbeat CPU 0 instructions: 22000000 cycles: 69363058 heartbeat IPC: 0.333535 cumulative IPC: 0.304767 (Simulation time: 0 hr 3 min 2 sec) 
Heartbeat CPU 0 instructions: 23000002 cycles: 72385393 heartbeat IPC: 0.330871 cumulative IPC: 0.305863 (Simulation time: 0 hr 3 min 10 sec) 
Heartbeat CPU 0 instructions: 24000001 cycles: 75414863 heartbeat IPC: 0.33009 cumulative IPC: 0.306843 (Simulation time: 0 hr 3 min 18 sec) 
Heartbeat CPU 0 instructions: 25000000 cycles: 78316242 heartbeat IPC: 0.344663 cumulative IPC: 0.308252 (Simulation time: 0 hr 3 min 26 sec) 
Heartbeat CPU 0 instructions: 26000002 cycles: 81560999 heartbeat IPC: 0.30819 cumulative IPC: 0.30825 (Simulation time: 0 hr 3 min 34 sec) 
Heartbeat CPU 0 instructions: 27000000 cycles: 85251099 heartbeat IPC: 0.270995 cumulative IPC: 0.306628 (Simulation time: 0 hr 3 min 43 sec) 
Heartbeat CPU 0 instructions: 28000001 cycles: 89444726 heartbeat IPC: 0.238457 cumulative IPC: 0.303416 (Simulation time: 0 hr 3 min 53 sec) 
Heartbeat CPU 0 instructions: 29000002 cycles: 93009838 heartbeat IPC: 0.280496 cumulative IPC: 0.302533 (Simulation time: 0 hr 4 min 1 sec) 
Heartbeat CPU 0 instructions: 30000002 cycles: 95933647 heartbeat IPC: 0.34202 cumulative IPC: 0.303742 (Simulation time: 0 hr 4 min 9 sec) 
Heartbeat CPU 0 instructions: 31000002 cycles: 99289644 heartbeat IPC: 0.297974 cumulative IPC: 0.303546 (Simulation time: 0 hr 4 min 17 sec) 
Heartbeat CPU 0 instructions: 32000003 cycles: 102133353 heartbeat IPC: 0.351654 cumulative IPC: 0.304892 (Simulation time: 0 hr 4 min 25 sec) 
Heartbeat CPU 0 instructions: 33000000 cycles: 105397080 heartbeat IPC: 0.306397 cumulative IPC: 0.304938 (Simulation time: 0 hr 4 min 34 sec) 
Heartbeat CPU 0 instructions: 34000002 cycles: 109125964 heartbeat IPC: 0.268177 cumulative IPC: 0.303677 (Simulation time: 0 hr 4 min 42 sec) 
Heartbeat CPU 0 instructions: 35000003 cycles: 111942808 heartbeat IPC: 0.355008 cumulative IPC: 0.304974 (Simulation time: 0 hr 4 min 51 sec) 
Heartbeat CPU 0 instructions: 36000000 cycles: 116093116 heartbeat IPC: 0.240945 cumulative IPC: 0.302676 (Simulation time: 0 hr 5 min 0 sec) 
Heartbeat CPU 0 instructions: 37000003 cycles: 120521408 heartbeat IPC: 0.225821 cumulative IPC: 0.299841 (Simulation time: 0 hr 5 min 10 sec) 
Heartbeat CPU 0 instructions: 38000001 cycles: 123726689 heartbeat IPC: 0.311985 cumulative IPC: 0.300157 (Simulation time: 0 hr 5 min 18 sec) 
Heartbeat CPU 0 instructions: 39000000 cycles: 127639661 heartbeat IPC: 0.25556 cumulative IPC: 0.298785 (Simulation time: 0 hr 5 min 27 sec) 
Heartbeat CPU 0 instructions: 40000002 cycles: 130381251 heartbeat IPC: 0.364753 cumulative IPC: 0.300177 (Simulation time: 0 hr 5 min 35 sec) 
Heartbeat CPU 0 instructions: 41000001 cycles: 133309415 heartbeat IPC: 0.341511 cumulative IPC: 0.301088 (Simulation time: 0 hr 5 min 43 sec) 
Heartbeat CPU 0 instructions: 42000002 cycles: 137296801 heartbeat IPC: 0.250791 cumulative IPC: 0.299622 (Simulation time: 0 hr 5 min 52 sec) 
Heartbeat CPU 0 instructions: 43000002 cycles: 141266912 heartbeat IPC: 0.251882 cumulative IPC: 0.298276 (Simulation time: 0 hr 6 min 1 sec) 
Heartbeat CPU 0 instructions: 44000000 cycles: 144647260 heartbeat IPC: 0.295827 cumulative IPC: 0.298219 (Simulation time: 0 hr 6 min 10 sec) 
Heartbeat CPU 0 instructions: 45000002 cycles: 148076058 heartbeat IPC: 0.291648 cumulative IPC: 0.298066 (Simulation time: 0 hr 6 min 18 sec) 
Heartbeat CPU 0 instructions: 46000003 cycles: 151395341 heartbeat IPC: 0.30127 cumulative IPC: 0.298137 (Simulation time: 0 hr 6 min 26 sec) 
Heartbeat CPU 0 instructions: 47000001 cycles: 153564100 heartbeat IPC: 0.461092 cumulative IPC: 0.300445 (Simulation time: 0 hr 6 min 33 sec) 
Heartbeat CPU 0 instructions: 48000000 cycles: 156796246 heartbeat IPC: 0.309392 cumulative IPC: 0.30063 (Simulation time: 0 hr 6 min 41 sec) 
Heartbeat CPU 0 instructions: 49000001 cycles: 158900051 heartbeat IPC: 0.47533 cumulative IPC: 0.30295 (Simulation time: 0 hr 6 min 48 sec) 
Heartbeat CPU 0 instructions: 50000001 cycles: 162160012 heartbeat IPC: 0.306752 cumulative IPC: 0.303026 (Simulation time: 0 hr 6 min 56 sec) 
Heartbeat CPU 0 instructions: 51000002 cycles: 165288963 heartbeat IPC: 0.319596 cumulative IPC: 0.303341 (Simulation time: 0 hr 7 min 4 sec) 
Heartbeat CPU 0 instructions: 52000000 cycles: 169176345 heartbeat IPC: 0.257242 cumulative IPC: 0.302279 (Simulation time: 0 hr 7 min 13 sec) 
Heartbeat CPU 0 instructions: 53000000 cycles: 173853384 heartbeat IPC: 0.21381 cumulative IPC: 0.299892 (Simulation time: 0 hr 7 min 23 sec) 
Heartbeat CPU 0 instructions: 54000003 cycles: 177617907 heartbeat IPC: 0.265639 cumulative IPC: 0.299165 (Simulation time: 0 hr 7 min 32 sec) 
Heartbeat CPU 0 instructions: 55000000 cycles: 181347910 heartbeat IPC: 0.268095 cumulative IPC: 0.298524 (Simulation time: 0 hr 7 min 41 sec) 
Heartbeat CPU 0 instructions: 56000001 cycles: 185524333 heartbeat IPC: 0.23944 cumulative IPC: 0.297191 (Simulation time: 0 hr 7 min 50 sec) 
Heartbeat CPU 0 instructions: 57000002 cycles: 189089100 heartbeat IPC: 0.280524 cumulative IPC: 0.296876 (Simulation time: 0 hr 7 min 58 sec) 
Heartbeat CPU 0 instructions: 58000000 cycles: 191752830 heartbeat IPC: 0.375413 cumulative IPC: 0.297969 (Simulation time: 0 hr 8 min 6 sec) 
Heartbeat CPU 0 instructions: 59000000 cycles: 195537264 heartbeat IPC: 0.26424 cumulative IPC: 0.297315 (Simulation time: 0 hr 8 min 15 sec) 
Heartbeat CPU 0 instructions: 60000002 cycles: 199902763 heartbeat IPC: 0.229069 cumulative IPC: 0.295821 (Simulation time: 0 hr 8 min 24 sec) 
Heartbeat CPU 0 instructions: 61000001 cycles: 204322188 heartbeat IPC: 0.226274 cumulative IPC: 0.294313 (Simulation time: 0 hr 8 min 34 sec) 
Heartbeat CPU 0 instructions: 62000000 cycles: 208664125 heartbeat IPC: 0.230312 cumulative IPC: 0.292979 (Simulation time: 0 hr 8 min 44 sec) 
Heartbeat CPU 0 instructions: 63000002 cycles: 212180507 heartbeat IPC: 0.284384 cumulative IPC: 0.292836 (Simulation time: 0 hr 8 min 53 sec) 
Heartbeat CPU 0 instructions: 64000000 cycles: 215633028 heartbeat IPC: 0.289643 cumulative IPC: 0.292785 (Simulation time: 0 hr 9 min 1 sec) 
Heartbeat CPU 0 instructions: 65000001 cycles: 218302754 heartbeat IPC: 0.374571 cumulative IPC: 0.293787 (Simulation time: 0 hr 9 min 9 sec) 
Heartbeat CPU 0 instructions: 66000000 cycles: 221121333 heartbeat IPC: 0.354788 cumulative IPC: 0.294566 (Simulation time: 0 hr 9 min 16 sec) 
Heartbeat CPU 0 instructions: 67000003 cycles: 224173797 heartbeat IPC: 0.327605 cumulative IPC: 0.295017 (Simulation time: 0 hr 9 min 24 sec) 
Heartbeat CPU 0 instructions: 68000003 cycles: 227286642 heartbeat IPC: 0.32125 cumulative IPC: 0.295377 (Simulation time: 0 hr 9 min 32 sec) 
Heartbeat CPU 0 instructions: 69000001 cycles: 230385204 heartbeat IPC: 0.32273 cumulative IPC: 0.295746 (Simulation time: 0 hr 9 min 40 sec) 
Heartbeat CPU 0 instructions: 70000000 cycles: 232899642 heartbeat IPC: 0.397703 cumulative IPC: 0.296849 (Simulation time: 0 hr 9 min 47 sec) 
Heartbeat CPU 0 instructions: 71000000 cycles: 236545928 heartbeat IPC: 0.274252 cumulative IPC: 0.2965 (Simulation time: 0 hr 9 min 56 sec) 
Heartbeat CPU 0 instructions: 72000001 cycles: 241002039 heartbeat IPC: 0.224411 cumulative IPC: 0.295164 (Simulation time: 0 hr 10 min 5 sec) 
Heartbeat CPU 0 instructions: 73000003 cycles: 244330983 heartbeat IPC: 0.300396 cumulative IPC: 0.295236 (Simulation time: 0 hr 10 min 13 sec) 
Heartbeat CPU 0 instructions: 74000003 cycles: 247610489 heartbeat IPC: 0.304924 cumulative IPC: 0.295364 (Simulation time: 0 hr 10 min 21 sec) 
Heartbeat CPU 0 instructions: 75000003 cycles: 251733148 heartbeat IPC: 0.242562 cumulative IPC: 0.294498 (Simulation time: 0 hr 10 min 31 sec) 
Heartbeat CPU 0 instructions: 76000000 cycles: 255539435 heartbeat IPC: 0.262722 cumulative IPC: 0.294024 (Simulation time: 0 hr 10 min 40 sec) 
Heartbeat CPU 0 instructions: 77000000 cycles: 260679592 heartbeat IPC: 0.194547 cumulative IPC: 0.292059 (Simulation time: 0 hr 10 min 51 sec) 
Heartbeat CPU 0 instructions: 78000001 cycles: 264016092 heartbeat IPC: 0.299716 cumulative IPC: 0.292156 (Simulation time: 0 hr 10 min 59 sec) 
Heartbeat CPU 0 instructions: 79000003 cycles: 267650013 heartbeat IPC: 0.275185 cumulative IPC: 0.291925 (Simulation time: 0 hr 11 min 8 sec) 
Heartbeat CPU 0 instructions: 80000001 cycles: 270872055 heartbeat IPC: 0.310362 cumulative IPC: 0.292144 (Simulation time: 0 hr 11 min 16 sec) 
Heartbeat CPU 0 instructions: 81000000 cycles: 274810531 heartbeat IPC: 0.253905 cumulative IPC: 0.291595 (Simulation time: 0 hr 11 min 25 sec) 
Heartbeat CPU 0 instructions: 82000001 cycles: 279210493 heartbeat IPC: 0.227275 cumulative IPC: 0.29058 (Simulation time: 0 hr 11 min 34 sec) 
Heartbeat CPU 0 instructions: 83000002 cycles: 282287896 heartbeat IPC: 0.32495 cumulative IPC: 0.290956 (Simulation time: 0 hr 11 min 42 sec) 
Heartbeat CPU 0 instructions: 84000002 cycles: 285806232 heartbeat IPC: 0.284225 cumulative IPC: 0.290873 (Simulation time: 0 hr 11 min 51 sec) 
Heartbeat CPU 0 instructions: 85000001 cycles: 288487492 heartbeat IPC: 0.372959 cumulative IPC: 0.291637 (Simulation time: 0 hr 11 min 59 sec) 
Heartbeat CPU 0 instructions: 86000002 cycles: 291562949 heartbeat IPC: 0.325155 cumulative IPC: 0.291991 (Simulation time: 0 hr 12 min 7 sec) 
Heartbeat CPU 0 instructions: 87000000 cycles: 294882153 heartbeat IPC: 0.301276 cumulative IPC: 0.292095 (Simulation time: 0 hr 12 min 15 sec) 
Heartbeat CPU 0 instructions: 88000000 cycles: 297884471 heartbeat IPC: 0.333076 cumulative IPC: 0.292509 (Simulation time: 0 hr 12 min 23 sec) 
Heartbeat CPU 0 instructions: 89000000 cycles: 300433981 heartbeat IPC: 0.392232 cumulative IPC: 0.293357 (Simulation time: 0 hr 12 min 30 sec) 
Heartbeat CPU 0 instructions: 90000000 cycles: 303667935 heartbeat IPC: 0.309219 cumulative IPC: 0.293526 (Simulation time: 0 hr 12 min 38 sec) 
Heartbeat CPU 0 instructions: 91000002 cycles: 306483524 heartbeat IPC: 0.355166 cumulative IPC: 0.294093 (Simulation time: 0 hr 12 min 46 sec) 
Heartbeat CPU 0 instructions: 92000001 cycles: 310152653 heartbeat IPC: 0.272544 cumulative IPC: 0.293838 (Simulation time: 0 hr 12 min 54 sec) 
Heartbeat CPU 0 instructions: 93000003 cycles: 314639865 heartbeat IPC: 0.222856 cumulative IPC: 0.292824 (Simulation time: 0 hr 13 min 4 sec) 
Heartbeat CPU 0 instructions: 94000003 cycles: 318329392 heartbeat IPC: 0.271037 cumulative IPC: 0.292571 (Simulation time: 0 hr 13 min 13 sec) 
Heartbeat CPU 0 instructions: 95000003 cycles: 322264211 heartbeat IPC: 0.254141 cumulative IPC: 0.292101 (Simulation time: 0 hr 13 min 22 sec) 
Heartbeat CPU 0 instructions: 96000001 cycles: 326776004 heartbeat IPC: 0.221641 cumulative IPC: 0.291127 (Simulation time: 0 hr 13 min 32 sec) 
Heartbeat CPU 0 instructions: 97000000 cycles: 329637004 heartbeat IPC: 0.349528 cumulative IPC: 0.291635 (Simulation time: 0 hr 13 min 40 sec) 
Heartbeat CPU 0 instructions: 98000001 cycles: 333758710 heartbeat IPC: 0.242618 cumulative IPC: 0.291028 (Simulation time: 0 hr 13 min 49 sec) 
Heartbeat CPU 0 instructions: 99000000 cycles: 338133967 heartbeat IPC: 0.228558 cumulative IPC: 0.290219 (Simulation time: 0 hr 13 min 58 sec) 
Heartbeat CPU 0 instructions: 100000003 cycles: 341719873 heartbeat IPC: 0.27887 cumulative IPC: 0.2901 (Simulation time: 0 hr 14 min 7 sec) 
Heartbeat CPU 0 instructions: 101000000 cycles: 345158248 heartbeat IPC: 0.290834 cumulative IPC: 0.290107 (Simulation time: 0 hr 14 min 15 sec) 
Heartbeat CPU 0 instructions: 102000000 cycles: 348186825 heartbeat IPC: 0.330188 cumulative IPC: 0.290456 (Simulation time: 0 hr 14 min 23 sec) 
Heartbeat CPU 0 instructions: 103000001 cycles: 351316989 heartbeat IPC: 0.319472 cumulative IPC: 0.290715 (Simulation time: 0 hr 14 min 31 sec) 
Heartbeat CPU 0 instructions: 104000001 cycles: 354473429 heartbeat IPC: 0.316813 cumulative IPC: 0.290948 (Simulation time: 0 hr 14 min 39 sec) 
Heartbeat CPU 0 instructions: 105000002 cycles: 357674865 heartbeat IPC: 0.31236 cumulative IPC: 0.29114 (Simulation time: 0 hr 14 min 47 sec) 
Heartbeat CPU 0 instructions: 106000001 cycles: 360611318 heartbeat IPC: 0.340547 cumulative IPC: 0.291542 (Simulation time: 0 hr 14 min 55 sec) 
Heartbeat CPU 0 instructions: 107000002 cycles: 364645907 heartbeat IPC: 0.247857 cumulative IPC: 0.291058 (Simulation time: 0 hr 15 min 4 sec) 
Heartbeat CPU 0 instructions: 108000002 cycles: 368624204 heartbeat IPC: 0.251364 cumulative IPC: 0.29063 (Simulation time: 0 hr 15 min 13 sec) 
Heartbeat CPU 0 instructions: 109000001 cycles: 372999081 heartbeat IPC: 0.228578 cumulative IPC: 0.289901 (Simulation time: 0 hr 15 min 23 sec) 
Heartbeat CPU 0 instructions: 110000000 cycles: 376025405 heartbeat IPC: 0.330434 cumulative IPC: 0.290227 (Simulation time: 0 hr 15 min 31 sec) 
Heartbeat CPU 0 instructions: 111000003 cycles: 380299231 heartbeat IPC: 0.233983 cumulative IPC: 0.289595 (Simulation time: 0 hr 15 min 41 sec) 
Heartbeat CPU 0 instructions: 112000002 cycles: 383715847 heartbeat IPC: 0.292687 cumulative IPC: 0.289622 (Simulation time: 0 hr 15 min 49 sec) 
Heartbeat CPU 0 instructions: 113000003 cycles: 386873865 heartbeat IPC: 0.316655 cumulative IPC: 0.289843 (Simulation time: 0 hr 15 min 57 sec) 
Heartbeat CPU 0 instructions: 114000000 cycles: 389252111 heartbeat IPC: 0.420477 cumulative IPC: 0.290642 (Simulation time: 0 hr 16 min 4 sec) 
Heartbeat CPU 0 instructions: 115000001 cycles: 392684163 heartbeat IPC: 0.291371 cumulative IPC: 0.290649 (Simulation time: 0 hr 16 min 13 sec) 
Heartbeat CPU 0 instructions: 116000001 cycles: 396769735 heartbeat IPC: 0.244764 cumulative IPC: 0.290176 (Simulation time: 0 hr 16 min 22 sec) 
Heartbeat CPU 0 instructions: 117000001 cycles: 399597477 heartbeat IPC: 0.353639 cumulative IPC: 0.290625 (Simulation time: 0 hr 16 min 29 sec) 
Heartbeat CPU 0 instructions: 118000002 cycles: 402482469 heartbeat IPC: 0.346622 cumulative IPC: 0.291027 (Simulation time: 0 hr 16 min 37 sec) 
Heartbeat CPU 0 instructions: 119000000 cycles: 405764683 heartbeat IPC: 0.304672 cumulative IPC: 0.291137 (Simulation time: 0 hr 16 min 45 sec) 
Heartbeat CPU 0 instructions: 120000000 cycles: 408740062 heartbeat IPC: 0.336092 cumulative IPC: 0.291465 (Simulation time: 0 hr 16 min 53 sec) 
Heartbeat CPU 0 instructions: 121000000 cycles: 411435233 heartbeat IPC: 0.371034 cumulative IPC: 0.291987 (Simulation time: 0 hr 17 min 1 sec) 
Heartbeat CPU 0 instructions: 122000002 cycles: 414411489 heartbeat IPC: 0.335993 cumulative IPC: 0.292303 (Simulation time: 0 hr 17 min 9 sec) 
Heartbeat CPU 0 instructions: 123000003 cycles: 417392835 heartbeat IPC: 0.335419 cumulative IPC: 0.292612 (Simulation time: 0 hr 17 min 17 sec) 
Heartbeat CPU 0 instructions: 124000000 cycles: 420813043 heartbeat IPC: 0.292379 cumulative IPC: 0.29261 (Simulation time: 0 hr 17 min 26 sec) 
Heartbeat CPU 0 instructions: 125000001 cycles: 423723822 heartbeat IPC: 0.343551 cumulative IPC: 0.29296 (Simulation time: 0 hr 17 min 33 sec) 
Heartbeat CPU 0 instructions: 126000000 cycles: 426661307 heartbeat IPC: 0.340427 cumulative IPC: 0.293287 (Simulation time: 0 hr 17 min 41 sec) 
Heartbeat CPU 0 instructions: 127000001 cycles: 429512652 heartbeat IPC: 0.350712 cumulative IPC: 0.293669 (Simulation time: 0 hr 17 min 49 sec) 
Heartbeat CPU 0 instructions: 128000001 cycles: 432590382 heartbeat IPC: 0.324915 cumulative IPC: 0.293891 (Simulation time: 0 hr 17 min 57 sec) 
Heartbeat CPU 0 instructions: 129000002 cycles: 435261409 heartbeat IPC: 0.374388 cumulative IPC: 0.294386 (Simulation time: 0 hr 18 min 4 sec) 
Heartbeat CPU 0 instructions: 130000001 cycles: 438152041 heartbeat IPC: 0.345945 cumulative IPC: 0.294726 (Simulation time: 0 hr 18 min 12 sec) 
Heartbeat CPU 0 instructions: 131000000 cycles: 441121211 heartbeat IPC: 0.336794 cumulative IPC: 0.29501 (Simulation time: 0 hr 18 min 20 sec) 
Heartbeat CPU 0 instructions: 132000000 cycles: 444399945 heartbeat IPC: 0.304996 cumulative IPC: 0.295084 (Simulation time: 0 hr 18 min 29 sec) 
Heartbeat CPU 0 instructions: 133000000 cycles: 447296394 heartbeat IPC: 0.34525 cumulative IPC: 0.295409 (Simulation time: 0 hr 18 min 37 sec) 
Heartbeat CPU 0 instructions: 134000003 cycles: 450710531 heartbeat IPC: 0.292901 cumulative IPC: 0.29539 (Simulation time: 0 hr 18 min 45 sec) 
Heartbeat CPU 0 instructions: 135000002 cycles: 453787883 heartbeat IPC: 0.324954 cumulative IPC: 0.29559 (Simulation time: 0 hr 18 min 53 sec) 
Heartbeat CPU 0 instructions: 136000003 cycles: 456819013 heartbeat IPC: 0.32991 cumulative IPC: 0.295818 (Simulation time: 0 hr 19 min 1 sec) 
Heartbeat CPU 0 instructions: 137000003 cycles: 459957850 heartbeat IPC: 0.318589 cumulative IPC: 0.295974 (Simulation time: 0 hr 19 min 9 sec) 
Heartbeat CPU 0 instructions: 138000001 cycles: 463571693 heartbeat IPC: 0.276713 cumulative IPC: 0.295824 (Simulation time: 0 hr 19 min 18 sec) 
Heartbeat CPU 0 instructions: 139000001 cycles: 467112248 heartbeat IPC: 0.282442 cumulative IPC: 0.295722 (Simulation time: 0 hr 19 min 26 sec) 
Heartbeat CPU 0 instructions: 140000000 cycles: 470195360 heartbeat IPC: 0.324347 cumulative IPC: 0.29591 (Simulation time: 0 hr 19 min 35 sec) 
Heartbeat CPU 0 instructions: 141000002 cycles: 474483723 heartbeat IPC: 0.23319 cumulative IPC: 0.295343 (Simulation time: 0 hr 19 min 44 sec) 
Heartbeat CPU 0 instructions: 142000000 cycles: 478375975 heartbeat IPC: 0.25692 cumulative IPC: 0.29503 (Simulation time: 0 hr 19 min 53 sec) 
Heartbeat CPU 0 instructions: 143000000 cycles: 482157032 heartbeat IPC: 0.264476 cumulative IPC: 0.29479 (Simulation time: 0 hr 20 min 2 sec) 
Heartbeat CPU 0 instructions: 144000001 cycles: 485676041 heartbeat IPC: 0.284171 cumulative IPC: 0.294713 (Simulation time: 0 hr 20 min 10 sec) 
Heartbeat CPU 0 instructions: 145000001 cycles: 488289278 heartbeat IPC: 0.382667 cumulative IPC: 0.295184 (Simulation time: 0 hr 20 min 18 sec) 
Heartbeat CPU 0 instructions: 146000000 cycles: 492165455 heartbeat IPC: 0.257986 cumulative IPC: 0.294891 (Simulation time: 0 hr 20 min 28 sec) 
Heartbeat CPU 0 instructions: 147000003 cycles: 496431828 heartbeat IPC: 0.234392 cumulative IPC: 0.29437 (Simulation time: 0 hr 20 min 37 sec) 
Heartbeat CPU 0 instructions: 148000001 cycles: 500094843 heartbeat IPC: 0.272999 cumulative IPC: 0.294214 (Simulation time: 0 hr 20 min 46 sec) 
Heartbeat CPU 0 instructions: 149000000 cycles: 503255270 heartbeat IPC: 0.316413 cumulative IPC: 0.294353 (Simulation time: 0 hr 20 min 54 sec) 
Heartbeat CPU 0 instructions: 150000003 cycles: 505181462 heartbeat IPC: 0.519161 cumulative IPC: 0.295211 (Simulation time: 0 hr 21 min 1 sec) 
Heartbeat CPU 0 instructions: 151000000 cycles: 508574461 heartbeat IPC: 0.294724 cumulative IPC: 0.295208 (Simulation time: 0 hr 21 min 10 sec) 
Heartbeat CPU 0 instructions: 152000001 cycles: 512724744 heartbeat IPC: 0.240948 cumulative IPC: 0.294768 (Simulation time: 0 hr 21 min 19 sec) 
Heartbeat CPU 0 instructions: 153000000 cycles: 516862654 heartbeat IPC: 0.241668 cumulative IPC: 0.294343 (Simulation time: 0 hr 21 min 29 sec) 
Heartbeat CPU 0 instructions: 154000000 cycles: 520974764 heartbeat IPC: 0.243184 cumulative IPC: 0.293939 (Simulation time: 0 hr 21 min 39 sec) 
Heartbeat CPU 0 instructions: 155000001 cycles: 524992632 heartbeat IPC: 0.248888 cumulative IPC: 0.293593 (Simulation time: 0 hr 21 min 48 sec) 
Heartbeat CPU 0 instructions: 156000003 cycles: 528726565 heartbeat IPC: 0.267815 cumulative IPC: 0.293411 (Simulation time: 0 hr 21 min 57 sec) 
Heartbeat CPU 0 instructions: 157000002 cycles: 532995046 heartbeat IPC: 0.234275 cumulative IPC: 0.292937 (Simulation time: 0 hr 22 min 7 sec) 
Heartbeat CPU 0 instructions: 158000002 cycles: 537319964 heartbeat IPC: 0.231218 cumulative IPC: 0.29244 (Simulation time: 0 hr 22 min 17 sec) 
Heartbeat CPU 0 instructions: 159000002 cycles: 541014498 heartbeat IPC: 0.27067 cumulative IPC: 0.292291 (Simulation time: 0 hr 22 min 26 sec) 
Heartbeat CPU 0 instructions: 160000002 cycles: 543815149 heartbeat IPC: 0.35706 cumulative IPC: 0.292625 (Simulation time: 0 hr 22 min 34 sec) 
Heartbeat CPU 0 instructions: 161000000 cycles: 547124209 heartbeat IPC: 0.3022 cumulative IPC: 0.292683 (Simulation time: 0 hr 22 min 42 sec) 
Heartbeat CPU 0 instructions: 162000003 cycles: 550196085 heartbeat IPC: 0.325535 cumulative IPC: 0.292867 (Simulation time: 0 hr 22 min 50 sec) 
Heartbeat CPU 0 instructions: 163000001 cycles: 552887814 heartbeat IPC: 0.371508 cumulative IPC: 0.29325 (Simulation time: 0 hr 22 min 58 sec) 
Heartbeat CPU 0 instructions: 164000003 cycles: 555642832 heartbeat IPC: 0.362975 cumulative IPC: 0.293596 (Simulation time: 0 hr 23 min 6 sec) 
Heartbeat CPU 0 instructions: 165000000 cycles: 558765971 heartbeat IPC: 0.32019 cumulative IPC: 0.293745 (Simulation time: 0 hr 23 min 14 sec) 
Heartbeat CPU 0 instructions: 166000002 cycles: 561492077 heartbeat IPC: 0.366824 cumulative IPC: 0.2941 (Simulation time: 0 hr 23 min 22 sec) 
Heartbeat CPU 0 instructions: 167000001 cycles: 564344096 heartbeat IPC: 0.350628 cumulative IPC: 0.294386 (Simulation time: 0 hr 23 min 30 sec) 
Heartbeat CPU 0 instructions: 168000000 cycles: 567490978 heartbeat IPC: 0.317775 cumulative IPC: 0.294515 (Simulation time: 0 hr 23 min 38 sec) 
Heartbeat CPU 0 instructions: 169000001 cycles: 570948159 heartbeat IPC: 0.289253 cumulative IPC: 0.294484 (Simulation time: 0 hr 23 min 47 sec) 
Heartbeat CPU 0 instructions: 170000001 cycles: 574965059 heartbeat IPC: 0.248948 cumulative IPC: 0.294165 (Simulation time: 0 hr 23 min 57 sec) 
Heartbeat CPU 0 instructions: 171000002 cycles: 578747362 heartbeat IPC: 0.264389 cumulative IPC: 0.29397 (Simulation time: 0 hr 24 min 6 sec) 
Heartbeat CPU 0 instructions: 172000000 cycles: 582846465 heartbeat IPC: 0.243955 cumulative IPC: 0.293618 (Simulation time: 0 hr 24 min 15 sec) 
Heartbeat CPU 0 instructions: 173000002 cycles: 586489788 heartbeat IPC: 0.274475 cumulative IPC: 0.293499 (Simulation time: 0 hr 24 min 24 sec) 
Heartbeat CPU 0 instructions: 174000002 cycles: 589534547 heartbeat IPC: 0.328433 cumulative IPC: 0.29368 (Simulation time: 0 hr 24 min 32 sec) 
Heartbeat CPU 0 instructions: 175000001 cycles: 592866687 heartbeat IPC: 0.300107 cumulative IPC: 0.293716 (Simulation time: 0 hr 24 min 41 sec) 
Heartbeat CPU 0 instructions: 176000000 cycles: 596330483 heartbeat IPC: 0.2887 cumulative IPC: 0.293687 (Simulation time: 0 hr 24 min 49 sec) 
Heartbeat CPU 0 instructions: 177000002 cycles: 599372839 heartbeat IPC: 0.328693 cumulative IPC: 0.293865 (Simulation time: 0 hr 24 min 57 sec) 
Heartbeat CPU 0 instructions: 178000003 cycles: 602183556 heartbeat IPC: 0.355781 cumulative IPC: 0.294154 (Simulation time: 0 hr 25 min 5 sec) 
Heartbeat CPU 0 instructions: 179000002 cycles: 605144776 heartbeat IPC: 0.337698 cumulative IPC: 0.294367 (Simulation time: 0 hr 25 min 13 sec) 
Heartbeat CPU 0 instructions: 180000000 cycles: 609095927 heartbeat IPC: 0.25309 cumulative IPC: 0.294099 (Simulation time: 0 hr 25 min 22 sec) 
Heartbeat CPU 0 instructions: 181000001 cycles: 612419882 heartbeat IPC: 0.300847 cumulative IPC: 0.294136 (Simulation time: 0 hr 25 min 30 sec) 
Heartbeat CPU 0 instructions: 182000001 cycles: 615770008 heartbeat IPC: 0.298496 cumulative IPC: 0.29416 (Simulation time: 0 hr 25 min 39 sec) 
Heartbeat CPU 0 instructions: 183000001 cycles: 619913869 heartbeat IPC: 0.241321 cumulative IPC: 0.293806 (Simulation time: 0 hr 25 min 48 sec) 
Heartbeat CPU 0 instructions: 184000001 cycles: 623641996 heartbeat IPC: 0.268231 cumulative IPC: 0.293653 (Simulation time: 0 hr 25 min 57 sec) 
Heartbeat CPU 0 instructions: 185000000 cycles: 627073138 heartbeat IPC: 0.291448 cumulative IPC: 0.293641 (Simulation time: 0 hr 26 min 5 sec) 
Heartbeat CPU 0 instructions: 186000003 cycles: 630305098 heartbeat IPC: 0.309411 cumulative IPC: 0.293722 (Simulation time: 0 hr 26 min 13 sec) 
Heartbeat CPU 0 instructions: 187000000 cycles: 632856738 heartbeat IPC: 0.391904 cumulative IPC: 0.294118 (Simulation time: 0 hr 26 min 21 sec) 
Heartbeat CPU 0 instructions: 188000003 cycles: 636139624 heartbeat IPC: 0.304611 cumulative IPC: 0.294172 (Simulation time: 0 hr 26 min 29 sec) 
Heartbeat CPU 0 instructions: 189000000 cycles: 640050665 heartbeat IPC: 0.255686 cumulative IPC: 0.293937 (Simulation time: 0 hr 26 min 38 sec) 
Heartbeat CPU 0 instructions: 190000000 cycles: 643819476 heartbeat IPC: 0.265336 cumulative IPC: 0.293769 (Simulation time: 0 hr 26 min 47 sec) 
Heartbeat CPU 0 instructions: 191000002 cycles: 647087590 heartbeat IPC: 0.305987 cumulative IPC: 0.293831 (Simulation time: 0 hr 26 min 55 sec) 
Heartbeat CPU 0 instructions: 192000000 cycles: 650918889 heartbeat IPC: 0.261008 cumulative IPC: 0.293638 (Simulation time: 0 hr 27 min 4 sec) 
Heartbeat CPU 0 instructions: 193000001 cycles: 655383334 heartbeat IPC: 0.223992 cumulative IPC: 0.293163 (Simulation time: 0 hr 27 min 14 sec) 
Heartbeat CPU 0 instructions: 194000002 cycles: 658703365 heartbeat IPC: 0.301202 cumulative IPC: 0.293204 (Simulation time: 0 hr 27 min 22 sec) 
Heartbeat CPU 0 instructions: 195000000 cycles: 661771593 heartbeat IPC: 0.32592 cumulative IPC: 0.293355 (Simulation time: 0 hr 27 min 30 sec) 
Heartbeat CPU 0 instructions: 196000001 cycles: 665148546 heartbeat IPC: 0.296125 cumulative IPC: 0.29337 (Simulation time: 0 hr 27 min 38 sec) 
Heartbeat CPU 0 instructions: 197000000 cycles: 669248736 heartbeat IPC: 0.243891 cumulative IPC: 0.293066 (Simulation time: 0 hr 27 min 47 sec) 
Heartbeat CPU 0 instructions: 198000000 cycles: 672601447 heartbeat IPC: 0.298266 cumulative IPC: 0.293092 (Simulation time: 0 hr 27 min 55 sec) 
Heartbeat CPU 0 instructions: 199000003 cycles: 675522151 heartbeat IPC: 0.342384 cumulative IPC: 0.293305 (Simulation time: 0 hr 28 min 3 sec) 
Heartbeat CPU 0 instructions: 200000000 cycles: 678209108 heartbeat IPC: 0.372167 cumulative IPC: 0.293618 (Simulation time: 0 hr 28 min 10 sec) 
Heartbeat CPU 0 instructions: 201000000 cycles: 682506479 heartbeat IPC: 0.2327 cumulative IPC: 0.293234 (Simulation time: 0 hr 28 min 20 sec) 
Heartbeat CPU 0 instructions: 202000003 cycles: 686542459 heartbeat IPC: 0.247772 cumulative IPC: 0.292967 (Simulation time: 0 hr 28 min 29 sec) 
Heartbeat CPU 0 instructions: 203000002 cycles: 691008654 heartbeat IPC: 0.223904 cumulative IPC: 0.29252 (Simulation time: 0 hr 28 min 39 sec) 
Heartbeat CPU 0 instructions: 204000003 cycles: 694037333 heartbeat IPC: 0.330177 cumulative IPC: 0.292685 (Simulation time: 0 hr 28 min 47 sec) 
Heartbeat CPU 0 instructions: 205000002 cycles: 698344406 heartbeat IPC: 0.232176 cumulative IPC: 0.292311 (Simulation time: 0 hr 28 min 56 sec) 
Heartbeat CPU 0 instructions: 206000001 cycles: 702687351 heartbeat IPC: 0.230258 cumulative IPC: 0.291927 (Simulation time: 0 hr 29 min 6 sec) 
Heartbeat CPU 0 instructions: 207000001 cycles: 706617697 heartbeat IPC: 0.254431 cumulative IPC: 0.291719 (Simulation time: 0 hr 29 min 15 sec) 
Heartbeat CPU 0 instructions: 208000001 cycles: 710344876 heartbeat IPC: 0.268299 cumulative IPC: 0.291596 (Simulation time: 0 hr 29 min 23 sec) 
Heartbeat CPU 0 instructions: 209000000 cycles: 713017083 heartbeat IPC: 0.374222 cumulative IPC: 0.291906 (Simulation time: 0 hr 29 min 31 sec) 
Heartbeat CPU 0 instructions: 210000001 cycles: 716116684 heartbeat IPC: 0.322622 cumulative IPC: 0.292039 (Simulation time: 0 hr 29 min 39 sec) 
Heartbeat CPU 0 instructions: 211000000 cycles: 719481986 heartbeat IPC: 0.29715 cumulative IPC: 0.292063 (Simulation time: 0 hr 29 min 47 sec) 
Heartbeat CPU 0 instructions: 212000002 cycles: 724262235 heartbeat IPC: 0.209195 cumulative IPC: 0.291515 (Simulation time: 0 hr 29 min 57 sec) 
Heartbeat CPU 0 instructions: 213000003 cycles: 727333550 heartbeat IPC: 0.325594 cumulative IPC: 0.291659 (Simulation time: 0 hr 30 min 5 sec) 
Heartbeat CPU 0 instructions: 214000000 cycles: 730677266 heartbeat IPC: 0.299068 cumulative IPC: 0.291693 (Simulation time: 0 hr 30 min 13 sec) 
Heartbeat CPU 0 instructions: 215000001 cycles: 733760532 heartbeat IPC: 0.324332 cumulative IPC: 0.29183 (Simulation time: 0 hr 30 min 21 sec) 
Heartbeat CPU 0 instructions: 216000001 cycles: 737296861 heartbeat IPC: 0.282779 cumulative IPC: 0.291787 (Simulation time: 0 hr 30 min 29 sec) 
Heartbeat CPU 0 instructions: 217000001 cycles: 740683054 heartbeat IPC: 0.295317 cumulative IPC: 0.291803 (Simulation time: 0 hr 30 min 38 sec) 
Heartbeat CPU 0 instructions: 218000000 cycles: 744882037 heartbeat IPC: 0.238153 cumulative IPC: 0.2915 (Simulation time: 0 hr 30 min 47 sec) 
Heartbeat CPU 0 instructions: 219000001 cycles: 749306112 heartbeat IPC: 0.226036 cumulative IPC: 0.291114 (Simulation time: 0 hr 30 min 56 sec) 
Heartbeat CPU 0 instructions: 220000000 cycles: 753801247 heartbeat IPC: 0.222463 cumulative IPC: 0.290704 (Simulation time: 0 hr 31 min 6 sec) 
Heartbeat CPU 0 instructions: 221000002 cycles: 757494044 heartbeat IPC: 0.270798 cumulative IPC: 0.290607 (Simulation time: 0 hr 31 min 15 sec) 
Heartbeat CPU 0 instructions: 222000001 cycles: 760412945 heartbeat IPC: 0.342594 cumulative IPC: 0.290807 (Simulation time: 0 hr 31 min 23 sec) 
Heartbeat CPU 0 instructions: 223000002 cycles: 763683458 heartbeat IPC: 0.305763 cumulative IPC: 0.290871 (Simulation time: 0 hr 31 min 31 sec) 
Heartbeat CPU 0 instructions: 224000001 cycles: 766725443 heartbeat IPC: 0.328732 cumulative IPC: 0.291021 (Simulation time: 0 hr 31 min 39 sec) 
Heartbeat CPU 0 instructions: 225000001 cycles: 770069564 heartbeat IPC: 0.299032 cumulative IPC: 0.291056 (Simulation time: 0 hr 31 min 47 sec) 
Heartbeat CPU 0 instructions: 226000000 cycles: 773107318 heartbeat IPC: 0.32919 cumulative IPC: 0.291206 (Simulation time: 0 hr 31 min 55 sec) 
Heartbeat CPU 0 instructions: 227000001 cycles: 776228525 heartbeat IPC: 0.320389 cumulative IPC: 0.291323 (Simulation time: 0 hr 32 min 3 sec) 
Heartbeat CPU 0 instructions: 228000001 cycles: 779534078 heartbeat IPC: 0.302521 cumulative IPC: 0.291371 (Simulation time: 0 hr 32 min 12 sec) 
Heartbeat CPU 0 instructions: 229000002 cycles: 782536123 heartbeat IPC: 0.333107 cumulative IPC: 0.291531 (Simulation time: 0 hr 32 min 20 sec) 
Heartbeat CPU 0 instructions: 230000000 cycles: 785471573 heartbeat IPC: 0.340663 cumulative IPC: 0.291715 (Simulation time: 0 hr 32 min 28 sec) 
Heartbeat CPU 0 instructions: 231000000 cycles: 788647092 heartbeat IPC: 0.314909 cumulative IPC: 0.291808 (Simulation time: 0 hr 32 min 36 sec) 
Heartbeat CPU 0 instructions: 232000002 cycles: 792304141 heartbeat IPC: 0.273445 cumulative IPC: 0.291723 (Simulation time: 0 hr 32 min 45 sec) 
Heartbeat CPU 0 instructions: 233000000 cycles: 796673150 heartbeat IPC: 0.228884 cumulative IPC: 0.291378 (Simulation time: 0 hr 32 min 55 sec) 
Heartbeat CPU 0 instructions: 234000000 cycles: 800814031 heartbeat IPC: 0.241495 cumulative IPC: 0.29112 (Simulation time: 0 hr 33 min 4 sec) 
Heartbeat CPU 0 instructions: 235000000 cycles: 803573278 heartbeat IPC: 0.362418 cumulative IPC: 0.291365 (Simulation time: 0 hr 33 min 11 sec) 
Heartbeat CPU 0 instructions: 236000002 cycles: 806749791 heartbeat IPC: 0.314811 cumulative IPC: 0.291458 (Simulation time: 0 hr 33 min 20 sec) 
Heartbeat CPU 0 instructions: 237000002 cycles: 810329138 heartbeat IPC: 0.279381 cumulative IPC: 0.291404 (Simulation time: 0 hr 33 min 28 sec) 
Heartbeat CPU 0 instructions: 238000000 cycles: 813386890 heartbeat IPC: 0.327037 cumulative IPC: 0.291538 (Simulation time: 0 hr 33 min 36 sec) 
Heartbeat CPU 0 instructions: 239000002 cycles: 816449126 heartbeat IPC: 0.326559 cumulative IPC: 0.29167 (Simulation time: 0 hr 33 min 44 sec) 
Heartbeat CPU 0 instructions: 240000001 cycles: 819448500 heartbeat IPC: 0.333403 cumulative IPC: 0.291823 (Simulation time: 0 hr 33 min 52 sec) 
Heartbeat CPU 0 instructions: 241000000 cycles: 823241468 heartbeat IPC: 0.263645 cumulative IPC: 0.291693 (Simulation time: 0 hr 34 min 1 sec) 
Heartbeat CPU 0 instructions: 242000000 cycles: 826523702 heartbeat IPC: 0.304671 cumulative IPC: 0.291744 (Simulation time: 0 hr 34 min 9 sec) 
Heartbeat CPU 0 instructions: 243000002 cycles: 829620183 heartbeat IPC: 0.322948 cumulative IPC: 0.291861 (Simulation time: 0 hr 34 min 18 sec) 
Heartbeat CPU 0 instructions: 244000003 cycles: 833778190 heartbeat IPC: 0.2405 cumulative IPC: 0.291605 (Simulation time: 0 hr 34 min 27 sec) 
Heartbeat CPU 0 instructions: 245000000 cycles: 837702439 heartbeat IPC: 0.254825 cumulative IPC: 0.291432 (Simulation time: 0 hr 34 min 36 sec) 
Heartbeat CPU 0 instructions: 246000003 cycles: 840875895 heartbeat IPC: 0.315115 cumulative IPC: 0.291522 (Simulation time: 0 hr 34 min 44 sec) 
Heartbeat CPU 0 instructions: 247000000 cycles: 844369930 heartbeat IPC: 0.286201 cumulative IPC: 0.2915 (Simulation time: 0 hr 34 min 53 sec) 
Heartbeat CPU 0 instructions: 248000000 cycles: 846886073 heartbeat IPC: 0.397434 cumulative IPC: 0.291814 (Simulation time: 0 hr 35 min 0 sec) 
Heartbeat CPU 0 instructions: 249000000 cycles: 849828222 heartbeat IPC: 0.339888 cumulative IPC: 0.291981 (Simulation time: 0 hr 35 min 9 sec) 
Heartbeat CPU 0 instructions: 250000000 cycles: 853584893 heartbeat IPC: 0.266193 cumulative IPC: 0.291867 (Simulation time: 0 hr 35 min 18 sec) 
Heartbeat CPU 0 instructions: 251000002 cycles: 857455944 heartbeat IPC: 0.258328 cumulative IPC: 0.291716 (Simulation time: 0 hr 35 min 27 sec) 
Heartbeat CPU 0 instructions: 252000001 cycles: 860834440 heartbeat IPC: 0.295989 cumulative IPC: 0.291733 (Simulation time: 0 hr 35 min 35 sec) 
Heartbeat CPU 0 instructions: 253000000 cycles: 864031629 heartbeat IPC: 0.312774 cumulative IPC: 0.291811 (Simulation time: 0 hr 35 min 43 sec) 
Heartbeat CPU 0 instructions: 254000001 cycles: 868853281 heartbeat IPC: 0.207398 cumulative IPC: 0.291342 (Simulation time: 0 hr 35 min 53 sec) 
Heartbeat CPU 0 instructions: 255000000 cycles: 872284415 heartbeat IPC: 0.291449 cumulative IPC: 0.291342 (Simulation time: 0 hr 36 min 1 sec) 
Heartbeat CPU 0 instructions: 256000000 cycles: 875687954 heartbeat IPC: 0.293812 cumulative IPC: 0.291352 (Simulation time: 0 hr 36 min 9 sec) 
Heartbeat CPU 0 instructions: 257000003 cycles: 879089873 heartbeat IPC: 0.293953 cumulative IPC: 0.291362 (Simulation time: 0 hr 36 min 17 sec) 
Heartbeat CPU 0 instructions: 258000002 cycles: 882917644 heartbeat IPC: 0.261248 cumulative IPC: 0.291231 (Simulation time: 0 hr 36 min 26 sec) 
Heartbeat CPU 0 instructions: 259000000 cycles: 886515737 heartbeat IPC: 0.277924 cumulative IPC: 0.291177 (Simulation time: 0 hr 36 min 35 sec) 
Heartbeat CPU 0 instructions: 260000002 cycles: 889616222 heartbeat IPC: 0.322531 cumulative IPC: 0.291287 (Simulation time: 0 hr 36 min 43 sec) 
Heartbeat CPU 0 instructions: 261000000 cycles: 893685728 heartbeat IPC: 0.24573 cumulative IPC: 0.291079 (Simulation time: 0 hr 36 min 53 sec) 
Heartbeat CPU 0 instructions: 262000002 cycles: 897861905 heartbeat IPC: 0.239454 cumulative IPC: 0.290839 (Simulation time: 0 hr 37 min 2 sec) 
Heartbeat CPU 0 instructions: 263000001 cycles: 901258827 heartbeat IPC: 0.294384 cumulative IPC: 0.290852 (Simulation time: 0 hr 37 min 10 sec) 
Heartbeat CPU 0 instructions: 264000000 cycles: 905254799 heartbeat IPC: 0.250252 cumulative IPC: 0.290673 (Simulation time: 0 hr 37 min 19 sec) 
Heartbeat CPU 0 instructions: 265000001 cycles: 909203133 heartbeat IPC: 0.253272 cumulative IPC: 0.29051 (Simulation time: 0 hr 37 min 29 sec) 
Heartbeat CPU 0 instructions: 266000002 cycles: 911987133 heartbeat IPC: 0.359196 cumulative IPC: 0.29072 (Simulation time: 0 hr 37 min 37 sec) 
Heartbeat CPU 0 instructions: 267000003 cycles: 915460406 heartbeat IPC: 0.287913 cumulative IPC: 0.29071 (Simulation time: 0 hr 37 min 45 sec) 
Heartbeat CPU 0 instructions: 268000003 cycles: 919617717 heartbeat IPC: 0.24054 cumulative IPC: 0.290483 (Simulation time: 0 hr 37 min 54 sec) 
Heartbeat CPU 0 instructions: 269000002 cycles: 924089826 heartbeat IPC: 0.223608 cumulative IPC: 0.290159 (Simulation time: 0 hr 38 min 4 sec) 
Heartbeat CPU 0 instructions: 270000001 cycles: 928502577 heartbeat IPC: 0.226616 cumulative IPC: 0.289857 (Simulation time: 0 hr 38 min 14 sec) 
Heartbeat CPU 0 instructions: 271000001 cycles: 932256368 heartbeat IPC: 0.266397 cumulative IPC: 0.289762 (Simulation time: 0 hr 38 min 23 sec) 
Heartbeat CPU 0 instructions: 272000002 cycles: 935267298 heartbeat IPC: 0.332124 cumulative IPC: 0.289899 (Simulation time: 0 hr 38 min 30 sec) 
Heartbeat CPU 0 instructions: 273000001 cycles: 938536637 heartbeat IPC: 0.305872 cumulative IPC: 0.289954 (Simulation time: 0 hr 38 min 39 sec) 
Heartbeat CPU 0 instructions: 274000000 cycles: 941089916 heartbeat IPC: 0.391653 cumulative IPC: 0.29023 (Simulation time: 0 hr 38 min 46 sec) 
Heartbeat CPU 0 instructions: 275000000 cycles: 944053430 heartbeat IPC: 0.337437 cumulative IPC: 0.290379 (Simulation time: 0 hr 38 min 54 sec) 
Heartbeat CPU 0 instructions: 276000000 cycles: 946930648 heartbeat IPC: 0.347558 cumulative IPC: 0.290552 (Simulation time: 0 hr 39 min 2 sec) 
Heartbeat CPU 0 instructions: 277000001 cycles: 949857530 heartbeat IPC: 0.341661 cumulative IPC: 0.29071 (Simulation time: 0 hr 39 min 9 sec) 
Heartbeat CPU 0 instructions: 278000003 cycles: 952681426 heartbeat IPC: 0.354121 cumulative IPC: 0.290898 (Simulation time: 0 hr 39 min 17 sec) 
Heartbeat CPU 0 instructions: 279000000 cycles: 955375616 heartbeat IPC: 0.371168 cumulative IPC: 0.291125 (Simulation time: 0 hr 39 min 24 sec) 
Heartbeat CPU 0 instructions: 280000003 cycles: 959906399 heartbeat IPC: 0.220713 cumulative IPC: 0.290792 (Simulation time: 0 hr 39 min 34 sec) 
Heartbeat CPU 0 instructions: 281000003 cycles: 964378363 heartbeat IPC: 0.223615 cumulative IPC: 0.29048 (Simulation time: 0 hr 39 min 43 sec) 
Heartbeat CPU 0 instructions: 282000002 cycles: 969304965 heartbeat IPC: 0.202979 cumulative IPC: 0.290035 (Simulation time: 0 hr 39 min 53 sec) 
Heartbeat CPU 0 instructions: 283000002 cycles: 972954018 heartbeat IPC: 0.274044 cumulative IPC: 0.289975 (Simulation time: 0 hr 40 min 1 sec) 
Heartbeat CPU 0 instructions: 284000000 cycles: 977052425 heartbeat IPC: 0.243997 cumulative IPC: 0.289782 (Simulation time: 0 hr 40 min 10 sec) 
Heartbeat CPU 0 instructions: 285000001 cycles: 981247473 heartbeat IPC: 0.238377 cumulative IPC: 0.289563 (Simulation time: 0 hr 40 min 19 sec) 
Heartbeat CPU 0 instructions: 286000000 cycles: 984839621 heartbeat IPC: 0.278385 cumulative IPC: 0.289522 (Simulation time: 0 hr 40 min 27 sec) 
Heartbeat CPU 0 instructions: 287000000 cycles: 987449547 heartbeat IPC: 0.383153 cumulative IPC: 0.289769 (Simulation time: 0 hr 40 min 35 sec) 
Heartbeat CPU 0 instructions: 288000001 cycles: 991197898 heartbeat IPC: 0.266784 cumulative IPC: 0.289682 (Simulation time: 0 hr 40 min 43 sec) 
Heartbeat CPU 0 instructions: 289000000 cycles: 995140091 heartbeat IPC: 0.253666 cumulative IPC: 0.28954 (Simulation time: 0 hr 40 min 52 sec) 
Heartbeat CPU 0 instructions: 290000001 cycles: 999857015 heartbeat IPC: 0.212003 cumulative IPC: 0.289174 (Simulation time: 0 hr 41 min 2 sec) 
Heartbeat CPU 0 instructions: 291000000 cycles: 1004484641 heartbeat IPC: 0.216093 cumulative IPC: 0.288837 (Simulation time: 0 hr 41 min 11 sec) 
Heartbeat CPU 0 instructions: 292000003 cycles: 1008067519 heartbeat IPC: 0.279106 cumulative IPC: 0.288802 (Simulation time: 0 hr 41 min 19 sec) 
Heartbeat CPU 0 instructions: 293000000 cycles: 1011853835 heartbeat IPC: 0.264108 cumulative IPC: 0.28871 (Simulation time: 0 hr 41 min 28 sec) 
Heartbeat CPU 0 instructions: 294000002 cycles: 1015474490 heartbeat IPC: 0.276194 cumulative IPC: 0.288665 (Simulation time: 0 hr 41 min 36 sec) 
Heartbeat CPU 0 instructions: 295000000 cycles: 1018561694 heartbeat IPC: 0.323917 cumulative IPC: 0.288772 (Simulation time: 0 hr 41 min 43 sec) 
Heartbeat CPU 0 instructions: 296000000 cycles: 1022779825 heartbeat IPC: 0.237072 cumulative IPC: 0.288559 (Simulation time: 0 hr 41 min 52 sec) 
Heartbeat CPU 0 instructions: 297000000 cycles: 1026380905 heartbeat IPC: 0.277694 cumulative IPC: 0.288521 (Simulation time: 0 hr 42 min 1 sec) 
Heartbeat CPU 0 instructions: 298000000 cycles: 1028808268 heartbeat IPC: 0.41197 cumulative IPC: 0.288812 (Simulation time: 0 hr 42 min 8 sec) 
Heartbeat CPU 0 instructions: 299000003 cycles: 1032200401 heartbeat IPC: 0.294801 cumulative IPC: 0.288832 (Simulation time: 0 hr 42 min 15 sec) 
Heartbeat CPU 0 instructions: 300000000 cycles: 1034713497 heartbeat IPC: 0.397914 cumulative IPC: 0.289097 (Simulation time: 0 hr 42 min 23 sec) 
Heartbeat CPU 0 instructions: 301000001 cycles: 1037608602 heartbeat IPC: 0.345411 cumulative IPC: 0.289254 (Simulation time: 0 hr 42 min 30 sec) 
Heartbeat CPU 0 instructions: 302000002 cycles: 1041181244 heartbeat IPC: 0.279905 cumulative IPC: 0.289222 (Simulation time: 0 hr 42 min 38 sec) 
Heartbeat CPU 0 instructions: 303000003 cycles: 1045281358 heartbeat IPC: 0.243896 cumulative IPC: 0.289044 (Simulation time: 0 hr 42 min 46 sec) 
Heartbeat CPU 0 instructions: 304000000 cycles: 1049025343 heartbeat IPC: 0.267094 cumulative IPC: 0.288966 (Simulation time: 0 hr 42 min 54 sec) 
Heartbeat CPU 0 instructions: 305000002 cycles: 1052169826 heartbeat IPC: 0.318018 cumulative IPC: 0.289053 (Simulation time: 0 hr 43 min 2 sec) 
Heartbeat CPU 0 instructions: 306000001 cycles: 1054759858 heartbeat IPC: 0.386095 cumulative IPC: 0.289291 (Simulation time: 0 hr 43 min 9 sec) 
Heartbeat CPU 0 instructions: 307000000 cycles: 1057712227 heartbeat IPC: 0.338711 cumulative IPC: 0.289429 (Simulation time: 0 hr 43 min 17 sec) 
Heartbeat CPU 0 instructions: 308000000 cycles: 1061138798 heartbeat IPC: 0.291837 cumulative IPC: 0.289437 (Simulation time: 0 hr 43 min 25 sec) 
Heartbeat CPU 0 instructions: 309000002 cycles: 1064192578 heartbeat IPC: 0.327464 cumulative IPC: 0.289546 (Simulation time: 0 hr 43 min 32 sec) 
Heartbeat CPU 0 instructions: 310000000 cycles: 1066595522 heartbeat IPC: 0.416155 cumulative IPC: 0.289831 (Simulation time: 0 hr 43 min 39 sec) 
Heartbeat CPU 0 instructions: 311000000 cycles: 1070803073 heartbeat IPC: 0.237668 cumulative IPC: 0.289626 (Simulation time: 0 hr 43 min 49 sec) 
Heartbeat CPU 0 instructions: 312000000 cycles: 1075077963 heartbeat IPC: 0.233924 cumulative IPC: 0.289405 (Simulation time: 0 hr 43 min 58 sec) 
Heartbeat CPU 0 instructions: 313000001 cycles: 1080261083 heartbeat IPC: 0.192934 cumulative IPC: 0.288942 (Simulation time: 0 hr 44 min 8 sec) 
Heartbeat CPU 0 instructions: 314000003 cycles: 1085113788 heartbeat IPC: 0.206071 cumulative IPC: 0.288571 (Simulation time: 0 hr 44 min 18 sec) 
Heartbeat CPU 0 instructions: 315000000 cycles: 1089856960 heartbeat IPC: 0.210829 cumulative IPC: 0.288232 (Simulation time: 0 hr 44 min 28 sec) 
Heartbeat CPU 0 instructions: 316000000 cycles: 1093451187 heartbeat IPC: 0.278224 cumulative IPC: 0.288199 (Simulation time: 0 hr 44 min 37 sec) 
Heartbeat CPU 0 instructions: 317000000 cycles: 1097422247 heartbeat IPC: 0.251822 cumulative IPC: 0.288068 (Simulation time: 0 hr 44 min 45 sec) 
Heartbeat CPU 0 instructions: 318000000 cycles: 1100933191 heartbeat IPC: 0.284824 cumulative IPC: 0.288057 (Simulation time: 0 hr 44 min 54 sec) 
Heartbeat CPU 0 instructions: 319000000 cycles: 1104517526 heartbeat IPC: 0.278992 cumulative IPC: 0.288028 (Simulation time: 0 hr 45 min 2 sec) 
Heartbeat CPU 0 instructions: 320000002 cycles: 1109034561 heartbeat IPC: 0.221385 cumulative IPC: 0.287756 (Simulation time: 0 hr 45 min 12 sec) 
Heartbeat CPU 0 instructions: 321000000 cycles: 1112397026 heartbeat IPC: 0.2974 cumulative IPC: 0.287786 (Simulation time: 0 hr 45 min 20 sec) 
Heartbeat CPU 0 instructions: 322000000 cycles: 1115825114 heartbeat IPC: 0.291708 cumulative IPC: 0.287798 (Simulation time: 0 hr 45 min 28 sec) 
Heartbeat CPU 0 instructions: 323000002 cycles: 1119788323 heartbeat IPC: 0.252321 cumulative IPC: 0.287672 (Simulation time: 0 hr 45 min 36 sec) 
Heartbeat CPU 0 instructions: 324000000 cycles: 1122411226 heartbeat IPC: 0.381256 cumulative IPC: 0.287891 (Simulation time: 0 hr 45 min 44 sec) 
Heartbeat CPU 0 instructions: 325000003 cycles: 1126606852 heartbeat IPC: 0.238344 cumulative IPC: 0.287706 (Simulation time: 0 hr 45 min 52 sec) 
Heartbeat CPU 0 instructions: 326000000 cycles: 1130523318 heartbeat IPC: 0.255331 cumulative IPC: 0.287594 (Simulation time: 0 hr 46 min 1 sec) 
Heartbeat CPU 0 instructions: 327000002 cycles: 1133441163 heartbeat IPC: 0.342719 cumulative IPC: 0.287736 (Simulation time: 0 hr 46 min 9 sec) 
Heartbeat CPU 0 instructions: 328000000 cycles: 1136400036 heartbeat IPC: 0.337966 cumulative IPC: 0.287867 (Simulation time: 0 hr 46 min 17 sec) 
Heartbeat CPU 0 instructions: 329000000 cycles: 1139174029 heartbeat IPC: 0.360491 cumulative IPC: 0.288044 (Simulation time: 0 hr 46 min 25 sec) 
Heartbeat CPU 0 instructions: 330000000 cycles: 1142242745 heartbeat IPC: 0.325869 cumulative IPC: 0.288145 (Simulation time: 0 hr 46 min 33 sec) 
Heartbeat CPU 0 instructions: 331000001 cycles: 1145757551 heartbeat IPC: 0.284511 cumulative IPC: 0.288134 (Simulation time: 0 hr 46 min 41 sec) 
Heartbeat CPU 0 instructions: 332000000 cycles: 1148268659 heartbeat IPC: 0.39823 cumulative IPC: 0.288375 (Simulation time: 0 hr 46 min 48 sec) 
Heartbeat CPU 0 instructions: 333000001 cycles: 1150960136 heartbeat IPC: 0.371544 cumulative IPC: 0.28857 (Simulation time: 0 hr 46 min 56 sec) 
Heartbeat CPU 0 instructions: 334000000 cycles: 1155051494 heartbeat IPC: 0.244417 cumulative IPC: 0.288413 (Simulation time: 0 hr 47 min 5 sec) 
Heartbeat CPU 0 instructions: 335000001 cycles: 1159112912 heartbeat IPC: 0.24622 cumulative IPC: 0.288265 (Simulation time: 0 hr 47 min 14 sec) 
Heartbeat CPU 0 instructions: 336000000 cycles: 1163998377 heartbeat IPC: 0.204689 cumulative IPC: 0.287914 (Simulation time: 0 hr 47 min 24 sec) 
Heartbeat CPU 0 instructions: 337000000 cycles: 1167694404 heartbeat IPC: 0.270561 cumulative IPC: 0.287859 (Simulation time: 0 hr 47 min 32 sec) 
Heartbeat CPU 0 instructions: 338000001 cycles: 1170930484 heartbeat IPC: 0.309016 cumulative IPC: 0.287918 (Simulation time: 0 hr 47 min 40 sec) 
Heartbeat CPU 0 instructions: 339000000 cycles: 1173994067 heartbeat IPC: 0.326415 cumulative IPC: 0.288018 (Simulation time: 0 hr 47 min 48 sec) 
Heartbeat CPU 0 instructions: 340000001 cycles: 1177768208 heartbeat IPC: 0.264961 cumulative IPC: 0.287944 (Simulation time: 0 hr 47 min 56 sec) 
Heartbeat CPU 0 instructions: 341000000 cycles: 1180735108 heartbeat IPC: 0.337052 cumulative IPC: 0.288068 (Simulation time: 0 hr 48 min 4 sec) 
Heartbeat CPU 0 instructions: 342000001 cycles: 1184372499 heartbeat IPC: 0.274923 cumulative IPC: 0.288028 (Simulation time: 0 hr 48 min 12 sec) 
Heartbeat CPU 0 instructions: 343000000 cycles: 1187413886 heartbeat IPC: 0.328797 cumulative IPC: 0.288132 (Simulation time: 0 hr 48 min 20 sec) 
Heartbeat CPU 0 instructions: 344000001 cycles: 1191918161 heartbeat IPC: 0.222012 cumulative IPC: 0.287882 (Simulation time: 0 hr 48 min 30 sec) 
Heartbeat CPU 0 instructions: 345000001 cycles: 1197021365 heartbeat IPC: 0.195955 cumulative IPC: 0.28749 (Simulation time: 0 hr 48 min 40 sec) 
Heartbeat CPU 0 instructions: 346000000 cycles: 1200278256 heartbeat IPC: 0.307041 cumulative IPC: 0.287543 (Simulation time: 0 hr 48 min 47 sec) 
Heartbeat CPU 0 instructions: 347000003 cycles: 1203828487 heartbeat IPC: 0.281673 cumulative IPC: 0.287526 (Simulation time: 0 hr 48 min 56 sec) 
Heartbeat CPU 0 instructions: 348000002 cycles: 1207257188 heartbeat IPC: 0.291655 cumulative IPC: 0.287537 (Simulation time: 0 hr 49 min 4 sec) 
Heartbeat CPU 0 instructions: 349000001 cycles: 1210921699 heartbeat IPC: 0.272887 cumulative IPC: 0.287493 (Simulation time: 0 hr 49 min 13 sec) 
Heartbeat CPU 0 instructions: 350000003 cycles: 1215189309 heartbeat IPC: 0.234324 cumulative IPC: 0.287306 (Simulation time: 0 hr 49 min 22 sec) 
Heartbeat CPU 0 instructions: 351000003 cycles: 1218543248 heartbeat IPC: 0.298157 cumulative IPC: 0.287336 (Simulation time: 0 hr 49 min 30 sec) 
Heartbeat CPU 0 instructions: 352000000 cycles: 1222581753 heartbeat IPC: 0.247616 cumulative IPC: 0.287205 (Simulation time: 0 hr 49 min 39 sec) 
Heartbeat CPU 0 instructions: 353000002 cycles: 1225451892 heartbeat IPC: 0.348416 cumulative IPC: 0.287348 (Simulation time: 0 hr 49 min 47 sec) 
Heartbeat CPU 0 instructions: 354000000 cycles: 1229195664 heartbeat IPC: 0.26711 cumulative IPC: 0.287287 (Simulation time: 0 hr 49 min 55 sec) 
Heartbeat CPU 0 instructions: 355000000 cycles: 1233150444 heartbeat IPC: 0.252859 cumulative IPC: 0.287176 (Simulation time: 0 hr 50 min 4 sec) 
Heartbeat CPU 0 instructions: 356000000 cycles: 1236206166 heartbeat IPC: 0.327255 cumulative IPC: 0.287275 (Simulation time: 0 hr 50 min 12 sec) 
Heartbeat CPU 0 instructions: 357000002 cycles: 1239831980 heartbeat IPC: 0.275801 cumulative IPC: 0.287242 (Simulation time: 0 hr 50 min 21 sec) 
Heartbeat CPU 0 instructions: 358000000 cycles: 1242627643 heartbeat IPC: 0.357696 cumulative IPC: 0.2874 (Simulation time: 0 hr 50 min 29 sec) 
Heartbeat CPU 0 instructions: 359000001 cycles: 1246461278 heartbeat IPC: 0.260849 cumulative IPC: 0.287319 (Simulation time: 0 hr 50 min 37 sec) 
Heartbeat CPU 0 instructions: 360000000 cycles: 1250037862 heartbeat IPC: 0.279596 cumulative IPC: 0.287297 (Simulation time: 0 hr 50 min 46 sec) 
Heartbeat CPU 0 instructions: 361000001 cycles: 1253164166 heartbeat IPC: 0.319867 cumulative IPC: 0.287378 (Simulation time: 0 hr 50 min 54 sec) 
Heartbeat CPU 0 instructions: 362000003 cycles: 1255893693 heartbeat IPC: 0.366365 cumulative IPC: 0.28755 (Simulation time: 0 hr 51 min 2 sec) 
Heartbeat CPU 0 instructions: 363000000 cycles: 1258677844 heartbeat IPC: 0.359175 cumulative IPC: 0.287708 (Simulation time: 0 hr 51 min 10 sec) 
Heartbeat CPU 0 instructions: 364000000 cycles: 1261137170 heartbeat IPC: 0.406615 cumulative IPC: 0.28794 (Simulation time: 0 hr 51 min 18 sec) 
Heartbeat CPU 0 instructions: 365000002 cycles: 1265596001 heartbeat IPC: 0.224274 cumulative IPC: 0.287716 (Simulation time: 0 hr 51 min 27 sec) 
Heartbeat CPU 0 instructions: 366000002 cycles: 1269747996 heartbeat IPC: 0.240848 cumulative IPC: 0.287562 (Simulation time: 0 hr 51 min 37 sec) 
Heartbeat CPU 0 instructions: 367000001 cycles: 1272901478 heartbeat IPC: 0.317109 cumulative IPC: 0.287636 (Simulation time: 0 hr 51 min 46 sec) 
Heartbeat CPU 0 instructions: 368000002 cycles: 1276306578 heartbeat IPC: 0.293677 cumulative IPC: 0.287652 (Simulation time: 0 hr 51 min 54 sec) 
Heartbeat CPU 0 instructions: 369000003 cycles: 1279601305 heartbeat IPC: 0.303516 cumulative IPC: 0.287693 (Simulation time: 0 hr 52 min 3 sec) 
Heartbeat CPU 0 instructions: 370000000 cycles: 1283315163 heartbeat IPC: 0.269261 cumulative IPC: 0.287639 (Simulation time: 0 hr 52 min 12 sec) 
Heartbeat CPU 0 instructions: 371000000 cycles: 1286479421 heartbeat IPC: 0.31603 cumulative IPC: 0.287709 (Simulation time: 0 hr 52 min 20 sec) 
Heartbeat CPU 0 instructions: 372000002 cycles: 1289974198 heartbeat IPC: 0.286142 cumulative IPC: 0.287705 (Simulation time: 0 hr 52 min 28 sec) 
Heartbeat CPU 0 instructions: 373000000 cycles: 1294347720 heartbeat IPC: 0.228648 cumulative IPC: 0.287505 (Simulation time: 0 hr 52 min 37 sec) 
Heartbeat CPU 0 instructions: 374000000 cycles: 1299262671 heartbeat IPC: 0.203461 cumulative IPC: 0.287187 (Simulation time: 0 hr 52 min 47 sec) 
Heartbeat CPU 0 instructions: 375000000 cycles: 1303143681 heartbeat IPC: 0.257665 cumulative IPC: 0.287099 (Simulation time: 0 hr 52 min 56 sec) 
Heartbeat CPU 0 instructions: 376000003 cycles: 1307411936 heartbeat IPC: 0.234288 cumulative IPC: 0.286927 (Simulation time: 0 hr 53 min 5 sec) 
Heartbeat CPU 0 instructions: 377000002 cycles: 1310289203 heartbeat IPC: 0.347552 cumulative IPC: 0.28706 (Simulation time: 0 hr 53 min 13 sec) 
Heartbeat CPU 0 instructions: 378000000 cycles: 1314221028 heartbeat IPC: 0.254334 cumulative IPC: 0.286962 (Simulation time: 0 hr 53 min 23 sec) 
Heartbeat CPU 0 instructions: 379000001 cycles: 1318484981 heartbeat IPC: 0.234524 cumulative IPC: 0.286792 (Simulation time: 0 hr 53 min 32 sec) 
Heartbeat CPU 0 instructions: 380000000 cycles: 1321345319 heartbeat IPC: 0.349609 cumulative IPC: 0.286928 (Simulation time: 0 hr 53 min 40 sec) 
Heartbeat CPU 0 instructions: 381000001 cycles: 1325555560 heartbeat IPC: 0.237516 cumulative IPC: 0.286771 (Simulation time: 0 hr 53 min 49 sec) 
Heartbeat CPU 0 instructions: 382000000 cycles: 1328373081 heartbeat IPC: 0.354922 cumulative IPC: 0.286916 (Simulation time: 0 hr 53 min 57 sec) 
Heartbeat CPU 0 instructions: 383000001 cycles: 1332606699 heartbeat IPC: 0.236205 cumulative IPC: 0.286755 (Simulation time: 0 hr 54 min 6 sec) 
Heartbeat CPU 0 instructions: 384000001 cycles: 1336338908 heartbeat IPC: 0.267938 cumulative IPC: 0.286702 (Simulation time: 0 hr 54 min 15 sec) 
Heartbeat CPU 0 instructions: 385000000 cycles: 1339817661 heartbeat IPC: 0.287459 cumulative IPC: 0.286704 (Simulation time: 0 hr 54 min 23 sec) 
Heartbeat CPU 0 instructions: 386000001 cycles: 1343113004 heartbeat IPC: 0.303459 cumulative IPC: 0.286745 (Simulation time: 0 hr 54 min 30 sec) 
Heartbeat CPU 0 instructions: 387000000 cycles: 1346223181 heartbeat IPC: 0.321525 cumulative IPC: 0.286826 (Simulation time: 0 hr 54 min 38 sec) 
Heartbeat CPU 0 instructions: 388000003 cycles: 1350028186 heartbeat IPC: 0.262813 cumulative IPC: 0.286758 (Simulation time: 0 hr 54 min 47 sec) 
Heartbeat CPU 0 instructions: 389000001 cycles: 1353117203 heartbeat IPC: 0.323727 cumulative IPC: 0.286842 (Simulation time: 0 hr 54 min 55 sec) 
Heartbeat CPU 0 instructions: 390000001 cycles: 1356338715 heartbeat IPC: 0.310413 cumulative IPC: 0.286898 (Simulation time: 0 hr 55 min 2 sec) 
Heartbeat CPU 0 instructions: 391000003 cycles: 1360837227 heartbeat IPC: 0.222296 cumulative IPC: 0.286685 (Simulation time: 0 hr 55 min 12 sec) 
Heartbeat CPU 0 instructions: 392000000 cycles: 1365370244 heartbeat IPC: 0.220603 cumulative IPC: 0.286465 (Simulation time: 0 hr 55 min 21 sec) 
Heartbeat CPU 0 instructions: 393000003 cycles: 1368969158 heartbeat IPC: 0.277862 cumulative IPC: 0.286443 (Simulation time: 0 hr 55 min 30 sec) 
Heartbeat CPU 0 instructions: 394000003 cycles: 1372295008 heartbeat IPC: 0.300675 cumulative IPC: 0.286477 (Simulation time: 0 hr 55 min 38 sec) 
Heartbeat CPU 0 instructions: 395000001 cycles: 1375050769 heartbeat IPC: 0.362875 cumulative IPC: 0.28663 (Simulation time: 0 hr 55 min 46 sec) 
Heartbeat CPU 0 instructions: 396000000 cycles: 1378832989 heartbeat IPC: 0.264395 cumulative IPC: 0.286569 (Simulation time: 0 hr 55 min 54 sec) 
Heartbeat CPU 0 instructions: 397000003 cycles: 1381601149 heartbeat IPC: 0.361252 cumulative IPC: 0.286719 (Simulation time: 0 hr 56 min 2 sec) 
Heartbeat CPU 0 instructions: 398000001 cycles: 1384160370 heartbeat IPC: 0.390743 cumulative IPC: 0.286911 (Simulation time: 0 hr 56 min 9 sec) 
Heartbeat CPU 0 instructions: 399000001 cycles: 1388293937 heartbeat IPC: 0.241922 cumulative IPC: 0.286777 (Simulation time: 0 hr 56 min 18 sec) 
Heartbeat CPU 0 instructions: 400000000 cycles: 1391383490 heartbeat IPC: 0.323671 cumulative IPC: 0.286859 (Simulation time: 0 hr 56 min 26 sec) 
Heartbeat CPU 0 instructions: 401000003 cycles: 1395291799 heartbeat IPC: 0.255866 cumulative IPC: 0.286772 (Simulation time: 0 hr 56 min 35 sec) 
Heartbeat CPU 0 instructions: 402000000 cycles: 1399809263 heartbeat IPC: 0.221362 cumulative IPC: 0.286561 (Simulation time: 0 hr 56 min 45 sec) 
Heartbeat CPU 0 instructions: 403000000 cycles: 1403200708 heartbeat IPC: 0.29486 cumulative IPC: 0.286581 (Simulation time: 0 hr 56 min 53 sec) 
Heartbeat CPU 0 instructions: 404000000 cycles: 1407476455 heartbeat IPC: 0.233877 cumulative IPC: 0.286421 (Simulation time: 0 hr 57 min 2 sec) 
Heartbeat CPU 0 instructions: 405000001 cycles: 1412193834 heartbeat IPC: 0.211982 cumulative IPC: 0.286172 (Simulation time: 0 hr 57 min 12 sec) 
Heartbeat CPU 0 instructions: 406000003 cycles: 1415960094 heartbeat IPC: 0.265516 cumulative IPC: 0.286118 (Simulation time: 0 hr 57 min 21 sec) 
Heartbeat CPU 0 instructions: 407000000 cycles: 1419810607 heartbeat IPC: 0.259705 cumulative IPC: 0.286046 (Simulation time: 0 hr 57 min 29 sec) 
Heartbeat CPU 0 instructions: 408000001 cycles: 1422562461 heartbeat IPC: 0.363392 cumulative IPC: 0.286196 (Simulation time: 0 hr 57 min 37 sec) 
Heartbeat CPU 0 instructions: 409000001 cycles: 1426653241 heartbeat IPC: 0.244452 cumulative IPC: 0.286076 (Simulation time: 0 hr 57 min 46 sec) 
Heartbeat CPU 0 instructions: 410000000 cycles: 1430393697 heartbeat IPC: 0.267347 cumulative IPC: 0.286027 (Simulation time: 0 hr 57 min 55 sec) 
Heartbeat CPU 0 instructions: 411000000 cycles: 1433250413 heartbeat IPC: 0.350052 cumulative IPC: 0.286154 (Simulation time: 0 hr 58 min 3 sec) 
Heartbeat CPU 0 instructions: 412000003 cycles: 1437046262 heartbeat IPC: 0.263446 cumulative IPC: 0.286094 (Simulation time: 0 hr 58 min 12 sec) 
Heartbeat CPU 0 instructions: 413000001 cycles: 1440416155 heartbeat IPC: 0.296745 cumulative IPC: 0.286119 (Simulation time: 0 hr 58 min 20 sec) 
Heartbeat CPU 0 instructions: 414000000 cycles: 1445265805 heartbeat IPC: 0.2062 cumulative IPC: 0.285851 (Simulation time: 0 hr 58 min 29 sec) 
Heartbeat CPU 0 instructions: 415000001 cycles: 1449616576 heartbeat IPC: 0.229845 cumulative IPC: 0.285683 (Simulation time: 0 hr 58 min 39 sec) 
Heartbeat CPU 0 instructions: 416000000 cycles: 1452780407 heartbeat IPC: 0.316072 cumulative IPC: 0.285749 (Simulation time: 0 hr 58 min 46 sec) 
Heartbeat CPU 0 instructions: 417000002 cycles: 1456432870 heartbeat IPC: 0.273788 cumulative IPC: 0.285719 (Simulation time: 0 hr 58 min 55 sec) 
Heartbeat CPU 0 instructions: 418000000 cycles: 1460660055 heartbeat IPC: 0.236564 cumulative IPC: 0.285577 (Simulation time: 0 hr 59 min 4 sec) 
Heartbeat CPU 0 instructions: 419000002 cycles: 1463573506 heartbeat IPC: 0.343236 cumulative IPC: 0.285692 (Simulation time: 0 hr 59 min 12 sec) 
Heartbeat CPU 0 instructions: 420000003 cycles: 1468043072 heartbeat IPC: 0.223736 cumulative IPC: 0.285503 (Simulation time: 0 hr 59 min 21 sec) 
Heartbeat CPU 0 instructions: 421000002 cycles: 1472175127 heartbeat IPC: 0.24201 cumulative IPC: 0.285381 (Simulation time: 0 hr 59 min 31 sec) 
Heartbeat CPU 0 instructions: 422000001 cycles: 1475545734 heartbeat IPC: 0.296682 cumulative IPC: 0.285407 (Simulation time: 0 hr 59 min 39 sec) 
Heartbeat CPU 0 instructions: 423000000 cycles: 1479525520 heartbeat IPC: 0.25127 cumulative IPC: 0.285315 (Simulation time: 0 hr 59 min 48 sec) 
Heartbeat CPU 0 instructions: 424000001 cycles: 1482743893 heartbeat IPC: 0.310716 cumulative IPC: 0.28537 (Simulation time: 0 hr 59 min 57 sec) 
Heartbeat CPU 0 instructions: 425000001 cycles: 1487008077 heartbeat IPC: 0.234511 cumulative IPC: 0.285224 (Simulation time: 1 hr 0 min 6 sec) 
Heartbeat CPU 0 instructions: 426000002 cycles: 1490409671 heartbeat IPC: 0.29398 cumulative IPC: 0.285244 (Simulation time: 1 hr 0 min 14 sec) 
Heartbeat CPU 0 instructions: 427000000 cycles: 1494210485 heartbeat IPC: 0.263101 cumulative IPC: 0.285188 (Simulation time: 1 hr 0 min 23 sec) 
Heartbeat CPU 0 instructions: 428000000 cycles: 1497947342 heartbeat IPC: 0.267605 cumulative IPC: 0.285144 (Simulation time: 1 hr 0 min 32 sec) 
Heartbeat CPU 0 instructions: 429000000 cycles: 1500688053 heartbeat IPC: 0.364869 cumulative IPC: 0.28529 (Simulation time: 1 hr 0 min 39 sec) 
Heartbeat CPU 0 instructions: 430000002 cycles: 1503324970 heartbeat IPC: 0.379232 cumulative IPC: 0.285454 (Simulation time: 1 hr 0 min 46 sec) 
Heartbeat CPU 0 instructions: 431000002 cycles: 1507219322 heartbeat IPC: 0.256782 cumulative IPC: 0.28538 (Simulation time: 1 hr 0 min 55 sec) 
Heartbeat CPU 0 instructions: 432000001 cycles: 1510674727 heartbeat IPC: 0.289401 cumulative IPC: 0.285389 (Simulation time: 1 hr 1 min 3 sec) 
Heartbeat CPU 0 instructions: 433000002 cycles: 1514065206 heartbeat IPC: 0.294944 cumulative IPC: 0.285411 (Simulation time: 1 hr 1 min 12 sec) 
Heartbeat CPU 0 instructions: 434000003 cycles: 1518082724 heartbeat IPC: 0.24891 cumulative IPC: 0.285314 (Simulation time: 1 hr 1 min 21 sec) 
Heartbeat CPU 0 instructions: 435000002 cycles: 1522475903 heartbeat IPC: 0.227625 cumulative IPC: 0.285148 (Simulation time: 1 hr 1 min 31 sec) 
Heartbeat CPU 0 instructions: 436000002 cycles: 1526001728 heartbeat IPC: 0.283622 cumulative IPC: 0.285144 (Simulation time: 1 hr 1 min 39 sec) 
Heartbeat CPU 0 instructions: 437000000 cycles: 1530254859 heartbeat IPC: 0.23512 cumulative IPC: 0.285005 (Simulation time: 1 hr 1 min 48 sec) 
Heartbeat CPU 0 instructions: 438000001 cycles: 1533027502 heartbeat IPC: 0.360667 cumulative IPC: 0.285142 (Simulation time: 1 hr 1 min 56 sec) 
Heartbeat CPU 0 instructions: 439000003 cycles: 1537326907 heartbeat IPC: 0.232591 cumulative IPC: 0.284995 (Simulation time: 1 hr 2 min 6 sec) 
Heartbeat CPU 0 instructions: 440000000 cycles: 1541102272 heartbeat IPC: 0.264874 cumulative IPC: 0.284946 (Simulation time: 1 hr 2 min 15 sec) 
Heartbeat CPU 0 instructions: 441000003 cycles: 1544896137 heartbeat IPC: 0.263584 cumulative IPC: 0.284893 (Simulation time: 1 hr 2 min 23 sec) 
Heartbeat CPU 0 instructions: 442000001 cycles: 1548142103 heartbeat IPC: 0.308074 cumulative IPC: 0.284942 (Simulation time: 1 hr 2 min 31 sec) 
Heartbeat CPU 0 instructions: 443000002 cycles: 1551180903 heartbeat IPC: 0.329078 cumulative IPC: 0.285028 (Simulation time: 1 hr 2 min 39 sec) 
Heartbeat CPU 0 instructions: 444000002 cycles: 1555433617 heartbeat IPC: 0.235144 cumulative IPC: 0.284892 (Simulation time: 1 hr 2 min 48 sec) 
Heartbeat CPU 0 instructions: 445000000 cycles: 1559031972 heartbeat IPC: 0.277904 cumulative IPC: 0.284876 (Simulation time: 1 hr 2 min 57 sec) 
Heartbeat CPU 0 instructions: 446000000 cycles: 1562661700 heartbeat IPC: 0.275503 cumulative IPC: 0.284854 (Simulation time: 1 hr 3 min 5 sec) 
Heartbeat CPU 0 instructions: 447000000 cycles: 1566921879 heartbeat IPC: 0.234732 cumulative IPC: 0.284718 (Simulation time: 1 hr 3 min 15 sec) 
Heartbeat CPU 0 instructions: 448000000 cycles: 1571766013 heartbeat IPC: 0.206435 cumulative IPC: 0.284476 (Simulation time: 1 hr 3 min 26 sec) 
Heartbeat CPU 0 instructions: 449000003 cycles: 1574977500 heartbeat IPC: 0.311383 cumulative IPC: 0.284531 (Simulation time: 1 hr 3 min 34 sec) 
Heartbeat CPU 0 instructions: 450000003 cycles: 1578777089 heartbeat IPC: 0.263186 cumulative IPC: 0.28448 (Simulation time: 1 hr 3 min 42 sec) 

Warmup complete CPU 0 instructions: 450000003 cycles: 1578777089 (Simulation time: 1 hr 3 min 42 sec) 

Heartbeat CPU 0 instructions: 451000000 cycles: 1581984925 heartbeat IPC: 0.311736 cumulative IPC: 0.311736 (Simulation time: 1 hr 3 min 50 sec) 
Heartbeat CPU 0 instructions: 452000003 cycles: 1585775105 heartbeat IPC: 0.26384 cumulative IPC: 0.285795 (Simulation time: 1 hr 3 min 58 sec) 
Heartbeat CPU 0 instructions: 453000002 cycles: 1589996416 heartbeat IPC: 0.236893 cumulative IPC: 0.267396 (Simulation time: 1 hr 4 min 7 sec) 
Heartbeat CPU 0 instructions: 454000001 cycles: 1593642026 heartbeat IPC: 0.274302 cumulative IPC: 0.269089 (Simulation time: 1 hr 4 min 16 sec) 
Heartbeat CPU 0 instructions: 455000000 cycles: 1596913692 heartbeat IPC: 0.305654 cumulative IPC: 0.275685 (Simulation time: 1 hr 4 min 23 sec) 
Heartbeat CPU 0 instructions: 456000001 cycles: 1599787570 heartbeat IPC: 0.347962 cumulative IPC: 0.285572 (Simulation time: 1 hr 4 min 30 sec) 
Heartbeat CPU 0 instructions: 457000002 cycles: 1603510682 heartbeat IPC: 0.268593 cumulative IPC: 0.283016 (Simulation time: 1 hr 4 min 39 sec) 
Heartbeat CPU 0 instructions: 458000001 cycles: 1607738229 heartbeat IPC: 0.236544 cumulative IPC: 0.276232 (Simulation time: 1 hr 4 min 48 sec) 
Heartbeat CPU 0 instructions: 459000003 cycles: 1611760504 heartbeat IPC: 0.248616 cumulative IPC: 0.272864 (Simulation time: 1 hr 4 min 57 sec) 
Heartbeat CPU 0 instructions: 460000000 cycles: 1615290546 heartbeat IPC: 0.283282 cumulative IPC: 0.273872 (Simulation time: 1 hr 5 min 6 sec) 
Heartbeat CPU 0 instructions: 461000003 cycles: 1619130078 heartbeat IPC: 0.260449 cumulative IPC: 0.272594 (Simulation time: 1 hr 5 min 15 sec) 
Heartbeat CPU 0 instructions: 462000000 cycles: 1622450254 heartbeat IPC: 0.301188 cumulative IPC: 0.274768 (Simulation time: 1 hr 5 min 24 sec) 
Heartbeat CPU 0 instructions: 463000003 cycles: 1626581571 heartbeat IPC: 0.242054 cumulative IPC: 0.271941 (Simulation time: 1 hr 5 min 33 sec) 
Heartbeat CPU 0 instructions: 464000002 cycles: 1630635052 heartbeat IPC: 0.246701 cumulative IPC: 0.269968 (Simulation time: 1 hr 5 min 42 sec) 
Heartbeat CPU 0 instructions: 465000000 cycles: 1633427031 heartbeat IPC: 0.358168 cumulative IPC: 0.274474 (Simulation time: 1 hr 5 min 49 sec) 
Heartbeat CPU 0 instructions: 466000002 cycles: 1635395977 heartbeat IPC: 0.507887 cumulative IPC: 0.282591 (Simulation time: 1 hr 5 min 56 sec) 
Heartbeat CPU 0 instructions: 467000003 cycles: 1638902464 heartbeat IPC: 0.285186 cumulative IPC: 0.282743 (Simulation time: 1 hr 6 min 4 sec) 
Heartbeat CPU 0 instructions: 468000003 cycles: 1642164663 heartbeat IPC: 0.306542 cumulative IPC: 0.283967 (Simulation time: 1 hr 6 min 12 sec) 
Heartbeat CPU 0 instructions: 469000003 cycles: 1645173951 heartbeat IPC: 0.332305 cumulative IPC: 0.286158 (Simulation time: 1 hr 6 min 20 sec) 
Heartbeat CPU 0 instructions: 470000000 cycles: 1648728835 heartbeat IPC: 0.281302 cumulative IPC: 0.285911 (Simulation time: 1 hr 6 min 29 sec) 
Heartbeat CPU 0 instructions: 471000003 cycles: 1651751175 heartbeat IPC: 0.33087 cumulative IPC: 0.287773 (Simulation time: 1 hr 6 min 38 sec) 
Heartbeat CPU 0 instructions: 472000000 cycles: 1655649694 heartbeat IPC: 0.256507 cumulative IPC: 0.286188 (Simulation time: 1 hr 6 min 47 sec) 
Heartbeat CPU 0 instructions: 473000000 cycles: 1660120860 heartbeat IPC: 0.223655 cumulative IPC: 0.282751 (Simulation time: 1 hr 6 min 57 sec) 
Heartbeat CPU 0 instructions: 474000000 cycles: 1663212020 heartbeat IPC: 0.323503 cumulative IPC: 0.284243 (Simulation time: 1 hr 7 min 4 sec) 
Heartbeat CPU 0 instructions: 475000000 cycles: 1665739142 heartbeat IPC: 0.395707 cumulative IPC: 0.287482 (Simulation time: 1 hr 7 min 11 sec) 
Heartbeat CPU 0 instructions: 476000003 cycles: 1669102533 heartbeat IPC: 0.29732 cumulative IPC: 0.287848 (Simulation time: 1 hr 7 min 20 sec) 
Heartbeat CPU 0 instructions: 477000000 cycles: 1672325422 heartbeat IPC: 0.31028 cumulative IPC: 0.288621 (Simulation time: 1 hr 7 min 28 sec) 
Heartbeat CPU 0 instructions: 478000003 cycles: 1675698882 heartbeat IPC: 0.296432 cumulative IPC: 0.288893 (Simulation time: 1 hr 7 min 36 sec) 
Heartbeat CPU 0 instructions: 479000002 cycles: 1679505646 heartbeat IPC: 0.26269 cumulative IPC: 0.287902 (Simulation time: 1 hr 7 min 45 sec) 
Heartbeat CPU 0 instructions: 480000003 cycles: 1683907139 heartbeat IPC: 0.227196 cumulative IPC: 0.285361 (Simulation time: 1 hr 7 min 55 sec) 
Heartbeat CPU 0 instructions: 481000001 cycles: 1686701979 heartbeat IPC: 0.357802 cumulative IPC: 0.287237 (Simulation time: 1 hr 8 min 2 sec) 
Heartbeat CPU 0 instructions: 482000002 cycles: 1690657753 heartbeat IPC: 0.252795 cumulative IPC: 0.286019 (Simulation time: 1 hr 8 min 12 sec) 
Heartbeat CPU 0 instructions: 483000002 cycles: 1693293571 heartbeat IPC: 0.379389 cumulative IPC: 0.288168 (Simulation time: 1 hr 8 min 19 sec) 
Heartbeat CPU 0 instructions: 484000000 cycles: 1696911663 heartbeat IPC: 0.276388 cumulative IPC: 0.287807 (Simulation time: 1 hr 8 min 28 sec) 
Heartbeat CPU 0 instructions: 485000001 cycles: 1699699923 heartbeat IPC: 0.358647 cumulative IPC: 0.289441 (Simulation time: 1 hr 8 min 35 sec) 
Heartbeat CPU 0 instructions: 486000002 cycles: 1701731825 heartbeat IPC: 0.49215 cumulative IPC: 0.292791 (Simulation time: 1 hr 8 min 41 sec) 
Heartbeat CPU 0 instructions: 487000001 cycles: 1704689717 heartbeat IPC: 0.338078 cumulative IPC: 0.293855 (Simulation time: 1 hr 8 min 49 sec) 
Heartbeat CPU 0 instructions: 488000000 cycles: 1708733970 heartbeat IPC: 0.247264 cumulative IPC: 0.292405 (Simulation time: 1 hr 8 min 58 sec) 
Heartbeat CPU 0 instructions: 489000000 cycles: 1712126043 heartbeat IPC: 0.294805 cumulative IPC: 0.292466 (Simulation time: 1 hr 9 min 6 sec) 
Heartbeat CPU 0 instructions: 490000003 cycles: 1715280458 heartbeat IPC: 0.317017 cumulative IPC: 0.293033 (Simulation time: 1 hr 9 min 14 sec) 
Heartbeat CPU 0 instructions: 491000000 cycles: 1719583130 heartbeat IPC: 0.232413 cumulative IPC: 0.291181 (Simulation time: 1 hr 9 min 24 sec) 
Heartbeat CPU 0 instructions: 492000003 cycles: 1723033227 heartbeat IPC: 0.289848 cumulative IPC: 0.291149 (Simulation time: 1 hr 9 min 32 sec) 
Heartbeat CPU 0 instructions: 493000003 cycles: 1725668099 heartbeat IPC: 0.379525 cumulative IPC: 0.292734 (Simulation time: 1 hr 9 min 40 sec) 
Heartbeat CPU 0 instructions: 494000000 cycles: 1729542849 heartbeat IPC: 0.25808 cumulative IPC: 0.291843 (Simulation time: 1 hr 9 min 49 sec) 
Heartbeat CPU 0 instructions: 495000000 cycles: 1732393417 heartbeat IPC: 0.350807 cumulative IPC: 0.292938 (Simulation time: 1 hr 9 min 57 sec) 
Heartbeat CPU 0 instructions: 496000000 cycles: 1736353312 heartbeat IPC: 0.252532 cumulative IPC: 0.291922 (Simulation time: 1 hr 10 min 6 sec) 
Heartbeat CPU 0 instructions: 497000001 cycles: 1740221540 heartbeat IPC: 0.258517 cumulative IPC: 0.291122 (Simulation time: 1 hr 10 min 15 sec) 
Heartbeat CPU 0 instructions: 498000002 cycles: 1743452810 heartbeat IPC: 0.309476 cumulative IPC: 0.291482 (Simulation time: 1 hr 10 min 23 sec) 
Heartbeat CPU 0 instructions: 499000000 cycles: 1746314839 heartbeat IPC: 0.349402 cumulative IPC: 0.292471 (Simulation time: 1 hr 10 min 31 sec) 
Heartbeat CPU 0 instructions: 500000001 cycles: 1748858783 heartbeat IPC: 0.393091 cumulative IPC: 0.293976 (Simulation time: 1 hr 10 min 39 sec) 
Heartbeat CPU 0 instructions: 501000003 cycles: 1752131939 heartbeat IPC: 0.305516 cumulative IPC: 0.294194 (Simulation time: 1 hr 10 min 47 sec) 
Heartbeat CPU 0 instructions: 502000001 cycles: 1756121066 heartbeat IPC: 0.250681 cumulative IPC: 0.293215 (Simulation time: 1 hr 10 min 56 sec) 
Heartbeat CPU 0 instructions: 503000002 cycles: 1760315538 heartbeat IPC: 0.238409 cumulative IPC: 0.291949 (Simulation time: 1 hr 11 min 6 sec) 
Heartbeat CPU 0 instructions: 504000000 cycles: 1763112525 heartbeat IPC: 0.357527 cumulative IPC: 0.292944 (Simulation time: 1 hr 11 min 14 sec) 
Heartbeat CPU 0 instructions: 505000001 cycles: 1766832941 heartbeat IPC: 0.268787 cumulative IPC: 0.292466 (Simulation time: 1 hr 11 min 24 sec) 
Heartbeat CPU 0 instructions: 506000000 cycles: 1770107930 heartbeat IPC: 0.305344 cumulative IPC: 0.292687 (Simulation time: 1 hr 11 min 32 sec) 
Heartbeat CPU 0 instructions: 507000001 cycles: 1774198909 heartbeat IPC: 0.244441 cumulative IPC: 0.291677 (Simulation time: 1 hr 11 min 41 sec) 
Heartbeat CPU 0 instructions: 508000000 cycles: 1777118483 heartbeat IPC: 0.342515 cumulative IPC: 0.292425 (Simulation time: 1 hr 11 min 49 sec) 
Heartbeat CPU 0 instructions: 509000001 cycles: 1781043880 heartbeat IPC: 0.254752 cumulative IPC: 0.291694 (Simulation time: 1 hr 11 min 58 sec) 
Heartbeat CPU 0 instructions: 510000000 cycles: 1785240783 heartbeat IPC: 0.238271 cumulative IPC: 0.290608 (Simulation time: 1 hr 12 min 7 sec) 
Heartbeat CPU 0 instructions: 511000002 cycles: 1788299447 heartbeat IPC: 0.326941 cumulative IPC: 0.291138 (Simulation time: 1 hr 12 min 14 sec) 
Heartbeat CPU 0 instructions: 512000001 cycles: 1791587487 heartbeat IPC: 0.304132 cumulative IPC: 0.291339 (Simulation time: 1 hr 12 min 22 sec) 
Heartbeat CPU 0 instructions: 513000000 cycles: 1794428162 heartbeat IPC: 0.352029 cumulative IPC: 0.292139 (Simulation time: 1 hr 12 min 30 sec) 
Heartbeat CPU 0 instructions: 514000002 cycles: 1797914416 heartbeat IPC: 0.286841 cumulative IPC: 0.292054 (Simulation time: 1 hr 12 min 38 sec) 
Heartbeat CPU 0 instructions: 515000001 cycles: 1802026069 heartbeat IPC: 0.243211 cumulative IPC: 0.291155 (Simulation time: 1 hr 12 min 47 sec) 
Heartbeat CPU 0 instructions: 516000003 cycles: 1805923641 heartbeat IPC: 0.25657 cumulative IPC: 0.290561 (Simulation time: 1 hr 12 min 56 sec) 
Heartbeat CPU 0 instructions: 517000000 cycles: 1810680017 heartbeat IPC: 0.210243 cumulative IPC: 0.288914 (Simulation time: 1 hr 13 min 6 sec) 
Heartbeat CPU 0 instructions: 518000001 cycles: 1813308317 heartbeat IPC: 0.380474 cumulative IPC: 0.28994 (Simulation time: 1 hr 13 min 14 sec) 
Heartbeat CPU 0 instructions: 519000003 cycles: 1816586232 heartbeat IPC: 0.305073 cumulative IPC: 0.290149 (Simulation time: 1 hr 13 min 22 sec) 
Heartbeat CPU 0 instructions: 520000000 cycles: 1819528182 heartbeat IPC: 0.33991 cumulative IPC: 0.290757 (Simulation time: 1 hr 13 min 30 sec) 
Heartbeat CPU 0 instructions: 521000001 cycles: 1821932629 heartbeat IPC: 0.415896 cumulative IPC: 0.291994 (Simulation time: 1 hr 13 min 37 sec) 
Heartbeat CPU 0 instructions: 522000002 cycles: 1825400309 heartbeat IPC: 0.288378 cumulative IPC: 0.291943 (Simulation time: 1 hr 13 min 45 sec) 
Heartbeat CPU 0 instructions: 523000002 cycles: 1827496274 heartbeat IPC: 0.477107 cumulative IPC: 0.293504 (Simulation time: 1 hr 13 min 52 sec) 
Heartbeat CPU 0 instructions: 524000000 cycles: 1831030249 heartbeat IPC: 0.282967 cumulative IPC: 0.293356 (Simulation time: 1 hr 14 min 1 sec) 
Heartbeat CPU 0 instructions: 525000003 cycles: 1834761548 heartbeat IPC: 0.268004 cumulative IPC: 0.292987 (Simulation time: 1 hr 14 min 10 sec) 
Heartbeat CPU 0 instructions: 526000002 cycles: 1838043006 heartbeat IPC: 0.304742 cumulative IPC: 0.293135 (Simulation time: 1 hr 14 min 18 sec) 
Heartbeat CPU 0 instructions: 527000003 cycles: 1840858044 heartbeat IPC: 0.355235 cumulative IPC: 0.293802 (Simulation time: 1 hr 14 min 26 sec) 
Heartbeat CPU 0 instructions: 528000000 cycles: 1843696341 heartbeat IPC: 0.352323 cumulative IPC: 0.294429 (Simulation time: 1 hr 14 min 34 sec) 
Heartbeat CPU 0 instructions: 529000001 cycles: 1847072996 heartbeat IPC: 0.296151 cumulative IPC: 0.294451 (Simulation time: 1 hr 14 min 42 sec) 
Heartbeat CPU 0 instructions: 530000001 cycles: 1849962363 heartbeat IPC: 0.346097 cumulative IPC: 0.295001 (Simulation time: 1 hr 14 min 50 sec) 
Heartbeat CPU 0 instructions: 531000002 cycles: 1853386372 heartbeat IPC: 0.292056 cumulative IPC: 0.294965 (Simulation time: 1 hr 14 min 59 sec) 
Heartbeat CPU 0 instructions: 532000001 cycles: 1856070061 heartbeat IPC: 0.372621 cumulative IPC: 0.295716 (Simulation time: 1 hr 15 min 6 sec) 
Heartbeat CPU 0 instructions: 533000003 cycles: 1858957685 heartbeat IPC: 0.346306 cumulative IPC: 0.296237 (Simulation time: 1 hr 15 min 14 sec) 
Heartbeat CPU 0 instructions: 534000001 cycles: 1862126410 heartbeat IPC: 0.315584 cumulative IPC: 0.296454 (Simulation time: 1 hr 15 min 22 sec) 
Heartbeat CPU 0 instructions: 535000001 cycles: 1864956061 heartbeat IPC: 0.3534 cumulative IPC: 0.297017 (Simulation time: 1 hr 15 min 30 sec) 
Heartbeat CPU 0 instructions: 536000002 cycles: 1868859482 heartbeat IPC: 0.256186 cumulative IPC: 0.296467 (Simulation time: 1 hr 15 min 39 sec) 
Heartbeat CPU 0 instructions: 537000002 cycles: 1871535838 heartbeat IPC: 0.373642 cumulative IPC: 0.297173 (Simulation time: 1 hr 15 min 47 sec) 
Heartbeat CPU 0 instructions: 538000001 cycles: 1875308615 heartbeat IPC: 0.265056 cumulative IPC: 0.296764 (Simulation time: 1 hr 15 min 56 sec) 
Heartbeat CPU 0 instructions: 539000000 cycles: 1879686468 heartbeat IPC: 0.228422 cumulative IPC: 0.29577 (Simulation time: 1 hr 16 min 6 sec) 
Heartbeat CPU 0 instructions: 540000003 cycles: 1882626416 heartbeat IPC: 0.340143 cumulative IPC: 0.296199 (Simulation time: 1 hr 16 min 14 sec) 
Heartbeat CPU 0 instructions: 541000001 cycles: 1885779338 heartbeat IPC: 0.317165 cumulative IPC: 0.296415 (Simulation time: 1 hr 16 min 22 sec) 
Heartbeat CPU 0 instructions: 542000003 cycles: 1888779193 heartbeat IPC: 0.33335 cumulative IPC: 0.296772 (Simulation time: 1 hr 16 min 30 sec) 
Heartbeat CPU 0 instructions: 543000000 cycles: 1892275197 heartbeat IPC: 0.28604 cumulative IPC: 0.296652 (Simulation time: 1 hr 16 min 39 sec) 
Heartbeat CPU 0 instructions: 544000000 cycles: 1895117015 heartbeat IPC: 0.351887 cumulative IPC: 0.297149 (Simulation time: 1 hr 16 min 46 sec) 
Heartbeat CPU 0 instructions: 545000001 cycles: 1898436959 heartbeat IPC: 0.30121 cumulative IPC: 0.297191 (Simulation time: 1 hr 16 min 55 sec) 
[...]
Heartbeat CPU 0 instructions: 835000000 cycles: 2878652540 heartbeat IPC: 0.267774 cumulative IPC: 0.296182 (Simulation time: 1 hr 57 min 23 sec) 
Heartbeat CPU 0 instructions: 836000000 cycles: 2882581057 heartbeat IPC: 0.254549 cumulative IPC: 0.296057 (Simulation time: 1 hr 57 min 31 sec) 
Heartbeat CPU 0 instructions: 837000000 cycles: 2885120219 heartbeat IPC: 0.393831 cumulative IPC: 0.296247 (Simulation time: 1 hr 57 min 39 sec) 
Heartbeat CPU 0 instructions: 838000000 cycles: 2889064110 heartbeat IPC: 0.253557 cumulative IPC: 0.296118 (Simulation time: 1 hr 57 min 49 sec) 
Heartbeat CPU 0 instructions: 839000001 cycles: 2893431928 heartbeat IPC: 0.228947 cumulative IPC: 0.295895 (Simulation time: 1 hr 57 min 59 sec) 
Heartbeat CPU 0 instructions: 840000000 cycles: 2896451074 heartbeat IPC: 0.331219 cumulative IPC: 0.295976 (Simulation time: 1 hr 58 min 7 sec) 
Heartbeat CPU 0 instructions: 841000000 cycles: 2899877083 heartbeat IPC: 0.291885 cumulative IPC: 0.295965 (Simulation time: 1 hr 58 min 15 sec) 
Heartbeat CPU 0 instructions: 842000003 cycles: 2903707728 heartbeat IPC: 0.261053 cumulative IPC: 0.295865 (Simulation time: 1 hr 58 min 24 sec) 
Heartbeat CPU 0 instructions: 843000000 cycles: 2907429221 heartbeat IPC: 0.268709 cumulative IPC: 0.295788 (Simulation time: 1 hr 58 min 33 sec) 
Heartbeat CPU 0 instructions: 844000000 cycles: 2910527511 heartbeat IPC: 0.322759 cumulative IPC: 0.295851 (Simulation time: 1 hr 58 min 41 sec) 
Heartbeat CPU 0 instructions: 845000001 cycles: 2913090138 heartbeat IPC: 0.390225 cumulative IPC: 0.296032 (Simulation time: 1 hr 58 min 49 sec) 
Heartbeat CPU 0 instructions: 846000000 cycles: 2916874551 heartbeat IPC: 0.264242 cumulative IPC: 0.295943 (Simulation time: 1 hr 58 min 58 sec) 
Heartbeat CPU 0 instructions: 847000000 cycles: 2920855426 heartbeat IPC: 0.251201 cumulative IPC: 0.29581 (Simulation time: 1 hr 59 min 7 sec) 
Heartbeat CPU 0 instructions: 848000000 cycles: 2924479887 heartbeat IPC: 0.275903 cumulative IPC: 0.295756 (Simulation time: 1 hr 59 min 16 sec) 
Heartbeat CPU 0 instructions: 849000002 cycles: 2928137443 heartbeat IPC: 0.273407 cumulative IPC: 0.295696 (Simulation time: 1 hr 59 min 25 sec) 
Heartbeat CPU 0 instructions: 850000001 cycles: 2931282627 heartbeat IPC: 0.317946 cumulative IPC: 0.295747 (Simulation time: 1 hr 59 min 33 sec) 
Heartbeat CPU 0 instructions: 851000001 cycles: 2934717024 heartbeat IPC: 0.291172 cumulative IPC: 0.295736 (Simulation time: 1 hr 59 min 41 sec) 
Heartbeat CPU 0 instructions: 852000001 cycles: 2937291976 heartbeat IPC: 0.388357 cumulative IPC: 0.295911 (Simulation time: 1 hr 59 min 49 sec) 
Heartbeat CPU 0 instructions: 853000001 cycles: 2940238964 heartbeat IPC: 0.33933 cumulative IPC: 0.296005 (Simulation time: 1 hr 59 min 57 sec) 
Heartbeat CPU 0 instructions: 854000001 cycles: 2943301161 heartbeat IPC: 0.326563 cumulative IPC: 0.296074 (Simulation time: 2 hr 0 min 5 sec) 
Heartbeat CPU 0 instructions: 855000002 cycles: 2947319386 heartbeat IPC: 0.248866 cumulative IPC: 0.295935 (Simulation time: 2 hr 0 min 14 sec) 
Heartbeat CPU 0 instructions: 856000001 cycles: 2951628945 heartbeat IPC: 0.232042 cumulative IPC: 0.295735 (Simulation time: 2 hr 0 min 24 sec) 
Heartbeat CPU 0 instructions: 857000000 cycles: 2954352129 heartbeat IPC: 0.367217 cumulative IPC: 0.295876 (Simulation time: 2 hr 0 min 32 sec) 
Heartbeat CPU 0 instructions: 858000000 cycles: 2958032351 heartbeat IPC: 0.271723 cumulative IPC: 0.295812 (Simulation time: 2 hr 0 min 42 sec) 
Heartbeat CPU 0 instructions: 859000002 cycles: 2961582142 heartbeat IPC: 0.281707 cumulative IPC: 0.295776 (Simulation time: 2 hr 0 min 51 sec) 
Heartbeat CPU 0 instructions: 860000000 cycles: 2965707321 heartbeat IPC: 0.242413 cumulative IPC: 0.295617 (Simulation time: 2 hr 0 min 59 sec) 
Heartbeat CPU 0 instructions: 861000000 cycles: 2969280370 heartbeat IPC: 0.279873 cumulative IPC: 0.295576 (Simulation time: 2 hr 1 min 8 sec) 
Heartbeat CPU 0 instructions: 862000000 cycles: 2973315880 heartbeat IPC: 0.2478 cumulative IPC: 0.295438 (Simulation time: 2 hr 1 min 16 sec) 
Heartbeat CPU 0 instructions: 863000000 cycles: 2975904199 heartbeat IPC: 0.386351 cumulative IPC: 0.295607 (Simulation time: 2 hr 1 min 24 sec) 
Heartbeat CPU 0 instructions: 864000003 cycles: 2980124161 heartbeat IPC: 0.23697 cumulative IPC: 0.29543 (Simulation time: 2 hr 1 min 34 sec) 
Heartbeat CPU 0 instructions: 865000002 cycles: 2984934990 heartbeat IPC: 0.207864 cumulative IPC: 0.29513 (Simulation time: 2 hr 1 min 45 sec) 
Heartbeat CPU 0 instructions: 866000000 cycles: 2988065486 heartbeat IPC: 0.319438 cumulative IPC: 0.295184 (Simulation time: 2 hr 1 min 53 sec) 
Heartbeat CPU 0 instructions: 867000002 cycles: 2992200164 heartbeat IPC: 0.241857 cumulative IPC: 0.295028 (Simulation time: 2 hr 2 min 3 sec) 
Heartbeat CPU 0 instructions: 868000000 cycles: 2996254414 heartbeat IPC: 0.246654 cumulative IPC: 0.29489 (Simulation time: 2 hr 2 min 12 sec) 
Heartbeat CPU 0 instructions: 869000000 cycles: 2999529635 heartbeat IPC: 0.305323 cumulative IPC: 0.294914 (Simulation time: 2 hr 2 min 21 sec) 
Heartbeat CPU 0 instructions: 870000003 cycles: 3002258316 heartbeat IPC: 0.366479 cumulative IPC: 0.295051 (Simulation time: 2 hr 2 min 29 sec) 
Heartbeat CPU 0 instructions: 871000001 cycles: 3006323906 heartbeat IPC: 0.245966 cumulative IPC: 0.294912 (Simulation time: 2 hr 2 min 38 sec) 
Heartbeat CPU 0 instructions: 872000003 cycles: 3010768707 heartbeat IPC: 0.224982 cumulative IPC: 0.294694 (Simulation time: 2 hr 2 min 48 sec) 
Heartbeat CPU 0 instructions: 873000002 cycles: 3014804802 heartbeat IPC: 0.247764 cumulative IPC: 0.294563 (Simulation time: 2 hr 2 min 58 sec) 
Heartbeat CPU 0 instructions: 874000000 cycles: 3018326747 heartbeat IPC: 0.283933 cumulative IPC: 0.294537 (Simulation time: 2 hr 3 min 7 sec) 
Heartbeat CPU 0 instructions: 875000000 cycles: 3021543971 heartbeat IPC: 0.310827 cumulative IPC: 0.294573 (Simulation time: 2 hr 3 min 15 sec) 
Heartbeat CPU 0 instructions: 876000000 cycles: 3025142873 heartbeat IPC: 0.277863 cumulative IPC: 0.294531 (Simulation time: 2 hr 3 min 23 sec) 
Heartbeat CPU 0 instructions: 877000001 cycles: 3029136719 heartbeat IPC: 0.250385 cumulative IPC: 0.29441 (Simulation time: 2 hr 3 min 32 sec) 
Heartbeat CPU 0 instructions: 878000002 cycles: 3033306502 heartbeat IPC: 0.239821 cumulative IPC: 0.294253 (Simulation time: 2 hr 3 min 41 sec) 
Heartbeat CPU 0 instructions: 879000002 cycles: 3037057032 heartbeat IPC: 0.266629 cumulative IPC: 0.294182 (Simulation time: 2 hr 3 min 50 sec) 
Heartbeat CPU 0 instructions: 880000000 cycles: 3039799693 heartbeat IPC: 0.364609 cumulative IPC: 0.294314 (Simulation time: 2 hr 3 min 57 sec) 
Heartbeat CPU 0 instructions: 881000000 cycles: 3044314056 heartbeat IPC: 0.221515 cumulative IPC: 0.29409 (Simulation time: 2 hr 4 min 6 sec) 
Heartbeat CPU 0 instructions: 882000000 cycles: 3048703296 heartbeat IPC: 0.22783 cumulative IPC: 0.293892 (Simulation time: 2 hr 4 min 15 sec) 
Heartbeat CPU 0 instructions: 883000003 cycles: 3051316898 heartbeat IPC: 0.382615 cumulative IPC: 0.29405 (Simulation time: 2 hr 4 min 22 sec) 
Heartbeat CPU 0 instructions: 884000002 cycles: 3055061450 heartbeat IPC: 0.267054 cumulative IPC: 0.293981 (Simulation time: 2 hr 4 min 31 sec) 
Heartbeat CPU 0 instructions: 885000000 cycles: 3059311769 heartbeat IPC: 0.235276 cumulative IPC: 0.293813 (Simulation time: 2 hr 4 min 40 sec) 
Heartbeat CPU 0 instructions: 886000001 cycles: 3062553882 heartbeat IPC: 0.308441 cumulative IPC: 0.293845 (Simulation time: 2 hr 4 min 49 sec) 
Heartbeat CPU 0 instructions: 887000000 cycles: 3065243883 heartbeat IPC: 0.371747 cumulative IPC: 0.293986 (Simulation time: 2 hr 4 min 58 sec) 
Heartbeat CPU 0 instructions: 888000000 cycles: 3069391606 heartbeat IPC: 0.241096 cumulative IPC: 0.293839 (Simulation time: 2 hr 5 min 7 sec) 
Heartbeat CPU 0 instructions: 889000001 cycles: 3073686861 heartbeat IPC: 0.232815 cumulative IPC: 0.293663 (Simulation time: 2 hr 5 min 17 sec) 
Heartbeat CPU 0 instructions: 890000000 cycles: 3077819220 heartbeat IPC: 0.241992 cumulative IPC: 0.293521 (Simulation time: 2 hr 5 min 27 sec) 
Heartbeat CPU 0 instructions: 891000000 cycles: 3081400737 heartbeat IPC: 0.279211 cumulative IPC: 0.293487 (Simulation time: 2 hr 5 min 36 sec) 
Heartbeat CPU 0 instructions: 892000001 cycles: 3084509367 heartbeat IPC: 0.321685 cumulative IPC: 0.293545 (Simulation time: 2 hr 5 min 44 sec) 
Heartbeat CPU 0 instructions: 893000002 cycles: 3086757518 heartbeat IPC: 0.44481 cumulative IPC: 0.29377 (Simulation time: 2 hr 5 min 51 sec) 
Heartbeat CPU 0 instructions: 894000000 cycles: 3088815717 heartbeat IPC: 0.485861 cumulative IPC: 0.294032 (Simulation time: 2 hr 5 min 57 sec) 
Heartbeat CPU 0 instructions: 895000000 cycles: 3092866208 heartbeat IPC: 0.246884 cumulative IPC: 0.293906 (Simulation time: 2 hr 6 min 6 sec) 
Heartbeat CPU 0 instructions: 896000002 cycles: 3097225618 heartbeat IPC: 0.229389 cumulative IPC: 0.293721 (Simulation time: 2 hr 6 min 16 sec) 
Heartbeat CPU 0 instructions: 897000001 cycles: 3101072244 heartbeat IPC: 0.259968 cumulative IPC: 0.293636 (Simulation time: 2 hr 6 min 25 sec) 
Heartbeat CPU 0 instructions: 898000001 cycles: 3105160528 heartbeat IPC: 0.244601 cumulative IPC: 0.293504 (Simulation time: 2 hr 6 min 34 sec) 
Heartbeat CPU 0 instructions: 899000003 cycles: 3108779847 heartbeat IPC: 0.276296 cumulative IPC: 0.293464 (Simulation time: 2 hr 6 min 43 sec) 
Heartbeat CPU 0 instructions: 900000001 cycles: 3111415365 heartbeat IPC: 0.379431 cumulative IPC: 0.293611 (Simulation time: 2 hr 6 min 51 sec) 
Heartbeat CPU 0 instructions: 901000000 cycles: 3115656747 heartbeat IPC: 0.235772 cumulative IPC: 0.293452 (Simulation time: 2 hr 7 min 0 sec) 
Heartbeat CPU 0 instructions: 902000000 cycles: 3120287734 heartbeat IPC: 0.215937 cumulative IPC: 0.293219 (Simulation time: 2 hr 7 min 10 sec) 
Heartbeat CPU 0 instructions: 903000003 cycles: 3124772086 heartbeat IPC: 0.222998 cumulative IPC: 0.293015 (Simulation time: 2 hr 7 min 20 sec) 
Heartbeat CPU 0 instructions: 904000001 cycles: 3128623226 heartbeat IPC: 0.259663 cumulative IPC: 0.292932 (Simulation time: 2 hr 7 min 30 sec) 
Heartbeat CPU 0 instructions: 905000002 cycles: 3131765976 heartbeat IPC: 0.318193 cumulative IPC: 0.292983 (Simulation time: 2 hr 7 min 38 sec) 
Heartbeat CPU 0 instructions: 906000002 cycles: 3135139542 heartbeat IPC: 0.296422 cumulative IPC: 0.292991 (Simulation time: 2 hr 7 min 46 sec) 
Heartbeat CPU 0 instructions: 907000002 cycles: 3137803855 heartbeat IPC: 0.375331 cumulative IPC: 0.293132 (Simulation time: 2 hr 7 min 54 sec) 
Heartbeat CPU 0 instructions: 908000003 cycles: 3140956840 heartbeat IPC: 0.31716 cumulative IPC: 0.29318 (Simulation time: 2 hr 8 min 2 sec) 
Heartbeat CPU 0 instructions: 909000002 cycles: 3143508343 heartbeat IPC: 0.391925 cumulative IPC: 0.293341 (Simulation time: 2 hr 8 min 10 sec) 
Heartbeat CPU 0 instructions: 910000002 cycles: 3146993991 heartbeat IPC: 0.286891 cumulative IPC: 0.293327 (Simulation time: 2 hr 8 min 18 sec) 
Heartbeat CPU 0 instructions: 911000000 cycles: 3151120982 heartbeat IPC: 0.242307 cumulative IPC: 0.293193 (Simulation time: 2 hr 8 min 28 sec) 
Heartbeat CPU 0 instructions: 912000003 cycles: 3154768353 heartbeat IPC: 0.274171 cumulative IPC: 0.293149 (Simulation time: 2 hr 8 min 37 sec) 
Heartbeat CPU 0 instructions: 913000000 cycles: 3158454037 heartbeat IPC: 0.271319 cumulative IPC: 0.293098 (Simulation time: 2 hr 8 min 46 sec) 
Heartbeat CPU 0 instructions: 914000001 cycles: 3161951151 heartbeat IPC: 0.28595 cumulative IPC: 0.293082 (Simulation time: 2 hr 8 min 55 sec) 
Heartbeat CPU 0 instructions: 915000002 cycles: 3165262787 heartbeat IPC: 0.301966 cumulative IPC: 0.293101 (Simulation time: 2 hr 9 min 3 sec) 
Heartbeat CPU 0 instructions: 916000002 cycles: 3170754511 heartbeat IPC: 0.182092 cumulative IPC: 0.292718 (Simulation time: 2 hr 9 min 14 sec) 
Heartbeat CPU 0 instructions: 917000000 cycles: 3173450943 heartbeat IPC: 0.37086 cumulative IPC: 0.29285 (Simulation time: 2 hr 9 min 22 sec) 
Heartbeat CPU 0 instructions: 918000002 cycles: 3176207603 heartbeat IPC: 0.362759 cumulative IPC: 0.29297 (Simulation time: 2 hr 9 min 29 sec) 
Heartbeat CPU 0 instructions: 919000003 cycles: 3179297762 heartbeat IPC: 0.323608 cumulative IPC: 0.29303 (Simulation time: 2 hr 9 min 37 sec) 
Heartbeat CPU 0 instructions: 920000001 cycles: 3182633106 heartbeat IPC: 0.299819 cumulative IPC: 0.293044 (Simulation time: 2 hr 9 min 46 sec) 
Heartbeat CPU 0 instructions: 921000002 cycles: 3186012465 heartbeat IPC: 0.295914 cumulative IPC: 0.29305 (Simulation time: 2 hr 9 min 54 sec) 
Heartbeat CPU 0 instructions: 922000001 cycles: 3189180469 heartbeat IPC: 0.315656 cumulative IPC: 0.293094 (Simulation time: 2 hr 10 min 3 sec) 
Heartbeat CPU 0 instructions: 923000001 cycles: 3192415385 heartbeat IPC: 0.309127 cumulative IPC: 0.293126 (Simulation time: 2 hr 10 min 11 sec) 
Heartbeat CPU 0 instructions: 924000000 cycles: 3195600576 heartbeat IPC: 0.313953 cumulative IPC: 0.293167 (Simulation time: 2 hr 10 min 19 sec) 
Heartbeat CPU 0 instructions: 925000001 cycles: 3198649255 heartbeat IPC: 0.328011 cumulative IPC: 0.293233 (Simulation time: 2 hr 10 min 27 sec) 
Heartbeat CPU 0 instructions: 926000000 cycles: 3201741144 heartbeat IPC: 0.323427 cumulative IPC: 0.293291 (Simulation time: 2 hr 10 min 35 sec) 
Heartbeat CPU 0 instructions: 927000002 cycles: 3204588597 heartbeat IPC: 0.351192 cumulative IPC: 0.293392 (Simulation time: 2 hr 10 min 43 sec) 
Heartbeat CPU 0 instructions: 928000002 cycles: 3207265014 heartbeat IPC: 0.373634 cumulative IPC: 0.293524 (Simulation time: 2 hr 10 min 51 sec) 
Heartbeat CPU 0 instructions: 929000000 cycles: 3210034462 heartbeat IPC: 0.361082 cumulative IPC: 0.293639 (Simulation time: 2 hr 10 min 59 sec) 
Heartbeat CPU 0 instructions: 930000001 cycles: 3212601222 heartbeat IPC: 0.389597 cumulative IPC: 0.293789 (Simulation time: 2 hr 11 min 6 sec) 
Heartbeat CPU 0 instructions: 931000002 cycles: 3215583304 heartbeat IPC: 0.335337 cumulative IPC: 0.293865 (Simulation time: 2 hr 11 min 14 sec) 
Heartbeat CPU 0 instructions: 932000001 cycles: 3218065401 heartbeat IPC: 0.402885 cumulative IPC: 0.29403 (Simulation time: 2 hr 11 min 22 sec) 
Heartbeat CPU 0 instructions: 933000003 cycles: 3221936243 heartbeat IPC: 0.258342 cumulative IPC: 0.293946 (Simulation time: 2 hr 11 min 31 sec) 
Heartbeat CPU 0 instructions: 934000000 cycles: 3224949121 heartbeat IPC: 0.331908 cumulative IPC: 0.294015 (Simulation time: 2 hr 11 min 39 sec) 
Heartbeat CPU 0 instructions: 935000000 cycles: 3227628752 heartbeat IPC: 0.373186 cumulative IPC: 0.294144 (Simulation time: 2 hr 11 min 47 sec) 
Heartbeat CPU 0 instructions: 936000001 cycles: 3230441230 heartbeat IPC: 0.355559 cumulative IPC: 0.294249 (Simulation time: 2 hr 11 min 55 sec) 
Heartbeat CPU 0 instructions: 937000002 cycles: 3234054913 heartbeat IPC: 0.276726 cumulative IPC: 0.29421 (Simulation time: 2 hr 12 min 4 sec) 
Heartbeat CPU 0 instructions: 938000002 cycles: 3237427529 heartbeat IPC: 0.296506 cumulative IPC: 0.294215 (Simulation time: 2 hr 12 min 12 sec) 
Heartbeat CPU 0 instructions: 939000000 cycles: 3240357814 heartbeat IPC: 0.341263 cumulative IPC: 0.294298 (Simulation time: 2 hr 12 min 20 sec) 
Heartbeat CPU 0 instructions: 940000000 cycles: 3244622361 heartbeat IPC: 0.234491 cumulative IPC: 0.294145 (Simulation time: 2 hr 12 min 30 sec) 
Heartbeat CPU 0 instructions: 941000003 cycles: 3248382665 heartbeat IPC: 0.265937 cumulative IPC: 0.294081 (Simulation time: 2 hr 12 min 39 sec) 
Heartbeat CPU 0 instructions: 942000000 cycles: 3252006350 heartbeat IPC: 0.275961 cumulative IPC: 0.294042 (Simulation time: 2 hr 12 min 48 sec) 
Heartbeat CPU 0 instructions: 943000001 cycles: 3255493353 heartbeat IPC: 0.286779 cumulative IPC: 0.294027 (Simulation time: 2 hr 12 min 56 sec) 
Heartbeat CPU 0 instructions: 944000000 cycles: 3257983338 heartbeat IPC: 0.401608 cumulative IPC: 0.294187 (Simulation time: 2 hr 13 min 4 sec) 
Heartbeat CPU 0 instructions: 945000001 cycles: 3261885645 heartbeat IPC: 0.256259 cumulative IPC: 0.294099 (Simulation time: 2 hr 13 min 13 sec) 
Heartbeat CPU 0 instructions: 946000000 cycles: 3266061298 heartbeat IPC: 0.239483 cumulative IPC: 0.293964 (Simulation time: 2 hr 13 min 23 sec) 
Heartbeat CPU 0 instructions: 947000003 cycles: 3269396397 heartbeat IPC: 0.299842 cumulative IPC: 0.293975 (Simulation time: 2 hr 13 min 32 sec) 
Heartbeat CPU 0 instructions: 948000000 cycles: 3272130453 heartbeat IPC: 0.365756 cumulative IPC: 0.294091 (Simulation time: 2 hr 13 min 39 sec) 
Heartbeat CPU 0 instructions: 949000001 cycles: 3275373889 heartbeat IPC: 0.308315 cumulative IPC: 0.294118 (Simulation time: 2 hr 13 min 47 sec) 
Heartbeat CPU 0 instructions: 950000001 cycles: 3278102044 heartbeat IPC: 0.366548 cumulative IPC: 0.294234 (Simulation time: 2 hr 13 min 55 sec) 
Finished CPU 0 instructions: 500000001 cycles: 1699324961 cumulative IPC: 0.294234 (Simulation time: 2 hr 13 min 55 sec) 

ChampSim completed all CPUs

Region of Interest Statistics

CPU 0 cumulative IPC: 0.294234 instructions: 500000001 cycles: 1699324961
L1D TOTAL     ACCESS:  175242768  HIT:  162673561  MISS:   12569207
L1D LOAD      ACCESS:   97492933  HIT:   86457411  MISS:   11035522
L1D RFO       ACCESS:   77749835  HIT:   76216150  MISS:    1533685
L1D PREFETCH  ACCESS:          0  HIT:          0  MISS:          0
L1D WRITEBACK ACCESS:          0  HIT:          0  MISS:          0
L1D PREFETCH  REQUESTED:          0  ISSUED:          0  USEFUL:          0  USELESS:          0
L1D AVERAGE MISS LATENCY: 178.786 cycles
L1I TOTAL     ACCESS:  105159040  HIT:  105145938  MISS:      13102
L1I LOAD      ACCESS:  105159040  HIT:  105145938  MISS:      13102
L1I RFO       ACCESS:          0  HIT:          0  MISS:          0
L1I PREFETCH  ACCESS:          0  HIT:          0  MISS:          0
L1I WRITEBACK ACCESS:          0  HIT:          0  MISS:          0
L1I PREFETCH  REQUESTED:          0  ISSUED:          0  USEFUL:          0  USELESS:          0
L1I AVERAGE MISS LATENCY: 55.7354 cycles
L2C TOTAL     ACCESS:   17958388  HIT:    7103783  MISS:   10854605
L2C LOAD      ACCESS:   11047768  HIT:    1643225  MISS:    9404543
L2C RFO       ACCESS:    1533654  HIT:      95718  MISS:    1437936
L2C PREFETCH  ACCESS:          0  HIT:          0  MISS:          0
L2C WRITEBACK ACCESS:    5376966  HIT:    5364840  MISS:      12126
L2C PREFETCH  REQUESTED:          0  ISSUED:          0  USEFUL:          0  USELESS:          0
L2C AVERAGE MISS LATENCY: 186.198 cycles
LLC TOTAL     ACCESS:   21116392  HIT:    8386319  MISS:   12730073
LLC LOAD      ACCESS:    9404536  HIT:    2679654  MISS:    6724882
LLC RFO       ACCESS:    1437936  HIT:     285967  MISS:    1151969
LLC PREFETCH  ACCESS:    5592769  HIT:     768854  MISS:    4823915
LLC WRITEBACK ACCESS:    4681151  HIT:    4651844  MISS:      29307
LLC PREFETCH  REQUESTED:    6026406  ISSUED:    6023493  USEFUL:    1335204  USELESS:    3479445
LLC AVERAGE MISS LATENCY: 208.682 cycles
Major fault: 0 Minor fault: 36358

DRAM Statistics
 CHANNEL 0
 RQ ROW_BUFFER_HIT:    2215151  ROW_BUFFER_MISS:    4147916
 DBUS_CONGESTED:    6996909
 WQ ROW_BUFFER_HIT:     869280  ROW_BUFFER_MISS:    1141259  FULL:          0

 CHANNEL 1
 RQ ROW_BUFFER_HIT:    2211258  ROW_BUFFER_MISS:    4126327
 DBUS_CONGESTED:    6996909
 WQ ROW_BUFFER_HIT:     861928  ROW_BUFFER_MISS:    1144698  FULL:          0

 AVG_CONGESTED_CYCLE: 16

CPU 0 Branch Prediction Accuracy: 98.4343% MPKI: 3.76231 Average ROB Occupancy at Mispredict: 100.423

Branch types
NOT_BRANCH: 379852179 75.9704%
BRANCH_DIRECT_JUMP: 8777463 1.75549%
BRANCH_INDIRECT: 1706905 0.341381%
BRANCH_CONDITIONAL: 81114942 16.223%
BRANCH_DIRECT_CALL: 12087033 2.41741%
BRANCH_INDIRECT_CALL: 2187376 0.437475%
BRANCH_RETURN: 14274407 2.85488%
BRANCH_OTHER: 0 0%


gzip: stdout: Broken pipe
