
*** ChampSim Multicore Out-of-Order Simulator ***

Warmup Instructions: 1000000
Prefetch Warmup Instructions: 450000000
Simulation Instructions: 500000000
Stat Printing Period: 1000000
Number of CPUs: 1
LLC sets: 2048
LLC ways: 16
Off-chip DRAM Size: 32768 MB Channels: 2 Width: 64-bit Data Rate: 1024 MT/s

CPU 0 runs /scratch/cluster/cmolder/ML-DPC/ChampSimTraces/spec06/473.astar-s2.trace.gz
Read seed: 851
Heartbeat CPU 0 instructions: 1000003 cycles: 545860 heartbeat IPC: 1.83198 cumulative IPC: 1.83198 (Simulation time: 0 hr 0 min 6 sec) 

Warmup complete CPU 0 instructions: 1000003 cycles: 545860 (Simulation time: 0 hr 0 min 6 sec) 

Heartbeat CPU 0 instructions: 2000000 cycles: 10212225 heartbeat IPC: 0.103451 cumulative IPC: 0.103451 (Simulation time: 0 hr 0 min 17 sec) 
Heartbeat CPU 0 instructions: 3000000 cycles: 18260683 heartbeat IPC: 0.124247 cumulative IPC: 0.1129 (Simulation time: 0 hr 0 min 25 sec) 
Heartbeat CPU 0 instructions: 4000000 cycles: 26632389 heartbeat IPC: 0.11945 cumulative IPC: 0.115002 (Simulation time: 0 hr 0 min 33 sec) 
Heartbeat CPU 0 instructions: 5000000 cycles: 35171025 heartbeat IPC: 0.117115 cumulative IPC: 0.115523 (Simulation time: 0 hr 0 min 40 sec) 
Heartbeat CPU 0 instructions: 6000002 cycles: 45046035 heartbeat IPC: 0.101266 cumulative IPC: 0.112359 (Simulation time: 0 hr 0 min 50 sec) 
Heartbeat CPU 0 instructions: 7000001 cycles: 55421241 heartbeat IPC: 0.0963835 cumulative IPC: 0.109339 (Simulation time: 0 hr 1 min 1 sec) 
Heartbeat CPU 0 instructions: 8000002 cycles: 66315032 heartbeat IPC: 0.0917955 cumulative IPC: 0.106433 (Simulation time: 0 hr 1 min 13 sec) 
Heartbeat CPU 0 instructions: 9000000 cycles: 76353131 heartbeat IPC: 0.0996203 cumulative IPC: 0.105531 (Simulation time: 0 hr 1 min 25 sec) 
Heartbeat CPU 0 instructions: 10000003 cycles: 84497190 heartbeat IPC: 0.122789 cumulative IPC: 0.107205 (Simulation time: 0 hr 1 min 33 sec) 
Heartbeat CPU 0 instructions: 11000000 cycles: 92719899 heartbeat IPC: 0.121614 cumulative IPC: 0.10849 (Simulation time: 0 hr 1 min 41 sec) 
Heartbeat CPU 0 instructions: 12000003 cycles: 101235802 heartbeat IPC: 0.117428 cumulative IPC: 0.109246 (Simulation time: 0 hr 1 min 49 sec) 
Heartbeat CPU 0 instructions: 13000000 cycles: 110936650 heartbeat IPC: 0.103083 cumulative IPC: 0.108705 (Simulation time: 0 hr 1 min 59 sec) 
Heartbeat CPU 0 instructions: 14000000 cycles: 119176065 heartbeat IPC: 0.121368 cumulative IPC: 0.109584 (Simulation time: 0 hr 2 min 6 sec) 
Heartbeat CPU 0 instructions: 15000002 cycles: 127391964 heartbeat IPC: 0.121715 cumulative IPC: 0.11037 (Simulation time: 0 hr 2 min 15 sec) 
Heartbeat CPU 0 instructions: 16000000 cycles: 135226448 heartbeat IPC: 0.127641 cumulative IPC: 0.111375 (Simulation time: 0 hr 2 min 22 sec) 
Heartbeat CPU 0 instructions: 17000002 cycles: 143028475 heartbeat IPC: 0.128172 cumulative IPC: 0.112294 (Simulation time: 0 hr 2 min 30 sec) 
Heartbeat CPU 0 instructions: 18000001 cycles: 152760846 heartbeat IPC: 0.10275 cumulative IPC: 0.111684 (Simulation time: 0 hr 2 min 40 sec) 
Heartbeat CPU 0 instructions: 19000000 cycles: 160573939 heartbeat IPC: 0.12799 cumulative IPC: 0.11248 (Simulation time: 0 hr 2 min 48 sec) 
Heartbeat CPU 0 instructions: 20000003 cycles: 168886803 heartbeat IPC: 0.120296 cumulative IPC: 0.112866 (Simulation time: 0 hr 2 min 56 sec) 
Heartbeat CPU 0 instructions: 21000000 cycles: 178748003 heartbeat IPC: 0.101407 cumulative IPC: 0.112232 (Simulation time: 0 hr 3 min 4 sec) 
Heartbeat CPU 0 instructions: 22000000 cycles: 187203307 heartbeat IPC: 0.118269 cumulative IPC: 0.112506 (Simulation time: 0 hr 3 min 14 sec) 
Heartbeat CPU 0 instructions: 23000002 cycles: 194987896 heartbeat IPC: 0.128459 cumulative IPC: 0.113144 (Simulation time: 0 hr 3 min 22 sec) 
Heartbeat CPU 0 instructions: 24000002 cycles: 203326718 heartbeat IPC: 0.119921 cumulative IPC: 0.113423 (Simulation time: 0 hr 3 min 30 sec) 
Heartbeat CPU 0 instructions: 25000002 cycles: 212410431 heartbeat IPC: 0.110087 cumulative IPC: 0.11328 (Simulation time: 0 hr 3 min 40 sec) 
Heartbeat CPU 0 instructions: 26000001 cycles: 220777190 heartbeat IPC: 0.11952 cumulative IPC: 0.113517 (Simulation time: 0 hr 3 min 48 sec) 
Heartbeat CPU 0 instructions: 27000000 cycles: 231062919 heartbeat IPC: 0.097222 cumulative IPC: 0.11279 (Simulation time: 0 hr 3 min 59 sec) 
Heartbeat CPU 0 instructions: 28000000 cycles: 239021197 heartbeat IPC: 0.125655 cumulative IPC: 0.113219 (Simulation time: 0 hr 4 min 7 sec) 
Heartbeat CPU 0 instructions: 29000001 cycles: 248591616 heartbeat IPC: 0.104489 cumulative IPC: 0.112882 (Simulation time: 0 hr 4 min 17 sec) 
Heartbeat CPU 0 instructions: 30000000 cycles: 256278539 heartbeat IPC: 0.130091 cumulative IPC: 0.1134 (Simulation time: 0 hr 4 min 25 sec) 
Heartbeat CPU 0 instructions: 31000000 cycles: 263938960 heartbeat IPC: 0.130541 cumulative IPC: 0.113898 (Simulation time: 0 hr 4 min 34 sec) 
Heartbeat CPU 0 instructions: 32000000 cycles: 271251385 heartbeat IPC: 0.136754 cumulative IPC: 0.114516 (Simulation time: 0 hr 4 min 43 sec) 
Heartbeat CPU 0 instructions: 33000000 cycles: 278277390 heartbeat IPC: 0.142328 cumulative IPC: 0.115219 (Simulation time: 0 hr 4 min 51 sec) 
Heartbeat CPU 0 instructions: 34000001 cycles: 287824106 heartbeat IPC: 0.104748 cumulative IPC: 0.114871 (Simulation time: 0 hr 5 min 2 sec) 
Heartbeat CPU 0 instructions: 35000000 cycles: 295851988 heartbeat IPC: 0.124566 cumulative IPC: 0.115135 (Simulation time: 0 hr 5 min 9 sec) 
Heartbeat CPU 0 instructions: 36000000 cycles: 304061672 heartbeat IPC: 0.121807 cumulative IPC: 0.115315 (Simulation time: 0 hr 5 min 17 sec) 
Heartbeat CPU 0 instructions: 37000003 cycles: 313905207 heartbeat IPC: 0.10159 cumulative IPC: 0.114884 (Simulation time: 0 hr 5 min 28 sec) 
Heartbeat CPU 0 instructions: 38000001 cycles: 321597723 heartbeat IPC: 0.129996 cumulative IPC: 0.115246 (Simulation time: 0 hr 5 min 36 sec) 
Heartbeat CPU 0 instructions: 39000000 cycles: 331328488 heartbeat IPC: 0.102767 cumulative IPC: 0.114879 (Simulation time: 0 hr 5 min 46 sec) 
Heartbeat CPU 0 instructions: 40000000 cycles: 340782799 heartbeat IPC: 0.105772 cumulative IPC: 0.114626 (Simulation time: 0 hr 5 min 56 sec) 
Heartbeat CPU 0 instructions: 41000002 cycles: 348593257 heartbeat IPC: 0.128034 cumulative IPC: 0.114927 (Simulation time: 0 hr 6 min 4 sec) 
Heartbeat CPU 0 instructions: 42000000 cycles: 357213659 heartbeat IPC: 0.116004 cumulative IPC: 0.114953 (Simulation time: 0 hr 6 min 12 sec) 
Heartbeat CPU 0 instructions: 43000003 cycles: 367549218 heartbeat IPC: 0.0967536 cumulative IPC: 0.11444 (Simulation time: 0 hr 6 min 22 sec) 
Heartbeat CPU 0 instructions: 44000000 cycles: 375294249 heartbeat IPC: 0.129115 cumulative IPC: 0.114744 (Simulation time: 0 hr 6 min 30 sec) 
Heartbeat CPU 0 instructions: 45000001 cycles: 383658128 heartbeat IPC: 0.119562 cumulative IPC: 0.114849 (Simulation time: 0 hr 6 min 38 sec) 
Heartbeat CPU 0 instructions: 46000003 cycles: 392257416 heartbeat IPC: 0.116289 cumulative IPC: 0.11488 (Simulation time: 0 hr 6 min 46 sec) 
Heartbeat CPU 0 instructions: 47000000 cycles: 400861299 heartbeat IPC: 0.116226 cumulative IPC: 0.114909 (Simulation time: 0 hr 6 min 54 sec) 
Heartbeat CPU 0 instructions: 48000000 cycles: 410587308 heartbeat IPC: 0.102817 cumulative IPC: 0.114623 (Simulation time: 0 hr 7 min 4 sec) 
Heartbeat CPU 0 instructions: 49000000 cycles: 418206993 heartbeat IPC: 0.131239 cumulative IPC: 0.114926 (Simulation time: 0 hr 7 min 12 sec) 
Heartbeat CPU 0 instructions: 50000001 cycles: 425989364 heartbeat IPC: 0.128496 cumulative IPC: 0.115174 (Simulation time: 0 hr 7 min 20 sec) 
Heartbeat CPU 0 instructions: 51000000 cycles: 434290199 heartbeat IPC: 0.12047 cumulative IPC: 0.115275 (Simulation time: 0 hr 7 min 29 sec) 
Heartbeat CPU 0 instructions: 52000003 cycles: 443461597 heartbeat IPC: 0.109035 cumulative IPC: 0.115146 (Simulation time: 0 hr 7 min 39 sec) 
Heartbeat CPU 0 instructions: 53000000 cycles: 451766352 heartbeat IPC: 0.120413 cumulative IPC: 0.115243 (Simulation time: 0 hr 7 min 47 sec) 
Heartbeat CPU 0 instructions: 54000001 cycles: 460718421 heartbeat IPC: 0.111706 cumulative IPC: 0.115174 (Simulation time: 0 hr 7 min 55 sec) 
Heartbeat CPU 0 instructions: 55000000 cycles: 469880002 heartbeat IPC: 0.109151 cumulative IPC: 0.115057 (Simulation time: 0 hr 8 min 3 sec) 
Heartbeat CPU 0 instructions: 56000000 cycles: 480321341 heartbeat IPC: 0.0957732 cumulative IPC: 0.114637 (Simulation time: 0 hr 8 min 14 sec) 
Heartbeat CPU 0 instructions: 57000000 cycles: 487986409 heartbeat IPC: 0.130462 cumulative IPC: 0.114886 (Simulation time: 0 hr 8 min 22 sec) 
Heartbeat CPU 0 instructions: 58000002 cycles: 496182202 heartbeat IPC: 0.122014 cumulative IPC: 0.115004 (Simulation time: 0 hr 8 min 30 sec) 
Heartbeat CPU 0 instructions: 59000003 cycles: 505770084 heartbeat IPC: 0.104298 cumulative IPC: 0.114801 (Simulation time: 0 hr 8 min 38 sec) 
Heartbeat CPU 0 instructions: 60000000 cycles: 514460490 heartbeat IPC: 0.115069 cumulative IPC: 0.114805 (Simulation time: 0 hr 8 min 47 sec) 
Heartbeat CPU 0 instructions: 61000000 cycles: 522654133 heartbeat IPC: 0.122046 cumulative IPC: 0.114919 (Simulation time: 0 hr 8 min 55 sec) 
Heartbeat CPU 0 instructions: 62000000 cycles: 530865892 heartbeat IPC: 0.121777 cumulative IPC: 0.115025 (Simulation time: 0 hr 9 min 3 sec) 
Heartbeat CPU 0 instructions: 63000000 cycles: 538944376 heartbeat IPC: 0.123786 cumulative IPC: 0.115156 (Simulation time: 0 hr 9 min 11 sec) 
Heartbeat CPU 0 instructions: 64000003 cycles: 548697135 heartbeat IPC: 0.102535 cumulative IPC: 0.114932 (Simulation time: 0 hr 9 min 20 sec) 
Heartbeat CPU 0 instructions: 65000000 cycles: 556541093 heartbeat IPC: 0.127486 cumulative IPC: 0.115109 (Simulation time: 0 hr 9 min 28 sec) 
Heartbeat CPU 0 instructions: 66000000 cycles: 564687009 heartbeat IPC: 0.122761 cumulative IPC: 0.115219 (Simulation time: 0 hr 9 min 37 sec) 
Heartbeat CPU 0 instructions: 67000001 cycles: 573172963 heartbeat IPC: 0.117842 cumulative IPC: 0.115258 (Simulation time: 0 hr 9 min 45 sec) 
Heartbeat CPU 0 instructions: 68000003 cycles: 581780297 heartbeat IPC: 0.11618 cumulative IPC: 0.115272 (Simulation time: 0 hr 9 min 53 sec) 
Heartbeat CPU 0 instructions: 69000000 cycles: 593485330 heartbeat IPC: 0.0854331 cumulative IPC: 0.114683 (Simulation time: 0 hr 10 min 6 sec) 
Heartbeat CPU 0 instructions: 70000000 cycles: 601409915 heartbeat IPC: 0.12619 cumulative IPC: 0.114835 (Simulation time: 0 hr 10 min 15 sec) 
Heartbeat CPU 0 instructions: 71000003 cycles: 609880618 heartbeat IPC: 0.118054 cumulative IPC: 0.114879 (Simulation time: 0 hr 10 min 23 sec) 
Heartbeat CPU 0 instructions: 72000001 cycles: 618495885 heartbeat IPC: 0.116073 cumulative IPC: 0.114896 (Simulation time: 0 hr 10 min 32 sec) 
Heartbeat CPU 0 instructions: 73000000 cycles: 627091559 heartbeat IPC: 0.116337 cumulative IPC: 0.114916 (Simulation time: 0 hr 10 min 40 sec) 
Heartbeat CPU 0 instructions: 74000003 cycles: 636868365 heartbeat IPC: 0.102283 cumulative IPC: 0.114722 (Simulation time: 0 hr 10 min 49 sec) 
Heartbeat CPU 0 instructions: 75000000 cycles: 645113700 heartbeat IPC: 0.12128 cumulative IPC: 0.114806 (Simulation time: 0 hr 10 min 58 sec) 
Heartbeat CPU 0 instructions: 76000000 cycles: 652766802 heartbeat IPC: 0.130666 cumulative IPC: 0.114992 (Simulation time: 0 hr 11 min 6 sec) 
Heartbeat CPU 0 instructions: 77000000 cycles: 660423638 heartbeat IPC: 0.130602 cumulative IPC: 0.115173 (Simulation time: 0 hr 11 min 14 sec) 
Heartbeat CPU 0 instructions: 78000000 cycles: 667881300 heartbeat IPC: 0.13409 cumulative IPC: 0.115384 (Simulation time: 0 hr 11 min 22 sec) 
Heartbeat CPU 0 instructions: 79000001 cycles: 677299607 heartbeat IPC: 0.106176 cumulative IPC: 0.115256 (Simulation time: 0 hr 11 min 32 sec) 
Heartbeat CPU 0 instructions: 80000000 cycles: 685032204 heartbeat IPC: 0.129323 cumulative IPC: 0.115415 (Simulation time: 0 hr 11 min 39 sec) 
Heartbeat CPU 0 instructions: 81000001 cycles: 694228518 heartbeat IPC: 0.108739 cumulative IPC: 0.115327 (Simulation time: 0 hr 11 min 46 sec) 
Heartbeat CPU 0 instructions: 82000000 cycles: 703142622 heartbeat IPC: 0.112182 cumulative IPC: 0.115287 (Simulation time: 0 hr 11 min 55 sec) 
Heartbeat CPU 0 instructions: 83000003 cycles: 711314728 heartbeat IPC: 0.122368 cumulative IPC: 0.115368 (Simulation time: 0 hr 12 min 2 sec) 
Heartbeat CPU 0 instructions: 84000001 cycles: 719754889 heartbeat IPC: 0.118481 cumulative IPC: 0.115405 (Simulation time: 0 hr 12 min 9 sec) 
Heartbeat CPU 0 instructions: 85000001 cycles: 728582919 heartbeat IPC: 0.113276 cumulative IPC: 0.115379 (Simulation time: 0 hr 12 min 17 sec) 
Heartbeat CPU 0 instructions: 86000002 cycles: 738012716 heartbeat IPC: 0.106047 cumulative IPC: 0.115259 (Simulation time: 0 hr 12 min 26 sec) 
Heartbeat CPU 0 instructions: 87000001 cycles: 745578924 heartbeat IPC: 0.132166 cumulative IPC: 0.115431 (Simulation time: 0 hr 12 min 34 sec) 
Heartbeat CPU 0 instructions: 88000000 cycles: 753333446 heartbeat IPC: 0.128957 cumulative IPC: 0.11557 (Simulation time: 0 hr 12 min 41 sec) 
Heartbeat CPU 0 instructions: 89000002 cycles: 761152553 heartbeat IPC: 0.127892 cumulative IPC: 0.115697 (Simulation time: 0 hr 12 min 49 sec) 
Heartbeat CPU 0 instructions: 90000000 cycles: 768828149 heartbeat IPC: 0.130283 cumulative IPC: 0.115843 (Simulation time: 0 hr 12 min 57 sec) 
Heartbeat CPU 0 instructions: 91000002 cycles: 778627565 heartbeat IPC: 0.102047 cumulative IPC: 0.115669 (Simulation time: 0 hr 13 min 6 sec) 
Heartbeat CPU 0 instructions: 92000000 cycles: 786968721 heartbeat IPC: 0.119887 cumulative IPC: 0.115714 (Simulation time: 0 hr 13 min 13 sec) 
Heartbeat CPU 0 instructions: 93000000 cycles: 795648388 heartbeat IPC: 0.115212 cumulative IPC: 0.115708 (Simulation time: 0 hr 13 min 20 sec) 
Heartbeat CPU 0 instructions: 94000000 cycles: 804479396 heartbeat IPC: 0.113237 cumulative IPC: 0.115681 (Simulation time: 0 hr 13 min 27 sec) 
Heartbeat CPU 0 instructions: 95000001 cycles: 812124323 heartbeat IPC: 0.130806 cumulative IPC: 0.115824 (Simulation time: 0 hr 13 min 35 sec) 
Heartbeat CPU 0 instructions: 96000002 cycles: 821775920 heartbeat IPC: 0.10361 cumulative IPC: 0.11568 (Simulation time: 0 hr 13 min 45 sec) 
Heartbeat CPU 0 instructions: 97000002 cycles: 830024728 heartbeat IPC: 0.12123 cumulative IPC: 0.115735 (Simulation time: 0 hr 13 min 53 sec) 
Heartbeat CPU 0 instructions: 98000003 cycles: 839008013 heartbeat IPC: 0.111318 cumulative IPC: 0.115688 (Simulation time: 0 hr 14 min 0 sec) 
Heartbeat CPU 0 instructions: 99000000 cycles: 848036941 heartbeat IPC: 0.110755 cumulative IPC: 0.115635 (Simulation time: 0 hr 14 min 8 sec) 
Heartbeat CPU 0 instructions: 100000000 cycles: 856654972 heartbeat IPC: 0.116036 cumulative IPC: 0.115639 (Simulation time: 0 hr 14 min 15 sec) 
Heartbeat CPU 0 instructions: 101000000 cycles: 866562883 heartbeat IPC: 0.100929 cumulative IPC: 0.115471 (Simulation time: 0 hr 14 min 24 sec) 
Heartbeat CPU 0 instructions: 102000001 cycles: 874331388 heartbeat IPC: 0.128725 cumulative IPC: 0.115589 (Simulation time: 0 hr 14 min 31 sec) 
Heartbeat CPU 0 instructions: 103000001 cycles: 882116066 heartbeat IPC: 0.128457 cumulative IPC: 0.115703 (Simulation time: 0 hr 14 min 38 sec) 
Heartbeat CPU 0 instructions: 104000003 cycles: 889656840 heartbeat IPC: 0.132613 cumulative IPC: 0.115846 (Simulation time: 0 hr 14 min 45 sec) 
Heartbeat CPU 0 instructions: 105000001 cycles: 896774245 heartbeat IPC: 0.1405 cumulative IPC: 0.116042 (Simulation time: 0 hr 14 min 52 sec) 
Heartbeat CPU 0 instructions: 106000001 cycles: 906207121 heartbeat IPC: 0.106012 cumulative IPC: 0.115937 (Simulation time: 0 hr 15 min 1 sec) 
Heartbeat CPU 0 instructions: 107000003 cycles: 914235291 heartbeat IPC: 0.124562 cumulative IPC: 0.116013 (Simulation time: 0 hr 15 min 8 sec) 
Heartbeat CPU 0 instructions: 108000002 cycles: 924422460 heartbeat IPC: 0.0981626 cumulative IPC: 0.115816 (Simulation time: 0 hr 15 min 17 sec) 
Heartbeat CPU 0 instructions: 109000000 cycles: 932363147 heartbeat IPC: 0.125933 cumulative IPC: 0.115903 (Simulation time: 0 hr 15 min 25 sec) 
Heartbeat CPU 0 instructions: 110000000 cycles: 940276569 heartbeat IPC: 0.126368 cumulative IPC: 0.115991 (Simulation time: 0 hr 15 min 32 sec) 
Heartbeat CPU 0 instructions: 111000000 cycles: 948217784 heartbeat IPC: 0.125925 cumulative IPC: 0.116074 (Simulation time: 0 hr 15 min 39 sec) 
Heartbeat CPU 0 instructions: 112000001 cycles: 957726548 heartbeat IPC: 0.105166 cumulative IPC: 0.115966 (Simulation time: 0 hr 15 min 47 sec) 
Heartbeat CPU 0 instructions: 113000000 cycles: 965911225 heartbeat IPC: 0.122179 cumulative IPC: 0.116018 (Simulation time: 0 hr 15 min 56 sec) 
Heartbeat CPU 0 instructions: 114000001 cycles: 974903253 heartbeat IPC: 0.11121 cumulative IPC: 0.115974 (Simulation time: 0 hr 16 min 3 sec) 
Heartbeat CPU 0 instructions: 115000001 cycles: 983750825 heartbeat IPC: 0.113025 cumulative IPC: 0.115947 (Simulation time: 0 hr 16 min 12 sec) 
Heartbeat CPU 0 instructions: 116000001 cycles: 991814699 heartbeat IPC: 0.12401 cumulative IPC: 0.116013 (Simulation time: 0 hr 16 min 19 sec) 
Heartbeat CPU 0 instructions: 117000002 cycles: 1000291608 heartbeat IPC: 0.117968 cumulative IPC: 0.11603 (Simulation time: 0 hr 16 min 26 sec) 
Heartbeat CPU 0 instructions: 118000000 cycles: 1010391893 heartbeat IPC: 0.0990069 cumulative IPC: 0.115859 (Simulation time: 0 hr 16 min 35 sec) 
Heartbeat CPU 0 instructions: 119000002 cycles: 1018541552 heartbeat IPC: 0.122705 cumulative IPC: 0.115914 (Simulation time: 0 hr 16 min 42 sec) 
Heartbeat CPU 0 instructions: 120000001 cycles: 1026634350 heartbeat IPC: 0.123567 cumulative IPC: 0.115974 (Simulation time: 0 hr 16 min 48 sec) 
Heartbeat CPU 0 instructions: 121000000 cycles: 1034560845 heartbeat IPC: 0.126159 cumulative IPC: 0.116052 (Simulation time: 0 hr 16 min 55 sec) 
Heartbeat CPU 0 instructions: 122000000 cycles: 1042639748 heartbeat IPC: 0.123779 cumulative IPC: 0.116112 (Simulation time: 0 hr 17 min 2 sec) 
Heartbeat CPU 0 instructions: 123000002 cycles: 1052541221 heartbeat IPC: 0.100995 cumulative IPC: 0.11597 (Simulation time: 0 hr 17 min 10 sec) 
Heartbeat CPU 0 instructions: 124000000 cycles: 1060429179 heartbeat IPC: 0.126775 cumulative IPC: 0.116051 (Simulation time: 0 hr 17 min 16 sec) 
Heartbeat CPU 0 instructions: 125000002 cycles: 1068886106 heartbeat IPC: 0.118246 cumulative IPC: 0.116068 (Simulation time: 0 hr 17 min 23 sec) 
Heartbeat CPU 0 instructions: 126000000 cycles: 1077514636 heartbeat IPC: 0.115894 cumulative IPC: 0.116067 (Simulation time: 0 hr 17 min 29 sec) 
Heartbeat CPU 0 instructions: 127000000 cycles: 1087684676 heartbeat IPC: 0.098328 cumulative IPC: 0.115901 (Simulation time: 0 hr 17 min 38 sec) 
Heartbeat CPU 0 instructions: 128000000 cycles: 1095666690 heartbeat IPC: 0.125282 cumulative IPC: 0.115969 (Simulation time: 0 hr 17 min 44 sec) 
Heartbeat CPU 0 instructions: 129000002 cycles: 1105315417 heartbeat IPC: 0.103641 cumulative IPC: 0.115861 (Simulation time: 0 hr 17 min 53 sec) 
Heartbeat CPU 0 instructions: 130000002 cycles: 1113445500 heartbeat IPC: 0.123 cumulative IPC: 0.115913 (Simulation time: 0 hr 17 min 59 sec) 
Heartbeat CPU 0 instructions: 131000000 cycles: 1121807465 heartbeat IPC: 0.119589 cumulative IPC: 0.115941 (Simulation time: 0 hr 18 min 5 sec) 
Heartbeat CPU 0 instructions: 132000000 cycles: 1133577925 heartbeat IPC: 0.0849584 cumulative IPC: 0.115619 (Simulation time: 0 hr 18 min 15 sec) 
Heartbeat CPU 0 instructions: 133000001 cycles: 1143457285 heartbeat IPC: 0.101221 cumulative IPC: 0.115495 (Simulation time: 0 hr 18 min 24 sec) 
Heartbeat CPU 0 instructions: 134000001 cycles: 1151601495 heartbeat IPC: 0.122787 cumulative IPC: 0.115546 (Simulation time: 0 hr 18 min 31 sec) 
Heartbeat CPU 0 instructions: 135000003 cycles: 1160386848 heartbeat IPC: 0.113826 cumulative IPC: 0.115533 (Simulation time: 0 hr 18 min 38 sec) 
Heartbeat CPU 0 instructions: 136000001 cycles: 1170269830 heartbeat IPC: 0.101184 cumulative IPC: 0.115412 (Simulation time: 0 hr 18 min 44 sec) 
Heartbeat CPU 0 instructions: 137000002 cycles: 1179255131 heartbeat IPC: 0.111293 cumulative IPC: 0.11538 (Simulation time: 0 hr 18 min 52 sec) 
Heartbeat CPU 0 instructions: 138000003 cycles: 1187463963 heartbeat IPC: 0.12182 cumulative IPC: 0.115425 (Simulation time: 0 hr 18 min 59 sec) 
Heartbeat CPU 0 instructions: 139000002 cycles: 1195781388 heartbeat IPC: 0.120229 cumulative IPC: 0.115458 (Simulation time: 0 hr 19 min 5 sec) 
Heartbeat CPU 0 instructions: 140000001 cycles: 1205911115 heartbeat IPC: 0.0987192 cumulative IPC: 0.115318 (Simulation time: 0 hr 19 min 14 sec) 
Heartbeat CPU 0 instructions: 141000003 cycles: 1213893782 heartbeat IPC: 0.125272 cumulative IPC: 0.115383 (Simulation time: 0 hr 19 min 20 sec) 
Heartbeat CPU 0 instructions: 142000001 cycles: 1222099106 heartbeat IPC: 0.121872 cumulative IPC: 0.115427 (Simulation time: 0 hr 19 min 27 sec) 
Heartbeat CPU 0 instructions: 143000000 cycles: 1230429332 heartbeat IPC: 0.120045 cumulative IPC: 0.115458 (Simulation time: 0 hr 19 min 33 sec) 
Heartbeat CPU 0 instructions: 144000002 cycles: 1240512955 heartbeat IPC: 0.0991709 cumulative IPC: 0.115326 (Simulation time: 0 hr 19 min 42 sec) 
Heartbeat CPU 0 instructions: 145000000 cycles: 1248217026 heartbeat IPC: 0.129801 cumulative IPC: 0.115415 (Simulation time: 0 hr 19 min 48 sec) 
Heartbeat CPU 0 instructions: 146000000 cycles: 1256202895 heartbeat IPC: 0.125221 cumulative IPC: 0.115477 (Simulation time: 0 hr 19 min 55 sec) 
Heartbeat CPU 0 instructions: 147000001 cycles: 1266020840 heartbeat IPC: 0.101854 cumulative IPC: 0.115372 (Simulation time: 0 hr 20 min 3 sec) 
Heartbeat CPU 0 instructions: 148000000 cycles: 1273492003 heartbeat IPC: 0.133848 cumulative IPC: 0.11548 (Simulation time: 0 hr 20 min 10 sec) 
Heartbeat CPU 0 instructions: 149000001 cycles: 1283249297 heartbeat IPC: 0.102488 cumulative IPC: 0.115381 (Simulation time: 0 hr 20 min 18 sec) 
Heartbeat CPU 0 instructions: 150000003 cycles: 1291455071 heartbeat IPC: 0.121866 cumulative IPC: 0.115423 (Simulation time: 0 hr 20 min 25 sec) 
Heartbeat CPU 0 instructions: 151000003 cycles: 1299742275 heartbeat IPC: 0.120668 cumulative IPC: 0.115456 (Simulation time: 0 hr 20 min 32 sec) 
Heartbeat CPU 0 instructions: 152000000 cycles: 1309736119 heartbeat IPC: 0.100061 cumulative IPC: 0.115338 (Simulation time: 0 hr 20 min 40 sec) 
Heartbeat CPU 0 instructions: 153000003 cycles: 1317522879 heartbeat IPC: 0.128423 cumulative IPC: 0.115416 (Simulation time: 0 hr 20 min 47 sec) 
Heartbeat CPU 0 instructions: 154000000 cycles: 1326048717 heartbeat IPC: 0.11729 cumulative IPC: 0.115428 (Simulation time: 0 hr 20 min 53 sec) 
Heartbeat CPU 0 instructions: 155000003 cycles: 1334578153 heartbeat IPC: 0.117241 cumulative IPC: 0.115439 (Simulation time: 0 hr 21 min 0 sec) 
Heartbeat CPU 0 instructions: 156000002 cycles: 1344400714 heartbeat IPC: 0.101806 cumulative IPC: 0.11534 (Simulation time: 0 hr 21 min 8 sec) 
Heartbeat CPU 0 instructions: 157000001 cycles: 1352480740 heartbeat IPC: 0.123762 cumulative IPC: 0.11539 (Simulation time: 0 hr 21 min 14 sec) 
Heartbeat CPU 0 instructions: 158000000 cycles: 1361021186 heartbeat IPC: 0.11709 cumulative IPC: 0.115401 (Simulation time: 0 hr 21 min 21 sec) 
Heartbeat CPU 0 instructions: 159000001 cycles: 1369660771 heartbeat IPC: 0.115746 cumulative IPC: 0.115403 (Simulation time: 0 hr 21 min 27 sec) 
Heartbeat CPU 0 instructions: 160000002 cycles: 1379733748 heartbeat IPC: 0.0992756 cumulative IPC: 0.115285 (Simulation time: 0 hr 21 min 36 sec) 
Heartbeat CPU 0 instructions: 161000000 cycles: 1387558206 heartbeat IPC: 0.127804 cumulative IPC: 0.115356 (Simulation time: 0 hr 21 min 43 sec) 
Heartbeat CPU 0 instructions: 162000001 cycles: 1395253187 heartbeat IPC: 0.129955 cumulative IPC: 0.115436 (Simulation time: 0 hr 21 min 49 sec) 
Heartbeat CPU 0 instructions: 163000002 cycles: 1405022529 heartbeat IPC: 0.102361 cumulative IPC: 0.115345 (Simulation time: 0 hr 21 min 58 sec) 
Heartbeat CPU 0 instructions: 164000002 cycles: 1413391474 heartbeat IPC: 0.119489 cumulative IPC: 0.11537 (Simulation time: 0 hr 22 min 4 sec) 
Heartbeat CPU 0 instructions: 165000000 cycles: 1422503541 heartbeat IPC: 0.109744 cumulative IPC: 0.115334 (Simulation time: 0 hr 22 min 11 sec) 
Heartbeat CPU 0 instructions: 166000001 cycles: 1434129256 heartbeat IPC: 0.0860163 cumulative IPC: 0.115096 (Simulation time: 0 hr 22 min 21 sec) 
Heartbeat CPU 0 instructions: 167000002 cycles: 1441872006 heartbeat IPC: 0.129153 cumulative IPC: 0.115172 (Simulation time: 0 hr 22 min 28 sec) 
Heartbeat CPU 0 instructions: 168000002 cycles: 1450409225 heartbeat IPC: 0.117134 cumulative IPC: 0.115183 (Simulation time: 0 hr 22 min 34 sec) 
Heartbeat CPU 0 instructions: 169000001 cycles: 1459422230 heartbeat IPC: 0.110951 cumulative IPC: 0.115157 (Simulation time: 0 hr 22 min 41 sec) 
Heartbeat CPU 0 instructions: 170000000 cycles: 1469804017 heartbeat IPC: 0.0963224 cumulative IPC: 0.115024 (Simulation time: 0 hr 22 min 48 sec) 
Heartbeat CPU 0 instructions: 171000000 cycles: 1477935262 heartbeat IPC: 0.122982 cumulative IPC: 0.115068 (Simulation time: 0 hr 22 min 55 sec) 
Heartbeat CPU 0 instructions: 172000002 cycles: 1486185333 heartbeat IPC: 0.121211 cumulative IPC: 0.115102 (Simulation time: 0 hr 23 min 2 sec) 
Heartbeat CPU 0 instructions: 173000001 cycles: 1494641872 heartbeat IPC: 0.118252 cumulative IPC: 0.11512 (Simulation time: 0 hr 23 min 8 sec) 
Heartbeat CPU 0 instructions: 174000003 cycles: 1503147846 heartbeat IPC: 0.117565 cumulative IPC: 0.115134 (Simulation time: 0 hr 23 min 14 sec) 
Heartbeat CPU 0 instructions: 175000002 cycles: 1513378241 heartbeat IPC: 0.0977478 cumulative IPC: 0.115016 (Simulation time: 0 hr 23 min 22 sec) 
Heartbeat CPU 0 instructions: 176000000 cycles: 1521213690 heartbeat IPC: 0.127625 cumulative IPC: 0.115081 (Simulation time: 0 hr 23 min 29 sec) 
Heartbeat CPU 0 instructions: 177000000 cycles: 1529637758 heartbeat IPC: 0.118707 cumulative IPC: 0.115101 (Simulation time: 0 hr 23 min 35 sec) 
Heartbeat CPU 0 instructions: 178000002 cycles: 1540078891 heartbeat IPC: 0.0957752 cumulative IPC: 0.11497 (Simulation time: 0 hr 23 min 43 sec) 
Heartbeat CPU 0 instructions: 179000002 cycles: 1547903099 heartbeat IPC: 0.127808 cumulative IPC: 0.115035 (Simulation time: 0 hr 23 min 50 sec) 
Heartbeat CPU 0 instructions: 180000002 cycles: 1555629491 heartbeat IPC: 0.129427 cumulative IPC: 0.115106 (Simulation time: 0 hr 23 min 57 sec) 
Heartbeat CPU 0 instructions: 181000003 cycles: 1563317542 heartbeat IPC: 0.130072 cumulative IPC: 0.11518 (Simulation time: 0 hr 24 min 4 sec) 
Heartbeat CPU 0 instructions: 182000000 cycles: 1570683296 heartbeat IPC: 0.135763 cumulative IPC: 0.115277 (Simulation time: 0 hr 24 min 10 sec) 
Heartbeat CPU 0 instructions: 183000001 cycles: 1580059181 heartbeat IPC: 0.106657 cumulative IPC: 0.115225 (Simulation time: 0 hr 24 min 19 sec) 
Heartbeat CPU 0 instructions: 184000003 cycles: 1589499353 heartbeat IPC: 0.10593 cumulative IPC: 0.11517 (Simulation time: 0 hr 24 min 27 sec) 
Heartbeat CPU 0 instructions: 185000001 cycles: 1599188327 heartbeat IPC: 0.10321 cumulative IPC: 0.115098 (Simulation time: 0 hr 24 min 36 sec) 
Heartbeat CPU 0 instructions: 186000000 cycles: 1606904831 heartbeat IPC: 0.129592 cumulative IPC: 0.115167 (Simulation time: 0 hr 24 min 42 sec) 
Heartbeat CPU 0 instructions: 187000000 cycles: 1616578065 heartbeat IPC: 0.103378 cumulative IPC: 0.115097 (Simulation time: 0 hr 24 min 51 sec) 
Heartbeat CPU 0 instructions: 188000001 cycles: 1624546867 heartbeat IPC: 0.12549 cumulative IPC: 0.115148 (Simulation time: 0 hr 24 min 57 sec) 
Heartbeat CPU 0 instructions: 189000001 cycles: 1632630704 heartbeat IPC: 0.123704 cumulative IPC: 0.11519 (Simulation time: 0 hr 25 min 4 sec) 
Heartbeat CPU 0 instructions: 190000002 cycles: 1641867623 heartbeat IPC: 0.108261 cumulative IPC: 0.115151 (Simulation time: 0 hr 25 min 11 sec) 
Heartbeat CPU 0 instructions: 191000000 cycles: 1650428095 heartbeat IPC: 0.116816 cumulative IPC: 0.11516 (Simulation time: 0 hr 25 min 19 sec) 
Heartbeat CPU 0 instructions: 192000002 cycles: 1660053683 heartbeat IPC: 0.10389 cumulative IPC: 0.115094 (Simulation time: 0 hr 25 min 28 sec) 
Heartbeat CPU 0 instructions: 193000003 cycles: 1667631741 heartbeat IPC: 0.13196 cumulative IPC: 0.115171 (Simulation time: 0 hr 25 min 34 sec) 
Heartbeat CPU 0 instructions: 194000001 cycles: 1675530874 heartbeat IPC: 0.126596 cumulative IPC: 0.115225 (Simulation time: 0 hr 25 min 41 sec) 
Heartbeat CPU 0 instructions: 195000002 cycles: 1683516687 heartbeat IPC: 0.125222 cumulative IPC: 0.115272 (Simulation time: 0 hr 25 min 47 sec) 
Heartbeat CPU 0 instructions: 196000001 cycles: 1693189240 heartbeat IPC: 0.103385 cumulative IPC: 0.115204 (Simulation time: 0 hr 25 min 56 sec) 
Heartbeat CPU 0 instructions: 197000002 cycles: 1700706254 heartbeat IPC: 0.133032 cumulative IPC: 0.115283 (Simulation time: 0 hr 26 min 3 sec) 
Heartbeat CPU 0 instructions: 198000000 cycles: 1708560408 heartbeat IPC: 0.127321 cumulative IPC: 0.115339 (Simulation time: 0 hr 26 min 9 sec) 
Heartbeat CPU 0 instructions: 199000002 cycles: 1716464678 heartbeat IPC: 0.126514 cumulative IPC: 0.11539 (Simulation time: 0 hr 26 min 16 sec) 
Heartbeat CPU 0 instructions: 200000000 cycles: 1724349670 heartbeat IPC: 0.126823 cumulative IPC: 0.115442 (Simulation time: 0 hr 26 min 23 sec) 
Heartbeat CPU 0 instructions: 201000000 cycles: 1733976478 heartbeat IPC: 0.103877 cumulative IPC: 0.115378 (Simulation time: 0 hr 26 min 31 sec) 
Heartbeat CPU 0 instructions: 202000001 cycles: 1743775716 heartbeat IPC: 0.102049 cumulative IPC: 0.115303 (Simulation time: 0 hr 26 min 39 sec) 
Heartbeat CPU 0 instructions: 203000003 cycles: 1752365795 heartbeat IPC: 0.116414 cumulative IPC: 0.115309 (Simulation time: 0 hr 26 min 46 sec) 
Heartbeat CPU 0 instructions: 204000001 cycles: 1761648356 heartbeat IPC: 0.107729 cumulative IPC: 0.115269 (Simulation time: 0 hr 26 min 54 sec) 
Heartbeat CPU 0 instructions: 205000003 cycles: 1769736093 heartbeat IPC: 0.123644 cumulative IPC: 0.115307 (Simulation time: 0 hr 27 min 1 sec) 
Heartbeat CPU 0 instructions: 206000003 cycles: 1778139420 heartbeat IPC: 0.119 cumulative IPC: 0.115324 (Simulation time: 0 hr 27 min 7 sec) 
Heartbeat CPU 0 instructions: 207000002 cycles: 1786752111 heartbeat IPC: 0.116108 cumulative IPC: 0.115328 (Simulation time: 0 hr 27 min 14 sec) 
Heartbeat CPU 0 instructions: 208000001 cycles: 1795294600 heartbeat IPC: 0.117062 cumulative IPC: 0.115336 (Simulation time: 0 hr 27 min 20 sec) 
Heartbeat CPU 0 instructions: 209000000 cycles: 1805153313 heartbeat IPC: 0.101433 cumulative IPC: 0.115261 (Simulation time: 0 hr 27 min 28 sec) 
Heartbeat CPU 0 instructions: 210000000 cycles: 1812729077 heartbeat IPC: 0.132 cumulative IPC: 0.115331 (Simulation time: 0 hr 27 min 35 sec) 
Heartbeat CPU 0 instructions: 211000000 cycles: 1820352497 heartbeat IPC: 0.131175 cumulative IPC: 0.115397 (Simulation time: 0 hr 27 min 42 sec) 
Heartbeat CPU 0 instructions: 212000000 cycles: 1828031726 heartbeat IPC: 0.130221 cumulative IPC: 0.115459 (Simulation time: 0 hr 27 min 48 sec) 
Heartbeat CPU 0 instructions: 213000003 cycles: 1837622279 heartbeat IPC: 0.10427 cumulative IPC: 0.115401 (Simulation time: 0 hr 27 min 57 sec) 
Heartbeat CPU 0 instructions: 214000000 cycles: 1845549153 heartbeat IPC: 0.126153 cumulative IPC: 0.115447 (Simulation time: 0 hr 28 min 3 sec) 
Heartbeat CPU 0 instructions: 215000000 cycles: 1855418202 heartbeat IPC: 0.101327 cumulative IPC: 0.115372 (Simulation time: 0 hr 28 min 12 sec) 
Heartbeat CPU 0 instructions: 216000001 cycles: 1863544216 heartbeat IPC: 0.123062 cumulative IPC: 0.115405 (Simulation time: 0 hr 28 min 18 sec) 
Heartbeat CPU 0 instructions: 217000001 cycles: 1871488235 heartbeat IPC: 0.125881 cumulative IPC: 0.11545 (Simulation time: 0 hr 28 min 25 sec) 
Heartbeat CPU 0 instructions: 218000003 cycles: 1881343081 heartbeat IPC: 0.101473 cumulative IPC: 0.115377 (Simulation time: 0 hr 28 min 33 sec) 
Heartbeat CPU 0 instructions: 219000001 cycles: 1889487485 heartbeat IPC: 0.122783 cumulative IPC: 0.115409 (Simulation time: 0 hr 28 min 40 sec) 
Heartbeat CPU 0 instructions: 220000000 cycles: 1897864310 heartbeat IPC: 0.119377 cumulative IPC: 0.115426 (Simulation time: 0 hr 28 min 46 sec) 
Heartbeat CPU 0 instructions: 221000003 cycles: 1907900366 heartbeat IPC: 0.099641 cumulative IPC: 0.115343 (Simulation time: 0 hr 28 min 54 sec) 
Heartbeat CPU 0 instructions: 222000000 cycles: 1917443737 heartbeat IPC: 0.104784 cumulative IPC: 0.11529 (Simulation time: 0 hr 29 min 3 sec) 
Heartbeat CPU 0 instructions: 223000000 cycles: 1925570116 heartbeat IPC: 0.123056 cumulative IPC: 0.115323 (Simulation time: 0 hr 29 min 9 sec) 
Heartbeat CPU 0 instructions: 224000002 cycles: 1934055186 heartbeat IPC: 0.117854 cumulative IPC: 0.115334 (Simulation time: 0 hr 29 min 16 sec) 
Heartbeat CPU 0 instructions: 225000000 cycles: 1942653004 heartbeat IPC: 0.116308 cumulative IPC: 0.115339 (Simulation time: 0 hr 29 min 22 sec) 
Heartbeat CPU 0 instructions: 226000000 cycles: 1952977516 heartbeat IPC: 0.0968569 cumulative IPC: 0.115241 (Simulation time: 0 hr 29 min 31 sec) 
Heartbeat CPU 0 instructions: 227000000 cycles: 1960955355 heartbeat IPC: 0.125347 cumulative IPC: 0.115282 (Simulation time: 0 hr 29 min 37 sec) 
Heartbeat CPU 0 instructions: 228000003 cycles: 1969251788 heartbeat IPC: 0.120534 cumulative IPC: 0.115304 (Simulation time: 0 hr 29 min 44 sec) 
Heartbeat CPU 0 instructions: 229000002 cycles: 1977537223 heartbeat IPC: 0.120694 cumulative IPC: 0.115327 (Simulation time: 0 hr 29 min 50 sec) 
Heartbeat CPU 0 instructions: 230000003 cycles: 1985535841 heartbeat IPC: 0.125022 cumulative IPC: 0.115366 (Simulation time: 0 hr 29 min 57 sec) 
Heartbeat CPU 0 instructions: 231000000 cycles: 1994108520 heartbeat IPC: 0.116649 cumulative IPC: 0.115371 (Simulation time: 0 hr 30 min 3 sec) 
Heartbeat CPU 0 instructions: 232000000 cycles: 2003086347 heartbeat IPC: 0.111386 cumulative IPC: 0.115353 (Simulation time: 0 hr 30 min 12 sec) 
Heartbeat CPU 0 instructions: 233000000 cycles: 2010770172 heartbeat IPC: 0.130144 cumulative IPC: 0.11541 (Simulation time: 0 hr 30 min 18 sec) 
Heartbeat CPU 0 instructions: 234000003 cycles: 2018361497 heartbeat IPC: 0.13173 cumulative IPC: 0.115471 (Simulation time: 0 hr 30 min 25 sec) 
Heartbeat CPU 0 instructions: 235000000 cycles: 2025668677 heartbeat IPC: 0.136851 cumulative IPC: 0.115549 (Simulation time: 0 hr 30 min 31 sec) 
Heartbeat CPU 0 instructions: 236000003 cycles: 2035251949 heartbeat IPC: 0.104349 cumulative IPC: 0.115496 (Simulation time: 0 hr 30 min 40 sec) 
Heartbeat CPU 0 instructions: 237000000 cycles: 2042878105 heartbeat IPC: 0.131127 cumulative IPC: 0.115554 (Simulation time: 0 hr 30 min 47 sec) 
Heartbeat CPU 0 instructions: 238000003 cycles: 2050510317 heartbeat IPC: 0.131024 cumulative IPC: 0.115612 (Simulation time: 0 hr 30 min 53 sec) 
Heartbeat CPU 0 instructions: 239000000 cycles: 2058047684 heartbeat IPC: 0.132672 cumulative IPC: 0.115674 (Simulation time: 0 hr 31 min 0 sec) 
Heartbeat CPU 0 instructions: 240000000 cycles: 2066662096 heartbeat IPC: 0.116085 cumulative IPC: 0.115676 (Simulation time: 0 hr 31 min 7 sec) 
Heartbeat CPU 0 instructions: 241000003 cycles: 2075052573 heartbeat IPC: 0.119183 cumulative IPC: 0.11569 (Simulation time: 0 hr 31 min 15 sec) 
Heartbeat CPU 0 instructions: 242000000 cycles: 2083567922 heartbeat IPC: 0.117435 cumulative IPC: 0.115697 (Simulation time: 0 hr 31 min 22 sec) 
Heartbeat CPU 0 instructions: 243000001 cycles: 2092426395 heartbeat IPC: 0.112886 cumulative IPC: 0.115685 (Simulation time: 0 hr 31 min 28 sec) 
Heartbeat CPU 0 instructions: 244000001 cycles: 2102916570 heartbeat IPC: 0.0953273 cumulative IPC: 0.115584 (Simulation time: 0 hr 31 min 36 sec) 
Heartbeat CPU 0 instructions: 245000000 cycles: 2110895931 heartbeat IPC: 0.125323 cumulative IPC: 0.115621 (Simulation time: 0 hr 31 min 43 sec) 
Heartbeat CPU 0 instructions: 246000000 cycles: 2119281702 heartbeat IPC: 0.11925 cumulative IPC: 0.115635 (Simulation time: 0 hr 31 min 50 sec) 
Heartbeat CPU 0 instructions: 247000000 cycles: 2127850819 heartbeat IPC: 0.116698 cumulative IPC: 0.115639 (Simulation time: 0 hr 31 min 56 sec) 
Heartbeat CPU 0 instructions: 248000001 cycles: 2136535935 heartbeat IPC: 0.11514 cumulative IPC: 0.115637 (Simulation time: 0 hr 32 min 2 sec) 
Heartbeat CPU 0 instructions: 249000001 cycles: 2146193960 heartbeat IPC: 0.103541 cumulative IPC: 0.115583 (Simulation time: 0 hr 32 min 9 sec) 
Heartbeat CPU 0 instructions: 250000002 cycles: 2154866148 heartbeat IPC: 0.115311 cumulative IPC: 0.115582 (Simulation time: 0 hr 32 min 17 sec) 
Heartbeat CPU 0 instructions: 251000000 cycles: 2164546301 heartbeat IPC: 0.103304 cumulative IPC: 0.115527 (Simulation time: 0 hr 32 min 26 sec) 
Heartbeat CPU 0 instructions: 252000001 cycles: 2172611405 heartbeat IPC: 0.123991 cumulative IPC: 0.115558 (Simulation time: 0 hr 32 min 32 sec) 
Heartbeat CPU 0 instructions: 253000000 cycles: 2182680073 heartbeat IPC: 0.0993179 cumulative IPC: 0.115483 (Simulation time: 0 hr 32 min 40 sec) 
Heartbeat CPU 0 instructions: 254000000 cycles: 2194473590 heartbeat IPC: 0.0847923 cumulative IPC: 0.115318 (Simulation time: 0 hr 32 min 51 sec) 
Heartbeat CPU 0 instructions: 255000003 cycles: 2202167061 heartbeat IPC: 0.129981 cumulative IPC: 0.11537 (Simulation time: 0 hr 32 min 58 sec) 
Heartbeat CPU 0 instructions: 256000001 cycles: 2210462997 heartbeat IPC: 0.120541 cumulative IPC: 0.115389 (Simulation time: 0 hr 33 min 4 sec) 
Heartbeat CPU 0 instructions: 257000002 cycles: 2220574652 heartbeat IPC: 0.0988959 cumulative IPC: 0.115314 (Simulation time: 0 hr 33 min 12 sec) 
Heartbeat CPU 0 instructions: 258000003 cycles: 2228610861 heartbeat IPC: 0.124437 cumulative IPC: 0.115347 (Simulation time: 0 hr 33 min 19 sec) 
Heartbeat CPU 0 instructions: 259000000 cycles: 2237031956 heartbeat IPC: 0.118749 cumulative IPC: 0.11536 (Simulation time: 0 hr 33 min 25 sec) 
Heartbeat CPU 0 instructions: 260000000 cycles: 2248648606 heartbeat IPC: 0.0860833 cumulative IPC: 0.115208 (Simulation time: 0 hr 33 min 36 sec) 
Heartbeat CPU 0 instructions: 261000001 cycles: 2257366830 heartbeat IPC: 0.114702 cumulative IPC: 0.115206 (Simulation time: 0 hr 33 min 43 sec) 
Heartbeat CPU 0 instructions: 262000000 cycles: 2266095045 heartbeat IPC: 0.114571 cumulative IPC: 0.115204 (Simulation time: 0 hr 33 min 51 sec) 
Heartbeat CPU 0 instructions: 263000001 cycles: 2274302091 heartbeat IPC: 0.121847 cumulative IPC: 0.115228 (Simulation time: 0 hr 33 min 57 sec) 
Heartbeat CPU 0 instructions: 264000000 cycles: 2282587608 heartbeat IPC: 0.120692 cumulative IPC: 0.115248 (Simulation time: 0 hr 34 min 3 sec) 
Heartbeat CPU 0 instructions: 265000001 cycles: 2291794768 heartbeat IPC: 0.108611 cumulative IPC: 0.115221 (Simulation time: 0 hr 34 min 10 sec) 
Heartbeat CPU 0 instructions: 266000000 cycles: 2300778970 heartbeat IPC: 0.111306 cumulative IPC: 0.115206 (Simulation time: 0 hr 34 min 18 sec) 
Heartbeat CPU 0 instructions: 267000002 cycles: 2309079049 heartbeat IPC: 0.120481 cumulative IPC: 0.115225 (Simulation time: 0 hr 34 min 25 sec) 
Heartbeat CPU 0 instructions: 268000001 cycles: 2317285409 heartbeat IPC: 0.121857 cumulative IPC: 0.115248 (Simulation time: 0 hr 34 min 31 sec) 
Heartbeat CPU 0 instructions: 269000000 cycles: 2325272153 heartbeat IPC: 0.125207 cumulative IPC: 0.115282 (Simulation time: 0 hr 34 min 38 sec) 
Heartbeat CPU 0 instructions: 270000000 cycles: 2332911469 heartbeat IPC: 0.130902 cumulative IPC: 0.115334 (Simulation time: 0 hr 34 min 44 sec) 
Heartbeat CPU 0 instructions: 271000002 cycles: 2342447145 heartbeat IPC: 0.10487 cumulative IPC: 0.115291 (Simulation time: 0 hr 34 min 53 sec) 
Heartbeat CPU 0 instructions: 272000000 cycles: 2350572990 heartbeat IPC: 0.123064 cumulative IPC: 0.115318 (Simulation time: 0 hr 34 min 59 sec) 
Heartbeat CPU 0 instructions: 273000000 cycles: 2360659757 heartbeat IPC: 0.0991398 cumulative IPC: 0.115249 (Simulation time: 0 hr 35 min 7 sec) 
Heartbeat CPU 0 instructions: 274000003 cycles: 2368352843 heartbeat IPC: 0.129987 cumulative IPC: 0.115297 (Simulation time: 0 hr 35 min 14 sec) 
Heartbeat CPU 0 instructions: 275000000 cycles: 2376367831 heartbeat IPC: 0.124766 cumulative IPC: 0.115329 (Simulation time: 0 hr 35 min 20 sec) 
Heartbeat CPU 0 instructions: 276000000 cycles: 2386200325 heartbeat IPC: 0.101704 cumulative IPC: 0.115272 (Simulation time: 0 hr 35 min 28 sec) 
Heartbeat CPU 0 instructions: 277000001 cycles: 2394330531 heartbeat IPC: 0.122998 cumulative IPC: 0.115299 (Simulation time: 0 hr 35 min 35 sec) 
Heartbeat CPU 0 instructions: 278000002 cycles: 2402597014 heartbeat IPC: 0.120971 cumulative IPC: 0.115318 (Simulation time: 0 hr 35 min 42 sec) 
Heartbeat CPU 0 instructions: 279000001 cycles: 2412310301 heartbeat IPC: 0.102952 cumulative IPC: 0.115268 (Simulation time: 0 hr 35 min 50 sec) 
Heartbeat CPU 0 instructions: 280000001 cycles: 2420588525 heartbeat IPC: 0.120799 cumulative IPC: 0.115287 (Simulation time: 0 hr 35 min 56 sec) 
Heartbeat CPU 0 instructions: 281000000 cycles: 2429220346 heartbeat IPC: 0.11585 cumulative IPC: 0.115289 (Simulation time: 0 hr 36 min 3 sec) 
Heartbeat CPU 0 instructions: 282000003 cycles: 2439155080 heartbeat IPC: 0.100657 cumulative IPC: 0.11523 (Simulation time: 0 hr 36 min 11 sec) 
Heartbeat CPU 0 instructions: 283000001 cycles: 2446717609 heartbeat IPC: 0.132231 cumulative IPC: 0.115282 (Simulation time: 0 hr 36 min 18 sec) 
Heartbeat CPU 0 instructions: 284000000 cycles: 2454475434 heartbeat IPC: 0.128902 cumulative IPC: 0.115325 (Simulation time: 0 hr 36 min 24 sec) 
Heartbeat CPU 0 instructions: 285000002 cycles: 2464398749 heartbeat IPC: 0.100773 cumulative IPC: 0.115267 (Simulation time: 0 hr 36 min 33 sec) 
Heartbeat CPU 0 instructions: 286000000 cycles: 2472264804 heartbeat IPC: 0.127128 cumulative IPC: 0.115304 (Simulation time: 0 hr 36 min 39 sec) 
Heartbeat CPU 0 instructions: 287000000 cycles: 2480312557 heartbeat IPC: 0.124258 cumulative IPC: 0.115333 (Simulation time: 0 hr 36 min 46 sec) 
Heartbeat CPU 0 instructions: 288000001 cycles: 2488350052 heartbeat IPC: 0.124417 cumulative IPC: 0.115363 (Simulation time: 0 hr 36 min 53 sec) 
Heartbeat CPU 0 instructions: 289000001 cycles: 2497289848 heartbeat IPC: 0.111859 cumulative IPC: 0.11535 (Simulation time: 0 hr 36 min 59 sec) 
Heartbeat CPU 0 instructions: 290000000 cycles: 2507987992 heartbeat IPC: 0.0934741 cumulative IPC: 0.115257 (Simulation time: 0 hr 37 min 10 sec) 
Heartbeat CPU 0 instructions: 291000001 cycles: 2515860430 heartbeat IPC: 0.127026 cumulative IPC: 0.115294 (Simulation time: 0 hr 37 min 16 sec) 
Heartbeat CPU 0 instructions: 292000000 cycles: 2524402407 heartbeat IPC: 0.117069 cumulative IPC: 0.1153 (Simulation time: 0 hr 37 min 22 sec) 
Heartbeat CPU 0 instructions: 293000003 cycles: 2534291670 heartbeat IPC: 0.10112 cumulative IPC: 0.115244 (Simulation time: 0 hr 37 min 31 sec) 
Heartbeat CPU 0 instructions: 294000000 cycles: 2542442534 heartbeat IPC: 0.122686 cumulative IPC: 0.115268 (Simulation time: 0 hr 37 min 37 sec) 
Heartbeat CPU 0 instructions: 295000001 cycles: 2550692909 heartbeat IPC: 0.121207 cumulative IPC: 0.115287 (Simulation time: 0 hr 37 min 43 sec) 
Heartbeat CPU 0 instructions: 296000000 cycles: 2560382291 heartbeat IPC: 0.103206 cumulative IPC: 0.115242 (Simulation time: 0 hr 37 min 52 sec) 
Heartbeat CPU 0 instructions: 297000000 cycles: 2570408940 heartbeat IPC: 0.0997342 cumulative IPC: 0.115181 (Simulation time: 0 hr 38 min 0 sec) 
Heartbeat CPU 0 instructions: 298000000 cycles: 2578231965 heartbeat IPC: 0.127828 cumulative IPC: 0.11522 (Simulation time: 0 hr 38 min 7 sec) 
Heartbeat CPU 0 instructions: 299000000 cycles: 2586151069 heartbeat IPC: 0.126277 cumulative IPC: 0.115253 (Simulation time: 0 hr 38 min 13 sec) 
Heartbeat CPU 0 instructions: 300000003 cycles: 2593984265 heartbeat IPC: 0.127662 cumulative IPC: 0.115291 (Simulation time: 0 hr 38 min 20 sec) 
Heartbeat CPU 0 instructions: 301000001 cycles: 2603830799 heartbeat IPC: 0.101558 cumulative IPC: 0.115239 (Simulation time: 0 hr 38 min 28 sec) 
Heartbeat CPU 0 instructions: 302000003 cycles: 2613480499 heartbeat IPC: 0.10363 cumulative IPC: 0.115196 (Simulation time: 0 hr 38 min 35 sec) 
Heartbeat CPU 0 instructions: 303000000 cycles: 2621366426 heartbeat IPC: 0.126808 cumulative IPC: 0.115231 (Simulation time: 0 hr 38 min 43 sec) 
Heartbeat CPU 0 instructions: 304000000 cycles: 2629091456 heartbeat IPC: 0.129449 cumulative IPC: 0.115273 (Simulation time: 0 hr 38 min 49 sec) 
Heartbeat CPU 0 instructions: 305000003 cycles: 2637388728 heartbeat IPC: 0.120522 cumulative IPC: 0.115289 (Simulation time: 0 hr 38 min 56 sec) 
Heartbeat CPU 0 instructions: 306000001 cycles: 2646570394 heartbeat IPC: 0.108912 cumulative IPC: 0.115267 (Simulation time: 0 hr 39 min 4 sec) 
Heartbeat CPU 0 instructions: 307000000 cycles: 2654648923 heartbeat IPC: 0.123785 cumulative IPC: 0.115293 (Simulation time: 0 hr 39 min 11 sec) 
Heartbeat CPU 0 instructions: 308000000 cycles: 2665941488 heartbeat IPC: 0.0885538 cumulative IPC: 0.11518 (Simulation time: 0 hr 39 min 20 sec) 
Heartbeat CPU 0 instructions: 309000002 cycles: 2674133551 heartbeat IPC: 0.12207 cumulative IPC: 0.115201 (Simulation time: 0 hr 39 min 28 sec) 
Heartbeat CPU 0 instructions: 310000002 cycles: 2682516023 heartbeat IPC: 0.119297 cumulative IPC: 0.115214 (Simulation time: 0 hr 39 min 34 sec) 
Heartbeat CPU 0 instructions: 311000000 cycles: 2692854449 heartbeat IPC: 0.0967263 cumulative IPC: 0.115143 (Simulation time: 0 hr 39 min 42 sec) 
Heartbeat CPU 0 instructions: 312000001 cycles: 2700859745 heartbeat IPC: 0.124917 cumulative IPC: 0.115172 (Simulation time: 0 hr 39 min 49 sec) 
Heartbeat CPU 0 instructions: 313000002 cycles: 2709035358 heartbeat IPC: 0.122315 cumulative IPC: 0.115193 (Simulation time: 0 hr 39 min 55 sec) 
Heartbeat CPU 0 instructions: 314000000 cycles: 2717136491 heartbeat IPC: 0.123439 cumulative IPC: 0.115218 (Simulation time: 0 hr 40 min 2 sec) 
Heartbeat CPU 0 instructions: 315000001 cycles: 2724722355 heartbeat IPC: 0.131824 cumulative IPC: 0.115264 (Simulation time: 0 hr 40 min 9 sec) 
Heartbeat CPU 0 instructions: 316000001 cycles: 2731790762 heartbeat IPC: 0.141475 cumulative IPC: 0.115332 (Simulation time: 0 hr 40 min 15 sec) 
Heartbeat CPU 0 instructions: 317000002 cycles: 2741676864 heartbeat IPC: 0.101152 cumulative IPC: 0.115281 (Simulation time: 0 hr 40 min 24 sec) 
Heartbeat CPU 0 instructions: 318000002 cycles: 2751617242 heartbeat IPC: 0.1006 cumulative IPC: 0.115228 (Simulation time: 0 hr 40 min 32 sec) 
Heartbeat CPU 0 instructions: 319000000 cycles: 2759169878 heartbeat IPC: 0.132404 cumulative IPC: 0.115275 (Simulation time: 0 hr 40 min 39 sec) 
Heartbeat CPU 0 instructions: 320000000 cycles: 2766971370 heartbeat IPC: 0.128181 cumulative IPC: 0.115311 (Simulation time: 0 hr 40 min 45 sec) 
Heartbeat CPU 0 instructions: 321000000 cycles: 2774828921 heartbeat IPC: 0.127266 cumulative IPC: 0.115345 (Simulation time: 0 hr 40 min 52 sec) 
Heartbeat CPU 0 instructions: 322000001 cycles: 2782771666 heartbeat IPC: 0.125901 cumulative IPC: 0.115375 (Simulation time: 0 hr 40 min 59 sec) 
Heartbeat CPU 0 instructions: 323000000 cycles: 2792301227 heartbeat IPC: 0.104937 cumulative IPC: 0.11534 (Simulation time: 0 hr 41 min 6 sec) 
Heartbeat CPU 0 instructions: 324000002 cycles: 2800273555 heartbeat IPC: 0.125434 cumulative IPC: 0.115368 (Simulation time: 0 hr 41 min 14 sec) 
Heartbeat CPU 0 instructions: 325000003 cycles: 2808580664 heartbeat IPC: 0.120379 cumulative IPC: 0.115383 (Simulation time: 0 hr 41 min 20 sec) 
Heartbeat CPU 0 instructions: 326000000 cycles: 2817039570 heartbeat IPC: 0.118218 cumulative IPC: 0.115392 (Simulation time: 0 hr 41 min 27 sec) 
Heartbeat CPU 0 instructions: 327000000 cycles: 2827091436 heartbeat IPC: 0.099484 cumulative IPC: 0.115335 (Simulation time: 0 hr 41 min 35 sec) 
Heartbeat CPU 0 instructions: 328000002 cycles: 2835235109 heartbeat IPC: 0.122795 cumulative IPC: 0.115357 (Simulation time: 0 hr 41 min 41 sec) 
Heartbeat CPU 0 instructions: 329000002 cycles: 2843863437 heartbeat IPC: 0.115897 cumulative IPC: 0.115358 (Simulation time: 0 hr 41 min 48 sec) 
Heartbeat CPU 0 instructions: 330000000 cycles: 2852046842 heartbeat IPC: 0.122198 cumulative IPC: 0.115378 (Simulation time: 0 hr 41 min 55 sec) 
Heartbeat CPU 0 instructions: 331000000 cycles: 2860236500 heartbeat IPC: 0.122105 cumulative IPC: 0.115397 (Simulation time: 0 hr 42 min 1 sec) 
Heartbeat CPU 0 instructions: 332000000 cycles: 2870063886 heartbeat IPC: 0.101756 cumulative IPC: 0.11535 (Simulation time: 0 hr 42 min 10 sec) 
Heartbeat CPU 0 instructions: 333000002 cycles: 2878164290 heartbeat IPC: 0.123451 cumulative IPC: 0.115373 (Simulation time: 0 hr 42 min 16 sec) 
Heartbeat CPU 0 instructions: 334000002 cycles: 2888087736 heartbeat IPC: 0.100771 cumulative IPC: 0.115323 (Simulation time: 0 hr 42 min 24 sec) 
Heartbeat CPU 0 instructions: 335000003 cycles: 2896081709 heartbeat IPC: 0.125094 cumulative IPC: 0.11535 (Simulation time: 0 hr 42 min 31 sec) 
Heartbeat CPU 0 instructions: 336000002 cycles: 2903943750 heartbeat IPC: 0.127193 cumulative IPC: 0.115382 (Simulation time: 0 hr 42 min 37 sec) 
Heartbeat CPU 0 instructions: 337000001 cycles: 2911854170 heartbeat IPC: 0.126415 cumulative IPC: 0.115412 (Simulation time: 0 hr 42 min 44 sec) 
Heartbeat CPU 0 instructions: 338000001 cycles: 2919724468 heartbeat IPC: 0.12706 cumulative IPC: 0.115443 (Simulation time: 0 hr 42 min 50 sec) 
Heartbeat CPU 0 instructions: 339000000 cycles: 2929332346 heartbeat IPC: 0.104081 cumulative IPC: 0.115406 (Simulation time: 0 hr 42 min 59 sec) 
Heartbeat CPU 0 instructions: 340000001 cycles: 2937165145 heartbeat IPC: 0.127668 cumulative IPC: 0.115439 (Simulation time: 0 hr 43 min 5 sec) 
Heartbeat CPU 0 instructions: 341000000 cycles: 2946957148 heartbeat IPC: 0.102124 cumulative IPC: 0.115395 (Simulation time: 0 hr 43 min 12 sec) 
Heartbeat CPU 0 instructions: 342000002 cycles: 2955160246 heartbeat IPC: 0.121905 cumulative IPC: 0.115413 (Simulation time: 0 hr 43 min 20 sec) 
Heartbeat CPU 0 instructions: 343000000 cycles: 2963384043 heartbeat IPC: 0.121598 cumulative IPC: 0.11543 (Simulation time: 0 hr 43 min 26 sec) 
Heartbeat CPU 0 instructions: 344000003 cycles: 2971652269 heartbeat IPC: 0.120945 cumulative IPC: 0.115445 (Simulation time: 0 hr 43 min 33 sec) 
Heartbeat CPU 0 instructions: 345000002 cycles: 2980361243 heartbeat IPC: 0.114824 cumulative IPC: 0.115443 (Simulation time: 0 hr 43 min 39 sec) 
Heartbeat CPU 0 instructions: 346000000 cycles: 2989847779 heartbeat IPC: 0.105412 cumulative IPC: 0.115412 (Simulation time: 0 hr 43 min 47 sec) 
Heartbeat CPU 0 instructions: 347000000 cycles: 2998074039 heartbeat IPC: 0.121562 cumulative IPC: 0.115428 (Simulation time: 0 hr 43 min 54 sec) 
Heartbeat CPU 0 instructions: 348000001 cycles: 3006489491 heartbeat IPC: 0.118829 cumulative IPC: 0.115438 (Simulation time: 0 hr 44 min 1 sec) 
Heartbeat CPU 0 instructions: 349000000 cycles: 3016459859 heartbeat IPC: 0.100297 cumulative IPC: 0.115388 (Simulation time: 0 hr 44 min 9 sec) 
Heartbeat CPU 0 instructions: 350000002 cycles: 3024577554 heartbeat IPC: 0.123188 cumulative IPC: 0.115409 (Simulation time: 0 hr 44 min 16 sec) 
Heartbeat CPU 0 instructions: 351000003 cycles: 3034613137 heartbeat IPC: 0.0996455 cumulative IPC: 0.115357 (Simulation time: 0 hr 44 min 24 sec) 
Heartbeat CPU 0 instructions: 352000000 cycles: 3042531784 heartbeat IPC: 0.126284 cumulative IPC: 0.115385 (Simulation time: 0 hr 44 min 30 sec) 
Heartbeat CPU 0 instructions: 353000002 cycles: 3051110089 heartbeat IPC: 0.116573 cumulative IPC: 0.115388 (Simulation time: 0 hr 44 min 37 sec) 
Heartbeat CPU 0 instructions: 354000001 cycles: 3060259750 heartbeat IPC: 0.109294 cumulative IPC: 0.11537 (Simulation time: 0 hr 44 min 44 sec) 
Heartbeat CPU 0 instructions: 355000000 cycles: 3070602475 heartbeat IPC: 0.0966862 cumulative IPC: 0.115307 (Simulation time: 0 hr 44 min 52 sec) 
Heartbeat CPU 0 instructions: 356000000 cycles: 3078334743 heartbeat IPC: 0.129328 cumulative IPC: 0.115343 (Simulation time: 0 hr 44 min 58 sec) 
Heartbeat CPU 0 instructions: 357000000 cycles: 3086706224 heartbeat IPC: 0.119453 cumulative IPC: 0.115354 (Simulation time: 0 hr 45 min 5 sec) 
Heartbeat CPU 0 instructions: 358000000 cycles: 3095288440 heartbeat IPC: 0.11652 cumulative IPC: 0.115357 (Simulation time: 0 hr 45 min 11 sec) 
Heartbeat CPU 0 instructions: 359000000 cycles: 3103977708 heartbeat IPC: 0.115084 cumulative IPC: 0.115356 (Simulation time: 0 hr 45 min 17 sec) 
Heartbeat CPU 0 instructions: 360000000 cycles: 3113968420 heartbeat IPC: 0.100093 cumulative IPC: 0.115307 (Simulation time: 0 hr 45 min 25 sec) 
Heartbeat CPU 0 instructions: 361000003 cycles: 3121975167 heartbeat IPC: 0.124895 cumulative IPC: 0.115332 (Simulation time: 0 hr 45 min 32 sec) 
Heartbeat CPU 0 instructions: 362000001 cycles: 3130393638 heartbeat IPC: 0.118786 cumulative IPC: 0.115341 (Simulation time: 0 hr 45 min 38 sec) 
Heartbeat CPU 0 instructions: 363000000 cycles: 3140659099 heartbeat IPC: 0.0974139 cumulative IPC: 0.115282 (Simulation time: 0 hr 45 min 46 sec) 
Heartbeat CPU 0 instructions: 364000001 cycles: 3148451142 heartbeat IPC: 0.128336 cumulative IPC: 0.115315 (Simulation time: 0 hr 45 min 52 sec) 
Heartbeat CPU 0 instructions: 365000002 cycles: 3156804127 heartbeat IPC: 0.119718 cumulative IPC: 0.115326 (Simulation time: 0 hr 45 min 58 sec) 
Heartbeat CPU 0 instructions: 366000001 cycles: 3165395516 heartbeat IPC: 0.116395 cumulative IPC: 0.115329 (Simulation time: 0 hr 46 min 5 sec) 
Heartbeat CPU 0 instructions: 367000000 cycles: 3173983895 heartbeat IPC: 0.116436 cumulative IPC: 0.115332 (Simulation time: 0 hr 46 min 11 sec) 
Heartbeat CPU 0 instructions: 368000002 cycles: 3184332907 heartbeat IPC: 0.0966278 cumulative IPC: 0.115272 (Simulation time: 0 hr 46 min 19 sec) 
Heartbeat CPU 0 instructions: 369000000 cycles: 3192292759 heartbeat IPC: 0.12563 cumulative IPC: 0.115297 (Simulation time: 0 hr 46 min 26 sec) 
Heartbeat CPU 0 instructions: 370000001 cycles: 3200964832 heartbeat IPC: 0.115313 cumulative IPC: 0.115297 (Simulation time: 0 hr 46 min 32 sec) 
Heartbeat CPU 0 instructions: 371000000 cycles: 3211579267 heartbeat IPC: 0.0942112 cumulative IPC: 0.115228 (Simulation time: 0 hr 46 min 41 sec) 
Heartbeat CPU 0 instructions: 372000002 cycles: 3220474414 heartbeat IPC: 0.112421 cumulative IPC: 0.11522 (Simulation time: 0 hr 46 min 50 sec) 
Heartbeat CPU 0 instructions: 373000003 cycles: 3228662954 heartbeat IPC: 0.122122 cumulative IPC: 0.115237 (Simulation time: 0 hr 46 min 56 sec) 
Heartbeat CPU 0 instructions: 374000000 cycles: 3237064009 heartbeat IPC: 0.119032 cumulative IPC: 0.115247 (Simulation time: 0 hr 47 min 2 sec) 
Heartbeat CPU 0 instructions: 375000002 cycles: 3245690087 heartbeat IPC: 0.115928 cumulative IPC: 0.115249 (Simulation time: 0 hr 47 min 8 sec) 
Heartbeat CPU 0 instructions: 376000001 cycles: 3255823463 heartbeat IPC: 0.0986837 cumulative IPC: 0.115198 (Simulation time: 0 hr 47 min 17 sec) 
Heartbeat CPU 0 instructions: 377000001 cycles: 3263665124 heartbeat IPC: 0.127524 cumulative IPC: 0.115227 (Simulation time: 0 hr 47 min 23 sec) 
Heartbeat CPU 0 instructions: 378000000 cycles: 3271919750 heartbeat IPC: 0.121144 cumulative IPC: 0.115242 (Simulation time: 0 hr 47 min 29 sec) 
Heartbeat CPU 0 instructions: 379000003 cycles: 3281621630 heartbeat IPC: 0.103073 cumulative IPC: 0.115206 (Simulation time: 0 hr 47 min 37 sec) 
Heartbeat CPU 0 instructions: 380000000 cycles: 3291408669 heartbeat IPC: 0.102176 cumulative IPC: 0.115167 (Simulation time: 0 hr 47 min 46 sec) 
Heartbeat CPU 0 instructions: 381000001 cycles: 3299179186 heartbeat IPC: 0.128692 cumulative IPC: 0.115199 (Simulation time: 0 hr 47 min 52 sec) 
Heartbeat CPU 0 instructions: 382000002 cycles: 3307463104 heartbeat IPC: 0.120716 cumulative IPC: 0.115213 (Simulation time: 0 hr 47 min 58 sec) 
Heartbeat CPU 0 instructions: 383000000 cycles: 3315976978 heartbeat IPC: 0.117455 cumulative IPC: 0.115219 (Simulation time: 0 hr 48 min 2 sec) 
Heartbeat CPU 0 instructions: 384000001 cycles: 3324626133 heartbeat IPC: 0.115618 cumulative IPC: 0.11522 (Simulation time: 0 hr 48 min 6 sec) 
Heartbeat CPU 0 instructions: 385000000 cycles: 3334796336 heartbeat IPC: 0.0983264 cumulative IPC: 0.115168 (Simulation time: 0 hr 48 min 11 sec) 
Heartbeat CPU 0 instructions: 386000000 cycles: 3342778839 heartbeat IPC: 0.125274 cumulative IPC: 0.115192 (Simulation time: 0 hr 48 min 15 sec) 
Heartbeat CPU 0 instructions: 387000000 cycles: 3351118839 heartbeat IPC: 0.119904 cumulative IPC: 0.115204 (Simulation time: 0 hr 48 min 19 sec) 
Heartbeat CPU 0 instructions: 388000001 cycles: 3361378488 heartbeat IPC: 0.0974693 cumulative IPC: 0.11515 (Simulation time: 0 hr 48 min 24 sec) 
Heartbeat CPU 0 instructions: 389000001 cycles: 3369034394 heartbeat IPC: 0.130618 cumulative IPC: 0.115185 (Simulation time: 0 hr 48 min 28 sec) 
Heartbeat CPU 0 instructions: 390000000 cycles: 3377211275 heartbeat IPC: 0.122296 cumulative IPC: 0.115202 (Simulation time: 0 hr 48 min 32 sec) 
Heartbeat CPU 0 instructions: 391000003 cycles: 3385676575 heartbeat IPC: 0.11813 cumulative IPC: 0.11521 (Simulation time: 0 hr 48 min 37 sec) 
Heartbeat CPU 0 instructions: 392000002 cycles: 3396012860 heartbeat IPC: 0.0967465 cumulative IPC: 0.115154 (Simulation time: 0 hr 48 min 42 sec) 
Heartbeat CPU 0 instructions: 393000002 cycles: 3403860226 heartbeat IPC: 0.127431 cumulative IPC: 0.115182 (Simulation time: 0 hr 48 min 46 sec) 
Heartbeat CPU 0 instructions: 394000001 cycles: 3411697863 heartbeat IPC: 0.127589 cumulative IPC: 0.11521 (Simulation time: 0 hr 48 min 50 sec) 
Heartbeat CPU 0 instructions: 395000000 cycles: 3419559434 heartbeat IPC: 0.127201 cumulative IPC: 0.115238 (Simulation time: 0 hr 48 min 54 sec) 
Heartbeat CPU 0 instructions: 396000000 cycles: 3429254376 heartbeat IPC: 0.103147 cumulative IPC: 0.115204 (Simulation time: 0 hr 48 min 59 sec) 
Heartbeat CPU 0 instructions: 397000000 cycles: 3437298973 heartbeat IPC: 0.124307 cumulative IPC: 0.115225 (Simulation time: 0 hr 49 min 3 sec) 
Heartbeat CPU 0 instructions: 398000001 cycles: 3445927015 heartbeat IPC: 0.115901 cumulative IPC: 0.115227 (Simulation time: 0 hr 49 min 7 sec) 
Heartbeat CPU 0 instructions: 399000001 cycles: 3454777907 heartbeat IPC: 0.112983 cumulative IPC: 0.115221 (Simulation time: 0 hr 49 min 11 sec) 
Heartbeat CPU 0 instructions: 400000001 cycles: 3463223059 heartbeat IPC: 0.118411 cumulative IPC: 0.115229 (Simulation time: 0 hr 49 min 15 sec) 
Heartbeat CPU 0 instructions: 401000000 cycles: 3472946144 heartbeat IPC: 0.102848 cumulative IPC: 0.115194 (Simulation time: 0 hr 49 min 20 sec) 
Heartbeat CPU 0 instructions: 402000000 cycles: 3481142071 heartbeat IPC: 0.122012 cumulative IPC: 0.11521 (Simulation time: 0 hr 49 min 24 sec) 
Heartbeat CPU 0 instructions: 403000003 cycles: 3489569873 heartbeat IPC: 0.118655 cumulative IPC: 0.115218 (Simulation time: 0 hr 49 min 28 sec) 
Heartbeat CPU 0 instructions: 404000000 cycles: 3499425435 heartbeat IPC: 0.101465 cumulative IPC: 0.11518 (Simulation time: 0 hr 49 min 33 sec) 
Heartbeat CPU 0 instructions: 405000002 cycles: 3507923320 heartbeat IPC: 0.117677 cumulative IPC: 0.115186 (Simulation time: 0 hr 49 min 37 sec) 
Heartbeat CPU 0 instructions: 406000001 cycles: 3516279909 heartbeat IPC: 0.119666 cumulative IPC: 0.115196 (Simulation time: 0 hr 49 min 41 sec) 
Heartbeat CPU 0 instructions: 407000000 cycles: 3526440735 heartbeat IPC: 0.0984171 cumulative IPC: 0.115148 (Simulation time: 0 hr 49 min 47 sec) 
Heartbeat CPU 0 instructions: 408000000 cycles: 3534360983 heartbeat IPC: 0.126259 cumulative IPC: 0.115173 (Simulation time: 0 hr 49 min 51 sec) 
Heartbeat CPU 0 instructions: 409000003 cycles: 3542560204 heartbeat IPC: 0.121963 cumulative IPC: 0.115189 (Simulation time: 0 hr 49 min 55 sec) 
Heartbeat CPU 0 instructions: 410000001 cycles: 3552581163 heartbeat IPC: 0.0997906 cumulative IPC: 0.115145 (Simulation time: 0 hr 50 min 0 sec) 
Heartbeat CPU 0 instructions: 411000001 cycles: 3560504458 heartbeat IPC: 0.12621 cumulative IPC: 0.11517 (Simulation time: 0 hr 50 min 4 sec) 
Heartbeat CPU 0 instructions: 412000001 cycles: 3568748534 heartbeat IPC: 0.121299 cumulative IPC: 0.115184 (Simulation time: 0 hr 50 min 8 sec) 
Heartbeat CPU 0 instructions: 413000001 cycles: 3578664823 heartbeat IPC: 0.100844 cumulative IPC: 0.115144 (Simulation time: 0 hr 50 min 13 sec) 
Heartbeat CPU 0 instructions: 414000001 cycles: 3588592929 heartbeat IPC: 0.100724 cumulative IPC: 0.115104 (Simulation time: 0 hr 50 min 19 sec) 
Heartbeat CPU 0 instructions: 415000002 cycles: 3596398304 heartbeat IPC: 0.128117 cumulative IPC: 0.115133 (Simulation time: 0 hr 50 min 23 sec) 
Heartbeat CPU 0 instructions: 416000002 cycles: 3604717137 heartbeat IPC: 0.120209 cumulative IPC: 0.115144 (Simulation time: 0 hr 50 min 27 sec) 
Heartbeat CPU 0 instructions: 417000001 cycles: 3613166525 heartbeat IPC: 0.118352 cumulative IPC: 0.115152 (Simulation time: 0 hr 50 min 31 sec) 
Heartbeat CPU 0 instructions: 418000000 cycles: 3621592780 heartbeat IPC: 0.118677 cumulative IPC: 0.11516 (Simulation time: 0 hr 50 min 35 sec) 
Heartbeat CPU 0 instructions: 419000000 cycles: 3631866006 heartbeat IPC: 0.0973404 cumulative IPC: 0.11511 (Simulation time: 0 hr 50 min 40 sec) 
Heartbeat CPU 0 instructions: 420000000 cycles: 3641467160 heartbeat IPC: 0.104154 cumulative IPC: 0.115081 (Simulation time: 0 hr 50 min 46 sec) 
Heartbeat CPU 0 instructions: 421000002 cycles: 3649389637 heartbeat IPC: 0.126223 cumulative IPC: 0.115105 (Simulation time: 0 hr 50 min 50 sec) 
Heartbeat CPU 0 instructions: 422000001 cycles: 3657767520 heartbeat IPC: 0.119362 cumulative IPC: 0.115115 (Simulation time: 0 hr 50 min 54 sec) 
Heartbeat CPU 0 instructions: 423000001 cycles: 3666173190 heartbeat IPC: 0.118967 cumulative IPC: 0.115124 (Simulation time: 0 hr 50 min 58 sec) 
Heartbeat CPU 0 instructions: 424000002 cycles: 3674525828 heartbeat IPC: 0.119723 cumulative IPC: 0.115134 (Simulation time: 0 hr 51 min 2 sec) 
Heartbeat CPU 0 instructions: 425000001 cycles: 3684279347 heartbeat IPC: 0.102527 cumulative IPC: 0.115101 (Simulation time: 0 hr 51 min 7 sec) 
Heartbeat CPU 0 instructions: 426000000 cycles: 3692414957 heartbeat IPC: 0.122916 cumulative IPC: 0.115118 (Simulation time: 0 hr 51 min 11 sec) 
Heartbeat CPU 0 instructions: 427000000 cycles: 3701143307 heartbeat IPC: 0.114569 cumulative IPC: 0.115117 (Simulation time: 0 hr 51 min 15 sec) 
Heartbeat CPU 0 instructions: 428000003 cycles: 3709692363 heartbeat IPC: 0.116972 cumulative IPC: 0.115121 (Simulation time: 0 hr 51 min 19 sec) 
Heartbeat CPU 0 instructions: 429000000 cycles: 3719915590 heartbeat IPC: 0.0978162 cumulative IPC: 0.115073 (Simulation time: 0 hr 51 min 24 sec) 
Heartbeat CPU 0 instructions: 430000001 cycles: 3727959615 heartbeat IPC: 0.124316 cumulative IPC: 0.115093 (Simulation time: 0 hr 51 min 28 sec) 
Heartbeat CPU 0 instructions: 431000001 cycles: 3736158093 heartbeat IPC: 0.121974 cumulative IPC: 0.115108 (Simulation time: 0 hr 51 min 32 sec) 
Heartbeat CPU 0 instructions: 432000002 cycles: 3744210773 heartbeat IPC: 0.124182 cumulative IPC: 0.115128 (Simulation time: 0 hr 51 min 36 sec) 
Heartbeat CPU 0 instructions: 433000002 cycles: 3754313177 heartbeat IPC: 0.0989863 cumulative IPC: 0.115084 (Simulation time: 0 hr 51 min 42 sec) 
Heartbeat CPU 0 instructions: 434000001 cycles: 3763540927 heartbeat IPC: 0.108369 cumulative IPC: 0.115068 (Simulation time: 0 hr 51 min 47 sec) 
Heartbeat CPU 0 instructions: 435000001 cycles: 3771185535 heartbeat IPC: 0.130811 cumulative IPC: 0.1151 (Simulation time: 0 hr 51 min 51 sec) 
Heartbeat CPU 0 instructions: 436000000 cycles: 3780917440 heartbeat IPC: 0.102755 cumulative IPC: 0.115068 (Simulation time: 0 hr 51 min 57 sec) 
Heartbeat CPU 0 instructions: 437000000 cycles: 3788921874 heartbeat IPC: 0.124931 cumulative IPC: 0.115089 (Simulation time: 0 hr 52 min 1 sec) 
Heartbeat CPU 0 instructions: 438000001 cycles: 3797267486 heartbeat IPC: 0.119824 cumulative IPC: 0.115099 (Simulation time: 0 hr 52 min 5 sec) 
Heartbeat CPU 0 instructions: 439000002 cycles: 3805395918 heartbeat IPC: 0.123025 cumulative IPC: 0.115116 (Simulation time: 0 hr 52 min 9 sec) 
Heartbeat CPU 0 instructions: 440000000 cycles: 3815070666 heartbeat IPC: 0.103362 cumulative IPC: 0.115086 (Simulation time: 0 hr 52 min 14 sec) 
Heartbeat CPU 0 instructions: 441000000 cycles: 3824554584 heartbeat IPC: 0.105442 cumulative IPC: 0.115062 (Simulation time: 0 hr 52 min 18 sec) 
Heartbeat CPU 0 instructions: 442000000 cycles: 3832753572 heartbeat IPC: 0.121966 cumulative IPC: 0.115077 (Simulation time: 0 hr 52 min 23 sec) 
Heartbeat CPU 0 instructions: 443000003 cycles: 3840850837 heartbeat IPC: 0.123499 cumulative IPC: 0.115095 (Simulation time: 0 hr 52 min 27 sec) 
Heartbeat CPU 0 instructions: 444000000 cycles: 3849282914 heartbeat IPC: 0.118594 cumulative IPC: 0.115103 (Simulation time: 0 hr 52 min 31 sec) 
Heartbeat CPU 0 instructions: 445000000 cycles: 3857848208 heartbeat IPC: 0.11675 cumulative IPC: 0.115106 (Simulation time: 0 hr 52 min 35 sec) 
Heartbeat CPU 0 instructions: 446000003 cycles: 3867056267 heartbeat IPC: 0.108601 cumulative IPC: 0.115091 (Simulation time: 0 hr 52 min 39 sec) 
Heartbeat CPU 0 instructions: 447000000 cycles: 3876104306 heartbeat IPC: 0.110521 cumulative IPC: 0.11508 (Simulation time: 0 hr 52 min 44 sec) 
Heartbeat CPU 0 instructions: 448000002 cycles: 3884445371 heartbeat IPC: 0.119889 cumulative IPC: 0.115091 (Simulation time: 0 hr 52 min 48 sec) 
Heartbeat CPU 0 instructions: 449000001 cycles: 3892938121 heartbeat IPC: 0.117747 cumulative IPC: 0.115096 (Simulation time: 0 hr 52 min 52 sec) 
Heartbeat CPU 0 instructions: 450000002 cycles: 3903328990 heartbeat IPC: 0.0962384 cumulative IPC: 0.115046 (Simulation time: 0 hr 52 min 58 sec) 

Warmup complete CPU 0 instructions: 450000002 cycles: 3903328990 (Simulation time: 0 hr 52 min 58 sec) 

Heartbeat CPU 0 instructions: 451000000 cycles: 3908337075 heartbeat IPC: 0.199677 cumulative IPC: 0.199677 (Simulation time: 0 hr 53 min 1 sec) 
Heartbeat CPU 0 instructions: 452000001 cycles: 3913390880 heartbeat IPC: 0.197871 cumulative IPC: 0.19877 (Simulation time: 0 hr 53 min 4 sec) 
Heartbeat CPU 0 instructions: 453000000 cycles: 3918992658 heartbeat IPC: 0.178515 cumulative IPC: 0.191526 (Simulation time: 0 hr 53 min 7 sec) 
Heartbeat CPU 0 instructions: 454000003 cycles: 3927190204 heartbeat IPC: 0.121988 cumulative IPC: 0.167636 (Simulation time: 0 hr 53 min 12 sec) 
Heartbeat CPU 0 instructions: 455000001 cycles: 3933587733 heartbeat IPC: 0.15631 cumulative IPC: 0.165241 (Simulation time: 0 hr 53 min 16 sec) 
Heartbeat CPU 0 instructions: 456000000 cycles: 3940631146 heartbeat IPC: 0.141976 cumulative IPC: 0.160849 (Simulation time: 0 hr 53 min 20 sec) 
Heartbeat CPU 0 instructions: 457000000 cycles: 3947426520 heartbeat IPC: 0.147159 cumulative IPC: 0.158739 (Simulation time: 0 hr 53 min 24 sec) 
Heartbeat CPU 0 instructions: 458000003 cycles: 3953287853 heartbeat IPC: 0.17061 cumulative IPC: 0.160132 (Simulation time: 0 hr 53 min 28 sec) 
Heartbeat CPU 0 instructions: 459000000 cycles: 3957902410 heartbeat IPC: 0.216705 cumulative IPC: 0.164915 (Simulation time: 0 hr 53 min 31 sec) 
Heartbeat CPU 0 instructions: 460000002 cycles: 3965628064 heartbeat IPC: 0.129439 cumulative IPC: 0.160516 (Simulation time: 0 hr 53 min 36 sec) 
Heartbeat CPU 0 instructions: 461000001 cycles: 3970897507 heartbeat IPC: 0.189773 cumulative IPC: 0.162798 (Simulation time: 0 hr 53 min 39 sec) 
Heartbeat CPU 0 instructions: 462000000 cycles: 3976819304 heartbeat IPC: 0.168867 cumulative IPC: 0.163287 (Simulation time: 0 hr 53 min 43 sec) 
Heartbeat CPU 0 instructions: 463000002 cycles: 3985417015 heartbeat IPC: 0.11631 cumulative IPC: 0.158367 (Simulation time: 0 hr 53 min 47 sec) 
Heartbeat CPU 0 instructions: 464000002 cycles: 3991384407 heartbeat IPC: 0.167577 cumulative IPC: 0.158991 (Simulation time: 0 hr 53 min 51 sec) 
Heartbeat CPU 0 instructions: 465000002 cycles: 3997170849 heartbeat IPC: 0.172818 cumulative IPC: 0.159843 (Simulation time: 0 hr 53 min 54 sec) 
Heartbeat CPU 0 instructions: 466000001 cycles: 4003554171 heartbeat IPC: 0.156658 cumulative IPC: 0.159641 (Simulation time: 0 hr 53 min 58 sec) 
Heartbeat CPU 0 instructions: 467000003 cycles: 4009867101 heartbeat IPC: 0.158405 cumulative IPC: 0.159567 (Simulation time: 0 hr 54 min 2 sec) 
Heartbeat CPU 0 instructions: 468000000 cycles: 4015005557 heartbeat IPC: 0.19461 cumulative IPC: 0.16118 (Simulation time: 0 hr 54 min 6 sec) 
Heartbeat CPU 0 instructions: 469000000 cycles: 4020719612 heartbeat IPC: 0.175007 cumulative IPC: 0.161853 (Simulation time: 0 hr 54 min 9 sec) 
Heartbeat CPU 0 instructions: 470000002 cycles: 4027029834 heartbeat IPC: 0.158473 cumulative IPC: 0.16168 (Simulation time: 0 hr 54 min 12 sec) 
Heartbeat CPU 0 instructions: 471000000 cycles: 4035138790 heartbeat IPC: 0.12332 cumulative IPC: 0.15932 (Simulation time: 0 hr 54 min 17 sec) 
Heartbeat CPU 0 instructions: 472000000 cycles: 4043008709 heartbeat IPC: 0.127066 cumulative IPC: 0.157503 (Simulation time: 0 hr 54 min 22 sec) 
Heartbeat CPU 0 instructions: 473000000 cycles: 4048607112 heartbeat IPC: 0.178622 cumulative IPC: 0.158317 (Simulation time: 0 hr 54 min 25 sec) 
Heartbeat CPU 0 instructions: 474000000 cycles: 4054027506 heartbeat IPC: 0.184488 cumulative IPC: 0.159258 (Simulation time: 0 hr 54 min 28 sec) 
Heartbeat CPU 0 instructions: 475000002 cycles: 4061891206 heartbeat IPC: 0.127167 cumulative IPC: 0.157667 (Simulation time: 0 hr 54 min 33 sec) 
Heartbeat CPU 0 instructions: 476000000 cycles: 4067480034 heartbeat IPC: 0.178928 cumulative IPC: 0.158391 (Simulation time: 0 hr 54 min 36 sec) 
Heartbeat CPU 0 instructions: 477000000 cycles: 4073213209 heartbeat IPC: 0.174423 cumulative IPC: 0.158932 (Simulation time: 0 hr 54 min 40 sec) 
Heartbeat CPU 0 instructions: 478000003 cycles: 4078802466 heartbeat IPC: 0.178915 cumulative IPC: 0.159568 (Simulation time: 0 hr 54 min 43 sec) 
Heartbeat CPU 0 instructions: 479000000 cycles: 4084251297 heartbeat IPC: 0.183525 cumulative IPC: 0.16029 (Simulation time: 0 hr 54 min 46 sec) 
Heartbeat CPU 0 instructions: 480000000 cycles: 4092352405 heartbeat IPC: 0.12344 cumulative IPC: 0.15871 (Simulation time: 0 hr 54 min 51 sec) 
Heartbeat CPU 0 instructions: 481000000 cycles: 4098575667 heartbeat IPC: 0.160687 cumulative IPC: 0.158773 (Simulation time: 0 hr 54 min 55 sec) 
Heartbeat CPU 0 instructions: 482000000 cycles: 4105011932 heartbeat IPC: 0.15537 cumulative IPC: 0.158665 (Simulation time: 0 hr 54 min 58 sec) 
Heartbeat CPU 0 instructions: 483000000 cycles: 4111087256 heartbeat IPC: 0.1646 cumulative IPC: 0.158838 (Simulation time: 0 hr 55 min 2 sec) 
Heartbeat CPU 0 instructions: 484000000 cycles: 4119231796 heartbeat IPC: 0.122782 cumulative IPC: 0.157478 (Simulation time: 0 hr 55 min 6 sec) 
Heartbeat CPU 0 instructions: 485000002 cycles: 4124736490 heartbeat IPC: 0.181663 cumulative IPC: 0.15808 (Simulation time: 0 hr 55 min 10 sec) 
Heartbeat CPU 0 instructions: 486000002 cycles: 4129573472 heartbeat IPC: 0.20674 cumulative IPC: 0.15912 (Simulation time: 0 hr 55 min 13 sec) 
Heartbeat CPU 0 instructions: 487000002 cycles: 4137245801 heartbeat IPC: 0.130339 cumulative IPC: 0.158176 (Simulation time: 0 hr 55 min 18 sec) 
Heartbeat CPU 0 instructions: 488000001 cycles: 4142651452 heartbeat IPC: 0.184991 cumulative IPC: 0.158782 (Simulation time: 0 hr 55 min 21 sec) 
Heartbeat CPU 0 instructions: 489000002 cycles: 4150297594 heartbeat IPC: 0.130785 cumulative IPC: 0.157915 (Simulation time: 0 hr 55 min 25 sec) 
Heartbeat CPU 0 instructions: 490000000 cycles: 4156060542 heartbeat IPC: 0.173522 cumulative IPC: 0.158271 (Simulation time: 0 hr 55 min 29 sec) 
Heartbeat CPU 0 instructions: 491000000 cycles: 4161672860 heartbeat IPC: 0.17818 cumulative IPC: 0.158703 (Simulation time: 0 hr 55 min 32 sec) 
Heartbeat CPU 0 instructions: 492000003 cycles: 4167518262 heartbeat IPC: 0.171075 cumulative IPC: 0.158977 (Simulation time: 0 hr 55 min 36 sec) 
Heartbeat CPU 0 instructions: 493000002 cycles: 4175490006 heartbeat IPC: 0.125443 cumulative IPC: 0.157995 (Simulation time: 0 hr 55 min 40 sec) 
Heartbeat CPU 0 instructions: 494000000 cycles: 4181387935 heartbeat IPC: 0.169551 cumulative IPC: 0.15824 (Simulation time: 0 hr 55 min 44 sec) 
Heartbeat CPU 0 instructions: 495000000 cycles: 4188549171 heartbeat IPC: 0.139641 cumulative IPC: 0.157773 (Simulation time: 0 hr 55 min 47 sec) 
Heartbeat CPU 0 instructions: 496000000 cycles: 4195102106 heartbeat IPC: 0.152603 cumulative IPC: 0.157657 (Simulation time: 0 hr 55 min 52 sec) 
Heartbeat CPU 0 instructions: 497000001 cycles: 4201087137 heartbeat IPC: 0.167084 cumulative IPC: 0.157846 (Simulation time: 0 hr 55 min 55 sec) 
Heartbeat CPU 0 instructions: 498000000 cycles: 4207704559 heartbeat IPC: 0.151116 cumulative IPC: 0.1577 (Simulation time: 0 hr 55 min 59 sec) 
Heartbeat CPU 0 instructions: 499000001 cycles: 4216069608 heartbeat IPC: 0.119545 cumulative IPC: 0.156679 (Simulation time: 0 hr 56 min 3 sec) 
Heartbeat CPU 0 instructions: 500000001 cycles: 4221803677 heartbeat IPC: 0.174396 cumulative IPC: 0.156998 (Simulation time: 0 hr 56 min 7 sec) 
Heartbeat CPU 0 instructions: 501000000 cycles: 4228881219 heartbeat IPC: 0.141292 cumulative IPC: 0.156657 (Simulation time: 0 hr 56 min 11 sec) 
Heartbeat CPU 0 instructions: 502000003 cycles: 4233504784 heartbeat IPC: 0.216284 cumulative IPC: 0.157492 (Simulation time: 0 hr 56 min 14 sec) 
Heartbeat CPU 0 instructions: 503000000 cycles: 4238794443 heartbeat IPC: 0.189048 cumulative IPC: 0.157989 (Simulation time: 0 hr 56 min 18 sec) 
Heartbeat CPU 0 instructions: 504000001 cycles: 4245418827 heartbeat IPC: 0.150958 cumulative IPC: 0.157853 (Simulation time: 0 hr 56 min 21 sec) 
Heartbeat CPU 0 instructions: 505000002 cycles: 4254150907 heartbeat IPC: 0.11452 cumulative IPC: 0.156775 (Simulation time: 0 hr 56 min 26 sec) 
Heartbeat CPU 0 instructions: 506000000 cycles: 4258674683 heartbeat IPC: 0.221054 cumulative IPC: 0.157593 (Simulation time: 0 hr 56 min 29 sec) 
Heartbeat CPU 0 instructions: 507000003 cycles: 4263673934 heartbeat IPC: 0.200031 cumulative IPC: 0.158182 (Simulation time: 0 hr 56 min 32 sec) 
Heartbeat CPU 0 instructions: 508000001 cycles: 4269202611 heartbeat IPC: 0.180875 cumulative IPC: 0.158525 (Simulation time: 0 hr 56 min 35 sec) 
Heartbeat CPU 0 instructions: 509000000 cycles: 4274363348 heartbeat IPC: 0.193771 cumulative IPC: 0.159015 (Simulation time: 0 hr 56 min 38 sec) 
Heartbeat CPU 0 instructions: 510000000 cycles: 4281586643 heartbeat IPC: 0.138441 cumulative IPC: 0.158622 (Simulation time: 0 hr 56 min 43 sec) 
Heartbeat CPU 0 instructions: 511000000 cycles: 4286434889 heartbeat IPC: 0.20626 cumulative IPC: 0.159225 (Simulation time: 0 hr 56 min 46 sec) 
Heartbeat CPU 0 instructions: 512000003 cycles: 4290874978 heartbeat IPC: 0.225221 cumulative IPC: 0.159981 (Simulation time: 0 hr 56 min 49 sec) 
Heartbeat CPU 0 instructions: 513000000 cycles: 4298704768 heartbeat IPC: 0.127717 cumulative IPC: 0.159342 (Simulation time: 0 hr 56 min 54 sec) 
Heartbeat CPU 0 instructions: 514000000 cycles: 4304608598 heartbeat IPC: 0.169382 cumulative IPC: 0.15949 (Simulation time: 0 hr 56 min 57 sec) 
Heartbeat CPU 0 instructions: 515000003 cycles: 4311008992 heartbeat IPC: 0.156241 cumulative IPC: 0.159439 (Simulation time: 0 hr 57 min 1 sec) 
Heartbeat CPU 0 instructions: 516000000 cycles: 4317799013 heartbeat IPC: 0.147275 cumulative IPC: 0.15924 (Simulation time: 0 hr 57 min 5 sec) 
Heartbeat CPU 0 instructions: 517000000 cycles: 4324317440 heartbeat IPC: 0.153411 cumulative IPC: 0.159149 (Simulation time: 0 hr 57 min 8 sec) 
Heartbeat CPU 0 instructions: 518000000 cycles: 4332379961 heartbeat IPC: 0.124031 cumulative IPC: 0.158489 (Simulation time: 0 hr 57 min 13 sec) 
Heartbeat CPU 0 instructions: 519000000 cycles: 4337188653 heartbeat IPC: 0.207957 cumulative IPC: 0.159038 (Simulation time: 0 hr 57 min 16 sec) 
Heartbeat CPU 0 instructions: 520000001 cycles: 4341642031 heartbeat IPC: 0.224549 cumulative IPC: 0.159703 (Simulation time: 0 hr 57 min 19 sec) 
Heartbeat CPU 0 instructions: 521000000 cycles: 4346169989 heartbeat IPC: 0.22085 cumulative IPC: 0.160328 (Simulation time: 0 hr 57 min 22 sec) 
Heartbeat CPU 0 instructions: 522000001 cycles: 4353694643 heartbeat IPC: 0.132897 cumulative IPC: 0.15987 (Simulation time: 0 hr 57 min 26 sec) 
Heartbeat CPU 0 instructions: 523000001 cycles: 4358644952 heartbeat IPC: 0.202008 cumulative IPC: 0.160328 (Simulation time: 0 hr 57 min 30 sec) 
Heartbeat CPU 0 instructions: 524000000 cycles: 4363387988 heartbeat IPC: 0.210835 cumulative IPC: 0.160849 (Simulation time: 0 hr 57 min 33 sec) 
Heartbeat CPU 0 instructions: 525000001 cycles: 4370889111 heartbeat IPC: 0.133314 cumulative IPC: 0.160407 (Simulation time: 0 hr 57 min 38 sec) 
Heartbeat CPU 0 instructions: 526000003 cycles: 4375932209 heartbeat IPC: 0.198291 cumulative IPC: 0.160811 (Simulation time: 0 hr 57 min 41 sec) 
Heartbeat CPU 0 instructions: 527000000 cycles: 4381552714 heartbeat IPC: 0.177919 cumulative IPC: 0.161013 (Simulation time: 0 hr 57 min 44 sec) 
Heartbeat CPU 0 instructions: 528000000 cycles: 4387363539 heartbeat IPC: 0.172093 cumulative IPC: 0.161146 (Simulation time: 0 hr 57 min 48 sec) 
Heartbeat CPU 0 instructions: 529000000 cycles: 4393255478 heartbeat IPC: 0.169723 cumulative IPC: 0.161249 (Simulation time: 0 hr 57 min 51 sec) 
Heartbeat CPU 0 instructions: 530000002 cycles: 4401914251 heartbeat IPC: 0.11549 cumulative IPC: 0.160454 (Simulation time: 0 hr 57 min 56 sec) 
Heartbeat CPU 0 instructions: 531000000 cycles: 4406174014 heartbeat IPC: 0.234754 cumulative IPC: 0.161083 (Simulation time: 0 hr 57 min 59 sec) 
Heartbeat CPU 0 instructions: 532000002 cycles: 4411037160 heartbeat IPC: 0.205629 cumulative IPC: 0.16151 (Simulation time: 0 hr 58 min 2 sec) 
Heartbeat CPU 0 instructions: 533000000 cycles: 4418376148 heartbeat IPC: 0.136258 cumulative IPC: 0.16115 (Simulation time: 0 hr 58 min 6 sec) 
Heartbeat CPU 0 instructions: 534000001 cycles: 4426202510 heartbeat IPC: 0.127773 cumulative IPC: 0.160651 (Simulation time: 0 hr 58 min 11 sec) 
Heartbeat CPU 0 instructions: 535000000 cycles: 4431687381 heartbeat IPC: 0.18232 cumulative IPC: 0.160876 (Simulation time: 0 hr 58 min 15 sec) 
Heartbeat CPU 0 instructions: 536000001 cycles: 4437666631 heartbeat IPC: 0.167245 cumulative IPC: 0.160947 (Simulation time: 0 hr 58 min 18 sec) 
Heartbeat CPU 0 instructions: 537000000 cycles: 4446426038 heartbeat IPC: 0.114163 cumulative IPC: 0.160192 (Simulation time: 0 hr 58 min 23 sec) 
Heartbeat CPU 0 instructions: 538000000 cycles: 4452186989 heartbeat IPC: 0.173582 cumulative IPC: 0.160333 (Simulation time: 0 hr 58 min 26 sec) 
Heartbeat CPU 0 instructions: 539000000 cycles: 4457656814 heartbeat IPC: 0.182821 cumulative IPC: 0.160555 (Simulation time: 0 hr 58 min 30 sec) 
Heartbeat CPU 0 instructions: 540000000 cycles: 4464558174 heartbeat IPC: 0.144899 cumulative IPC: 0.160362 (Simulation time: 0 hr 58 min 33 sec) 
Heartbeat CPU 0 instructions: 541000003 cycles: 4470074106 heartbeat IPC: 0.181294 cumulative IPC: 0.160566 (Simulation time: 0 hr 58 min 37 sec) 
Heartbeat CPU 0 instructions: 542000000 cycles: 4475885955 heartbeat IPC: 0.172062 cumulative IPC: 0.160683 (Simulation time: 0 hr 58 min 41 sec) 
Heartbeat CPU 0 instructions: 543000000 cycles: 4484110724 heartbeat IPC: 0.121584 cumulative IPC: 0.160129 (Simulation time: 0 hr 58 min 46 sec) 
[...]
Heartbeat CPU 0 instructions: 836000000 cycles: 6271813722 heartbeat IPC: 0.202958 cumulative IPC: 0.162973 (Simulation time: 1 hr 16 min 50 sec) 
Heartbeat CPU 0 instructions: 837000002 cycles: 6276767671 heartbeat IPC: 0.20186 cumulative IPC: 0.163055 (Simulation time: 1 hr 16 min 53 sec) 
Heartbeat CPU 0 instructions: 838000001 cycles: 6281985464 heartbeat IPC: 0.191652 cumulative IPC: 0.163117 (Simulation time: 1 hr 16 min 57 sec) 
Heartbeat CPU 0 instructions: 839000000 cycles: 6289021154 heartbeat IPC: 0.142132 cumulative IPC: 0.163055 (Simulation time: 1 hr 17 min 0 sec) 
Heartbeat CPU 0 instructions: 840000001 cycles: 6295446269 heartbeat IPC: 0.155639 cumulative IPC: 0.163035 (Simulation time: 1 hr 17 min 5 sec) 
Heartbeat CPU 0 instructions: 841000000 cycles: 6302902566 heartbeat IPC: 0.134115 cumulative IPC: 0.162946 (Simulation time: 1 hr 17 min 10 sec) 
Heartbeat CPU 0 instructions: 842000000 cycles: 6307194285 heartbeat IPC: 0.233007 cumulative IPC: 0.163071 (Simulation time: 1 hr 17 min 13 sec) 
Heartbeat CPU 0 instructions: 843000001 cycles: 6311736973 heartbeat IPC: 0.220134 cumulative IPC: 0.163178 (Simulation time: 1 hr 17 min 16 sec) 
Heartbeat CPU 0 instructions: 844000001 cycles: 6316334688 heartbeat IPC: 0.217499 cumulative IPC: 0.163282 (Simulation time: 1 hr 17 min 19 sec) 
Heartbeat CPU 0 instructions: 845000000 cycles: 6323770897 heartbeat IPC: 0.134477 cumulative IPC: 0.163193 (Simulation time: 1 hr 17 min 24 sec) 
Heartbeat CPU 0 instructions: 846000000 cycles: 6327616235 heartbeat IPC: 0.260055 cumulative IPC: 0.163347 (Simulation time: 1 hr 17 min 27 sec) 
Heartbeat CPU 0 instructions: 847000000 cycles: 6331480471 heartbeat IPC: 0.258783 cumulative IPC: 0.163499 (Simulation time: 1 hr 17 min 30 sec) 
Heartbeat CPU 0 instructions: 848000000 cycles: 6335454371 heartbeat IPC: 0.251642 cumulative IPC: 0.163643 (Simulation time: 1 hr 17 min 33 sec) 
Heartbeat CPU 0 instructions: 849000002 cycles: 6339696616 heartbeat IPC: 0.235725 cumulative IPC: 0.163768 (Simulation time: 1 hr 17 min 36 sec) 
Heartbeat CPU 0 instructions: 850000000 cycles: 6345136923 heartbeat IPC: 0.183813 cumulative IPC: 0.163813 (Simulation time: 1 hr 17 min 40 sec) 
Heartbeat CPU 0 instructions: 851000003 cycles: 6351977342 heartbeat IPC: 0.14619 cumulative IPC: 0.163764 (Simulation time: 1 hr 17 min 44 sec) 
Heartbeat CPU 0 instructions: 852000002 cycles: 6357997917 heartbeat IPC: 0.166097 cumulative IPC: 0.16377 (Simulation time: 1 hr 17 min 48 sec) 
Heartbeat CPU 0 instructions: 853000002 cycles: 6366488260 heartbeat IPC: 0.117781 cumulative IPC: 0.163611 (Simulation time: 1 hr 17 min 52 sec) 
Heartbeat CPU 0 instructions: 854000003 cycles: 6371984307 heartbeat IPC: 0.181949 cumulative IPC: 0.163652 (Simulation time: 1 hr 17 min 56 sec) 
Heartbeat CPU 0 instructions: 855000002 cycles: 6378132833 heartbeat IPC: 0.16264 cumulative IPC: 0.163649 (Simulation time: 1 hr 17 min 59 sec) 
Heartbeat CPU 0 instructions: 856000000 cycles: 6384544471 heartbeat IPC: 0.155966 cumulative IPC: 0.163629 (Simulation time: 1 hr 18 min 3 sec) 
Heartbeat CPU 0 instructions: 857000001 cycles: 6390678096 heartbeat IPC: 0.163036 cumulative IPC: 0.163628 (Simulation time: 1 hr 18 min 6 sec) 
Heartbeat CPU 0 instructions: 858000000 cycles: 6399080317 heartbeat IPC: 0.119016 cumulative IPC: 0.163478 (Simulation time: 1 hr 18 min 11 sec) 
Heartbeat CPU 0 instructions: 859000003 cycles: 6406770234 heartbeat IPC: 0.130041 cumulative IPC: 0.163375 (Simulation time: 1 hr 18 min 16 sec) 
Heartbeat CPU 0 instructions: 860000003 cycles: 6412238146 heartbeat IPC: 0.182885 cumulative IPC: 0.163418 (Simulation time: 1 hr 18 min 19 sec) 
Heartbeat CPU 0 instructions: 861000000 cycles: 6420270812 heartbeat IPC: 0.124491 cumulative IPC: 0.163293 (Simulation time: 1 hr 18 min 24 sec) 
Heartbeat CPU 0 instructions: 862000003 cycles: 6425149040 heartbeat IPC: 0.204993 cumulative IPC: 0.163374 (Simulation time: 1 hr 18 min 27 sec) 
Heartbeat CPU 0 instructions: 863000000 cycles: 6429862943 heartbeat IPC: 0.212138 cumulative IPC: 0.163465 (Simulation time: 1 hr 18 min 30 sec) 
Heartbeat CPU 0 instructions: 864000000 cycles: 6434810921 heartbeat IPC: 0.202103 cumulative IPC: 0.163541 (Simulation time: 1 hr 18 min 34 sec) 
Heartbeat CPU 0 instructions: 865000002 cycles: 6442664714 heartbeat IPC: 0.127327 cumulative IPC: 0.163429 (Simulation time: 1 hr 18 min 38 sec) 
Heartbeat CPU 0 instructions: 866000003 cycles: 6447859557 heartbeat IPC: 0.192499 cumulative IPC: 0.163488 (Simulation time: 1 hr 18 min 42 sec) 
Heartbeat CPU 0 instructions: 867000003 cycles: 6453008521 heartbeat IPC: 0.194214 cumulative IPC: 0.16355 (Simulation time: 1 hr 18 min 45 sec) 
Heartbeat CPU 0 instructions: 868000000 cycles: 6458070193 heartbeat IPC: 0.197563 cumulative IPC: 0.163617 (Simulation time: 1 hr 18 min 48 sec) 
Heartbeat CPU 0 instructions: 869000000 cycles: 6465849806 heartbeat IPC: 0.128541 cumulative IPC: 0.163511 (Simulation time: 1 hr 18 min 53 sec) 
Heartbeat CPU 0 instructions: 870000000 cycles: 6471393780 heartbeat IPC: 0.180376 cumulative IPC: 0.163547 (Simulation time: 1 hr 18 min 56 sec) 
Heartbeat CPU 0 instructions: 871000001 cycles: 6477750948 heartbeat IPC: 0.157303 cumulative IPC: 0.163532 (Simulation time: 1 hr 19 min 0 sec) 
Heartbeat CPU 0 instructions: 872000001 cycles: 6484265209 heartbeat IPC: 0.153509 cumulative IPC: 0.163507 (Simulation time: 1 hr 19 min 3 sec) 
Heartbeat CPU 0 instructions: 873000000 cycles: 6490102089 heartbeat IPC: 0.171324 cumulative IPC: 0.163524 (Simulation time: 1 hr 19 min 6 sec) 
Heartbeat CPU 0 instructions: 874000003 cycles: 6498209913 heartbeat IPC: 0.123338 cumulative IPC: 0.163399 (Simulation time: 1 hr 19 min 11 sec) 
Heartbeat CPU 0 instructions: 875000000 cycles: 6503373052 heartbeat IPC: 0.19368 cumulative IPC: 0.163459 (Simulation time: 1 hr 19 min 14 sec) 
Heartbeat CPU 0 instructions: 876000003 cycles: 6509989031 heartbeat IPC: 0.15115 cumulative IPC: 0.163428 (Simulation time: 1 hr 19 min 18 sec) 
Heartbeat CPU 0 instructions: 877000000 cycles: 6516643473 heartbeat IPC: 0.150275 cumulative IPC: 0.163394 (Simulation time: 1 hr 19 min 22 sec) 
Heartbeat CPU 0 instructions: 878000001 cycles: 6524809354 heartbeat IPC: 0.122461 cumulative IPC: 0.163267 (Simulation time: 1 hr 19 min 27 sec) 
Heartbeat CPU 0 instructions: 879000000 cycles: 6529647924 heartbeat IPC: 0.206672 cumulative IPC: 0.163346 (Simulation time: 1 hr 19 min 30 sec) 
Heartbeat CPU 0 instructions: 880000000 cycles: 6535615812 heartbeat IPC: 0.167563 cumulative IPC: 0.163356 (Simulation time: 1 hr 19 min 34 sec) 
Heartbeat CPU 0 instructions: 881000003 cycles: 6543771984 heartbeat IPC: 0.122607 cumulative IPC: 0.16323 (Simulation time: 1 hr 19 min 38 sec) 
Heartbeat CPU 0 instructions: 882000000 cycles: 6549731822 heartbeat IPC: 0.167789 cumulative IPC: 0.16324 (Simulation time: 1 hr 19 min 42 sec) 
Heartbeat CPU 0 instructions: 883000000 cycles: 6557662507 heartbeat IPC: 0.126093 cumulative IPC: 0.163129 (Simulation time: 1 hr 19 min 47 sec) 
Heartbeat CPU 0 instructions: 884000003 cycles: 6563045934 heartbeat IPC: 0.185756 cumulative IPC: 0.163175 (Simulation time: 1 hr 19 min 50 sec) 
Heartbeat CPU 0 instructions: 885000003 cycles: 6567835838 heartbeat IPC: 0.208772 cumulative IPC: 0.163257 (Simulation time: 1 hr 19 min 53 sec) 
Heartbeat CPU 0 instructions: 886000002 cycles: 6572485248 heartbeat IPC: 0.215081 cumulative IPC: 0.163347 (Simulation time: 1 hr 19 min 56 sec) 
Heartbeat CPU 0 instructions: 887000001 cycles: 6577313562 heartbeat IPC: 0.207111 cumulative IPC: 0.163427 (Simulation time: 1 hr 20 min 0 sec) 
Heartbeat CPU 0 instructions: 888000002 cycles: 6584676930 heartbeat IPC: 0.135808 cumulative IPC: 0.163351 (Simulation time: 1 hr 20 min 4 sec) 
Heartbeat CPU 0 instructions: 889000000 cycles: 6588504522 heartbeat IPC: 0.26126 cumulative IPC: 0.16349 (Simulation time: 1 hr 20 min 7 sec) 
Heartbeat CPU 0 instructions: 890000000 cycles: 6596174459 heartbeat IPC: 0.130379 cumulative IPC: 0.163396 (Simulation time: 1 hr 20 min 12 sec) 
Heartbeat CPU 0 instructions: 891000000 cycles: 6602082829 heartbeat IPC: 0.169251 cumulative IPC: 0.163409 (Simulation time: 1 hr 20 min 15 sec) 
Heartbeat CPU 0 instructions: 892000002 cycles: 6608489733 heartbeat IPC: 0.156082 cumulative IPC: 0.163391 (Simulation time: 1 hr 20 min 19 sec) 
Heartbeat CPU 0 instructions: 893000001 cycles: 6616958260 heartbeat IPC: 0.118084 cumulative IPC: 0.16325 (Simulation time: 1 hr 20 min 23 sec) 
Heartbeat CPU 0 instructions: 894000000 cycles: 6622007154 heartbeat IPC: 0.198063 cumulative IPC: 0.163315 (Simulation time: 1 hr 20 min 27 sec) 
Heartbeat CPU 0 instructions: 895000003 cycles: 6626334316 heartbeat IPC: 0.231099 cumulative IPC: 0.163422 (Simulation time: 1 hr 20 min 30 sec) 
Heartbeat CPU 0 instructions: 896000000 cycles: 6631204953 heartbeat IPC: 0.205311 cumulative IPC: 0.163497 (Simulation time: 1 hr 20 min 33 sec) 
Heartbeat CPU 0 instructions: 897000001 cycles: 6636250642 heartbeat IPC: 0.198189 cumulative IPC: 0.163561 (Simulation time: 1 hr 20 min 36 sec) 
Heartbeat CPU 0 instructions: 898000001 cycles: 6644222811 heartbeat IPC: 0.125436 cumulative IPC: 0.16345 (Simulation time: 1 hr 20 min 41 sec) 
Heartbeat CPU 0 instructions: 899000002 cycles: 6648597532 heartbeat IPC: 0.228586 cumulative IPC: 0.163554 (Simulation time: 1 hr 20 min 44 sec) 
Heartbeat CPU 0 instructions: 900000000 cycles: 6653092749 heartbeat IPC: 0.222458 cumulative IPC: 0.16365 (Simulation time: 1 hr 20 min 47 sec) 
Heartbeat CPU 0 instructions: 901000003 cycles: 6657527078 heartbeat IPC: 0.225514 cumulative IPC: 0.16375 (Simulation time: 1 hr 20 min 50 sec) 
Heartbeat CPU 0 instructions: 902000000 cycles: 6661513891 heartbeat IPC: 0.250826 cumulative IPC: 0.163876 (Simulation time: 1 hr 20 min 54 sec) 
Heartbeat CPU 0 instructions: 903000000 cycles: 6669080039 heartbeat IPC: 0.132168 cumulative IPC: 0.163789 (Simulation time: 1 hr 20 min 58 sec) 
Heartbeat CPU 0 instructions: 904000001 cycles: 6674909255 heartbeat IPC: 0.17155 cumulative IPC: 0.163805 (Simulation time: 1 hr 21 min 2 sec) 
Heartbeat CPU 0 instructions: 905000002 cycles: 6681152293 heartbeat IPC: 0.160179 cumulative IPC: 0.163797 (Simulation time: 1 hr 21 min 5 sec) 
Heartbeat CPU 0 instructions: 906000002 cycles: 6686773920 heartbeat IPC: 0.177884 cumulative IPC: 0.163826 (Simulation time: 1 hr 21 min 8 sec) 
Heartbeat CPU 0 instructions: 907000001 cycles: 6697095023 heartbeat IPC: 0.0968888 cumulative IPC: 0.163578 (Simulation time: 1 hr 21 min 15 sec) 
Heartbeat CPU 0 instructions: 908000000 cycles: 6702676803 heartbeat IPC: 0.179154 cumulative IPC: 0.16361 (Simulation time: 1 hr 21 min 18 sec) 
Heartbeat CPU 0 instructions: 909000002 cycles: 6708281165 heartbeat IPC: 0.178433 cumulative IPC: 0.163639 (Simulation time: 1 hr 21 min 21 sec) 
Heartbeat CPU 0 instructions: 910000000 cycles: 6715860019 heartbeat IPC: 0.131946 cumulative IPC: 0.163554 (Simulation time: 1 hr 21 min 26 sec) 
Heartbeat CPU 0 instructions: 911000001 cycles: 6721491159 heartbeat IPC: 0.177584 cumulative IPC: 0.163582 (Simulation time: 1 hr 21 min 30 sec) 
Heartbeat CPU 0 instructions: 912000000 cycles: 6727521772 heartbeat IPC: 0.16582 cumulative IPC: 0.163587 (Simulation time: 1 hr 21 min 33 sec) 
Heartbeat CPU 0 instructions: 913000000 cycles: 6734202363 heartbeat IPC: 0.149687 cumulative IPC: 0.163554 (Simulation time: 1 hr 21 min 36 sec) 
Heartbeat CPU 0 instructions: 914000000 cycles: 6741045778 heartbeat IPC: 0.146126 cumulative IPC: 0.163512 (Simulation time: 1 hr 21 min 40 sec) 
Heartbeat CPU 0 instructions: 915000000 cycles: 6749334901 heartbeat IPC: 0.12064 cumulative IPC: 0.163387 (Simulation time: 1 hr 21 min 45 sec) 
Heartbeat CPU 0 instructions: 916000000 cycles: 6754647734 heartbeat IPC: 0.188223 cumulative IPC: 0.163433 (Simulation time: 1 hr 21 min 48 sec) 
Heartbeat CPU 0 instructions: 917000003 cycles: 6760090666 heartbeat IPC: 0.183725 cumulative IPC: 0.163472 (Simulation time: 1 hr 21 min 51 sec) 
Heartbeat CPU 0 instructions: 918000000 cycles: 6765446017 heartbeat IPC: 0.186729 cumulative IPC: 0.163515 (Simulation time: 1 hr 21 min 54 sec) 
Heartbeat CPU 0 instructions: 919000001 cycles: 6770609835 heartbeat IPC: 0.193655 cumulative IPC: 0.16357 (Simulation time: 1 hr 21 min 58 sec) 
Heartbeat CPU 0 instructions: 920000000 cycles: 6778344435 heartbeat IPC: 0.129289 cumulative IPC: 0.163477 (Simulation time: 1 hr 22 min 2 sec) 
Heartbeat CPU 0 instructions: 921000002 cycles: 6783786243 heartbeat IPC: 0.183763 cumulative IPC: 0.163516 (Simulation time: 1 hr 22 min 6 sec) 
Heartbeat CPU 0 instructions: 922000001 cycles: 6788931180 heartbeat IPC: 0.194366 cumulative IPC: 0.163571 (Simulation time: 1 hr 22 min 9 sec) 
Heartbeat CPU 0 instructions: 923000001 cycles: 6793912864 heartbeat IPC: 0.200735 cumulative IPC: 0.163635 (Simulation time: 1 hr 22 min 12 sec) 
Heartbeat CPU 0 instructions: 924000000 cycles: 6798946022 heartbeat IPC: 0.198682 cumulative IPC: 0.163696 (Simulation time: 1 hr 22 min 15 sec) 
Heartbeat CPU 0 instructions: 925000003 cycles: 6806479908 heartbeat IPC: 0.132734 cumulative IPC: 0.163615 (Simulation time: 1 hr 22 min 20 sec) 
Heartbeat CPU 0 instructions: 926000000 cycles: 6814001213 heartbeat IPC: 0.132955 cumulative IPC: 0.163536 (Simulation time: 1 hr 22 min 25 sec) 
Heartbeat CPU 0 instructions: 927000000 cycles: 6819344219 heartbeat IPC: 0.187161 cumulative IPC: 0.163579 (Simulation time: 1 hr 22 min 28 sec) 
Heartbeat CPU 0 instructions: 928000001 cycles: 6824961305 heartbeat IPC: 0.178028 cumulative IPC: 0.163607 (Simulation time: 1 hr 22 min 31 sec) 
Heartbeat CPU 0 instructions: 929000000 cycles: 6832803837 heartbeat IPC: 0.12751 cumulative IPC: 0.163511 (Simulation time: 1 hr 22 min 36 sec) 
Heartbeat CPU 0 instructions: 930000002 cycles: 6838590621 heartbeat IPC: 0.172808 cumulative IPC: 0.163529 (Simulation time: 1 hr 22 min 39 sec) 
Heartbeat CPU 0 instructions: 931000000 cycles: 6844949106 heartbeat IPC: 0.15727 cumulative IPC: 0.163515 (Simulation time: 1 hr 22 min 43 sec) 
Heartbeat CPU 0 instructions: 932000000 cycles: 6851369266 heartbeat IPC: 0.155759 cumulative IPC: 0.163498 (Simulation time: 1 hr 22 min 46 sec) 
Heartbeat CPU 0 instructions: 933000001 cycles: 6858425473 heartbeat IPC: 0.141719 cumulative IPC: 0.163446 (Simulation time: 1 hr 22 min 50 sec) 
Heartbeat CPU 0 instructions: 934000001 cycles: 6865282350 heartbeat IPC: 0.145839 cumulative IPC: 0.163406 (Simulation time: 1 hr 22 min 54 sec) 
Heartbeat CPU 0 instructions: 935000000 cycles: 6870407721 heartbeat IPC: 0.195108 cumulative IPC: 0.16346 (Simulation time: 1 hr 22 min 57 sec) 
Heartbeat CPU 0 instructions: 936000003 cycles: 6875166374 heartbeat IPC: 0.210144 cumulative IPC: 0.163535 (Simulation time: 1 hr 23 min 0 sec) 
Heartbeat CPU 0 instructions: 937000000 cycles: 6880033114 heartbeat IPC: 0.205476 cumulative IPC: 0.163604 (Simulation time: 1 hr 23 min 4 sec) 
Heartbeat CPU 0 instructions: 938000001 cycles: 6887962142 heartbeat IPC: 0.126119 cumulative IPC: 0.163504 (Simulation time: 1 hr 23 min 8 sec) 
Heartbeat CPU 0 instructions: 939000001 cycles: 6894368189 heartbeat IPC: 0.156103 cumulative IPC: 0.163488 (Simulation time: 1 hr 23 min 12 sec) 
Heartbeat CPU 0 instructions: 940000002 cycles: 6903843171 heartbeat IPC: 0.105541 cumulative IPC: 0.163305 (Simulation time: 1 hr 23 min 18 sec) 
Heartbeat CPU 0 instructions: 941000003 cycles: 6908304529 heartbeat IPC: 0.224147 cumulative IPC: 0.163396 (Simulation time: 1 hr 23 min 21 sec) 
Heartbeat CPU 0 instructions: 942000000 cycles: 6916021353 heartbeat IPC: 0.129587 cumulative IPC: 0.163309 (Simulation time: 1 hr 23 min 26 sec) 
Heartbeat CPU 0 instructions: 943000000 cycles: 6921258182 heartbeat IPC: 0.190955 cumulative IPC: 0.163357 (Simulation time: 1 hr 23 min 29 sec) 
Heartbeat CPU 0 instructions: 944000003 cycles: 6926956572 heartbeat IPC: 0.175489 cumulative IPC: 0.16338 (Simulation time: 1 hr 23 min 33 sec) 
Heartbeat CPU 0 instructions: 945000000 cycles: 6933341914 heartbeat IPC: 0.156608 cumulative IPC: 0.163366 (Simulation time: 1 hr 23 min 36 sec) 
Heartbeat CPU 0 instructions: 946000000 cycles: 6940493814 heartbeat IPC: 0.139823 cumulative IPC: 0.16331 (Simulation time: 1 hr 23 min 41 sec) 
Heartbeat CPU 0 instructions: 947000000 cycles: 6946104527 heartbeat IPC: 0.17823 cumulative IPC: 0.163338 (Simulation time: 1 hr 23 min 44 sec) 
Heartbeat CPU 0 instructions: 948000001 cycles: 6952113118 heartbeat IPC: 0.166429 cumulative IPC: 0.163344 (Simulation time: 1 hr 23 min 47 sec) 
Heartbeat CPU 0 instructions: 949000003 cycles: 6958326077 heartbeat IPC: 0.160954 cumulative IPC: 0.163339 (Simulation time: 1 hr 23 min 51 sec) 
Heartbeat CPU 0 instructions: 950000000 cycles: 6966462535 heartbeat IPC: 0.122903 cumulative IPC: 0.163232 (Simulation time: 1 hr 23 min 56 sec) 
Finished CPU 0 instructions: 500000002 cycles: 3063133547 cumulative IPC: 0.163232 (Simulation time: 1 hr 23 min 56 sec) 

ChampSim completed all CPUs

Region of Interest Statistics

CPU 0 cumulative IPC: 0.163232 instructions: 500000002 cycles: 3063133547
L1D TOTAL     ACCESS:  181016703  HIT:  152171500  MISS:   28845203
L1D LOAD      ACCESS:  129705815  HIT:  111644552  MISS:   18061263
L1D RFO       ACCESS:   51310888  HIT:   40526948  MISS:   10783940
L1D PREFETCH  ACCESS:          0  HIT:          0  MISS:          0
L1D WRITEBACK ACCESS:          0  HIT:          0  MISS:          0
L1D PREFETCH  REQUESTED:          0  ISSUED:          0  USEFUL:          0  USELESS:          0
L1D AVERAGE MISS LATENCY: 311.05 cycles
L1I TOTAL     ACCESS:   82020982  HIT:   82020969  MISS:         13
L1I LOAD      ACCESS:   82020982  HIT:   82020969  MISS:         13
L1I RFO       ACCESS:          0  HIT:          0  MISS:          0
L1I PREFETCH  ACCESS:          0  HIT:          0  MISS:          0
L1I WRITEBACK ACCESS:          0  HIT:          0  MISS:          0
L1I PREFETCH  REQUESTED:          0  ISSUED:          0  USEFUL:          0  USELESS:          0
L1I AVERAGE MISS LATENCY: 293.692 cycles
L2C TOTAL     ACCESS:   44267268  HIT:   22053585  MISS:   22213683
L2C LOAD      ACCESS:   18060993  HIT:    6138384  MISS:   11922609
L2C RFO       ACCESS:   10783926  HIT:     493528  MISS:   10290398
L2C PREFETCH  ACCESS:          0  HIT:          0  MISS:          0
L2C WRITEBACK ACCESS:   15422349  HIT:   15421673  MISS:        676
L2C PREFETCH  REQUESTED:          0  ISSUED:          0  USEFUL:          0  USELESS:          0
L2C AVERAGE MISS LATENCY: 300.589 cycles
LLC TOTAL     ACCESS:   47037685  HIT:   25453309  MISS:   21584376
LLC LOAD      ACCESS:   11922609  HIT:    6417895  MISS:    5504714
LLC RFO       ACCESS:   10290394  HIT:     587997  MISS:    9702397
LLC PREFETCH  ACCESS:    9958686  HIT:    3593309  MISS:    6365377
LLC WRITEBACK ACCESS:   14865996  HIT:   14854108  MISS:      11888
LLC PREFETCH  REQUESTED:   11921749  ISSUED:   11921749  USEFUL:    6123223  USELESS:     240999
LLC AVERAGE MISS LATENCY: 281.202 cycles
Major fault: 0 Minor fault: 29901
performance stats:
mapping cache size: 134712
divergence: 13585887

DRAM Statistics
 CHANNEL 0
 RQ ROW_BUFFER_HIT:    1629828  ROW_BUFFER_MISS:    9174824
 DBUS_CONGESTED:   28221560
 WQ ROW_BUFFER_HIT:    3822461  ROW_BUFFER_MISS:    3259953  FULL:          0

 CHANNEL 1
 RQ ROW_BUFFER_HIT:    1635585  ROW_BUFFER_MISS:    9131927
 DBUS_CONGESTED:   28221560
 WQ ROW_BUFFER_HIT:    3793587  ROW_BUFFER_MISS:    3235811  FULL:          0

 AVG_CONGESTED_CYCLE: 20

CPU 0 Branch Prediction Accuracy: 92.7448% MPKI: 15.2948 Average ROB Occupancy at Mispredict: 32.1798

Branch types
NOT_BRANCH: 394593523 78.9187%
BRANCH_DIRECT_JUMP: 4561055 0.912211%
BRANCH_INDIRECT: 0 0%
BRANCH_CONDITIONAL: 64869352 12.9739%
BRANCH_DIRECT_CALL: 21031 0.0042062%
BRANCH_INDIRECT_CALL: 17967024 3.5934%
BRANCH_RETURN: 17988055 3.59761%
BRANCH_OTHER: 0 0%


gzip: stdout: Broken pipe
