
*** ChampSim Multicore Out-of-Order Simulator ***

Warmup Instructions: 1000000
Prefetch Warmup Instructions: 450000000
Simulation Instructions: 500000000
Stat Printing Period: 1000000
Number of CPUs: 1
LLC sets: 2048
LLC ways: 16
Off-chip DRAM Size: 32768 MB Channels: 2 Width: 64-bit Data Rate: 1024 MT/s

CPU 0 runs /scratch/cluster/cmolder/ML-DPC/ChampSimTraces/spec06/473.astar-s1.trace.gz
Read seed: 801
Heartbeat CPU 0 instructions: 1000003 cycles: 339325 heartbeat IPC: 2.94704 cumulative IPC: 2.94704 (Simulation time: 0 hr 0 min 6 sec) 

Warmup complete CPU 0 instructions: 1000003 cycles: 339325 (Simulation time: 0 hr 0 min 6 sec) 

Heartbeat CPU 0 instructions: 2000000 cycles: 2202496 heartbeat IPC: 0.536718 cumulative IPC: 0.536718 (Simulation time: 0 hr 0 min 10 sec) 
Heartbeat CPU 0 instructions: 3000003 cycles: 3935258 heartbeat IPC: 0.577115 cumulative IPC: 0.556184 (Simulation time: 0 hr 0 min 14 sec) 
Heartbeat CPU 0 instructions: 4000000 cycles: 5715024 heartbeat IPC: 0.56187 cumulative IPC: 0.558066 (Simulation time: 0 hr 0 min 18 sec) 
Heartbeat CPU 0 instructions: 5000003 cycles: 7441386 heartbeat IPC: 0.579255 cumulative IPC: 0.563217 (Simulation time: 0 hr 0 min 21 sec) 
Heartbeat CPU 0 instructions: 6000001 cycles: 9229146 heartbeat IPC: 0.559358 cumulative IPC: 0.562441 (Simulation time: 0 hr 0 min 25 sec) 
Heartbeat CPU 0 instructions: 7000001 cycles: 11361719 heartbeat IPC: 0.468917 cumulative IPC: 0.544346 (Simulation time: 0 hr 0 min 29 sec) 
Heartbeat CPU 0 instructions: 8000002 cycles: 13132179 heartbeat IPC: 0.564826 cumulative IPC: 0.54718 (Simulation time: 0 hr 0 min 33 sec) 
Heartbeat CPU 0 instructions: 9000001 cycles: 14881037 heartbeat IPC: 0.571801 cumulative IPC: 0.550141 (Simulation time: 0 hr 0 min 37 sec) 
Heartbeat CPU 0 instructions: 10000000 cycles: 16841749 heartbeat IPC: 0.510018 cumulative IPC: 0.545374 (Simulation time: 0 hr 0 min 41 sec) 
Heartbeat CPU 0 instructions: 11000000 cycles: 19042799 heartbeat IPC: 0.454329 cumulative IPC: 0.53466 (Simulation time: 0 hr 0 min 44 sec) 
Heartbeat CPU 0 instructions: 12000002 cycles: 20919801 heartbeat IPC: 0.532766 cumulative IPC: 0.534487 (Simulation time: 0 hr 0 min 49 sec) 
Heartbeat CPU 0 instructions: 13000003 cycles: 22636017 heartbeat IPC: 0.582678 cumulative IPC: 0.538196 (Simulation time: 0 hr 0 min 53 sec) 
Heartbeat CPU 0 instructions: 14000003 cycles: 24605242 heartbeat IPC: 0.507814 cumulative IPC: 0.535731 (Simulation time: 0 hr 0 min 58 sec) 
Heartbeat CPU 0 instructions: 15000000 cycles: 26824224 heartbeat IPC: 0.450656 cumulative IPC: 0.528603 (Simulation time: 0 hr 1 min 3 sec) 
Heartbeat CPU 0 instructions: 16000002 cycles: 28688630 heartbeat IPC: 0.536365 cumulative IPC: 0.529113 (Simulation time: 0 hr 1 min 7 sec) 
Heartbeat CPU 0 instructions: 17000000 cycles: 30441293 heartbeat IPC: 0.570559 cumulative IPC: 0.531527 (Simulation time: 0 hr 1 min 11 sec) 
Heartbeat CPU 0 instructions: 18000000 cycles: 32255524 heartbeat IPC: 0.551198 cumulative IPC: 0.532645 (Simulation time: 0 hr 1 min 16 sec) 
Heartbeat CPU 0 instructions: 19000000 cycles: 34192449 heartbeat IPC: 0.516282 cumulative IPC: 0.531709 (Simulation time: 0 hr 1 min 20 sec) 
Heartbeat CPU 0 instructions: 20000001 cycles: 36221023 heartbeat IPC: 0.492958 cumulative IPC: 0.529518 (Simulation time: 0 hr 1 min 25 sec) 
Heartbeat CPU 0 instructions: 21000002 cycles: 38283671 heartbeat IPC: 0.484814 cumulative IPC: 0.527088 (Simulation time: 0 hr 1 min 29 sec) 
Heartbeat CPU 0 instructions: 22000000 cycles: 40399823 heartbeat IPC: 0.472555 cumulative IPC: 0.524207 (Simulation time: 0 hr 1 min 34 sec) 
Heartbeat CPU 0 instructions: 23000000 cycles: 42712207 heartbeat IPC: 0.432454 cumulative IPC: 0.5192 (Simulation time: 0 hr 1 min 38 sec) 
Heartbeat CPU 0 instructions: 24000000 cycles: 45218507 heartbeat IPC: 0.398995 cumulative IPC: 0.512487 (Simulation time: 0 hr 1 min 42 sec) 
Heartbeat CPU 0 instructions: 25000000 cycles: 48071467 heartbeat IPC: 0.350513 cumulative IPC: 0.502806 (Simulation time: 0 hr 1 min 47 sec) 
Heartbeat CPU 0 instructions: 26000001 cycles: 51207519 heartbeat IPC: 0.318873 cumulative IPC: 0.491466 (Simulation time: 0 hr 1 min 51 sec) 
Heartbeat CPU 0 instructions: 27000001 cycles: 54210502 heartbeat IPC: 0.333002 cumulative IPC: 0.482633 (Simulation time: 0 hr 1 min 55 sec) 
Heartbeat CPU 0 instructions: 28000003 cycles: 57038948 heartbeat IPC: 0.353552 cumulative IPC: 0.476194 (Simulation time: 0 hr 2 min 0 sec) 
Heartbeat CPU 0 instructions: 29000001 cycles: 59567408 heartbeat IPC: 0.395497 cumulative IPC: 0.472749 (Simulation time: 0 hr 2 min 4 sec) 
Heartbeat CPU 0 instructions: 30000002 cycles: 62172365 heartbeat IPC: 0.383884 cumulative IPC: 0.469005 (Simulation time: 0 hr 2 min 9 sec) 
Heartbeat CPU 0 instructions: 31000002 cycles: 64899013 heartbeat IPC: 0.366751 cumulative IPC: 0.464686 (Simulation time: 0 hr 2 min 13 sec) 
Heartbeat CPU 0 instructions: 32000000 cycles: 67797714 heartbeat IPC: 0.344981 cumulative IPC: 0.459543 (Simulation time: 0 hr 2 min 17 sec) 
Heartbeat CPU 0 instructions: 33000000 cycles: 70867829 heartbeat IPC: 0.325721 cumulative IPC: 0.453717 (Simulation time: 0 hr 2 min 22 sec) 
Heartbeat CPU 0 instructions: 34000000 cycles: 73962310 heartbeat IPC: 0.323156 cumulative IPC: 0.44823 (Simulation time: 0 hr 2 min 26 sec) 
Heartbeat CPU 0 instructions: 35000000 cycles: 76928049 heartbeat IPC: 0.337184 cumulative IPC: 0.44393 (Simulation time: 0 hr 2 min 30 sec) 
Heartbeat CPU 0 instructions: 36000000 cycles: 80146117 heartbeat IPC: 0.310745 cumulative IPC: 0.438559 (Simulation time: 0 hr 2 min 35 sec) 
Heartbeat CPU 0 instructions: 37000000 cycles: 83473423 heartbeat IPC: 0.300543 cumulative IPC: 0.433035 (Simulation time: 0 hr 2 min 40 sec) 
Heartbeat CPU 0 instructions: 38000000 cycles: 86608126 heartbeat IPC: 0.319009 cumulative IPC: 0.428892 (Simulation time: 0 hr 2 min 44 sec) 
Heartbeat CPU 0 instructions: 39000001 cycles: 89585510 heartbeat IPC: 0.335866 cumulative IPC: 0.425788 (Simulation time: 0 hr 2 min 49 sec) 
Heartbeat CPU 0 instructions: 40000002 cycles: 92450977 heartbeat IPC: 0.348984 cumulative IPC: 0.423399 (Simulation time: 0 hr 2 min 53 sec) 
Heartbeat CPU 0 instructions: 41000000 cycles: 95303944 heartbeat IPC: 0.350512 cumulative IPC: 0.421209 (Simulation time: 0 hr 2 min 57 sec) 
Heartbeat CPU 0 instructions: 42000001 cycles: 98038532 heartbeat IPC: 0.365686 cumulative IPC: 0.419655 (Simulation time: 0 hr 3 min 2 sec) 
Heartbeat CPU 0 instructions: 43000001 cycles: 100357028 heartbeat IPC: 0.431314 cumulative IPC: 0.419926 (Simulation time: 0 hr 3 min 6 sec) 
Heartbeat CPU 0 instructions: 44000000 cycles: 102554879 heartbeat IPC: 0.454989 cumulative IPC: 0.42068 (Simulation time: 0 hr 3 min 11 sec) 
Heartbeat CPU 0 instructions: 45000000 cycles: 104924475 heartbeat IPC: 0.422013 cumulative IPC: 0.42071 (Simulation time: 0 hr 3 min 15 sec) 
Heartbeat CPU 0 instructions: 46000001 cycles: 107094946 heartbeat IPC: 0.46073 cumulative IPC: 0.421523 (Simulation time: 0 hr 3 min 20 sec) 
Heartbeat CPU 0 instructions: 47000000 cycles: 109381009 heartbeat IPC: 0.437433 cumulative IPC: 0.421857 (Simulation time: 0 hr 3 min 24 sec) 
Heartbeat CPU 0 instructions: 48000001 cycles: 111681948 heartbeat IPC: 0.434606 cumulative IPC: 0.42212 (Simulation time: 0 hr 3 min 29 sec) 
Heartbeat CPU 0 instructions: 49000001 cycles: 114076812 heartbeat IPC: 0.41756 cumulative IPC: 0.422024 (Simulation time: 0 hr 3 min 33 sec) 
Heartbeat CPU 0 instructions: 50000001 cycles: 116335618 heartbeat IPC: 0.442712 cumulative IPC: 0.422427 (Simulation time: 0 hr 3 min 38 sec) 
Heartbeat CPU 0 instructions: 51000000 cycles: 119247080 heartbeat IPC: 0.34347 cumulative IPC: 0.420494 (Simulation time: 0 hr 3 min 42 sec) 
Heartbeat CPU 0 instructions: 52000001 cycles: 122327258 heartbeat IPC: 0.324657 cumulative IPC: 0.418074 (Simulation time: 0 hr 3 min 47 sec) 
Heartbeat CPU 0 instructions: 53000002 cycles: 124211650 heartbeat IPC: 0.530676 cumulative IPC: 0.419787 (Simulation time: 0 hr 3 min 51 sec) 
Heartbeat CPU 0 instructions: 54000000 cycles: 126089659 heartbeat IPC: 0.532478 cumulative IPC: 0.42147 (Simulation time: 0 hr 3 min 55 sec) 
Heartbeat CPU 0 instructions: 55000000 cycles: 127998914 heartbeat IPC: 0.523764 cumulative IPC: 0.423 (Simulation time: 0 hr 4 min 0 sec) 
Heartbeat CPU 0 instructions: 56000001 cycles: 129937123 heartbeat IPC: 0.515941 cumulative IPC: 0.42439 (Simulation time: 0 hr 4 min 4 sec) 
Heartbeat CPU 0 instructions: 57000000 cycles: 131757089 heartbeat IPC: 0.54946 cumulative IPC: 0.426122 (Simulation time: 0 hr 4 min 8 sec) 
Heartbeat CPU 0 instructions: 58000002 cycles: 133546984 heartbeat IPC: 0.558693 cumulative IPC: 0.427903 (Simulation time: 0 hr 4 min 13 sec) 
Heartbeat CPU 0 instructions: 59000000 cycles: 135401822 heartbeat IPC: 0.53913 cumulative IPC: 0.429431 (Simulation time: 0 hr 4 min 17 sec) 
Heartbeat CPU 0 instructions: 60000003 cycles: 137158028 heartbeat IPC: 0.569411 cumulative IPC: 0.431228 (Simulation time: 0 hr 4 min 21 sec) 
Heartbeat CPU 0 instructions: 61000001 cycles: 138844124 heartbeat IPC: 0.593085 cumulative IPC: 0.433198 (Simulation time: 0 hr 4 min 25 sec) 
Heartbeat CPU 0 instructions: 62000000 cycles: 140514456 heartbeat IPC: 0.598683 cumulative IPC: 0.43517 (Simulation time: 0 hr 4 min 30 sec) 
Heartbeat CPU 0 instructions: 63000001 cycles: 142259944 heartbeat IPC: 0.572906 cumulative IPC: 0.436864 (Simulation time: 0 hr 4 min 34 sec) 
Heartbeat CPU 0 instructions: 64000003 cycles: 143921920 heartbeat IPC: 0.601695 cumulative IPC: 0.438772 (Simulation time: 0 hr 4 min 38 sec) 
Heartbeat CPU 0 instructions: 65000001 cycles: 145525453 heartbeat IPC: 0.623622 cumulative IPC: 0.440813 (Simulation time: 0 hr 4 min 42 sec) 
Heartbeat CPU 0 instructions: 66000000 cycles: 147143486 heartbeat IPC: 0.618034 cumulative IPC: 0.442767 (Simulation time: 0 hr 4 min 46 sec) 
Heartbeat CPU 0 instructions: 67000001 cycles: 148797070 heartbeat IPC: 0.604748 cumulative IPC: 0.444571 (Simulation time: 0 hr 4 min 50 sec) 
Heartbeat CPU 0 instructions: 68000000 cycles: 150409492 heartbeat IPC: 0.620184 cumulative IPC: 0.446458 (Simulation time: 0 hr 4 min 54 sec) 
Heartbeat CPU 0 instructions: 69000003 cycles: 152228798 heartbeat IPC: 0.549662 cumulative IPC: 0.447694 (Simulation time: 0 hr 4 min 59 sec) 
Heartbeat CPU 0 instructions: 70000001 cycles: 154005982 heartbeat IPC: 0.562687 cumulative IPC: 0.449024 (Simulation time: 0 hr 5 min 3 sec) 
Heartbeat CPU 0 instructions: 71000000 cycles: 155848235 heartbeat IPC: 0.542813 cumulative IPC: 0.450135 (Simulation time: 0 hr 5 min 7 sec) 
Heartbeat CPU 0 instructions: 72000000 cycles: 157705120 heartbeat IPC: 0.538536 cumulative IPC: 0.451178 (Simulation time: 0 hr 5 min 11 sec) 
Heartbeat CPU 0 instructions: 73000002 cycles: 159495158 heartbeat IPC: 0.558648 cumulative IPC: 0.452387 (Simulation time: 0 hr 5 min 15 sec) 
Heartbeat CPU 0 instructions: 74000003 cycles: 161063395 heartbeat IPC: 0.637659 cumulative IPC: 0.454195 (Simulation time: 0 hr 5 min 19 sec) 
Heartbeat CPU 0 instructions: 75000000 cycles: 162827622 heartbeat IPC: 0.566819 cumulative IPC: 0.455417 (Simulation time: 0 hr 5 min 23 sec) 
Heartbeat CPU 0 instructions: 76000002 cycles: 164629250 heartbeat IPC: 0.555055 cumulative IPC: 0.45651 (Simulation time: 0 hr 5 min 28 sec) 
Heartbeat CPU 0 instructions: 77000000 cycles: 167064300 heartbeat IPC: 0.410668 cumulative IPC: 0.45584 (Simulation time: 0 hr 5 min 32 sec) 
Heartbeat CPU 0 instructions: 78000002 cycles: 169455089 heartbeat IPC: 0.418273 cumulative IPC: 0.455309 (Simulation time: 0 hr 5 min 36 sec) 
Heartbeat CPU 0 instructions: 79000002 cycles: 171315942 heartbeat IPC: 0.537388 cumulative IPC: 0.456203 (Simulation time: 0 hr 5 min 41 sec) 
Heartbeat CPU 0 instructions: 80000000 cycles: 173278870 heartbeat IPC: 0.509442 cumulative IPC: 0.456807 (Simulation time: 0 hr 5 min 45 sec) 
Heartbeat CPU 0 instructions: 81000002 cycles: 175217603 heartbeat IPC: 0.515802 cumulative IPC: 0.457461 (Simulation time: 0 hr 5 min 49 sec) 
Heartbeat CPU 0 instructions: 82000000 cycles: 177041953 heartbeat IPC: 0.548139 cumulative IPC: 0.458397 (Simulation time: 0 hr 5 min 53 sec) 
Heartbeat CPU 0 instructions: 83000001 cycles: 178867140 heartbeat IPC: 0.54789 cumulative IPC: 0.459312 (Simulation time: 0 hr 5 min 57 sec) 
Heartbeat CPU 0 instructions: 84000002 cycles: 180663487 heartbeat IPC: 0.556686 cumulative IPC: 0.460282 (Simulation time: 0 hr 6 min 1 sec) 
Heartbeat CPU 0 instructions: 85000000 cycles: 182442771 heartbeat IPC: 0.562023 cumulative IPC: 0.461276 (Simulation time: 0 hr 6 min 5 sec) 
Heartbeat CPU 0 instructions: 86000001 cycles: 184225683 heartbeat IPC: 0.560881 cumulative IPC: 0.462242 (Simulation time: 0 hr 6 min 9 sec) 
Heartbeat CPU 0 instructions: 87000000 cycles: 185958477 heartbeat IPC: 0.577102 cumulative IPC: 0.463314 (Simulation time: 0 hr 6 min 13 sec) 
Heartbeat CPU 0 instructions: 88000000 cycles: 187835229 heartbeat IPC: 0.532835 cumulative IPC: 0.46401 (Simulation time: 0 hr 6 min 17 sec) 
Heartbeat CPU 0 instructions: 89000001 cycles: 189727779 heartbeat IPC: 0.528388 cumulative IPC: 0.464653 (Simulation time: 0 hr 6 min 21 sec) 
Heartbeat CPU 0 instructions: 90000002 cycles: 191519548 heartbeat IPC: 0.558108 cumulative IPC: 0.465529 (Simulation time: 0 hr 6 min 25 sec) 
Heartbeat CPU 0 instructions: 91000003 cycles: 193366628 heartbeat IPC: 0.541396 cumulative IPC: 0.466255 (Simulation time: 0 hr 6 min 29 sec) 
Heartbeat CPU 0 instructions: 92000000 cycles: 195650283 heartbeat IPC: 0.437893 cumulative IPC: 0.465924 (Simulation time: 0 hr 6 min 33 sec) 
Heartbeat CPU 0 instructions: 93000000 cycles: 197541405 heartbeat IPC: 0.528787 cumulative IPC: 0.466527 (Simulation time: 0 hr 6 min 37 sec) 
Heartbeat CPU 0 instructions: 94000000 cycles: 199375233 heartbeat IPC: 0.545307 cumulative IPC: 0.467252 (Simulation time: 0 hr 6 min 41 sec) 
Heartbeat CPU 0 instructions: 95000001 cycles: 201091549 heartbeat IPC: 0.582644 cumulative IPC: 0.468239 (Simulation time: 0 hr 6 min 46 sec) 
Heartbeat CPU 0 instructions: 96000002 cycles: 202832958 heartbeat IPC: 0.574248 cumulative IPC: 0.469151 (Simulation time: 0 hr 6 min 50 sec) 
Heartbeat CPU 0 instructions: 97000000 cycles: 204529404 heartbeat IPC: 0.589466 cumulative IPC: 0.47015 (Simulation time: 0 hr 6 min 54 sec) 
Heartbeat CPU 0 instructions: 98000001 cycles: 206337939 heartbeat IPC: 0.552934 cumulative IPC: 0.470877 (Simulation time: 0 hr 6 min 58 sec) 
Heartbeat CPU 0 instructions: 99000000 cycles: 208593658 heartbeat IPC: 0.443317 cumulative IPC: 0.470578 (Simulation time: 0 hr 7 min 3 sec) 
Heartbeat CPU 0 instructions: 100000003 cycles: 210621063 heartbeat IPC: 0.493243 cumulative IPC: 0.470797 (Simulation time: 0 hr 7 min 6 sec) 
Heartbeat CPU 0 instructions: 101000001 cycles: 212848861 heartbeat IPC: 0.448873 cumulative IPC: 0.470567 (Simulation time: 0 hr 7 min 11 sec) 
Heartbeat CPU 0 instructions: 102000000 cycles: 215552853 heartbeat IPC: 0.369823 cumulative IPC: 0.469301 (Simulation time: 0 hr 7 min 15 sec) 
Heartbeat CPU 0 instructions: 103000003 cycles: 218277986 heartbeat IPC: 0.366956 cumulative IPC: 0.468022 (Simulation time: 0 hr 7 min 19 sec) 
Heartbeat CPU 0 instructions: 104000003 cycles: 220558590 heartbeat IPC: 0.43848 cumulative IPC: 0.467716 (Simulation time: 0 hr 7 min 23 sec) 
Heartbeat CPU 0 instructions: 105000002 cycles: 222493922 heartbeat IPC: 0.516707 cumulative IPC: 0.468142 (Simulation time: 0 hr 7 min 28 sec) 
Heartbeat CPU 0 instructions: 106000002 cycles: 224273105 heartbeat IPC: 0.562056 cumulative IPC: 0.468889 (Simulation time: 0 hr 7 min 32 sec) 
Heartbeat CPU 0 instructions: 107000001 cycles: 226317551 heartbeat IPC: 0.48913 cumulative IPC: 0.469072 (Simulation time: 0 hr 7 min 36 sec) 
Heartbeat CPU 0 instructions: 108000002 cycles: 228506356 heartbeat IPC: 0.456871 cumulative IPC: 0.468955 (Simulation time: 0 hr 7 min 40 sec) 
Heartbeat CPU 0 instructions: 109000000 cycles: 230864476 heartbeat IPC: 0.424066 cumulative IPC: 0.468496 (Simulation time: 0 hr 7 min 44 sec) 
Heartbeat CPU 0 instructions: 110000000 cycles: 233050756 heartbeat IPC: 0.457398 cumulative IPC: 0.468391 (Simulation time: 0 hr 7 min 48 sec) 
Heartbeat CPU 0 instructions: 111000000 cycles: 235354422 heartbeat IPC: 0.434091 cumulative IPC: 0.468055 (Simulation time: 0 hr 7 min 52 sec) 
Heartbeat CPU 0 instructions: 112000002 cycles: 237630803 heartbeat IPC: 0.439295 cumulative IPC: 0.467779 (Simulation time: 0 hr 7 min 56 sec) 
Heartbeat CPU 0 instructions: 113000002 cycles: 239731024 heartbeat IPC: 0.47614 cumulative IPC: 0.467852 (Simulation time: 0 hr 8 min 0 sec) 
Heartbeat CPU 0 instructions: 114000000 cycles: 241647661 heartbeat IPC: 0.521746 cumulative IPC: 0.468281 (Simulation time: 0 hr 8 min 5 sec) 
Heartbeat CPU 0 instructions: 115000002 cycles: 243575043 heartbeat IPC: 0.51884 cumulative IPC: 0.468681 (Simulation time: 0 hr 8 min 9 sec) 
Heartbeat CPU 0 instructions: 116000002 cycles: 245545106 heartbeat IPC: 0.507598 cumulative IPC: 0.468994 (Simulation time: 0 hr 8 min 13 sec) 
Heartbeat CPU 0 instructions: 117000002 cycles: 247203539 heartbeat IPC: 0.602979 cumulative IPC: 0.469894 (Simulation time: 0 hr 8 min 17 sec) 
Heartbeat CPU 0 instructions: 118000002 cycles: 248862423 heartbeat IPC: 0.602815 cumulative IPC: 0.470781 (Simulation time: 0 hr 8 min 21 sec) 
Heartbeat CPU 0 instructions: 119000002 cycles: 250634612 heartbeat IPC: 0.564274 cumulative IPC: 0.471443 (Simulation time: 0 hr 8 min 25 sec) 
Heartbeat CPU 0 instructions: 120000002 cycles: 252684030 heartbeat IPC: 0.487943 cumulative IPC: 0.471577 (Simulation time: 0 hr 8 min 29 sec) 
Heartbeat CPU 0 instructions: 121000000 cycles: 254630745 heartbeat IPC: 0.513685 cumulative IPC: 0.4719 (Simulation time: 0 hr 8 min 34 sec) 
Heartbeat CPU 0 instructions: 122000002 cycles: 256768937 heartbeat IPC: 0.467686 cumulative IPC: 0.471864 (Simulation time: 0 hr 8 min 38 sec) 
Heartbeat CPU 0 instructions: 123000002 cycles: 259315869 heartbeat IPC: 0.392629 cumulative IPC: 0.471085 (Simulation time: 0 hr 8 min 42 sec) 
Heartbeat CPU 0 instructions: 124000003 cycles: 262018441 heartbeat IPC: 0.370018 cumulative IPC: 0.470041 (Simulation time: 0 hr 8 min 46 sec) 
Heartbeat CPU 0 instructions: 125000000 cycles: 264772172 heartbeat IPC: 0.363143 cumulative IPC: 0.468928 (Simulation time: 0 hr 8 min 50 sec) 
Heartbeat CPU 0 instructions: 126000002 cycles: 267942875 heartbeat IPC: 0.315388 cumulative IPC: 0.467109 (Simulation time: 0 hr 8 min 54 sec) 
Heartbeat CPU 0 instructions: 127000003 cycles: 271362617 heartbeat IPC: 0.29242 cumulative IPC: 0.464905 (Simulation time: 0 hr 8 min 58 sec) 
Heartbeat CPU 0 instructions: 128000002 cycles: 274709309 heartbeat IPC: 0.298802 cumulative IPC: 0.462879 (Simulation time: 0 hr 9 min 2 sec) 
Heartbeat CPU 0 instructions: 129000000 cycles: 278139088 heartbeat IPC: 0.291563 cumulative IPC: 0.460764 (Simulation time: 0 hr 9 min 7 sec) 
Heartbeat CPU 0 instructions: 130000000 cycles: 281509724 heartbeat IPC: 0.29668 cumulative IPC: 0.458797 (Simulation time: 0 hr 9 min 11 sec) 
Heartbeat CPU 0 instructions: 131000000 cycles: 284620484 heartbeat IPC: 0.321465 cumulative IPC: 0.457294 (Simulation time: 0 hr 9 min 15 sec) 
Heartbeat CPU 0 instructions: 132000000 cycles: 287920513 heartbeat IPC: 0.303028 cumulative IPC: 0.455524 (Simulation time: 0 hr 9 min 20 sec) 
Heartbeat CPU 0 instructions: 133000002 cycles: 291104975 heartbeat IPC: 0.314025 cumulative IPC: 0.453974 (Simulation time: 0 hr 9 min 24 sec) 
Heartbeat CPU 0 instructions: 134000001 cycles: 294287270 heartbeat IPC: 0.314238 cumulative IPC: 0.452461 (Simulation time: 0 hr 9 min 28 sec) 
Heartbeat CPU 0 instructions: 135000000 cycles: 297707284 heartbeat IPC: 0.292396 cumulative IPC: 0.45062 (Simulation time: 0 hr 9 min 32 sec) 
Heartbeat CPU 0 instructions: 136000002 cycles: 301359052 heartbeat IPC: 0.273841 cumulative IPC: 0.448476 (Simulation time: 0 hr 9 min 37 sec) 
Heartbeat CPU 0 instructions: 137000000 cycles: 305138629 heartbeat IPC: 0.264579 cumulative IPC: 0.446195 (Simulation time: 0 hr 9 min 41 sec) 
Heartbeat CPU 0 instructions: 138000000 cycles: 308277402 heartbeat IPC: 0.318596 cumulative IPC: 0.444895 (Simulation time: 0 hr 9 min 45 sec) 
Heartbeat CPU 0 instructions: 139000001 cycles: 309882837 heartbeat IPC: 0.622885 cumulative IPC: 0.445818 (Simulation time: 0 hr 9 min 49 sec) 
Heartbeat CPU 0 instructions: 140000000 cycles: 311564290 heartbeat IPC: 0.594723 cumulative IPC: 0.446622 (Simulation time: 0 hr 9 min 53 sec) 
Heartbeat CPU 0 instructions: 141000001 cycles: 312949224 heartbeat IPC: 0.722057 cumulative IPC: 0.447843 (Simulation time: 0 hr 9 min 57 sec) 
Heartbeat CPU 0 instructions: 142000000 cycles: 314577021 heartbeat IPC: 0.614327 cumulative IPC: 0.448705 (Simulation time: 0 hr 10 min 1 sec) 
Heartbeat CPU 0 instructions: 143000000 cycles: 316288498 heartbeat IPC: 0.584291 cumulative IPC: 0.449439 (Simulation time: 0 hr 10 min 5 sec) 
Heartbeat CPU 0 instructions: 144000000 cycles: 318089154 heartbeat IPC: 0.555353 cumulative IPC: 0.45004 (Simulation time: 0 hr 10 min 9 sec) 
Heartbeat CPU 0 instructions: 145000000 cycles: 319789550 heartbeat IPC: 0.588098 cumulative IPC: 0.450774 (Simulation time: 0 hr 10 min 14 sec) 
Heartbeat CPU 0 instructions: 146000002 cycles: 321791875 heartbeat IPC: 0.49942 cumulative IPC: 0.451077 (Simulation time: 0 hr 10 min 18 sec) 
Heartbeat CPU 0 instructions: 147000003 cycles: 323635907 heartbeat IPC: 0.542291 cumulative IPC: 0.451598 (Simulation time: 0 hr 10 min 23 sec) 
Heartbeat CPU 0 instructions: 148000002 cycles: 325507341 heartbeat IPC: 0.534349 cumulative IPC: 0.452074 (Simulation time: 0 hr 10 min 27 sec) 
Heartbeat CPU 0 instructions: 149000003 cycles: 327293275 heartbeat IPC: 0.559932 cumulative IPC: 0.452663 (Simulation time: 0 hr 10 min 32 sec) 
Heartbeat CPU 0 instructions: 150000000 cycles: 329617200 heartbeat IPC: 0.430305 cumulative IPC: 0.452505 (Simulation time: 0 hr 10 min 36 sec) 
Heartbeat CPU 0 instructions: 151000001 cycles: 331327090 heartbeat IPC: 0.584834 cumulative IPC: 0.453189 (Simulation time: 0 hr 10 min 40 sec) 
Heartbeat CPU 0 instructions: 152000002 cycles: 333005453 heartbeat IPC: 0.595819 cumulative IPC: 0.453909 (Simulation time: 0 hr 10 min 44 sec) 
Heartbeat CPU 0 instructions: 153000000 cycles: 334682847 heartbeat IPC: 0.596162 cumulative IPC: 0.454622 (Simulation time: 0 hr 10 min 48 sec) 
Heartbeat CPU 0 instructions: 154000000 cycles: 336567264 heartbeat IPC: 0.530668 cumulative IPC: 0.455048 (Simulation time: 0 hr 10 min 52 sec) 
Heartbeat CPU 0 instructions: 155000001 cycles: 339632377 heartbeat IPC: 0.326253 cumulative IPC: 0.453885 (Simulation time: 0 hr 10 min 57 sec) 
Heartbeat CPU 0 instructions: 156000000 cycles: 342923576 heartbeat IPC: 0.30384 cumulative IPC: 0.452443 (Simulation time: 0 hr 11 min 1 sec) 
Heartbeat CPU 0 instructions: 157000001 cycles: 346065499 heartbeat IPC: 0.318277 cumulative IPC: 0.451224 (Simulation time: 0 hr 11 min 5 sec) 
Heartbeat CPU 0 instructions: 158000002 cycles: 348444791 heartbeat IPC: 0.420294 cumulative IPC: 0.451013 (Simulation time: 0 hr 11 min 9 sec) 
Heartbeat CPU 0 instructions: 159000000 cycles: 350357879 heartbeat IPC: 0.522714 cumulative IPC: 0.451405 (Simulation time: 0 hr 11 min 13 sec) 
Heartbeat CPU 0 instructions: 160000001 cycles: 352297074 heartbeat IPC: 0.515678 cumulative IPC: 0.451759 (Simulation time: 0 hr 11 min 17 sec) 
Heartbeat CPU 0 instructions: 161000002 cycles: 354423622 heartbeat IPC: 0.470246 cumulative IPC: 0.45187 (Simulation time: 0 hr 11 min 21 sec) 
Heartbeat CPU 0 instructions: 162000003 cycles: 357196761 heartbeat IPC: 0.360603 cumulative IPC: 0.451161 (Simulation time: 0 hr 11 min 26 sec) 
Heartbeat CPU 0 instructions: 163000000 cycles: 360264028 heartbeat IPC: 0.326022 cumulative IPC: 0.450094 (Simulation time: 0 hr 11 min 30 sec) 
Heartbeat CPU 0 instructions: 164000003 cycles: 363060625 heartbeat IPC: 0.357579 cumulative IPC: 0.449381 (Simulation time: 0 hr 11 min 35 sec) 
Heartbeat CPU 0 instructions: 165000000 cycles: 365995148 heartbeat IPC: 0.34077 cumulative IPC: 0.448509 (Simulation time: 0 hr 11 min 39 sec) 
Heartbeat CPU 0 instructions: 166000000 cycles: 368665230 heartbeat IPC: 0.37452 cumulative IPC: 0.447973 (Simulation time: 0 hr 11 min 43 sec) 
Heartbeat CPU 0 instructions: 167000000 cycles: 370817622 heartbeat IPC: 0.464599 cumulative IPC: 0.448069 (Simulation time: 0 hr 11 min 47 sec) 
Heartbeat CPU 0 instructions: 168000002 cycles: 372590423 heartbeat IPC: 0.56408 cumulative IPC: 0.448622 (Simulation time: 0 hr 11 min 51 sec) 
Heartbeat CPU 0 instructions: 169000000 cycles: 374292188 heartbeat IPC: 0.587624 cumulative IPC: 0.449254 (Simulation time: 0 hr 11 min 55 sec) 
Heartbeat CPU 0 instructions: 170000000 cycles: 375909373 heartbeat IPC: 0.618358 cumulative IPC: 0.449983 (Simulation time: 0 hr 11 min 59 sec) 
Heartbeat CPU 0 instructions: 171000000 cycles: 377435158 heartbeat IPC: 0.6554 cumulative IPC: 0.450814 (Simulation time: 0 hr 12 min 3 sec) 
Heartbeat CPU 0 instructions: 172000001 cycles: 379031823 heartbeat IPC: 0.626306 cumulative IPC: 0.451554 (Simulation time: 0 hr 12 min 7 sec) 
Heartbeat CPU 0 instructions: 173000003 cycles: 380688629 heartbeat IPC: 0.603572 cumulative IPC: 0.452216 (Simulation time: 0 hr 12 min 11 sec) 
Heartbeat CPU 0 instructions: 174000000 cycles: 382252609 heartbeat IPC: 0.639392 cumulative IPC: 0.452982 (Simulation time: 0 hr 12 min 15 sec) 
Heartbeat CPU 0 instructions: 175000000 cycles: 383775486 heartbeat IPC: 0.656652 cumulative IPC: 0.453791 (Simulation time: 0 hr 12 min 19 sec) 
Heartbeat CPU 0 instructions: 176000000 cycles: 385492655 heartbeat IPC: 0.582354 cumulative IPC: 0.454364 (Simulation time: 0 hr 12 min 23 sec) 
Heartbeat CPU 0 instructions: 177000000 cycles: 387276481 heartbeat IPC: 0.560593 cumulative IPC: 0.454854 (Simulation time: 0 hr 12 min 28 sec) 
Heartbeat CPU 0 instructions: 178000000 cycles: 388940094 heartbeat IPC: 0.601101 cumulative IPC: 0.45548 (Simulation time: 0 hr 12 min 32 sec) 
Heartbeat CPU 0 instructions: 179000000 cycles: 390504192 heartbeat IPC: 0.639346 cumulative IPC: 0.456217 (Simulation time: 0 hr 12 min 36 sec) 
Heartbeat CPU 0 instructions: 180000002 cycles: 392173456 heartbeat IPC: 0.599068 cumulative IPC: 0.456826 (Simulation time: 0 hr 12 min 41 sec) 
Heartbeat CPU 0 instructions: 181000000 cycles: 393861077 heartbeat IPC: 0.592549 cumulative IPC: 0.457408 (Simulation time: 0 hr 12 min 45 sec) 
Heartbeat CPU 0 instructions: 182000000 cycles: 395648250 heartbeat IPC: 0.559543 cumulative IPC: 0.45787 (Simulation time: 0 hr 12 min 50 sec) 
Heartbeat CPU 0 instructions: 183000001 cycles: 397468314 heartbeat IPC: 0.549432 cumulative IPC: 0.458289 (Simulation time: 0 hr 12 min 54 sec) 
Heartbeat CPU 0 instructions: 184000000 cycles: 399390581 heartbeat IPC: 0.520219 cumulative IPC: 0.458588 (Simulation time: 0 hr 12 min 59 sec) 
Heartbeat CPU 0 instructions: 185000003 cycles: 401236682 heartbeat IPC: 0.541684 cumulative IPC: 0.45897 (Simulation time: 0 hr 13 min 3 sec) 
Heartbeat CPU 0 instructions: 186000002 cycles: 403031561 heartbeat IPC: 0.55714 cumulative IPC: 0.459408 (Simulation time: 0 hr 13 min 7 sec) 
Heartbeat CPU 0 instructions: 187000000 cycles: 404821011 heartbeat IPC: 0.55883 cumulative IPC: 0.459848 (Simulation time: 0 hr 13 min 11 sec) 
Heartbeat CPU 0 instructions: 188000001 cycles: 406602931 heartbeat IPC: 0.561193 cumulative IPC: 0.460292 (Simulation time: 0 hr 13 min 16 sec) 
Heartbeat CPU 0 instructions: 189000001 cycles: 408407257 heartbeat IPC: 0.554224 cumulative IPC: 0.460708 (Simulation time: 0 hr 13 min 20 sec) 
Heartbeat CPU 0 instructions: 190000003 cycles: 410328187 heartbeat IPC: 0.520582 cumulative IPC: 0.460988 (Simulation time: 0 hr 13 min 24 sec) 
Heartbeat CPU 0 instructions: 191000000 cycles: 412015376 heartbeat IPC: 0.5927 cumulative IPC: 0.461528 (Simulation time: 0 hr 13 min 28 sec) 
Heartbeat CPU 0 instructions: 192000000 cycles: 413571552 heartbeat IPC: 0.642601 cumulative IPC: 0.46221 (Simulation time: 0 hr 13 min 32 sec) 
Heartbeat CPU 0 instructions: 193000002 cycles: 415000550 heartbeat IPC: 0.699792 cumulative IPC: 0.463029 (Simulation time: 0 hr 13 min 36 sec) 
Heartbeat CPU 0 instructions: 194000003 cycles: 416605210 heartbeat IPC: 0.623186 cumulative IPC: 0.463646 (Simulation time: 0 hr 13 min 40 sec) 
Heartbeat CPU 0 instructions: 195000003 cycles: 418373223 heartbeat IPC: 0.565607 cumulative IPC: 0.464077 (Simulation time: 0 hr 13 min 44 sec) 
Heartbeat CPU 0 instructions: 196000002 cycles: 420129031 heartbeat IPC: 0.569538 cumulative IPC: 0.464518 (Simulation time: 0 hr 13 min 48 sec) 
Heartbeat CPU 0 instructions: 197000002 cycles: 421721002 heartbeat IPC: 0.628152 cumulative IPC: 0.465136 (Simulation time: 0 hr 13 min 52 sec) 
Heartbeat CPU 0 instructions: 198000000 cycles: 423540366 heartbeat IPC: 0.549642 cumulative IPC: 0.4655 (Simulation time: 0 hr 13 min 56 sec) 
Heartbeat CPU 0 instructions: 199000002 cycles: 425247323 heartbeat IPC: 0.585839 cumulative IPC: 0.465983 (Simulation time: 0 hr 14 min 0 sec) 
Heartbeat CPU 0 instructions: 200000002 cycles: 426850787 heartbeat IPC: 0.62365 cumulative IPC: 0.466576 (Simulation time: 0 hr 14 min 4 sec) 
Heartbeat CPU 0 instructions: 201000001 cycles: 428616135 heartbeat IPC: 0.56646 cumulative IPC: 0.466988 (Simulation time: 0 hr 14 min 8 sec) 
Heartbeat CPU 0 instructions: 202000003 cycles: 430334895 heartbeat IPC: 0.581816 cumulative IPC: 0.467447 (Simulation time: 0 hr 14 min 12 sec) 
Heartbeat CPU 0 instructions: 203000003 cycles: 432117966 heartbeat IPC: 0.56083 cumulative IPC: 0.467832 (Simulation time: 0 hr 14 min 16 sec) 
Heartbeat CPU 0 instructions: 204000002 cycles: 433931904 heartbeat IPC: 0.551286 cumulative IPC: 0.468181 (Simulation time: 0 hr 14 min 20 sec) 
Heartbeat CPU 0 instructions: 205000000 cycles: 435640658 heartbeat IPC: 0.585221 cumulative IPC: 0.468641 (Simulation time: 0 hr 14 min 24 sec) 
Heartbeat CPU 0 instructions: 206000002 cycles: 437311040 heartbeat IPC: 0.598667 cumulative IPC: 0.469138 (Simulation time: 0 hr 14 min 28 sec) 
Heartbeat CPU 0 instructions: 207000003 cycles: 439055156 heartbeat IPC: 0.573357 cumulative IPC: 0.469552 (Simulation time: 0 hr 14 min 32 sec) 
Heartbeat CPU 0 instructions: 208000001 cycles: 441335746 heartbeat IPC: 0.438482 cumulative IPC: 0.469392 (Simulation time: 0 hr 14 min 36 sec) 
Heartbeat CPU 0 instructions: 209000000 cycles: 443411876 heartbeat IPC: 0.481665 cumulative IPC: 0.469449 (Simulation time: 0 hr 14 min 40 sec) 
Heartbeat CPU 0 instructions: 210000002 cycles: 445214012 heartbeat IPC: 0.554898 cumulative IPC: 0.469795 (Simulation time: 0 hr 14 min 44 sec) 
Heartbeat CPU 0 instructions: 211000000 cycles: 447040922 heartbeat IPC: 0.547371 cumulative IPC: 0.470112 (Simulation time: 0 hr 14 min 49 sec) 
Heartbeat CPU 0 instructions: 212000001 cycles: 449007892 heartbeat IPC: 0.508397 cumulative IPC: 0.47028 (Simulation time: 0 hr 14 min 53 sec) 
Heartbeat CPU 0 instructions: 213000000 cycles: 450907419 heartbeat IPC: 0.526446 cumulative IPC: 0.470517 (Simulation time: 0 hr 14 min 57 sec) 
Heartbeat CPU 0 instructions: 214000001 cycles: 452777004 heartbeat IPC: 0.534879 cumulative IPC: 0.470783 (Simulation time: 0 hr 15 min 1 sec) 
Heartbeat CPU 0 instructions: 215000001 cycles: 454570976 heartbeat IPC: 0.557422 cumulative IPC: 0.471125 (Simulation time: 0 hr 15 min 5 sec) 
Heartbeat CPU 0 instructions: 216000000 cycles: 456379520 heartbeat IPC: 0.55293 cumulative IPC: 0.47145 (Simulation time: 0 hr 15 min 9 sec) 
Heartbeat CPU 0 instructions: 217000000 cycles: 458136735 heartbeat IPC: 0.569082 cumulative IPC: 0.471824 (Simulation time: 0 hr 15 min 13 sec) 
Heartbeat CPU 0 instructions: 218000001 cycles: 459988661 heartbeat IPC: 0.539979 cumulative IPC: 0.472099 (Simulation time: 0 hr 15 min 17 sec) 
Heartbeat CPU 0 instructions: 219000002 cycles: 461701399 heartbeat IPC: 0.583861 cumulative IPC: 0.472514 (Simulation time: 0 hr 15 min 21 sec) 
Heartbeat CPU 0 instructions: 220000000 cycles: 463496953 heartbeat IPC: 0.55693 cumulative IPC: 0.472841 (Simulation time: 0 hr 15 min 25 sec) 
Heartbeat CPU 0 instructions: 221000000 cycles: 465312540 heartbeat IPC: 0.550786 cumulative IPC: 0.473146 (Simulation time: 0 hr 15 min 29 sec) 
Heartbeat CPU 0 instructions: 222000001 cycles: 467005792 heartbeat IPC: 0.59058 cumulative IPC: 0.473572 (Simulation time: 0 hr 15 min 33 sec) 
Heartbeat CPU 0 instructions: 223000001 cycles: 468749130 heartbeat IPC: 0.573612 cumulative IPC: 0.473944 (Simulation time: 0 hr 15 min 37 sec) 
Heartbeat CPU 0 instructions: 224000002 cycles: 470505307 heartbeat IPC: 0.569419 cumulative IPC: 0.474301 (Simulation time: 0 hr 15 min 41 sec) 
Heartbeat CPU 0 instructions: 225000000 cycles: 472507031 heartbeat IPC: 0.499568 cumulative IPC: 0.474408 (Simulation time: 0 hr 15 min 45 sec) 
Heartbeat CPU 0 instructions: 226000001 cycles: 474346232 heartbeat IPC: 0.543715 cumulative IPC: 0.474677 (Simulation time: 0 hr 15 min 49 sec) 
Heartbeat CPU 0 instructions: 227000000 cycles: 476089233 heartbeat IPC: 0.573723 cumulative IPC: 0.475039 (Simulation time: 0 hr 15 min 53 sec) 
Heartbeat CPU 0 instructions: 228000000 cycles: 477758330 heartbeat IPC: 0.599126 cumulative IPC: 0.475473 (Simulation time: 0 hr 15 min 57 sec) 
Heartbeat CPU 0 instructions: 229000002 cycles: 479438387 heartbeat IPC: 0.595219 cumulative IPC: 0.475893 (Simulation time: 0 hr 16 min 2 sec) 
Heartbeat CPU 0 instructions: 230000000 cycles: 481151199 heartbeat IPC: 0.583834 cumulative IPC: 0.476278 (Simulation time: 0 hr 16 min 6 sec) 
Heartbeat CPU 0 instructions: 231000000 cycles: 482934555 heartbeat IPC: 0.560741 cumulative IPC: 0.47659 (Simulation time: 0 hr 16 min 10 sec) 
Heartbeat CPU 0 instructions: 232000002 cycles: 484763486 heartbeat IPC: 0.546769 cumulative IPC: 0.476855 (Simulation time: 0 hr 16 min 14 sec) 
Heartbeat CPU 0 instructions: 233000000 cycles: 486492767 heartbeat IPC: 0.578274 cumulative IPC: 0.477216 (Simulation time: 0 hr 16 min 19 sec) 
Heartbeat CPU 0 instructions: 234000000 cycles: 488264585 heartbeat IPC: 0.564392 cumulative IPC: 0.477532 (Simulation time: 0 hr 16 min 23 sec) 
Heartbeat CPU 0 instructions: 235000002 cycles: 490273077 heartbeat IPC: 0.497887 cumulative IPC: 0.477616 (Simulation time: 0 hr 16 min 27 sec) 
Heartbeat CPU 0 instructions: 236000001 cycles: 492250506 heartbeat IPC: 0.505707 cumulative IPC: 0.477729 (Simulation time: 0 hr 16 min 31 sec) 
Heartbeat CPU 0 instructions: 237000002 cycles: 494313619 heartbeat IPC: 0.484705 cumulative IPC: 0.477758 (Simulation time: 0 hr 16 min 35 sec) 
Heartbeat CPU 0 instructions: 238000003 cycles: 496101359 heartbeat IPC: 0.559366 cumulative IPC: 0.478052 (Simulation time: 0 hr 16 min 39 sec) 
Heartbeat CPU 0 instructions: 239000000 cycles: 497825584 heartbeat IPC: 0.579969 cumulative IPC: 0.478405 (Simulation time: 0 hr 16 min 43 sec) 
Heartbeat CPU 0 instructions: 240000001 cycles: 499750959 heartbeat IPC: 0.51938 cumulative IPC: 0.478563 (Simulation time: 0 hr 16 min 47 sec) 
Heartbeat CPU 0 instructions: 241000000 cycles: 502309442 heartbeat IPC: 0.390856 cumulative IPC: 0.478116 (Simulation time: 0 hr 16 min 52 sec) 
Heartbeat CPU 0 instructions: 242000000 cycles: 504732459 heartbeat IPC: 0.412709 cumulative IPC: 0.477802 (Simulation time: 0 hr 16 min 56 sec) 
Heartbeat CPU 0 instructions: 243000001 cycles: 507124475 heartbeat IPC: 0.418058 cumulative IPC: 0.47752 (Simulation time: 0 hr 17 min 0 sec) 
Heartbeat CPU 0 instructions: 244000003 cycles: 509829856 heartbeat IPC: 0.369634 cumulative IPC: 0.476947 (Simulation time: 0 hr 17 min 4 sec) 
Heartbeat CPU 0 instructions: 245000000 cycles: 512556715 heartbeat IPC: 0.366721 cumulative IPC: 0.47636 (Simulation time: 0 hr 17 min 9 sec) 
Heartbeat CPU 0 instructions: 246000001 cycles: 514963041 heartbeat IPC: 0.415572 cumulative IPC: 0.476076 (Simulation time: 0 hr 17 min 13 sec) 
Heartbeat CPU 0 instructions: 247000000 cycles: 516710088 heartbeat IPC: 0.572394 cumulative IPC: 0.476402 (Simulation time: 0 hr 17 min 17 sec) 
Heartbeat CPU 0 instructions: 248000003 cycles: 518338937 heartbeat IPC: 0.613932 cumulative IPC: 0.476834 (Simulation time: 0 hr 17 min 21 sec) 
Heartbeat CPU 0 instructions: 249000001 cycles: 520290293 heartbeat IPC: 0.512463 cumulative IPC: 0.476968 (Simulation time: 0 hr 17 min 25 sec) 
Heartbeat CPU 0 instructions: 250000002 cycles: 522393372 heartbeat IPC: 0.475494 cumulative IPC: 0.476962 (Simulation time: 0 hr 17 min 29 sec) 
Heartbeat CPU 0 instructions: 251000003 cycles: 524752671 heartbeat IPC: 0.423855 cumulative IPC: 0.476723 (Simulation time: 0 hr 17 min 33 sec) 
Heartbeat CPU 0 instructions: 252000002 cycles: 527275384 heartbeat IPC: 0.396398 cumulative IPC: 0.476339 (Simulation time: 0 hr 17 min 37 sec) 
Heartbeat CPU 0 instructions: 253000000 cycles: 530038415 heartbeat IPC: 0.361921 cumulative IPC: 0.475742 (Simulation time: 0 hr 17 min 41 sec) 
Heartbeat CPU 0 instructions: 254000003 cycles: 532826399 heartbeat IPC: 0.358683 cumulative IPC: 0.475129 (Simulation time: 0 hr 17 min 46 sec) 
Heartbeat CPU 0 instructions: 255000003 cycles: 535513517 heartbeat IPC: 0.372146 cumulative IPC: 0.474612 (Simulation time: 0 hr 17 min 50 sec) 
Heartbeat CPU 0 instructions: 256000002 cycles: 538246713 heartbeat IPC: 0.365872 cumulative IPC: 0.474059 (Simulation time: 0 hr 17 min 54 sec) 
Heartbeat CPU 0 instructions: 257000000 cycles: 541068284 heartbeat IPC: 0.354412 cumulative IPC: 0.473435 (Simulation time: 0 hr 17 min 58 sec) 
Heartbeat CPU 0 instructions: 258000002 cycles: 544016586 heartbeat IPC: 0.339179 cumulative IPC: 0.472707 (Simulation time: 0 hr 18 min 3 sec) 
Heartbeat CPU 0 instructions: 259000000 cycles: 546984973 heartbeat IPC: 0.336883 cumulative IPC: 0.471969 (Simulation time: 0 hr 18 min 7 sec) 
Heartbeat CPU 0 instructions: 260000001 cycles: 549704492 heartbeat IPC: 0.367712 cumulative IPC: 0.471453 (Simulation time: 0 hr 18 min 11 sec) 
Heartbeat CPU 0 instructions: 261000001 cycles: 552279183 heartbeat IPC: 0.388396 cumulative IPC: 0.471066 (Simulation time: 0 hr 18 min 15 sec) 
Heartbeat CPU 0 instructions: 262000000 cycles: 554845372 heartbeat IPC: 0.389683 cumulative IPC: 0.470689 (Simulation time: 0 hr 18 min 19 sec) 
Heartbeat CPU 0 instructions: 263000001 cycles: 557418078 heartbeat IPC: 0.388696 cumulative IPC: 0.470311 (Simulation time: 0 hr 18 min 23 sec) 
Heartbeat CPU 0 instructions: 264000000 cycles: 559727839 heartbeat IPC: 0.432945 cumulative IPC: 0.470156 (Simulation time: 0 hr 18 min 27 sec) 
Heartbeat CPU 0 instructions: 265000003 cycles: 562246411 heartbeat IPC: 0.397052 cumulative IPC: 0.469829 (Simulation time: 0 hr 18 min 31 sec) 
Heartbeat CPU 0 instructions: 266000000 cycles: 564918043 heartbeat IPC: 0.374302 cumulative IPC: 0.469377 (Simulation time: 0 hr 18 min 36 sec) 
Heartbeat CPU 0 instructions: 267000001 cycles: 567584145 heartbeat IPC: 0.37508 cumulative IPC: 0.468933 (Simulation time: 0 hr 18 min 40 sec) 
Heartbeat CPU 0 instructions: 268000002 cycles: 570290292 heartbeat IPC: 0.369529 cumulative IPC: 0.468461 (Simulation time: 0 hr 18 min 44 sec) 
Heartbeat CPU 0 instructions: 269000000 cycles: 573174413 heartbeat IPC: 0.346725 cumulative IPC: 0.467848 (Simulation time: 0 hr 18 min 48 sec) 
Heartbeat CPU 0 instructions: 270000001 cycles: 576254688 heartbeat IPC: 0.324647 cumulative IPC: 0.467083 (Simulation time: 0 hr 18 min 52 sec) 
Heartbeat CPU 0 instructions: 271000002 cycles: 579493142 heartbeat IPC: 0.30879 cumulative IPC: 0.466197 (Simulation time: 0 hr 18 min 56 sec) 
Heartbeat CPU 0 instructions: 272000002 cycles: 582818066 heartbeat IPC: 0.300759 cumulative IPC: 0.465253 (Simulation time: 0 hr 19 min 0 sec) 
Heartbeat CPU 0 instructions: 273000003 cycles: 585646693 heartbeat IPC: 0.353529 cumulative IPC: 0.464713 (Simulation time: 0 hr 19 min 4 sec) 
Heartbeat CPU 0 instructions: 274000000 cycles: 587646865 heartbeat IPC: 0.499956 cumulative IPC: 0.464833 (Simulation time: 0 hr 19 min 8 sec) 
Heartbeat CPU 0 instructions: 275000000 cycles: 589404040 heartbeat IPC: 0.569095 cumulative IPC: 0.465144 (Simulation time: 0 hr 19 min 12 sec) 
Heartbeat CPU 0 instructions: 276000000 cycles: 591184577 heartbeat IPC: 0.561628 cumulative IPC: 0.465435 (Simulation time: 0 hr 19 min 16 sec) 
Heartbeat CPU 0 instructions: 277000001 cycles: 593035142 heartbeat IPC: 0.540376 cumulative IPC: 0.465669 (Simulation time: 0 hr 19 min 20 sec) 
Heartbeat CPU 0 instructions: 278000001 cycles: 594791558 heartbeat IPC: 0.569341 cumulative IPC: 0.465975 (Simulation time: 0 hr 19 min 24 sec) 
Heartbeat CPU 0 instructions: 279000001 cycles: 596463750 heartbeat IPC: 0.598017 cumulative IPC: 0.466346 (Simulation time: 0 hr 19 min 28 sec) 
Heartbeat CPU 0 instructions: 280000003 cycles: 598329583 heartbeat IPC: 0.535955 cumulative IPC: 0.466563 (Simulation time: 0 hr 19 min 32 sec) 
Heartbeat CPU 0 instructions: 281000001 cycles: 600140591 heartbeat IPC: 0.552178 cumulative IPC: 0.466821 (Simulation time: 0 hr 19 min 36 sec) 
Heartbeat CPU 0 instructions: 282000000 cycles: 601926486 heartbeat IPC: 0.559943 cumulative IPC: 0.467098 (Simulation time: 0 hr 19 min 40 sec) 
Heartbeat CPU 0 instructions: 283000001 cycles: 603758448 heartbeat IPC: 0.545863 cumulative IPC: 0.467337 (Simulation time: 0 hr 19 min 44 sec) 
Heartbeat CPU 0 instructions: 284000001 cycles: 605601116 heartbeat IPC: 0.542691 cumulative IPC: 0.467566 (Simulation time: 0 hr 19 min 48 sec) 
Heartbeat CPU 0 instructions: 285000003 cycles: 607350646 heartbeat IPC: 0.571583 cumulative IPC: 0.467866 (Simulation time: 0 hr 19 min 52 sec) 
Heartbeat CPU 0 instructions: 286000000 cycles: 609208951 heartbeat IPC: 0.538123 cumulative IPC: 0.46808 (Simulation time: 0 hr 19 min 56 sec) 
Heartbeat CPU 0 instructions: 287000000 cycles: 610910521 heartbeat IPC: 0.587693 cumulative IPC: 0.468414 (Simulation time: 0 hr 20 min 0 sec) 
Heartbeat CPU 0 instructions: 288000000 cycles: 612534161 heartbeat IPC: 0.6159 cumulative IPC: 0.468805 (Simulation time: 0 hr 20 min 4 sec) 
Heartbeat CPU 0 instructions: 289000000 cycles: 614229082 heartbeat IPC: 0.589998 cumulative IPC: 0.46914 (Simulation time: 0 hr 20 min 8 sec) 
Heartbeat CPU 0 instructions: 290000001 cycles: 615926032 heartbeat IPC: 0.589293 cumulative IPC: 0.469471 (Simulation time: 0 hr 20 min 12 sec) 
Heartbeat CPU 0 instructions: 291000000 cycles: 617506731 heartbeat IPC: 0.632631 cumulative IPC: 0.469889 (Simulation time: 0 hr 20 min 16 sec) 
Heartbeat CPU 0 instructions: 292000000 cycles: 619131656 heartbeat IPC: 0.615413 cumulative IPC: 0.470271 (Simulation time: 0 hr 20 min 20 sec) 
Heartbeat CPU 0 instructions: 293000002 cycles: 620744605 heartbeat IPC: 0.619984 cumulative IPC: 0.47066 (Simulation time: 0 hr 20 min 24 sec) 
Heartbeat CPU 0 instructions: 294000003 cycles: 622387504 heartbeat IPC: 0.608681 cumulative IPC: 0.471025 (Simulation time: 0 hr 20 min 28 sec) 
Heartbeat CPU 0 instructions: 295000002 cycles: 623964725 heartbeat IPC: 0.634026 cumulative IPC: 0.471437 (Simulation time: 0 hr 20 min 32 sec) 
Heartbeat CPU 0 instructions: 296000001 cycles: 625493682 heartbeat IPC: 0.65404 cumulative IPC: 0.471883 (Simulation time: 0 hr 20 min 36 sec) 
Heartbeat CPU 0 instructions: 297000000 cycles: 627035546 heartbeat IPC: 0.648565 cumulative IPC: 0.472318 (Simulation time: 0 hr 20 min 40 sec) 
Heartbeat CPU 0 instructions: 298000000 cycles: 628688627 heartbeat IPC: 0.604931 cumulative IPC: 0.472667 (Simulation time: 0 hr 20 min 44 sec) 
Heartbeat CPU 0 instructions: 299000000 cycles: 630280853 heartbeat IPC: 0.628052 cumulative IPC: 0.47306 (Simulation time: 0 hr 20 min 48 sec) 
Heartbeat CPU 0 instructions: 300000001 cycles: 631903464 heartbeat IPC: 0.616291 cumulative IPC: 0.473428 (Simulation time: 0 hr 20 min 52 sec) 
Heartbeat CPU 0 instructions: 301000003 cycles: 633446405 heartbeat IPC: 0.648114 cumulative IPC: 0.473853 (Simulation time: 0 hr 20 min 56 sec) 
Heartbeat CPU 0 instructions: 302000000 cycles: 635063610 heartbeat IPC: 0.618349 cumulative IPC: 0.474222 (Simulation time: 0 hr 21 min 0 sec) 
Heartbeat CPU 0 instructions: 303000002 cycles: 636723469 heartbeat IPC: 0.602462 cumulative IPC: 0.474556 (Simulation time: 0 hr 21 min 4 sec) 
Heartbeat CPU 0 instructions: 304000000 cycles: 638368222 heartbeat IPC: 0.607993 cumulative IPC: 0.4749 (Simulation time: 0 hr 21 min 8 sec) 
Heartbeat CPU 0 instructions: 305000001 cycles: 640061082 heartbeat IPC: 0.590717 cumulative IPC: 0.475207 (Simulation time: 0 hr 21 min 12 sec) 
Heartbeat CPU 0 instructions: 306000000 cycles: 641764021 heartbeat IPC: 0.58722 cumulative IPC: 0.475504 (Simulation time: 0 hr 21 min 16 sec) 
Heartbeat CPU 0 instructions: 307000000 cycles: 643417508 heartbeat IPC: 0.604783 cumulative IPC: 0.475836 (Simulation time: 0 hr 21 min 20 sec) 
Heartbeat CPU 0 instructions: 308000000 cycles: 645119941 heartbeat IPC: 0.587395 cumulative IPC: 0.476131 (Simulation time: 0 hr 21 min 24 sec) 
Heartbeat CPU 0 instructions: 309000000 cycles: 646893818 heartbeat IPC: 0.563737 cumulative IPC: 0.476371 (Simulation time: 0 hr 21 min 27 sec) 
Heartbeat CPU 0 instructions: 310000001 cycles: 648784362 heartbeat IPC: 0.528949 cumulative IPC: 0.476525 (Simulation time: 0 hr 21 min 31 sec) 
Heartbeat CPU 0 instructions: 311000003 cycles: 650627947 heartbeat IPC: 0.542423 cumulative IPC: 0.476711 (Simulation time: 0 hr 21 min 36 sec) 
Heartbeat CPU 0 instructions: 312000002 cycles: 652414451 heartbeat IPC: 0.559752 cumulative IPC: 0.476939 (Simulation time: 0 hr 21 min 40 sec) 
Heartbeat CPU 0 instructions: 313000001 cycles: 654133453 heartbeat IPC: 0.581732 cumulative IPC: 0.477214 (Simulation time: 0 hr 21 min 44 sec) 
Heartbeat CPU 0 instructions: 314000001 cycles: 655805759 heartbeat IPC: 0.597977 cumulative IPC: 0.477523 (Simulation time: 0 hr 21 min 48 sec) 
Heartbeat CPU 0 instructions: 315000001 cycles: 657458196 heartbeat IPC: 0.605167 cumulative IPC: 0.477844 (Simulation time: 0 hr 21 min 51 sec) 
Heartbeat CPU 0 instructions: 316000003 cycles: 659154621 heartbeat IPC: 0.589476 cumulative IPC: 0.478131 (Simulation time: 0 hr 21 min 55 sec) 
Heartbeat CPU 0 instructions: 317000000 cycles: 660888260 heartbeat IPC: 0.57682 cumulative IPC: 0.47839 (Simulation time: 0 hr 21 min 59 sec) 
Heartbeat CPU 0 instructions: 318000002 cycles: 662449972 heartbeat IPC: 0.640324 cumulative IPC: 0.478772 (Simulation time: 0 hr 22 min 3 sec) 
Heartbeat CPU 0 instructions: 319000000 cycles: 664052768 heartbeat IPC: 0.623908 cumulative IPC: 0.479122 (Simulation time: 0 hr 22 min 7 sec) 
Heartbeat CPU 0 instructions: 320000003 cycles: 665607840 heartbeat IPC: 0.643059 cumulative IPC: 0.479506 (Simulation time: 0 hr 22 min 11 sec) 
Heartbeat CPU 0 instructions: 321000000 cycles: 667238141 heartbeat IPC: 0.613382 cumulative IPC: 0.479833 (Simulation time: 0 hr 22 min 15 sec) 
Heartbeat CPU 0 instructions: 322000000 cycles: 669092417 heartbeat IPC: 0.539294 cumulative IPC: 0.479998 (Simulation time: 0 hr 22 min 19 sec) 
Heartbeat CPU 0 instructions: 323000002 cycles: 670862702 heartbeat IPC: 0.564882 cumulative IPC: 0.480222 (Simulation time: 0 hr 22 min 24 sec) 
Heartbeat CPU 0 instructions: 324000000 cycles: 672782321 heartbeat IPC: 0.520936 cumulative IPC: 0.480338 (Simulation time: 0 hr 22 min 28 sec) 
Heartbeat CPU 0 instructions: 325000000 cycles: 675207827 heartbeat IPC: 0.412285 cumulative IPC: 0.480094 (Simulation time: 0 hr 22 min 33 sec) 
Heartbeat CPU 0 instructions: 326000001 cycles: 677479858 heartbeat IPC: 0.440135 cumulative IPC: 0.479959 (Simulation time: 0 hr 22 min 37 sec) 
Heartbeat CPU 0 instructions: 327000000 cycles: 679637340 heartbeat IPC: 0.463503 cumulative IPC: 0.479907 (Simulation time: 0 hr 22 min 41 sec) 
Heartbeat CPU 0 instructions: 328000002 cycles: 681468305 heartbeat IPC: 0.546161 cumulative IPC: 0.480085 (Simulation time: 0 hr 22 min 45 sec) 
Heartbeat CPU 0 instructions: 329000000 cycles: 683229400 heartbeat IPC: 0.567827 cumulative IPC: 0.480312 (Simulation time: 0 hr 22 min 49 sec) 
Heartbeat CPU 0 instructions: 330000000 cycles: 684816528 heartbeat IPC: 0.630069 cumulative IPC: 0.480659 (Simulation time: 0 hr 22 min 53 sec) 
Heartbeat CPU 0 instructions: 331000003 cycles: 686445068 heartbeat IPC: 0.614049 cumulative IPC: 0.480975 (Simulation time: 0 hr 22 min 57 sec) 
Heartbeat CPU 0 instructions: 332000001 cycles: 687852836 heartbeat IPC: 0.710343 cumulative IPC: 0.481445 (Simulation time: 0 hr 23 min 1 sec) 
Heartbeat CPU 0 instructions: 333000003 cycles: 689368707 heartbeat IPC: 0.659688 cumulative IPC: 0.481837 (Simulation time: 0 hr 23 min 5 sec) 
Heartbeat CPU 0 instructions: 334000000 cycles: 690865628 heartbeat IPC: 0.668036 cumulative IPC: 0.482241 (Simulation time: 0 hr 23 min 9 sec) 
Heartbeat CPU 0 instructions: 335000001 cycles: 692241610 heartbeat IPC: 0.726754 cumulative IPC: 0.482727 (Simulation time: 0 hr 23 min 13 sec) 
Heartbeat CPU 0 instructions: 336000000 cycles: 693548560 heartbeat IPC: 0.765139 cumulative IPC: 0.48326 (Simulation time: 0 hr 23 min 17 sec) 
Heartbeat CPU 0 instructions: 337000002 cycles: 695002240 heartbeat IPC: 0.687911 cumulative IPC: 0.483688 (Simulation time: 0 hr 23 min 21 sec) 
Heartbeat CPU 0 instructions: 338000000 cycles: 696772613 heartbeat IPC: 0.564852 cumulative IPC: 0.483894 (Simulation time: 0 hr 23 min 25 sec) 
Heartbeat CPU 0 instructions: 339000001 cycles: 698491018 heartbeat IPC: 0.581936 cumulative IPC: 0.484135 (Simulation time: 0 hr 23 min 28 sec) 
Heartbeat CPU 0 instructions: 340000000 cycles: 700049994 heartbeat IPC: 0.641446 cumulative IPC: 0.484486 (Simulation time: 0 hr 23 min 32 sec) 
Heartbeat CPU 0 instructions: 341000000 cycles: 701623074 heartbeat IPC: 0.635696 cumulative IPC: 0.484825 (Simulation time: 0 hr 23 min 36 sec) 
Heartbeat CPU 0 instructions: 342000003 cycles: 703330310 heartbeat IPC: 0.585744 cumulative IPC: 0.48507 (Simulation time: 0 hr 23 min 40 sec) 
Heartbeat CPU 0 instructions: 343000000 cycles: 705017903 heartbeat IPC: 0.592558 cumulative IPC: 0.485328 (Simulation time: 0 hr 23 min 44 sec) 
Heartbeat CPU 0 instructions: 344000000 cycles: 706553805 heartbeat IPC: 0.651083 cumulative IPC: 0.485688 (Simulation time: 0 hr 23 min 49 sec) 
Heartbeat CPU 0 instructions: 345000002 cycles: 708022064 heartbeat IPC: 0.68108 cumulative IPC: 0.486094 (Simulation time: 0 hr 23 min 53 sec) 
Heartbeat CPU 0 instructions: 346000003 cycles: 709427118 heartbeat IPC: 0.711717 cumulative IPC: 0.486541 (Simulation time: 0 hr 23 min 58 sec) 
Heartbeat CPU 0 instructions: 347000001 cycles: 711052209 heartbeat IPC: 0.615349 cumulative IPC: 0.486835 (Simulation time: 0 hr 24 min 2 sec) 
Heartbeat CPU 0 instructions: 348000000 cycles: 712663182 heartbeat IPC: 0.620742 cumulative IPC: 0.487138 (Simulation time: 0 hr 24 min 6 sec) 
Heartbeat CPU 0 instructions: 349000002 cycles: 714289249 heartbeat IPC: 0.614982 cumulative IPC: 0.487429 (Simulation time: 0 hr 24 min 10 sec) 
Heartbeat CPU 0 instructions: 350000001 cycles: 716052472 heartbeat IPC: 0.567143 cumulative IPC: 0.487626 (Simulation time: 0 hr 24 min 14 sec) 
Heartbeat CPU 0 instructions: 351000002 cycles: 717862137 heartbeat IPC: 0.552589 cumulative IPC: 0.487789 (Simulation time: 0 hr 24 min 18 sec) 
Heartbeat CPU 0 instructions: 352000000 cycles: 719679410 heartbeat IPC: 0.550274 cumulative IPC: 0.487947 (Simulation time: 0 hr 24 min 22 sec) 
Heartbeat CPU 0 instructions: 353000000 cycles: 721475809 heartbeat IPC: 0.556669 cumulative IPC: 0.488118 (Simulation time: 0 hr 24 min 26 sec) 
Heartbeat CPU 0 instructions: 354000001 cycles: 723271229 heartbeat IPC: 0.556973 cumulative IPC: 0.488289 (Simulation time: 0 hr 24 min 30 sec) 
Heartbeat CPU 0 instructions: 355000002 cycles: 725153313 heartbeat IPC: 0.531326 cumulative IPC: 0.488401 (Simulation time: 0 hr 24 min 34 sec) 
Heartbeat CPU 0 instructions: 356000003 cycles: 727054802 heartbeat IPC: 0.525904 cumulative IPC: 0.488499 (Simulation time: 0 hr 24 min 38 sec) 
Heartbeat CPU 0 instructions: 357000003 cycles: 728932301 heartbeat IPC: 0.532623 cumulative IPC: 0.488613 (Simulation time: 0 hr 24 min 43 sec) 
Heartbeat CPU 0 instructions: 358000000 cycles: 731023338 heartbeat IPC: 0.47823 cumulative IPC: 0.488583 (Simulation time: 0 hr 24 min 47 sec) 
Heartbeat CPU 0 instructions: 359000001 cycles: 732939402 heartbeat IPC: 0.521904 cumulative IPC: 0.48867 (Simulation time: 0 hr 24 min 51 sec) 
Heartbeat CPU 0 instructions: 360000000 cycles: 734805512 heartbeat IPC: 0.535874 cumulative IPC: 0.48879 (Simulation time: 0 hr 24 min 55 sec) 
Heartbeat CPU 0 instructions: 361000000 cycles: 736626947 heartbeat IPC: 0.549018 cumulative IPC: 0.488939 (Simulation time: 0 hr 24 min 59 sec) 
Heartbeat CPU 0 instructions: 362000003 cycles: 738764850 heartbeat IPC: 0.467749 cumulative IPC: 0.488878 (Simulation time: 0 hr 25 min 4 sec) 
Heartbeat CPU 0 instructions: 363000000 cycles: 740824386 heartbeat IPC: 0.485545 cumulative IPC: 0.488869 (Simulation time: 0 hr 25 min 8 sec) 
Heartbeat CPU 0 instructions: 364000000 cycles: 742736466 heartbeat IPC: 0.522991 cumulative IPC: 0.488957 (Simulation time: 0 hr 25 min 12 sec) 
Heartbeat CPU 0 instructions: 365000000 cycles: 744405099 heartbeat IPC: 0.599293 cumulative IPC: 0.489204 (Simulation time: 0 hr 25 min 15 sec) 
Heartbeat CPU 0 instructions: 366000000 cycles: 746221484 heartbeat IPC: 0.550544 cumulative IPC: 0.489353 (Simulation time: 0 hr 25 min 20 sec) 
Heartbeat CPU 0 instructions: 367000000 cycles: 748039354 heartbeat IPC: 0.550094 cumulative IPC: 0.489501 (Simulation time: 0 hr 25 min 23 sec) 
Heartbeat CPU 0 instructions: 368000000 cycles: 749719579 heartbeat IPC: 0.595158 cumulative IPC: 0.489738 (Simulation time: 0 hr 25 min 27 sec) 
Heartbeat CPU 0 instructions: 369000000 cycles: 751392640 heartbeat IPC: 0.597707 cumulative IPC: 0.489979 (Simulation time: 0 hr 25 min 31 sec) 
Heartbeat CPU 0 instructions: 370000002 cycles: 753142442 heartbeat IPC: 0.571494 cumulative IPC: 0.490168 (Simulation time: 0 hr 25 min 35 sec) 
Heartbeat CPU 0 instructions: 371000000 cycles: 754929375 heartbeat IPC: 0.559617 cumulative IPC: 0.490332 (Simulation time: 0 hr 25 min 39 sec) 
Heartbeat CPU 0 instructions: 372000001 cycles: 756640446 heartbeat IPC: 0.58443 cumulative IPC: 0.490545 (Simulation time: 0 hr 25 min 43 sec) 
Heartbeat CPU 0 instructions: 373000000 cycles: 758412514 heartbeat IPC: 0.564312 cumulative IPC: 0.490718 (Simulation time: 0 hr 25 min 47 sec) 
Heartbeat CPU 0 instructions: 374000000 cycles: 760627769 heartbeat IPC: 0.451415 cumulative IPC: 0.490603 (Simulation time: 0 hr 25 min 51 sec) 
Heartbeat CPU 0 instructions: 375000000 cycles: 763071407 heartbeat IPC: 0.409226 cumulative IPC: 0.490343 (Simulation time: 0 hr 25 min 55 sec) 
Heartbeat CPU 0 instructions: 376000003 cycles: 765680073 heartbeat IPC: 0.383339 cumulative IPC: 0.489978 (Simulation time: 0 hr 25 min 59 sec) 
Heartbeat CPU 0 instructions: 377000002 cycles: 768233882 heartbeat IPC: 0.391572 cumulative IPC: 0.489651 (Simulation time: 0 hr 26 min 4 sec) 
Heartbeat CPU 0 instructions: 378000001 cycles: 770465686 heartbeat IPC: 0.448068 cumulative IPC: 0.48953 (Simulation time: 0 hr 26 min 8 sec) 
Heartbeat CPU 0 instructions: 379000001 cycles: 772817293 heartbeat IPC: 0.425241 cumulative IPC: 0.489334 (Simulation time: 0 hr 26 min 12 sec) 
Heartbeat CPU 0 instructions: 380000003 cycles: 775414811 heartbeat IPC: 0.384984 cumulative IPC: 0.488985 (Simulation time: 0 hr 26 min 16 sec) 
Heartbeat CPU 0 instructions: 381000003 cycles: 778225094 heartbeat IPC: 0.355836 cumulative IPC: 0.488504 (Simulation time: 0 hr 26 min 21 sec) 
Heartbeat CPU 0 instructions: 382000000 cycles: 781280309 heartbeat IPC: 0.327308 cumulative IPC: 0.487873 (Simulation time: 0 hr 26 min 25 sec) 
Heartbeat CPU 0 instructions: 383000003 cycles: 784528653 heartbeat IPC: 0.30785 cumulative IPC: 0.487127 (Simulation time: 0 hr 26 min 30 sec) 
Heartbeat CPU 0 instructions: 384000002 cycles: 787777051 heartbeat IPC: 0.307844 cumulative IPC: 0.486388 (Simulation time: 0 hr 26 min 34 sec) 
Heartbeat CPU 0 instructions: 385000000 cycles: 790840004 heartbeat IPC: 0.326482 cumulative IPC: 0.485768 (Simulation time: 0 hr 26 min 38 sec) 
Heartbeat CPU 0 instructions: 386000002 cycles: 793958031 heartbeat IPC: 0.320716 cumulative IPC: 0.48512 (Simulation time: 0 hr 26 min 43 sec) 
Heartbeat CPU 0 instructions: 387000000 cycles: 797183913 heartbeat IPC: 0.309992 cumulative IPC: 0.484411 (Simulation time: 0 hr 26 min 47 sec) 
Heartbeat CPU 0 instructions: 388000000 cycles: 800356568 heartbeat IPC: 0.315193 cumulative IPC: 0.48374 (Simulation time: 0 hr 26 min 51 sec) 
Heartbeat CPU 0 instructions: 389000003 cycles: 803392466 heartbeat IPC: 0.329393 cumulative IPC: 0.483156 (Simulation time: 0 hr 26 min 56 sec) 
Heartbeat CPU 0 instructions: 390000003 cycles: 806390571 heartbeat IPC: 0.333544 cumulative IPC: 0.4826 (Simulation time: 0 hr 27 min 0 sec) 
Heartbeat CPU 0 instructions: 391000002 cycles: 809412778 heartbeat IPC: 0.330884 cumulative IPC: 0.482033 (Simulation time: 0 hr 27 min 5 sec) 
Heartbeat CPU 0 instructions: 392000000 cycles: 812484933 heartbeat IPC: 0.325504 cumulative IPC: 0.481441 (Simulation time: 0 hr 27 min 9 sec) 
Heartbeat CPU 0 instructions: 393000002 cycles: 815510556 heartbeat IPC: 0.330511 cumulative IPC: 0.480881 (Simulation time: 0 hr 27 min 13 sec) 
Heartbeat CPU 0 instructions: 394000000 cycles: 818567080 heartbeat IPC: 0.327168 cumulative IPC: 0.480306 (Simulation time: 0 hr 27 min 17 sec) 
Heartbeat CPU 0 instructions: 395000002 cycles: 821802402 heartbeat IPC: 0.309089 cumulative IPC: 0.479632 (Simulation time: 0 hr 27 min 22 sec) 
Heartbeat CPU 0 instructions: 396000000 cycles: 825110854 heartbeat IPC: 0.302256 cumulative IPC: 0.478921 (Simulation time: 0 hr 27 min 26 sec) 
Heartbeat CPU 0 instructions: 397000003 cycles: 828694443 heartbeat IPC: 0.279051 cumulative IPC: 0.478056 (Simulation time: 0 hr 27 min 30 sec) 
Heartbeat CPU 0 instructions: 398000002 cycles: 831531341 heartbeat IPC: 0.352497 cumulative IPC: 0.477627 (Simulation time: 0 hr 27 min 35 sec) 
Heartbeat CPU 0 instructions: 399000000 cycles: 833076169 heartbeat IPC: 0.64732 cumulative IPC: 0.477942 (Simulation time: 0 hr 27 min 39 sec) 
Heartbeat CPU 0 instructions: 400000002 cycles: 834707241 heartbeat IPC: 0.613095 cumulative IPC: 0.478206 (Simulation time: 0 hr 27 min 43 sec) 
Heartbeat CPU 0 instructions: 401000002 cycles: 836322800 heartbeat IPC: 0.618981 cumulative IPC: 0.478478 (Simulation time: 0 hr 27 min 47 sec) 
Heartbeat CPU 0 instructions: 402000003 cycles: 838015775 heartbeat IPC: 0.590677 cumulative IPC: 0.478705 (Simulation time: 0 hr 27 min 51 sec) 
Heartbeat CPU 0 instructions: 403000000 cycles: 839790075 heartbeat IPC: 0.563601 cumulative IPC: 0.478885 (Simulation time: 0 hr 27 min 55 sec) 
Heartbeat CPU 0 instructions: 404000002 cycles: 841474968 heartbeat IPC: 0.593511 cumulative IPC: 0.479114 (Simulation time: 0 hr 27 min 59 sec) 
Heartbeat CPU 0 instructions: 405000000 cycles: 843309250 heartbeat IPC: 0.545171 cumulative IPC: 0.479258 (Simulation time: 0 hr 28 min 3 sec) 
Heartbeat CPU 0 instructions: 406000001 cycles: 845134608 heartbeat IPC: 0.547838 cumulative IPC: 0.479406 (Simulation time: 0 hr 28 min 7 sec) 
Heartbeat CPU 0 instructions: 407000000 cycles: 846914227 heartbeat IPC: 0.561917 cumulative IPC: 0.47958 (Simulation time: 0 hr 28 min 11 sec) 
Heartbeat CPU 0 instructions: 408000003 cycles: 848769549 heartbeat IPC: 0.538992 cumulative IPC: 0.479709 (Simulation time: 0 hr 28 min 15 sec) 
Heartbeat CPU 0 instructions: 409000000 cycles: 850833774 heartbeat IPC: 0.484442 cumulative IPC: 0.479721 (Simulation time: 0 hr 28 min 19 sec) 
Heartbeat CPU 0 instructions: 410000000 cycles: 853170670 heartbeat IPC: 0.427918 cumulative IPC: 0.479579 (Simulation time: 0 hr 28 min 24 sec) 
Heartbeat CPU 0 instructions: 411000001 cycles: 855383723 heartbeat IPC: 0.451865 cumulative IPC: 0.479507 (Simulation time: 0 hr 28 min 28 sec) 
Heartbeat CPU 0 instructions: 412000003 cycles: 856977556 heartbeat IPC: 0.62742 cumulative IPC: 0.479782 (Simulation time: 0 hr 28 min 32 sec) 
Heartbeat CPU 0 instructions: 413000001 cycles: 858638997 heartbeat IPC: 0.601886 cumulative IPC: 0.480019 (Simulation time: 0 hr 28 min 36 sec) 
Heartbeat CPU 0 instructions: 414000000 cycles: 860275896 heartbeat IPC: 0.610911 cumulative IPC: 0.480268 (Simulation time: 0 hr 28 min 40 sec) 
Heartbeat CPU 0 instructions: 415000001 cycles: 861908957 heartbeat IPC: 0.612348 cumulative IPC: 0.480518 (Simulation time: 0 hr 28 min 44 sec) 
Heartbeat CPU 0 instructions: 416000001 cycles: 863538354 heartbeat IPC: 0.613724 cumulative IPC: 0.48077 (Simulation time: 0 hr 28 min 48 sec) 
Heartbeat CPU 0 instructions: 417000001 cycles: 865181415 heartbeat IPC: 0.60862 cumulative IPC: 0.481013 (Simulation time: 0 hr 28 min 53 sec) 
Heartbeat CPU 0 instructions: 418000000 cycles: 866825879 heartbeat IPC: 0.6081 cumulative IPC: 0.481254 (Simulation time: 0 hr 28 min 57 sec) 
Heartbeat CPU 0 instructions: 419000000 cycles: 868495713 heartbeat IPC: 0.598862 cumulative IPC: 0.48148 (Simulation time: 0 hr 29 min 2 sec) 
Heartbeat CPU 0 instructions: 420000003 cycles: 870152476 heartbeat IPC: 0.603588 cumulative IPC: 0.481713 (Simulation time: 0 hr 29 min 6 sec) 
Heartbeat CPU 0 instructions: 421000002 cycles: 871725390 heartbeat IPC: 0.635762 cumulative IPC: 0.481991 (Simulation time: 0 hr 29 min 10 sec) 
Heartbeat CPU 0 instructions: 422000000 cycles: 873415441 heartbeat IPC: 0.591697 cumulative IPC: 0.482203 (Simulation time: 0 hr 29 min 14 sec) 
Heartbeat CPU 0 instructions: 423000001 cycles: 875128239 heartbeat IPC: 0.583841 cumulative IPC: 0.482402 (Simulation time: 0 hr 29 min 18 sec) 
Heartbeat CPU 0 instructions: 424000000 cycles: 876867614 heartbeat IPC: 0.574919 cumulative IPC: 0.482586 (Simulation time: 0 hr 29 min 22 sec) 
Heartbeat CPU 0 instructions: 425000001 cycles: 878702272 heartbeat IPC: 0.545061 cumulative IPC: 0.482716 (Simulation time: 0 hr 29 min 26 sec) 
Heartbeat CPU 0 instructions: 426000000 cycles: 880645301 heartbeat IPC: 0.51466 cumulative IPC: 0.482787 (Simulation time: 0 hr 29 min 30 sec) 
Heartbeat CPU 0 instructions: 427000000 cycles: 882412965 heartbeat IPC: 0.565718 cumulative IPC: 0.482953 (Simulation time: 0 hr 29 min 34 sec) 
Heartbeat CPU 0 instructions: 428000003 cycles: 884044901 heartbeat IPC: 0.612771 cumulative IPC: 0.483193 (Simulation time: 0 hr 29 min 38 sec) 
Heartbeat CPU 0 instructions: 429000000 cycles: 885648611 heartbeat IPC: 0.623552 cumulative IPC: 0.483447 (Simulation time: 0 hr 29 min 42 sec) 
Heartbeat CPU 0 instructions: 430000001 cycles: 887259157 heartbeat IPC: 0.620908 cumulative IPC: 0.483696 (Simulation time: 0 hr 29 min 46 sec) 
Heartbeat CPU 0 instructions: 431000002 cycles: 888794754 heartbeat IPC: 0.651213 cumulative IPC: 0.483986 (Simulation time: 0 hr 29 min 50 sec) 
Heartbeat CPU 0 instructions: 432000002 cycles: 890309165 heartbeat IPC: 0.660323 cumulative IPC: 0.484286 (Simulation time: 0 hr 29 min 54 sec) 
Heartbeat CPU 0 instructions: 433000003 cycles: 891861244 heartbeat IPC: 0.644298 cumulative IPC: 0.484565 (Simulation time: 0 hr 29 min 57 sec) 
Heartbeat CPU 0 instructions: 434000002 cycles: 893477537 heartbeat IPC: 0.618699 cumulative IPC: 0.484807 (Simulation time: 0 hr 30 min 1 sec) 
Heartbeat CPU 0 instructions: 435000000 cycles: 895093615 heartbeat IPC: 0.618781 cumulative IPC: 0.485049 (Simulation time: 0 hr 30 min 5 sec) 
Heartbeat CPU 0 instructions: 436000001 cycles: 896717933 heartbeat IPC: 0.615644 cumulative IPC: 0.485286 (Simulation time: 0 hr 30 min 9 sec) 
Heartbeat CPU 0 instructions: 437000000 cycles: 898297041 heartbeat IPC: 0.633268 cumulative IPC: 0.485546 (Simulation time: 0 hr 30 min 13 sec) 
Heartbeat CPU 0 instructions: 438000000 cycles: 899966955 heartbeat IPC: 0.598833 cumulative IPC: 0.485757 (Simulation time: 0 hr 30 min 17 sec) 
Heartbeat CPU 0 instructions: 439000001 cycles: 901811844 heartbeat IPC: 0.542039 cumulative IPC: 0.485872 (Simulation time: 0 hr 30 min 21 sec) 
Heartbeat CPU 0 instructions: 440000000 cycles: 903666226 heartbeat IPC: 0.539263 cumulative IPC: 0.485981 (Simulation time: 0 hr 30 min 25 sec) 
Heartbeat CPU 0 instructions: 441000000 cycles: 905988999 heartbeat IPC: 0.43052 cumulative IPC: 0.485839 (Simulation time: 0 hr 30 min 29 sec) 
Heartbeat CPU 0 instructions: 442000000 cycles: 908455982 heartbeat IPC: 0.405353 cumulative IPC: 0.48562 (Simulation time: 0 hr 30 min 33 sec) 
Heartbeat CPU 0 instructions: 443000002 cycles: 910691572 heartbeat IPC: 0.44731 cumulative IPC: 0.485526 (Simulation time: 0 hr 30 min 38 sec) 
Heartbeat CPU 0 instructions: 444000003 cycles: 912766739 heartbeat IPC: 0.481889 cumulative IPC: 0.485518 (Simulation time: 0 hr 30 min 42 sec) 
Heartbeat CPU 0 instructions: 445000000 cycles: 914826237 heartbeat IPC: 0.485554 cumulative IPC: 0.485518 (Simulation time: 0 hr 30 min 46 sec) 
Heartbeat CPU 0 instructions: 446000000 cycles: 916767238 heartbeat IPC: 0.515198 cumulative IPC: 0.485581 (Simulation time: 0 hr 30 min 50 sec) 
Heartbeat CPU 0 instructions: 447000000 cycles: 918597385 heartbeat IPC: 0.546404 cumulative IPC: 0.485702 (Simulation time: 0 hr 30 min 54 sec) 
Heartbeat CPU 0 instructions: 448000000 cycles: 920430833 heartbeat IPC: 0.54542 cumulative IPC: 0.485821 (Simulation time: 0 hr 30 min 58 sec) 
Heartbeat CPU 0 instructions: 449000002 cycles: 922153780 heartbeat IPC: 0.580402 cumulative IPC: 0.485998 (Simulation time: 0 hr 31 min 2 sec) 
Heartbeat CPU 0 instructions: 450000000 cycles: 923965466 heartbeat IPC: 0.551971 cumulative IPC: 0.486127 (Simulation time: 0 hr 31 min 6 sec) 

Warmup complete CPU 0 instructions: 450000004 cycles: 923965467 (Simulation time: 0 hr 31 min 6 sec) 

Heartbeat CPU 0 instructions: 451000000 cycles: 925815009 heartbeat IPC: 0.540674 cumulative IPC: 0.540672 (Simulation time: 0 hr 31 min 10 sec) 
Heartbeat CPU 0 instructions: 452000000 cycles: 927578105 heartbeat IPC: 0.567184 cumulative IPC: 0.553611 (Simulation time: 0 hr 31 min 14 sec) 
Heartbeat CPU 0 instructions: 453000003 cycles: 929320931 heartbeat IPC: 0.573782 cumulative IPC: 0.560175 (Simulation time: 0 hr 31 min 18 sec) 
Heartbeat CPU 0 instructions: 454000000 cycles: 931012460 heartbeat IPC: 0.591179 cumulative IPC: 0.567617 (Simulation time: 0 hr 31 min 22 sec) 
Heartbeat CPU 0 instructions: 455000000 cycles: 932686805 heartbeat IPC: 0.597248 cumulative IPC: 0.573306 (Simulation time: 0 hr 31 min 26 sec) 
Heartbeat CPU 0 instructions: 456000003 cycles: 934443339 heartbeat IPC: 0.569305 cumulative IPC: 0.572635 (Simulation time: 0 hr 31 min 30 sec) 
Heartbeat CPU 0 instructions: 457000002 cycles: 936420730 heartbeat IPC: 0.505716 cumulative IPC: 0.562011 (Simulation time: 0 hr 31 min 34 sec) 
Heartbeat CPU 0 instructions: 458000000 cycles: 938666148 heartbeat IPC: 0.44535 cumulative IPC: 0.544192 (Simulation time: 0 hr 31 min 38 sec) 
Heartbeat CPU 0 instructions: 459000002 cycles: 940933087 heartbeat IPC: 0.441124 cumulative IPC: 0.530422 (Simulation time: 0 hr 31 min 42 sec) 
Heartbeat CPU 0 instructions: 460000001 cycles: 942756110 heartbeat IPC: 0.548539 cumulative IPC: 0.53218 (Simulation time: 0 hr 31 min 46 sec) 
Heartbeat CPU 0 instructions: 461000001 cycles: 944537944 heartbeat IPC: 0.56122 cumulative IPC: 0.534695 (Simulation time: 0 hr 31 min 50 sec) 
Heartbeat CPU 0 instructions: 462000000 cycles: 946639275 heartbeat IPC: 0.475888 cumulative IPC: 0.529245 (Simulation time: 0 hr 31 min 54 sec) 
Heartbeat CPU 0 instructions: 463000003 cycles: 948758485 heartbeat IPC: 0.471875 cumulative IPC: 0.524341 (Simulation time: 0 hr 31 min 58 sec) 
Heartbeat CPU 0 instructions: 464000000 cycles: 950970692 heartbeat IPC: 0.452036 cumulative IPC: 0.518418 (Simulation time: 0 hr 32 min 2 sec) 
Heartbeat CPU 0 instructions: 465000002 cycles: 953413352 heartbeat IPC: 0.409391 cumulative IPC: 0.509374 (Simulation time: 0 hr 32 min 6 sec) 
Heartbeat CPU 0 instructions: 466000000 cycles: 956044484 heartbeat IPC: 0.380064 cumulative IPC: 0.498768 (Simulation time: 0 hr 32 min 10 sec) 
Heartbeat CPU 0 instructions: 467000000 cycles: 958550338 heartbeat IPC: 0.399066 cumulative IPC: 0.491544 (Simulation time: 0 hr 32 min 15 sec) 
Heartbeat CPU 0 instructions: 468000000 cycles: 960871205 heartbeat IPC: 0.430873 cumulative IPC: 0.487729 (Simulation time: 0 hr 32 min 19 sec) 
Heartbeat CPU 0 instructions: 469000002 cycles: 962858870 heartbeat IPC: 0.503104 cumulative IPC: 0.488515 (Simulation time: 0 hr 32 min 24 sec) 
Heartbeat CPU 0 instructions: 470000001 cycles: 964769572 heartbeat IPC: 0.523367 cumulative IPC: 0.490147 (Simulation time: 0 hr 32 min 28 sec) 
Heartbeat CPU 0 instructions: 471000003 cycles: 966798701 heartbeat IPC: 0.492823 cumulative IPC: 0.490273 (Simulation time: 0 hr 32 min 32 sec) 
Heartbeat CPU 0 instructions: 472000002 cycles: 968726716 heartbeat IPC: 0.518668 cumulative IPC: 0.491497 (Simulation time: 0 hr 32 min 36 sec) 
Heartbeat CPU 0 instructions: 473000000 cycles: 970716745 heartbeat IPC: 0.502504 cumulative IPC: 0.491965 (Simulation time: 0 hr 32 min 40 sec) 
Heartbeat CPU 0 instructions: 474000001 cycles: 973127245 heartbeat IPC: 0.414852 cumulative IPC: 0.488184 (Simulation time: 0 hr 32 min 44 sec) 
Heartbeat CPU 0 instructions: 475000000 cycles: 976138958 heartbeat IPC: 0.332037 cumulative IPC: 0.47917 (Simulation time: 0 hr 32 min 49 sec) 
Heartbeat CPU 0 instructions: 476000000 cycles: 979113355 heartbeat IPC: 0.336203 cumulative IPC: 0.47146 (Simulation time: 0 hr 32 min 53 sec) 
Heartbeat CPU 0 instructions: 477000001 cycles: 982175491 heartbeat IPC: 0.32657 cumulative IPC: 0.463838 (Simulation time: 0 hr 32 min 58 sec) 
Heartbeat CPU 0 instructions: 478000002 cycles: 985573652 heartbeat IPC: 0.294277 cumulative IPC: 0.454485 (Simulation time: 0 hr 33 min 2 sec) 
Heartbeat CPU 0 instructions: 479000000 cycles: 988726496 heartbeat IPC: 0.317173 cumulative IPC: 0.4478 (Simulation time: 0 hr 33 min 6 sec) 
Heartbeat CPU 0 instructions: 480000000 cycles: 991658977 heartbeat IPC: 0.341008 cumulative IPC: 0.443174 (Simulation time: 0 hr 33 min 10 sec) 
Heartbeat CPU 0 instructions: 481000001 cycles: 994498322 heartbeat IPC: 0.352194 cumulative IPC: 0.439511 (Simulation time: 0 hr 33 min 15 sec) 
Heartbeat CPU 0 instructions: 482000003 cycles: 997159983 heartbeat IPC: 0.375706 cumulative IPC: 0.437191 (Simulation time: 0 hr 33 min 19 sec) 
Heartbeat CPU 0 instructions: 483000000 cycles: 999660146 heartbeat IPC: 0.399973 cumulative IPC: 0.435962 (Simulation time: 0 hr 33 min 23 sec) 
Heartbeat CPU 0 instructions: 484000000 cycles: 1002154323 heartbeat IPC: 0.400934 cumulative IPC: 0.434845 (Simulation time: 0 hr 33 min 27 sec) 
Heartbeat CPU 0 instructions: 485000000 cycles: 1005021493 heartbeat IPC: 0.348776 cumulative IPC: 0.4318 (Simulation time: 0 hr 33 min 31 sec) 
Heartbeat CPU 0 instructions: 486000001 cycles: 1008148726 heartbeat IPC: 0.319772 cumulative IPC: 0.427638 (Simulation time: 0 hr 33 min 36 sec) 
Heartbeat CPU 0 instructions: 487000001 cycles: 1011226156 heartbeat IPC: 0.324946 cumulative IPC: 0.424017 (Simulation time: 0 hr 33 min 40 sec) 
Heartbeat CPU 0 instructions: 488000000 cycles: 1014285959 heartbeat IPC: 0.326818 cumulative IPC: 0.420724 (Simulation time: 0 hr 33 min 44 sec) 
Heartbeat CPU 0 instructions: 489000000 cycles: 1017148858 heartbeat IPC: 0.349296 cumulative IPC: 0.418529 (Simulation time: 0 hr 33 min 48 sec) 
Heartbeat CPU 0 instructions: 490000001 cycles: 1020007893 heartbeat IPC: 0.349769 cumulative IPC: 0.416483 (Simulation time: 0 hr 33 min 52 sec) 
Heartbeat CPU 0 instructions: 491000003 cycles: 1022715646 heartbeat IPC: 0.369311 cumulative IPC: 0.415189 (Simulation time: 0 hr 33 min 57 sec) 
Heartbeat CPU 0 instructions: 492000000 cycles: 1025583585 heartbeat IPC: 0.348681 cumulative IPC: 0.413312 (Simulation time: 0 hr 34 min 1 sec) 
Heartbeat CPU 0 instructions: 493000001 cycles: 1028356696 heartbeat IPC: 0.360606 cumulative IPC: 0.411912 (Simulation time: 0 hr 34 min 5 sec) 
Heartbeat CPU 0 instructions: 494000001 cycles: 1031178572 heartbeat IPC: 0.354374 cumulative IPC: 0.410398 (Simulation time: 0 hr 34 min 9 sec) 
Heartbeat CPU 0 instructions: 495000000 cycles: 1033804264 heartbeat IPC: 0.380852 cumulative IPC: 0.409691 (Simulation time: 0 hr 34 min 13 sec) 
Heartbeat CPU 0 instructions: 496000002 cycles: 1036354044 heartbeat IPC: 0.392191 cumulative IPC: 0.409294 (Simulation time: 0 hr 34 min 17 sec) 
Heartbeat CPU 0 instructions: 497000000 cycles: 1038668707 heartbeat IPC: 0.432027 cumulative IPC: 0.409753 (Simulation time: 0 hr 34 min 21 sec) 
Heartbeat CPU 0 instructions: 498000000 cycles: 1040889276 heartbeat IPC: 0.450335 cumulative IPC: 0.410524 (Simulation time: 0 hr 34 min 25 sec) 
Heartbeat CPU 0 instructions: 499000002 cycles: 1043044689 heartbeat IPC: 0.463949 cumulative IPC: 0.411491 (Simulation time: 0 hr 34 min 29 sec) 
Heartbeat CPU 0 instructions: 500000000 cycles: 1045170611 heartbeat IPC: 0.470383 cumulative IPC: 0.412524 (Simulation time: 0 hr 34 min 34 sec) 
Heartbeat CPU 0 instructions: 501000001 cycles: 1047651397 heartbeat IPC: 0.403098 cumulative IPC: 0.412335 (Simulation time: 0 hr 34 min 38 sec) 
Heartbeat CPU 0 instructions: 502000001 cycles: 1050297951 heartbeat IPC: 0.37785 cumulative IPC: 0.411612 (Simulation time: 0 hr 34 min 42 sec) 
Heartbeat CPU 0 instructions: 503000002 cycles: 1052212682 heartbeat IPC: 0.522267 cumulative IPC: 0.413264 (Simulation time: 0 hr 34 min 46 sec) 
Heartbeat CPU 0 instructions: 504000001 cycles: 1054277086 heartbeat IPC: 0.484401 cumulative IPC: 0.414391 (Simulation time: 0 hr 34 min 51 sec) 
Heartbeat CPU 0 instructions: 505000001 cycles: 1056230757 heartbeat IPC: 0.511857 cumulative IPC: 0.415831 (Simulation time: 0 hr 34 min 55 sec) 
Heartbeat CPU 0 instructions: 506000000 cycles: 1058081500 heartbeat IPC: 0.540323 cumulative IPC: 0.417549 (Simulation time: 0 hr 34 min 59 sec) 
Heartbeat CPU 0 instructions: 507000003 cycles: 1059780986 heartbeat IPC: 0.588415 cumulative IPC: 0.419687 (Simulation time: 0 hr 35 min 3 sec) 
Heartbeat CPU 0 instructions: 508000000 cycles: 1061485673 heartbeat IPC: 0.586616 cumulative IPC: 0.421756 (Simulation time: 0 hr 35 min 7 sec) 
Heartbeat CPU 0 instructions: 509000000 cycles: 1063238850 heartbeat IPC: 0.570393 cumulative IPC: 0.423627 (Simulation time: 0 hr 35 min 11 sec) 
Heartbeat CPU 0 instructions: 510000002 cycles: 1065036836 heartbeat IPC: 0.556179 cumulative IPC: 0.425317 (Simulation time: 0 hr 35 min 15 sec) 
Heartbeat CPU 0 instructions: 511000000 cycles: 1066707435 heartbeat IPC: 0.598586 cumulative IPC: 0.427345 (Simulation time: 0 hr 35 min 20 sec) 
Heartbeat CPU 0 instructions: 512000000 cycles: 1068339150 heartbeat IPC: 0.612852 cumulative IPC: 0.429441 (Simulation time: 0 hr 35 min 24 sec) 
Heartbeat CPU 0 instructions: 513000001 cycles: 1069905600 heartbeat IPC: 0.638387 cumulative IPC: 0.431684 (Simulation time: 0 hr 35 min 28 sec) 
Heartbeat CPU 0 instructions: 514000003 cycles: 1071441237 heartbeat IPC: 0.651197 cumulative IPC: 0.43397 (Simulation time: 0 hr 35 min 32 sec) 
Heartbeat CPU 0 instructions: 515000001 cycles: 1073075571 heartbeat IPC: 0.611869 cumulative IPC: 0.435919 (Simulation time: 0 hr 35 min 37 sec) 
Heartbeat CPU 0 instructions: 516000000 cycles: 1074608567 heartbeat IPC: 0.652317 cumulative IPC: 0.438122 (Simulation time: 0 hr 35 min 41 sec) 
Heartbeat CPU 0 instructions: 517000000 cycles: 1076083909 heartbeat IPC: 0.677809 cumulative IPC: 0.440446 (Simulation time: 0 hr 35 min 45 sec) 
Heartbeat CPU 0 instructions: 518000001 cycles: 1077524082 heartbeat IPC: 0.694362 cumulative IPC: 0.442828 (Simulation time: 0 hr 35 min 49 sec) 
Heartbeat CPU 0 instructions: 519000001 cycles: 1078943153 heartbeat IPC: 0.704686 cumulative IPC: 0.445225 (Simulation time: 0 hr 35 min 53 sec) 
Heartbeat CPU 0 instructions: 520000000 cycles: 1080425449 heartbeat IPC: 0.674628 cumulative IPC: 0.447399 (Simulation time: 0 hr 35 min 58 sec) 
Heartbeat CPU 0 instructions: 521000002 cycles: 1082025665 heartbeat IPC: 0.624917 cumulative IPC: 0.449196 (Simulation time: 0 hr 36 min 2 sec) 
Heartbeat CPU 0 instructions: 522000001 cycles: 1083601858 heartbeat IPC: 0.634439 cumulative IPC: 0.451025 (Simulation time: 0 hr 36 min 6 sec) 
Heartbeat CPU 0 instructions: 523000000 cycles: 1085241614 heartbeat IPC: 0.609846 cumulative IPC: 0.45264 (Simulation time: 0 hr 36 min 9 sec) 
Heartbeat CPU 0 instructions: 524000003 cycles: 1087277518 heartbeat IPC: 0.491184 cumulative IPC: 0.45312 (Simulation time: 0 hr 36 min 13 sec) 
Heartbeat CPU 0 instructions: 525000002 cycles: 1089410597 heartbeat IPC: 0.468805 cumulative IPC: 0.453322 (Simulation time: 0 hr 36 min 18 sec) 
Heartbeat CPU 0 instructions: 526000000 cycles: 1091353633 heartbeat IPC: 0.514657 cumulative IPC: 0.454034 (Simulation time: 0 hr 36 min 22 sec) 
Heartbeat CPU 0 instructions: 527000001 cycles: 1093248136 heartbeat IPC: 0.527843 cumulative IPC: 0.45486 (Simulation time: 0 hr 36 min 26 sec) 
Heartbeat CPU 0 instructions: 528000000 cycles: 1095138495 heartbeat IPC: 0.529 cumulative IPC: 0.455679 (Simulation time: 0 hr 36 min 30 sec) 
Heartbeat CPU 0 instructions: 529000000 cycles: 1096844850 heartbeat IPC: 0.586045 cumulative IPC: 0.456966 (Simulation time: 0 hr 36 min 34 sec) 
Heartbeat CPU 0 instructions: 530000000 cycles: 1098426851 heartbeat IPC: 0.632111 cumulative IPC: 0.458554 (Simulation time: 0 hr 36 min 38 sec) 
Heartbeat CPU 0 instructions: 531000000 cycles: 1100141038 heartbeat IPC: 0.583367 cumulative IPC: 0.459769 (Simulation time: 0 hr 36 min 42 sec) 
Heartbeat CPU 0 instructions: 532000003 cycles: 1101732127 heartbeat IPC: 0.628502 cumulative IPC: 0.461279 (Simulation time: 0 hr 36 min 45 sec) 
Heartbeat CPU 0 instructions: 533000003 cycles: 1103465109 heartbeat IPC: 0.57704 cumulative IPC: 0.462396 (Simulation time: 0 hr 36 min 50 sec) 
Heartbeat CPU 0 instructions: 534000000 cycles: 1105214733 heartbeat IPC: 0.57155 cumulative IPC: 0.46345 (Simulation time: 0 hr 36 min 54 sec) 
Heartbeat CPU 0 instructions: 535000000 cycles: 1106837926 heartbeat IPC: 0.61607 cumulative IPC: 0.464805 (Simulation time: 0 hr 36 min 57 sec) 
Heartbeat CPU 0 instructions: 536000001 cycles: 1108494561 heartbeat IPC: 0.603634 cumulative IPC: 0.466051 (Simulation time: 0 hr 37 min 1 sec) 
Heartbeat CPU 0 instructions: 537000003 cycles: 1110167878 heartbeat IPC: 0.597617 cumulative IPC: 0.467233 (Simulation time: 0 hr 37 min 6 sec) 
Heartbeat CPU 0 instructions: 538000000 cycles: 1111806563 heartbeat IPC: 0.610244 cumulative IPC: 0.468481 (Simulation time: 0 hr 37 min 9 sec) 
Heartbeat CPU 0 instructions: 539000000 cycles: 1113506429 heartbeat IPC: 0.588282 cumulative IPC: 0.469555 (Simulation time: 0 hr 37 min 14 sec) 
Heartbeat CPU 0 instructions: 540000003 cycles: 1115250492 heartbeat IPC: 0.573376 cumulative IPC: 0.470502 (Simulation time: 0 hr 37 min 18 sec) 
Heartbeat CPU 0 instructions: 541000002 cycles: 1117032021 heartbeat IPC: 0.561315 cumulative IPC: 0.47134 (Simulation time: 0 hr 37 min 22 sec) 
Heartbeat CPU 0 instructions: 542000001 cycles: 1118884358 heartbeat IPC: 0.539858 cumulative IPC: 0.471991 (Simulation time: 0 hr 37 min 26 sec) 
Heartbeat CPU 0 instructions: 543000001 cycles: 1121172696 heartbeat IPC: 0.436998 cumulative IPC: 0.471585 (Simulation time: 0 hr 37 min 30 sec) 
Heartbeat CPU 0 instructions: 544000002 cycles: 1123578065 heartbeat IPC: 0.415737 cumulative IPC: 0.470912 (Simulation time: 0 hr 37 min 34 sec) 
Heartbeat CPU 0 instructions: 545000000 cycles: 1125715152 heartbeat IPC: 0.467926 cumulative IPC: 0.470881 (Simulation time: 0 hr 37 min 38 sec) 
Heartbeat CPU 0 instructions: 546000001 cycles: 1127380866 heartbeat IPC: 0.600344 cumulative IPC: 0.471941 (Simulation time: 0 hr 37 min 42 sec) 
[...]
Heartbeat CPU 0 instructions: 835000003 cycles: 1736060237 heartbeat IPC: 0.463893 cumulative IPC: 0.474083 (Simulation time: 0 hr 57 min 32 sec) 
Heartbeat CPU 0 instructions: 836000000 cycles: 1738544220 heartbeat IPC: 0.402578 cumulative IPC: 0.473865 (Simulation time: 0 hr 57 min 36 sec) 
Heartbeat CPU 0 instructions: 837000003 cycles: 1741038448 heartbeat IPC: 0.400927 cumulative IPC: 0.473642 (Simulation time: 0 hr 57 min 40 sec) 
Heartbeat CPU 0 instructions: 838000003 cycles: 1743345279 heartbeat IPC: 0.433495 cumulative IPC: 0.473529 (Simulation time: 0 hr 57 min 44 sec) 
Heartbeat CPU 0 instructions: 839000003 cycles: 1745235118 heartbeat IPC: 0.529146 cumulative IPC: 0.473657 (Simulation time: 0 hr 57 min 48 sec) 
Heartbeat CPU 0 instructions: 840000000 cycles: 1747420895 heartbeat IPC: 0.457502 cumulative IPC: 0.473614 (Simulation time: 0 hr 57 min 52 sec) 
Heartbeat CPU 0 instructions: 841000001 cycles: 1749883442 heartbeat IPC: 0.406084 cumulative IPC: 0.473413 (Simulation time: 0 hr 57 min 57 sec) 
Heartbeat CPU 0 instructions: 842000002 cycles: 1752622390 heartbeat IPC: 0.365104 cumulative IPC: 0.473055 (Simulation time: 0 hr 58 min 1 sec) 
Heartbeat CPU 0 instructions: 843000002 cycles: 1755418157 heartbeat IPC: 0.357684 cumulative IPC: 0.472667 (Simulation time: 0 hr 58 min 5 sec) 
Heartbeat CPU 0 instructions: 844000001 cycles: 1758264881 heartbeat IPC: 0.351281 cumulative IPC: 0.472253 (Simulation time: 0 hr 58 min 9 sec) 
Heartbeat CPU 0 instructions: 845000002 cycles: 1761028894 heartbeat IPC: 0.361793 cumulative IPC: 0.471888 (Simulation time: 0 hr 58 min 13 sec) 
Heartbeat CPU 0 instructions: 846000002 cycles: 1763853928 heartbeat IPC: 0.353978 cumulative IPC: 0.471491 (Simulation time: 0 hr 58 min 17 sec) 
Heartbeat CPU 0 instructions: 847000000 cycles: 1766542290 heartbeat IPC: 0.371973 cumulative IPC: 0.471174 (Simulation time: 0 hr 58 min 21 sec) 
Heartbeat CPU 0 instructions: 848000000 cycles: 1769252052 heartbeat IPC: 0.369036 cumulative IPC: 0.470846 (Simulation time: 0 hr 58 min 25 sec) 
Heartbeat CPU 0 instructions: 849000002 cycles: 1772032478 heartbeat IPC: 0.359658 cumulative IPC: 0.470482 (Simulation time: 0 hr 58 min 29 sec) 
Heartbeat CPU 0 instructions: 850000000 cycles: 1774955389 heartbeat IPC: 0.342124 cumulative IPC: 0.470041 (Simulation time: 0 hr 58 min 33 sec) 
Heartbeat CPU 0 instructions: 851000001 cycles: 1777935293 heartbeat IPC: 0.335582 cumulative IPC: 0.469572 (Simulation time: 0 hr 58 min 37 sec) 
Heartbeat CPU 0 instructions: 852000001 cycles: 1780755492 heartbeat IPC: 0.354585 cumulative IPC: 0.469193 (Simulation time: 0 hr 58 min 41 sec) 
Heartbeat CPU 0 instructions: 853000003 cycles: 1783550659 heartbeat IPC: 0.357761 cumulative IPC: 0.468831 (Simulation time: 0 hr 58 min 45 sec) 
Heartbeat CPU 0 instructions: 854000000 cycles: 1786393588 heartbeat IPC: 0.351749 cumulative IPC: 0.468445 (Simulation time: 0 hr 58 min 49 sec) 
Heartbeat CPU 0 instructions: 855000000 cycles: 1789156396 heartbeat IPC: 0.361951 cumulative IPC: 0.468105 (Simulation time: 0 hr 58 min 54 sec) 
Heartbeat CPU 0 instructions: 856000003 cycles: 1791903324 heartbeat IPC: 0.364044 cumulative IPC: 0.467775 (Simulation time: 0 hr 58 min 58 sec) 
Heartbeat CPU 0 instructions: 857000000 cycles: 1794545650 heartbeat IPC: 0.378453 cumulative IPC: 0.467504 (Simulation time: 0 hr 59 min 2 sec) 
Heartbeat CPU 0 instructions: 858000000 cycles: 1797255651 heartbeat IPC: 0.369004 cumulative IPC: 0.467199 (Simulation time: 0 hr 59 min 6 sec) 
Heartbeat CPU 0 instructions: 859000000 cycles: 1799742003 heartbeat IPC: 0.402196 cumulative IPC: 0.467014 (Simulation time: 0 hr 59 min 10 sec) 
Heartbeat CPU 0 instructions: 860000003 cycles: 1802048198 heartbeat IPC: 0.433616 cumulative IPC: 0.466926 (Simulation time: 0 hr 59 min 14 sec) 
Heartbeat CPU 0 instructions: 861000002 cycles: 1804298730 heartbeat IPC: 0.444339 cumulative IPC: 0.466869 (Simulation time: 0 hr 59 min 18 sec) 
Heartbeat CPU 0 instructions: 862000000 cycles: 1806798118 heartbeat IPC: 0.400097 cumulative IPC: 0.46668 (Simulation time: 0 hr 59 min 22 sec) 
Heartbeat CPU 0 instructions: 863000000 cycles: 1809415780 heartbeat IPC: 0.38202 cumulative IPC: 0.466429 (Simulation time: 0 hr 59 min 26 sec) 
Heartbeat CPU 0 instructions: 864000000 cycles: 1811509139 heartbeat IPC: 0.477701 cumulative IPC: 0.466456 (Simulation time: 0 hr 59 min 30 sec) 
Heartbeat CPU 0 instructions: 865000001 cycles: 1813286765 heartbeat IPC: 0.562549 cumulative IPC: 0.466648 (Simulation time: 0 hr 59 min 34 sec) 
Heartbeat CPU 0 instructions: 866000003 cycles: 1815108614 heartbeat IPC: 0.548894 cumulative IPC: 0.466816 (Simulation time: 0 hr 59 min 38 sec) 
Heartbeat CPU 0 instructions: 867000001 cycles: 1817087997 heartbeat IPC: 0.505207 cumulative IPC: 0.466901 (Simulation time: 0 hr 59 min 42 sec) 
Heartbeat CPU 0 instructions: 868000002 cycles: 1819000876 heartbeat IPC: 0.522773 cumulative IPC: 0.467021 (Simulation time: 0 hr 59 min 46 sec) 
Heartbeat CPU 0 instructions: 869000000 cycles: 1820749260 heartbeat IPC: 0.571956 cumulative IPC: 0.467225 (Simulation time: 0 hr 59 min 49 sec) 
Heartbeat CPU 0 instructions: 870000002 cycles: 1822662016 heartbeat IPC: 0.522807 cumulative IPC: 0.467344 (Simulation time: 0 hr 59 min 53 sec) 
Heartbeat CPU 0 instructions: 871000001 cycles: 1824522779 heartbeat IPC: 0.537413 cumulative IPC: 0.467488 (Simulation time: 0 hr 59 min 57 sec) 
Heartbeat CPU 0 instructions: 872000002 cycles: 1826302903 heartbeat IPC: 0.561759 cumulative IPC: 0.467674 (Simulation time: 1 hr 0 min 1 sec) 
Heartbeat CPU 0 instructions: 873000000 cycles: 1828119650 heartbeat IPC: 0.550433 cumulative IPC: 0.467841 (Simulation time: 1 hr 0 min 5 sec) 
Heartbeat CPU 0 instructions: 874000000 cycles: 1829930359 heartbeat IPC: 0.55227 cumulative IPC: 0.468009 (Simulation time: 1 hr 0 min 9 sec) 
Heartbeat CPU 0 instructions: 875000003 cycles: 1831642650 heartbeat IPC: 0.584015 cumulative IPC: 0.468228 (Simulation time: 1 hr 0 min 13 sec) 
Heartbeat CPU 0 instructions: 876000003 cycles: 1833288029 heartbeat IPC: 0.607763 cumulative IPC: 0.468481 (Simulation time: 1 hr 0 min 17 sec) 
Heartbeat CPU 0 instructions: 877000003 cycles: 1835013464 heartbeat IPC: 0.579564 cumulative IPC: 0.468691 (Simulation time: 1 hr 0 min 21 sec) 
Heartbeat CPU 0 instructions: 878000001 cycles: 1836648206 heartbeat IPC: 0.611716 cumulative IPC: 0.468947 (Simulation time: 1 hr 0 min 25 sec) 
Heartbeat CPU 0 instructions: 879000001 cycles: 1838272399 heartbeat IPC: 0.61569 cumulative IPC: 0.469208 (Simulation time: 1 hr 0 min 30 sec) 
Heartbeat CPU 0 instructions: 880000000 cycles: 1839849824 heartbeat IPC: 0.633944 cumulative IPC: 0.469492 (Simulation time: 1 hr 0 min 34 sec) 
Heartbeat CPU 0 instructions: 881000002 cycles: 1841503897 heartbeat IPC: 0.604569 cumulative IPC: 0.469735 (Simulation time: 1 hr 0 min 38 sec) 
Heartbeat CPU 0 instructions: 882000002 cycles: 1843107555 heartbeat IPC: 0.623574 cumulative IPC: 0.470003 (Simulation time: 1 hr 0 min 43 sec) 
Heartbeat CPU 0 instructions: 883000002 cycles: 1844642584 heartbeat IPC: 0.651453 cumulative IPC: 0.470306 (Simulation time: 1 hr 0 min 47 sec) 
Heartbeat CPU 0 instructions: 884000001 cycles: 1846160600 heartbeat IPC: 0.658754 cumulative IPC: 0.470616 (Simulation time: 1 hr 0 min 51 sec) 
Heartbeat CPU 0 instructions: 885000002 cycles: 1847745123 heartbeat IPC: 0.631105 cumulative IPC: 0.470892 (Simulation time: 1 hr 0 min 55 sec) 
Heartbeat CPU 0 instructions: 886000001 cycles: 1849435059 heartbeat IPC: 0.591738 cumulative IPC: 0.471112 (Simulation time: 1 hr 0 min 59 sec) 
Heartbeat CPU 0 instructions: 887000001 cycles: 1851004062 heartbeat IPC: 0.637347 cumulative IPC: 0.471394 (Simulation time: 1 hr 1 min 3 sec) 
Heartbeat CPU 0 instructions: 888000002 cycles: 1852578406 heartbeat IPC: 0.635186 cumulative IPC: 0.471671 (Simulation time: 1 hr 1 min 7 sec) 
Heartbeat CPU 0 instructions: 889000001 cycles: 1854220923 heartbeat IPC: 0.608821 cumulative IPC: 0.471913 (Simulation time: 1 hr 1 min 11 sec) 
Heartbeat CPU 0 instructions: 890000003 cycles: 1855792225 heartbeat IPC: 0.636416 cumulative IPC: 0.472191 (Simulation time: 1 hr 1 min 15 sec) 
Heartbeat CPU 0 instructions: 891000000 cycles: 1857467785 heartbeat IPC: 0.596814 cumulative IPC: 0.472414 (Simulation time: 1 hr 1 min 19 sec) 
Heartbeat CPU 0 instructions: 892000001 cycles: 1859143214 heartbeat IPC: 0.596863 cumulative IPC: 0.472637 (Simulation time: 1 hr 1 min 23 sec) 
Heartbeat CPU 0 instructions: 893000000 cycles: 1860975728 heartbeat IPC: 0.545698 cumulative IPC: 0.47278 (Simulation time: 1 hr 1 min 27 sec) 
Heartbeat CPU 0 instructions: 894000002 cycles: 1862553242 heartbeat IPC: 0.63391 cumulative IPC: 0.473051 (Simulation time: 1 hr 1 min 31 sec) 
Heartbeat CPU 0 instructions: 895000002 cycles: 1864152096 heartbeat IPC: 0.625448 cumulative IPC: 0.47331 (Simulation time: 1 hr 1 min 35 sec) 
Heartbeat CPU 0 instructions: 896000003 cycles: 1865769879 heartbeat IPC: 0.618131 cumulative IPC: 0.473559 (Simulation time: 1 hr 1 min 39 sec) 
Heartbeat CPU 0 instructions: 897000001 cycles: 1867520312 heartbeat IPC: 0.571286 cumulative IPC: 0.47374 (Simulation time: 1 hr 1 min 43 sec) 
Heartbeat CPU 0 instructions: 898000003 cycles: 1869374071 heartbeat IPC: 0.539446 cumulative IPC: 0.473869 (Simulation time: 1 hr 1 min 47 sec) 
Heartbeat CPU 0 instructions: 899000002 cycles: 1871204796 heartbeat IPC: 0.546231 cumulative IPC: 0.474009 (Simulation time: 1 hr 1 min 51 sec) 
Heartbeat CPU 0 instructions: 900000003 cycles: 1872997224 heartbeat IPC: 0.557903 cumulative IPC: 0.474167 (Simulation time: 1 hr 1 min 56 sec) 
Heartbeat CPU 0 instructions: 901000000 cycles: 1874949882 heartbeat IPC: 0.512121 cumulative IPC: 0.474245 (Simulation time: 1 hr 2 min 0 sec) 
Heartbeat CPU 0 instructions: 902000000 cycles: 1876759831 heartbeat IPC: 0.552502 cumulative IPC: 0.474394 (Simulation time: 1 hr 2 min 4 sec) 
Heartbeat CPU 0 instructions: 903000000 cycles: 1878688010 heartbeat IPC: 0.518624 cumulative IPC: 0.474483 (Simulation time: 1 hr 2 min 8 sec) 
Heartbeat CPU 0 instructions: 904000000 cycles: 1880946648 heartbeat IPC: 0.442745 cumulative IPC: 0.474408 (Simulation time: 1 hr 2 min 12 sec) 
Heartbeat CPU 0 instructions: 905000003 cycles: 1883377452 heartbeat IPC: 0.411388 cumulative IPC: 0.474249 (Simulation time: 1 hr 2 min 16 sec) 
Heartbeat CPU 0 instructions: 906000001 cycles: 1885603183 heartbeat IPC: 0.44929 cumulative IPC: 0.474191 (Simulation time: 1 hr 2 min 20 sec) 
Heartbeat CPU 0 instructions: 907000003 cycles: 1887744335 heartbeat IPC: 0.467039 cumulative IPC: 0.474175 (Simulation time: 1 hr 2 min 25 sec) 
Heartbeat CPU 0 instructions: 908000000 cycles: 1889756013 heartbeat IPC: 0.497096 cumulative IPC: 0.474223 (Simulation time: 1 hr 2 min 29 sec) 
Heartbeat CPU 0 instructions: 909000001 cycles: 1891626456 heartbeat IPC: 0.534633 cumulative IPC: 0.47434 (Simulation time: 1 hr 2 min 34 sec) 
Heartbeat CPU 0 instructions: 910000001 cycles: 1893439782 heartbeat IPC: 0.551473 cumulative IPC: 0.474484 (Simulation time: 1 hr 2 min 38 sec) 
Heartbeat CPU 0 instructions: 911000002 cycles: 1895339635 heartbeat IPC: 0.526357 cumulative IPC: 0.474585 (Simulation time: 1 hr 2 min 43 sec) 
Heartbeat CPU 0 instructions: 912000001 cycles: 1897080070 heartbeat IPC: 0.574568 cumulative IPC: 0.474764 (Simulation time: 1 hr 2 min 47 sec) 
Heartbeat CPU 0 instructions: 913000000 cycles: 1898912349 heartbeat IPC: 0.545768 cumulative IPC: 0.474898 (Simulation time: 1 hr 2 min 51 sec) 
Heartbeat CPU 0 instructions: 914000000 cycles: 1900553855 heartbeat IPC: 0.609197 cumulative IPC: 0.475123 (Simulation time: 1 hr 2 min 55 sec) 
Heartbeat CPU 0 instructions: 915000003 cycles: 1902182716 heartbeat IPC: 0.613928 cumulative IPC: 0.475355 (Simulation time: 1 hr 2 min 59 sec) 
Heartbeat CPU 0 instructions: 916000003 cycles: 1903972385 heartbeat IPC: 0.558763 cumulative IPC: 0.475507 (Simulation time: 1 hr 3 min 3 sec) 
Heartbeat CPU 0 instructions: 917000000 cycles: 1905788602 heartbeat IPC: 0.550593 cumulative IPC: 0.475646 (Simulation time: 1 hr 3 min 7 sec) 
Heartbeat CPU 0 instructions: 918000000 cycles: 1907826811 heartbeat IPC: 0.490627 cumulative IPC: 0.475677 (Simulation time: 1 hr 3 min 11 sec) 
Heartbeat CPU 0 instructions: 919000001 cycles: 1909957602 heartbeat IPC: 0.46931 cumulative IPC: 0.475663 (Simulation time: 1 hr 3 min 16 sec) 
Heartbeat CPU 0 instructions: 920000003 cycles: 1912463487 heartbeat IPC: 0.399061 cumulative IPC: 0.475469 (Simulation time: 1 hr 3 min 20 sec) 
Heartbeat CPU 0 instructions: 921000001 cycles: 1915404065 heartbeat IPC: 0.340069 cumulative IPC: 0.475067 (Simulation time: 1 hr 3 min 24 sec) 
Heartbeat CPU 0 instructions: 922000000 cycles: 1918383621 heartbeat IPC: 0.33562 cumulative IPC: 0.474649 (Simulation time: 1 hr 3 min 28 sec) 
Heartbeat CPU 0 instructions: 923000002 cycles: 1921139979 heartbeat IPC: 0.362798 cumulative IPC: 0.47434 (Simulation time: 1 hr 3 min 32 sec) 
Heartbeat CPU 0 instructions: 924000000 cycles: 1923683350 heartbeat IPC: 0.393178 cumulative IPC: 0.474134 (Simulation time: 1 hr 3 min 36 sec) 
Heartbeat CPU 0 instructions: 925000002 cycles: 1926445691 heartbeat IPC: 0.362013 cumulative IPC: 0.473825 (Simulation time: 1 hr 3 min 40 sec) 
Heartbeat CPU 0 instructions: 926000000 cycles: 1929239468 heartbeat IPC: 0.357938 cumulative IPC: 0.473503 (Simulation time: 1 hr 3 min 44 sec) 
Heartbeat CPU 0 instructions: 927000000 cycles: 1932059890 heartbeat IPC: 0.354557 cumulative IPC: 0.47317 (Simulation time: 1 hr 3 min 49 sec) 
Heartbeat CPU 0 instructions: 928000000 cycles: 1934824761 heartbeat IPC: 0.361681 cumulative IPC: 0.472865 (Simulation time: 1 hr 3 min 53 sec) 
Heartbeat CPU 0 instructions: 929000000 cycles: 1937520137 heartbeat IPC: 0.371006 cumulative IPC: 0.472594 (Simulation time: 1 hr 3 min 57 sec) 
Heartbeat CPU 0 instructions: 930000002 cycles: 1940114856 heartbeat IPC: 0.385399 cumulative IPC: 0.472371 (Simulation time: 1 hr 4 min 1 sec) 
Heartbeat CPU 0 instructions: 931000002 cycles: 1942764865 heartbeat IPC: 0.377357 cumulative IPC: 0.472124 (Simulation time: 1 hr 4 min 5 sec) 
Heartbeat CPU 0 instructions: 932000001 cycles: 1945668581 heartbeat IPC: 0.344386 cumulative IPC: 0.471761 (Simulation time: 1 hr 4 min 10 sec) 
Heartbeat CPU 0 instructions: 933000002 cycles: 1948684387 heartbeat IPC: 0.331587 cumulative IPC: 0.471349 (Simulation time: 1 hr 4 min 14 sec) 
Heartbeat CPU 0 instructions: 934000001 cycles: 1951601490 heartbeat IPC: 0.342806 cumulative IPC: 0.470984 (Simulation time: 1 hr 4 min 18 sec) 
Heartbeat CPU 0 instructions: 935000000 cycles: 1954522253 heartbeat IPC: 0.342376 cumulative IPC: 0.470619 (Simulation time: 1 hr 4 min 22 sec) 
Heartbeat CPU 0 instructions: 936000002 cycles: 1957512447 heartbeat IPC: 0.334427 cumulative IPC: 0.470225 (Simulation time: 1 hr 4 min 26 sec) 
Heartbeat CPU 0 instructions: 937000002 cycles: 1960595745 heartbeat IPC: 0.324328 cumulative IPC: 0.469791 (Simulation time: 1 hr 4 min 30 sec) 
Heartbeat CPU 0 instructions: 938000002 cycles: 1963801176 heartbeat IPC: 0.311971 cumulative IPC: 0.469305 (Simulation time: 1 hr 4 min 34 sec) 
Heartbeat CPU 0 instructions: 939000000 cycles: 1966866133 heartbeat IPC: 0.326268 cumulative IPC: 0.468885 (Simulation time: 1 hr 4 min 39 sec) 
Heartbeat CPU 0 instructions: 940000000 cycles: 1969601838 heartbeat IPC: 0.365536 cumulative IPC: 0.468614 (Simulation time: 1 hr 4 min 43 sec) 
Heartbeat CPU 0 instructions: 941000002 cycles: 1972078334 heartbeat IPC: 0.403797 cumulative IPC: 0.468461 (Simulation time: 1 hr 4 min 47 sec) 
Heartbeat CPU 0 instructions: 942000000 cycles: 1974934602 heartbeat IPC: 0.350107 cumulative IPC: 0.468139 (Simulation time: 1 hr 4 min 51 sec) 
Heartbeat CPU 0 instructions: 943000002 cycles: 1977522547 heartbeat IPC: 0.386408 cumulative IPC: 0.467939 (Simulation time: 1 hr 4 min 55 sec) 
Heartbeat CPU 0 instructions: 944000000 cycles: 1979833294 heartbeat IPC: 0.43276 cumulative IPC: 0.467862 (Simulation time: 1 hr 4 min 59 sec) 
Heartbeat CPU 0 instructions: 945000001 cycles: 1982628548 heartbeat IPC: 0.35775 cumulative IPC: 0.467571 (Simulation time: 1 hr 5 min 3 sec) 
Heartbeat CPU 0 instructions: 946000000 cycles: 1985642472 heartbeat IPC: 0.331793 cumulative IPC: 0.467185 (Simulation time: 1 hr 5 min 7 sec) 
Heartbeat CPU 0 instructions: 947000000 cycles: 1988883986 heartbeat IPC: 0.308498 cumulative IPC: 0.466702 (Simulation time: 1 hr 5 min 11 sec) 
Heartbeat CPU 0 instructions: 948000000 cycles: 1992094242 heartbeat IPC: 0.311502 cumulative IPC: 0.466236 (Simulation time: 1 hr 5 min 16 sec) 
Heartbeat CPU 0 instructions: 949000003 cycles: 1995024349 heartbeat IPC: 0.341285 cumulative IPC: 0.465894 (Simulation time: 1 hr 5 min 20 sec) 
Heartbeat CPU 0 instructions: 950000003 cycles: 1998070531 heartbeat IPC: 0.32828 cumulative IPC: 0.465504 (Simulation time: 1 hr 5 min 24 sec) 
Finished CPU 0 instructions: 500000003 cycles: 1074105065 cumulative IPC: 0.465504 (Simulation time: 1 hr 5 min 24 sec) 

ChampSim completed all CPUs

Region of Interest Statistics

CPU 0 cumulative IPC: 0.465504 instructions: 500000003 cycles: 1074105065
L1D TOTAL     ACCESS:  124431686  HIT:  110225798  MISS:   14205888
L1D LOAD      ACCESS:  102976559  HIT:   88916192  MISS:   14060367
L1D RFO       ACCESS:   21455127  HIT:   21309606  MISS:     145521
L1D PREFETCH  ACCESS:          0  HIT:          0  MISS:          0
L1D WRITEBACK ACCESS:          0  HIT:          0  MISS:          0
L1D PREFETCH  REQUESTED:          0  ISSUED:          0  USEFUL:          0  USELESS:          0
L1D AVERAGE MISS LATENCY: 46.9817 cycles
L1I TOTAL     ACCESS:   88097913  HIT:   88097911  MISS:          2
L1I LOAD      ACCESS:   88097913  HIT:   88097911  MISS:          2
L1I RFO       ACCESS:          0  HIT:          0  MISS:          0
L1I PREFETCH  ACCESS:          0  HIT:          0  MISS:          0
L1I WRITEBACK ACCESS:          0  HIT:          0  MISS:          0
L1I PREFETCH  REQUESTED:          0  ISSUED:          0  USEFUL:          0  USELESS:          0
L1I AVERAGE MISS LATENCY: 306 cycles
L2C TOTAL     ACCESS:   18892914  HIT:   13479553  MISS:    5413361
L2C LOAD      ACCESS:   14059936  HIT:    8672652  MISS:    5387284
L2C RFO       ACCESS:     145451  HIT:     119773  MISS:      25678
L2C PREFETCH  ACCESS:          0  HIT:          0  MISS:          0
L2C WRITEBACK ACCESS:    4687527  HIT:    4687128  MISS:        399
L2C PREFETCH  REQUESTED:          0  ISSUED:          0  USEFUL:          0  USELESS:          0
L2C AVERAGE MISS LATENCY: 75.6792 cycles
LLC TOTAL     ACCESS:    7365683  HIT:    6219240  MISS:    1146443
LLC LOAD      ACCESS:    5387039  HIT:    4243426  MISS:    1143613
LLC RFO       ACCESS:      25672  HIT:      23889  MISS:       1783
LLC PREFETCH  ACCESS:          0  HIT:          0  MISS:          0
LLC WRITEBACK ACCESS:    1952972  HIT:    1951925  MISS:       1047
LLC PREFETCH  REQUESTED:          0  ISSUED:          0  USEFUL:          0  USELESS:          0
LLC AVERAGE MISS LATENCY: 191.401 cycles
Major fault: 0 Minor fault: 6226

DRAM Statistics
 CHANNEL 0
 RQ ROW_BUFFER_HIT:     299120  ROW_BUFFER_MISS:     277884
 DBUS_CONGESTED:     353579
 WQ ROW_BUFFER_HIT:     138026  ROW_BUFFER_MISS:     216279  FULL:          0

 CHANNEL 1
 RQ ROW_BUFFER_HIT:     296725  ROW_BUFFER_MISS:     271657
 DBUS_CONGESTED:     353579
 WQ ROW_BUFFER_HIT:     131334  ROW_BUFFER_MISS:     219829  FULL:          0

 AVG_CONGESTED_CYCLE: 18

CPU 0 Branch Prediction Accuracy: 84.6857% MPKI: 29.2182 Average ROB Occupancy at Mispredict: 12.795

Branch types
NOT_BRANCH: 404604755 80.921%
BRANCH_DIRECT_JUMP: 42139 0.0084278%
BRANCH_INDIRECT: 0 0%
BRANCH_CONDITIONAL: 95329666 19.0659%
BRANCH_DIRECT_CALL: 11710 0.002342%
BRANCH_INDIRECT_CALL: 0 0%
BRANCH_RETURN: 11710 0.002342%
BRANCH_OTHER: 0 0%


gzip: stdout: Broken pipe
