
*** ChampSim Multicore Out-of-Order Simulator ***

Warmup Instructions: 1000000
Prefetch Warmup Instructions: 450000000
Simulation Instructions: 500000000
Stat Printing Period: 1000000
Number of CPUs: 1
LLC sets: 2048
LLC ways: 16
Off-chip DRAM Size: 32768 MB Channels: 2 Width: 64-bit Data Rate: 1024 MT/s

CPU 0 runs /scratch/cluster/cmolder/ML-DPC/ChampSimTraces/spec06/473.astar-s0.trace.gz
Read seed: 854
Heartbeat CPU 0 instructions: 1000002 cycles: 434024 heartbeat IPC: 2.30402 cumulative IPC: 2.30402 (Simulation time: 0 hr 0 min 5 sec) 

Warmup complete CPU 0 instructions: 1000002 cycles: 434024 (Simulation time: 0 hr 0 min 5 sec) 

Heartbeat CPU 0 instructions: 2000000 cycles: 1658114 heartbeat IPC: 0.816932 cumulative IPC: 0.816932 (Simulation time: 0 hr 0 min 10 sec) 
Heartbeat CPU 0 instructions: 3000002 cycles: 2825901 heartbeat IPC: 0.856322 cumulative IPC: 0.836163 (Simulation time: 0 hr 0 min 15 sec) 
Heartbeat CPU 0 instructions: 4000003 cycles: 3979010 heartbeat IPC: 0.867222 cumulative IPC: 0.846266 (Simulation time: 0 hr 0 min 20 sec) 
Heartbeat CPU 0 instructions: 5000000 cycles: 5099180 heartbeat IPC: 0.892719 cumulative IPC: 0.85742 (Simulation time: 0 hr 0 min 26 sec) 
Heartbeat CPU 0 instructions: 6000000 cycles: 6177689 heartbeat IPC: 0.927206 cumulative IPC: 0.870524 (Simulation time: 0 hr 0 min 31 sec) 
Heartbeat CPU 0 instructions: 7000002 cycles: 7241124 heartbeat IPC: 0.940351 cumulative IPC: 0.881433 (Simulation time: 0 hr 0 min 36 sec) 
Heartbeat CPU 0 instructions: 8000002 cycles: 8287829 heartbeat IPC: 0.955379 cumulative IPC: 0.891288 (Simulation time: 0 hr 0 min 41 sec) 
Heartbeat CPU 0 instructions: 9000000 cycles: 9380904 heartbeat IPC: 0.914849 cumulative IPC: 0.894166 (Simulation time: 0 hr 0 min 46 sec) 
Heartbeat CPU 0 instructions: 10000003 cycles: 10538264 heartbeat IPC: 0.864038 cumulative IPC: 0.890715 (Simulation time: 0 hr 0 min 51 sec) 
Heartbeat CPU 0 instructions: 11000000 cycles: 11719262 heartbeat IPC: 0.846739 cumulative IPC: 0.886113 (Simulation time: 0 hr 0 min 57 sec) 
Heartbeat CPU 0 instructions: 12000000 cycles: 12923429 heartbeat IPC: 0.83045 cumulative IPC: 0.880746 (Simulation time: 0 hr 1 min 2 sec) 
Heartbeat CPU 0 instructions: 13000000 cycles: 14119057 heartbeat IPC: 0.836381 cumulative IPC: 0.87687 (Simulation time: 0 hr 1 min 7 sec) 
Heartbeat CPU 0 instructions: 14000000 cycles: 15325261 heartbeat IPC: 0.829047 cumulative IPC: 0.872997 (Simulation time: 0 hr 1 min 12 sec) 
Heartbeat CPU 0 instructions: 15000001 cycles: 16603833 heartbeat IPC: 0.782123 cumulative IPC: 0.865811 (Simulation time: 0 hr 1 min 17 sec) 
Heartbeat CPU 0 instructions: 16000000 cycles: 17934371 heartbeat IPC: 0.751575 cumulative IPC: 0.857126 (Simulation time: 0 hr 1 min 23 sec) 
Heartbeat CPU 0 instructions: 17000000 cycles: 19211766 heartbeat IPC: 0.782843 cumulative IPC: 0.852073 (Simulation time: 0 hr 1 min 28 sec) 
Heartbeat CPU 0 instructions: 18000003 cycles: 20477985 heartbeat IPC: 0.789755 cumulative IPC: 0.848136 (Simulation time: 0 hr 1 min 33 sec) 
Heartbeat CPU 0 instructions: 19000002 cycles: 21702342 heartbeat IPC: 0.816754 cumulative IPC: 0.846329 (Simulation time: 0 hr 1 min 38 sec) 
Heartbeat CPU 0 instructions: 20000000 cycles: 22970773 heartbeat IPC: 0.788374 cumulative IPC: 0.843067 (Simulation time: 0 hr 1 min 43 sec) 
Heartbeat CPU 0 instructions: 21000000 cycles: 24267375 heartbeat IPC: 0.771247 cumulative IPC: 0.83916 (Simulation time: 0 hr 1 min 48 sec) 
Heartbeat CPU 0 instructions: 22000000 cycles: 25714990 heartbeat IPC: 0.690791 cumulative IPC: 0.830664 (Simulation time: 0 hr 1 min 54 sec) 
Heartbeat CPU 0 instructions: 23000002 cycles: 27121084 heartbeat IPC: 0.711191 cumulative IPC: 0.82437 (Simulation time: 0 hr 1 min 59 sec) 
Heartbeat CPU 0 instructions: 24000002 cycles: 28519212 heartbeat IPC: 0.715242 cumulative IPC: 0.818937 (Simulation time: 0 hr 2 min 4 sec) 
Heartbeat CPU 0 instructions: 25000000 cycles: 29795418 heartbeat IPC: 0.783571 cumulative IPC: 0.8174 (Simulation time: 0 hr 2 min 9 sec) 
Heartbeat CPU 0 instructions: 26000003 cycles: 30497650 heartbeat IPC: 1.42404 cumulative IPC: 0.83157 (Simulation time: 0 hr 2 min 14 sec) 
Heartbeat CPU 0 instructions: 27000000 cycles: 31206965 heartbeat IPC: 1.40981 cumulative IPC: 0.844898 (Simulation time: 0 hr 2 min 19 sec) 
Heartbeat CPU 0 instructions: 28000002 cycles: 31957638 heartbeat IPC: 1.33214 cumulative IPC: 0.856501 (Simulation time: 0 hr 2 min 24 sec) 
Heartbeat CPU 0 instructions: 29000003 cycles: 32690633 heartbeat IPC: 1.36427 cumulative IPC: 0.868039 (Simulation time: 0 hr 2 min 29 sec) 
Heartbeat CPU 0 instructions: 30000001 cycles: 33445469 heartbeat IPC: 1.32479 cumulative IPC: 0.878483 (Simulation time: 0 hr 2 min 34 sec) 
Heartbeat CPU 0 instructions: 31000002 cycles: 34197537 heartbeat IPC: 1.32967 cumulative IPC: 0.888533 (Simulation time: 0 hr 2 min 39 sec) 
Heartbeat CPU 0 instructions: 32000001 cycles: 34943317 heartbeat IPC: 1.34088 cumulative IPC: 0.898309 (Simulation time: 0 hr 2 min 45 sec) 
Heartbeat CPU 0 instructions: 33000000 cycles: 35691726 heartbeat IPC: 1.33617 cumulative IPC: 0.907603 (Simulation time: 0 hr 2 min 50 sec) 
Heartbeat CPU 0 instructions: 34000002 cycles: 36433071 heartbeat IPC: 1.3489 cumulative IPC: 0.916691 (Simulation time: 0 hr 2 min 55 sec) 
Heartbeat CPU 0 instructions: 35000001 cycles: 37164508 heartbeat IPC: 1.36717 cumulative IPC: 0.925662 (Simulation time: 0 hr 3 min 0 sec) 
Heartbeat CPU 0 instructions: 36000003 cycles: 37891134 heartbeat IPC: 1.37623 cumulative IPC: 0.934402 (Simulation time: 0 hr 3 min 6 sec) 
Heartbeat CPU 0 instructions: 37000000 cycles: 38651156 heartbeat IPC: 1.31575 cumulative IPC: 0.941986 (Simulation time: 0 hr 3 min 11 sec) 
Heartbeat CPU 0 instructions: 38000002 cycles: 39388683 heartbeat IPC: 1.35589 cumulative IPC: 0.949822 (Simulation time: 0 hr 3 min 16 sec) 
Heartbeat CPU 0 instructions: 39000000 cycles: 40115939 heartbeat IPC: 1.37503 cumulative IPC: 0.957615 (Simulation time: 0 hr 3 min 21 sec) 
Heartbeat CPU 0 instructions: 40000001 cycles: 40848810 heartbeat IPC: 1.3645 cumulative IPC: 0.964993 (Simulation time: 0 hr 3 min 26 sec) 
Heartbeat CPU 0 instructions: 41000003 cycles: 41582732 heartbeat IPC: 1.36255 cumulative IPC: 0.972084 (Simulation time: 0 hr 3 min 31 sec) 
Heartbeat CPU 0 instructions: 42000001 cycles: 42343556 heartbeat IPC: 1.31436 cumulative IPC: 0.978298 (Simulation time: 0 hr 3 min 36 sec) 
Heartbeat CPU 0 instructions: 43000000 cycles: 43128817 heartbeat IPC: 1.27346 cumulative IPC: 0.983726 (Simulation time: 0 hr 3 min 41 sec) 
Heartbeat CPU 0 instructions: 44000000 cycles: 43913502 heartbeat IPC: 1.2744 cumulative IPC: 0.988972 (Simulation time: 0 hr 3 min 46 sec) 
Heartbeat CPU 0 instructions: 45000000 cycles: 44721907 heartbeat IPC: 1.237 cumulative IPC: 0.9935 (Simulation time: 0 hr 3 min 50 sec) 
Heartbeat CPU 0 instructions: 46000003 cycles: 45477839 heartbeat IPC: 1.32287 cumulative IPC: 0.999027 (Simulation time: 0 hr 3 min 55 sec) 
Heartbeat CPU 0 instructions: 47000002 cycles: 46241612 heartbeat IPC: 1.30929 cumulative IPC: 1.0042 (Simulation time: 0 hr 4 min 0 sec) 
Heartbeat CPU 0 instructions: 48000000 cycles: 46995039 heartbeat IPC: 1.32727 cumulative IPC: 1.00943 (Simulation time: 0 hr 4 min 5 sec) 
Heartbeat CPU 0 instructions: 49000000 cycles: 47736727 heartbeat IPC: 1.34828 cumulative IPC: 1.01474 (Simulation time: 0 hr 4 min 10 sec) 
Heartbeat CPU 0 instructions: 50000002 cycles: 48472576 heartbeat IPC: 1.35898 cumulative IPC: 1.02001 (Simulation time: 0 hr 4 min 16 sec) 
Heartbeat CPU 0 instructions: 51000002 cycles: 49225352 heartbeat IPC: 1.32842 cumulative IPC: 1.02477 (Simulation time: 0 hr 4 min 21 sec) 
Heartbeat CPU 0 instructions: 52000002 cycles: 50006604 heartbeat IPC: 1.28 cumulative IPC: 1.02879 (Simulation time: 0 hr 4 min 26 sec) 
Heartbeat CPU 0 instructions: 53000003 cycles: 50778279 heartbeat IPC: 1.29588 cumulative IPC: 1.03289 (Simulation time: 0 hr 4 min 31 sec) 
Heartbeat CPU 0 instructions: 54000000 cycles: 51544100 heartbeat IPC: 1.30578 cumulative IPC: 1.03698 (Simulation time: 0 hr 4 min 36 sec) 
Heartbeat CPU 0 instructions: 55000000 cycles: 52271870 heartbeat IPC: 1.37406 cumulative IPC: 1.04171 (Simulation time: 0 hr 4 min 41 sec) 
Heartbeat CPU 0 instructions: 56000003 cycles: 53029415 heartbeat IPC: 1.32006 cumulative IPC: 1.04572 (Simulation time: 0 hr 4 min 47 sec) 
Heartbeat CPU 0 instructions: 57000001 cycles: 53750552 heartbeat IPC: 1.3867 cumulative IPC: 1.05033 (Simulation time: 0 hr 4 min 52 sec) 
Heartbeat CPU 0 instructions: 58000003 cycles: 54527166 heartbeat IPC: 1.28764 cumulative IPC: 1.05374 (Simulation time: 0 hr 4 min 57 sec) 
Heartbeat CPU 0 instructions: 59000000 cycles: 55270445 heartbeat IPC: 1.34539 cumulative IPC: 1.05769 (Simulation time: 0 hr 5 min 3 sec) 
Heartbeat CPU 0 instructions: 60000003 cycles: 56033845 heartbeat IPC: 1.30993 cumulative IPC: 1.06115 (Simulation time: 0 hr 5 min 8 sec) 
Heartbeat CPU 0 instructions: 61000003 cycles: 56800571 heartbeat IPC: 1.30425 cumulative IPC: 1.06446 (Simulation time: 0 hr 5 min 13 sec) 
Heartbeat CPU 0 instructions: 62000002 cycles: 57568426 heartbeat IPC: 1.30233 cumulative IPC: 1.06766 (Simulation time: 0 hr 5 min 19 sec) 
Heartbeat CPU 0 instructions: 63000003 cycles: 58404756 heartbeat IPC: 1.1957 cumulative IPC: 1.06951 (Simulation time: 0 hr 5 min 23 sec) 
Heartbeat CPU 0 instructions: 64000000 cycles: 59161965 heartbeat IPC: 1.32064 cumulative IPC: 1.07274 (Simulation time: 0 hr 5 min 29 sec) 
Heartbeat CPU 0 instructions: 65000001 cycles: 59922683 heartbeat IPC: 1.31455 cumulative IPC: 1.07584 (Simulation time: 0 hr 5 min 34 sec) 
Heartbeat CPU 0 instructions: 66000000 cycles: 60700040 heartbeat IPC: 1.28641 cumulative IPC: 1.07855 (Simulation time: 0 hr 5 min 39 sec) 
Heartbeat CPU 0 instructions: 67000000 cycles: 61471790 heartbeat IPC: 1.29576 cumulative IPC: 1.0813 (Simulation time: 0 hr 5 min 44 sec) 
Heartbeat CPU 0 instructions: 68000002 cycles: 62241638 heartbeat IPC: 1.29896 cumulative IPC: 1.08401 (Simulation time: 0 hr 5 min 49 sec) 
Heartbeat CPU 0 instructions: 69000002 cycles: 63011887 heartbeat IPC: 1.29828 cumulative IPC: 1.08665 (Simulation time: 0 hr 5 min 55 sec) 
Heartbeat CPU 0 instructions: 70000002 cycles: 63802662 heartbeat IPC: 1.26458 cumulative IPC: 1.08887 (Simulation time: 0 hr 6 min 0 sec) 
Heartbeat CPU 0 instructions: 71000002 cycles: 64593441 heartbeat IPC: 1.26458 cumulative IPC: 1.09103 (Simulation time: 0 hr 6 min 5 sec) 
Heartbeat CPU 0 instructions: 72000002 cycles: 65377069 heartbeat IPC: 1.27612 cumulative IPC: 1.09327 (Simulation time: 0 hr 6 min 10 sec) 
Heartbeat CPU 0 instructions: 73000000 cycles: 66154196 heartbeat IPC: 1.28679 cumulative IPC: 1.09555 (Simulation time: 0 hr 6 min 15 sec) 
Heartbeat CPU 0 instructions: 74000001 cycles: 66929632 heartbeat IPC: 1.2896 cumulative IPC: 1.09782 (Simulation time: 0 hr 6 min 21 sec) 
Heartbeat CPU 0 instructions: 75000002 cycles: 67688499 heartbeat IPC: 1.31776 cumulative IPC: 1.1003 (Simulation time: 0 hr 6 min 26 sec) 
Heartbeat CPU 0 instructions: 76000002 cycles: 68468497 heartbeat IPC: 1.28205 cumulative IPC: 1.10238 (Simulation time: 0 hr 6 min 31 sec) 
Heartbeat CPU 0 instructions: 77000000 cycles: 69297831 heartbeat IPC: 1.20578 cumulative IPC: 1.10363 (Simulation time: 0 hr 6 min 36 sec) 
Heartbeat CPU 0 instructions: 78000001 cycles: 70068833 heartbeat IPC: 1.29701 cumulative IPC: 1.10577 (Simulation time: 0 hr 6 min 41 sec) 
Heartbeat CPU 0 instructions: 79000000 cycles: 70879357 heartbeat IPC: 1.23377 cumulative IPC: 1.10724 (Simulation time: 0 hr 6 min 46 sec) 
Heartbeat CPU 0 instructions: 80000002 cycles: 71761919 heartbeat IPC: 1.13307 cumulative IPC: 1.10756 (Simulation time: 0 hr 6 min 51 sec) 
Heartbeat CPU 0 instructions: 81000000 cycles: 72628109 heartbeat IPC: 1.15448 cumulative IPC: 1.10812 (Simulation time: 0 hr 6 min 55 sec) 
Heartbeat CPU 0 instructions: 82000000 cycles: 73453705 heartbeat IPC: 1.21125 cumulative IPC: 1.10929 (Simulation time: 0 hr 7 min 0 sec) 
Heartbeat CPU 0 instructions: 83000001 cycles: 74250525 heartbeat IPC: 1.25499 cumulative IPC: 1.11086 (Simulation time: 0 hr 7 min 5 sec) 
Heartbeat CPU 0 instructions: 84000000 cycles: 75029459 heartbeat IPC: 1.2838 cumulative IPC: 1.11267 (Simulation time: 0 hr 7 min 10 sec) 
Heartbeat CPU 0 instructions: 85000001 cycles: 75797878 heartbeat IPC: 1.30137 cumulative IPC: 1.11459 (Simulation time: 0 hr 7 min 16 sec) 
Heartbeat CPU 0 instructions: 86000001 cycles: 76572966 heartbeat IPC: 1.29018 cumulative IPC: 1.11638 (Simulation time: 0 hr 7 min 21 sec) 
Heartbeat CPU 0 instructions: 87000001 cycles: 77358073 heartbeat IPC: 1.27371 cumulative IPC: 1.11799 (Simulation time: 0 hr 7 min 26 sec) 
Heartbeat CPU 0 instructions: 88000000 cycles: 78163232 heartbeat IPC: 1.24199 cumulative IPC: 1.11927 (Simulation time: 0 hr 7 min 31 sec) 
Heartbeat CPU 0 instructions: 89000000 cycles: 78926170 heartbeat IPC: 1.31072 cumulative IPC: 1.12113 (Simulation time: 0 hr 7 min 36 sec) 
Heartbeat CPU 0 instructions: 90000001 cycles: 79680764 heartbeat IPC: 1.32522 cumulative IPC: 1.12307 (Simulation time: 0 hr 7 min 42 sec) 
Heartbeat CPU 0 instructions: 91000001 cycles: 80475628 heartbeat IPC: 1.25808 cumulative IPC: 1.12442 (Simulation time: 0 hr 7 min 47 sec) 
Heartbeat CPU 0 instructions: 92000002 cycles: 81286225 heartbeat IPC: 1.23366 cumulative IPC: 1.12551 (Simulation time: 0 hr 7 min 52 sec) 
Heartbeat CPU 0 instructions: 93000000 cycles: 82059878 heartbeat IPC: 1.29257 cumulative IPC: 1.12709 (Simulation time: 0 hr 7 min 57 sec) 
Heartbeat CPU 0 instructions: 94000000 cycles: 82858775 heartbeat IPC: 1.25173 cumulative IPC: 1.1283 (Simulation time: 0 hr 8 min 2 sec) 
Heartbeat CPU 0 instructions: 95000001 cycles: 83673886 heartbeat IPC: 1.22683 cumulative IPC: 1.12927 (Simulation time: 0 hr 8 min 8 sec) 
Heartbeat CPU 0 instructions: 96000000 cycles: 84523062 heartbeat IPC: 1.17761 cumulative IPC: 1.12975 (Simulation time: 0 hr 8 min 13 sec) 
Heartbeat CPU 0 instructions: 97000000 cycles: 85360180 heartbeat IPC: 1.19457 cumulative IPC: 1.13039 (Simulation time: 0 hr 8 min 18 sec) 
Heartbeat CPU 0 instructions: 98000001 cycles: 86196613 heartbeat IPC: 1.19555 cumulative IPC: 1.13103 (Simulation time: 0 hr 8 min 23 sec) 
Heartbeat CPU 0 instructions: 99000000 cycles: 87121464 heartbeat IPC: 1.08125 cumulative IPC: 1.1305 (Simulation time: 0 hr 8 min 28 sec) 
Heartbeat CPU 0 instructions: 100000002 cycles: 87965737 heartbeat IPC: 1.18445 cumulative IPC: 1.13102 (Simulation time: 0 hr 8 min 33 sec) 
Heartbeat CPU 0 instructions: 101000000 cycles: 88817924 heartbeat IPC: 1.17345 cumulative IPC: 1.13143 (Simulation time: 0 hr 8 min 38 sec) 
Heartbeat CPU 0 instructions: 102000000 cycles: 89650185 heartbeat IPC: 1.20155 cumulative IPC: 1.13208 (Simulation time: 0 hr 8 min 43 sec) 
Heartbeat CPU 0 instructions: 103000001 cycles: 90426613 heartbeat IPC: 1.28795 cumulative IPC: 1.13343 (Simulation time: 0 hr 8 min 49 sec) 
Heartbeat CPU 0 instructions: 104000002 cycles: 91209005 heartbeat IPC: 1.27813 cumulative IPC: 1.13467 (Simulation time: 0 hr 8 min 54 sec) 
Heartbeat CPU 0 instructions: 105000000 cycles: 92002391 heartbeat IPC: 1.26042 cumulative IPC: 1.13576 (Simulation time: 0 hr 9 min 0 sec) 
Heartbeat CPU 0 instructions: 106000000 cycles: 92802121 heartbeat IPC: 1.25042 cumulative IPC: 1.13676 (Simulation time: 0 hr 9 min 5 sec) 
Heartbeat CPU 0 instructions: 107000001 cycles: 93596269 heartbeat IPC: 1.25921 cumulative IPC: 1.1378 (Simulation time: 0 hr 9 min 11 sec) 
Heartbeat CPU 0 instructions: 108000002 cycles: 94503526 heartbeat IPC: 1.10222 cumulative IPC: 1.13746 (Simulation time: 0 hr 9 min 16 sec) 
Heartbeat CPU 0 instructions: 109000000 cycles: 95398893 heartbeat IPC: 1.11686 cumulative IPC: 1.13726 (Simulation time: 0 hr 9 min 21 sec) 
Heartbeat CPU 0 instructions: 110000000 cycles: 96229757 heartbeat IPC: 1.20357 cumulative IPC: 1.13784 (Simulation time: 0 hr 9 min 26 sec) 
Heartbeat CPU 0 instructions: 111000003 cycles: 97082263 heartbeat IPC: 1.17302 cumulative IPC: 1.13815 (Simulation time: 0 hr 9 min 32 sec) 
Heartbeat CPU 0 instructions: 112000001 cycles: 97945383 heartbeat IPC: 1.15859 cumulative IPC: 1.13833 (Simulation time: 0 hr 9 min 37 sec) 
Heartbeat CPU 0 instructions: 113000000 cycles: 98794803 heartbeat IPC: 1.17727 cumulative IPC: 1.13867 (Simulation time: 0 hr 9 min 42 sec) 
Heartbeat CPU 0 instructions: 114000003 cycles: 99653577 heartbeat IPC: 1.16445 cumulative IPC: 1.13889 (Simulation time: 0 hr 9 min 47 sec) 
Heartbeat CPU 0 instructions: 115000000 cycles: 100531413 heartbeat IPC: 1.13916 cumulative IPC: 1.13889 (Simulation time: 0 hr 9 min 53 sec) 
Heartbeat CPU 0 instructions: 116000003 cycles: 101446003 heartbeat IPC: 1.09339 cumulative IPC: 1.13848 (Simulation time: 0 hr 9 min 58 sec) 
Heartbeat CPU 0 instructions: 117000000 cycles: 102391258 heartbeat IPC: 1.05791 cumulative IPC: 1.13773 (Simulation time: 0 hr 10 min 3 sec) 
Heartbeat CPU 0 instructions: 118000003 cycles: 103358137 heartbeat IPC: 1.03426 cumulative IPC: 1.13676 (Simulation time: 0 hr 10 min 8 sec) 
Heartbeat CPU 0 instructions: 119000000 cycles: 104270469 heartbeat IPC: 1.09609 cumulative IPC: 1.1364 (Simulation time: 0 hr 10 min 12 sec) 
Heartbeat CPU 0 instructions: 120000000 cycles: 105134021 heartbeat IPC: 1.15801 cumulative IPC: 1.13658 (Simulation time: 0 hr 10 min 17 sec) 
Heartbeat CPU 0 instructions: 121000000 cycles: 106048236 heartbeat IPC: 1.09383 cumulative IPC: 1.13621 (Simulation time: 0 hr 10 min 22 sec) 
Heartbeat CPU 0 instructions: 122000000 cycles: 107012659 heartbeat IPC: 1.03689 cumulative IPC: 1.13531 (Simulation time: 0 hr 10 min 27 sec) 
Heartbeat CPU 0 instructions: 123000001 cycles: 107888301 heartbeat IPC: 1.14202 cumulative IPC: 1.13537 (Simulation time: 0 hr 10 min 32 sec) 
Heartbeat CPU 0 instructions: 124000000 cycles: 108713397 heartbeat IPC: 1.21198 cumulative IPC: 1.13595 (Simulation time: 0 hr 10 min 37 sec) 
Heartbeat CPU 0 instructions: 125000000 cycles: 109517839 heartbeat IPC: 1.2431 cumulative IPC: 1.13674 (Simulation time: 0 hr 10 min 42 sec) 
Heartbeat CPU 0 instructions: 126000001 cycles: 110358625 heartbeat IPC: 1.18936 cumulative IPC: 1.13714 (Simulation time: 0 hr 10 min 48 sec) 
Heartbeat CPU 0 instructions: 127000000 cycles: 111189715 heartbeat IPC: 1.20324 cumulative IPC: 1.13764 (Simulation time: 0 hr 10 min 53 sec) 
Heartbeat CPU 0 instructions: 128000002 cycles: 112030425 heartbeat IPC: 1.18947 cumulative IPC: 1.13803 (Simulation time: 0 hr 10 min 58 sec) 
Heartbeat CPU 0 instructions: 129000000 cycles: 112933966 heartbeat IPC: 1.10675 cumulative IPC: 1.13778 (Simulation time: 0 hr 11 min 3 sec) 
Heartbeat CPU 0 instructions: 130000002 cycles: 113827346 heartbeat IPC: 1.11935 cumulative IPC: 1.13763 (Simulation time: 0 hr 11 min 8 sec) 
Heartbeat CPU 0 instructions: 131000002 cycles: 114691949 heartbeat IPC: 1.1566 cumulative IPC: 1.13778 (Simulation time: 0 hr 11 min 14 sec) 
Heartbeat CPU 0 instructions: 132000000 cycles: 115574084 heartbeat IPC: 1.13361 cumulative IPC: 1.13774 (Simulation time: 0 hr 11 min 19 sec) 
Heartbeat CPU 0 instructions: 133000001 cycles: 116450565 heartbeat IPC: 1.14093 cumulative IPC: 1.13777 (Simulation time: 0 hr 11 min 24 sec) 
Heartbeat CPU 0 instructions: 134000000 cycles: 117296850 heartbeat IPC: 1.18163 cumulative IPC: 1.13809 (Simulation time: 0 hr 11 min 30 sec) 
Heartbeat CPU 0 instructions: 135000000 cycles: 118189939 heartbeat IPC: 1.11971 cumulative IPC: 1.13795 (Simulation time: 0 hr 11 min 35 sec) 
Heartbeat CPU 0 instructions: 136000000 cycles: 119043162 heartbeat IPC: 1.17203 cumulative IPC: 1.13819 (Simulation time: 0 hr 11 min 41 sec) 
Heartbeat CPU 0 instructions: 137000000 cycles: 119878705 heartbeat IPC: 1.19683 cumulative IPC: 1.1386 (Simulation time: 0 hr 11 min 46 sec) 
Heartbeat CPU 0 instructions: 138000000 cycles: 120723693 heartbeat IPC: 1.18345 cumulative IPC: 1.13892 (Simulation time: 0 hr 11 min 51 sec) 
Heartbeat CPU 0 instructions: 139000002 cycles: 121595619 heartbeat IPC: 1.14689 cumulative IPC: 1.13897 (Simulation time: 0 hr 11 min 57 sec) 
Heartbeat CPU 0 instructions: 140000001 cycles: 122521131 heartbeat IPC: 1.08048 cumulative IPC: 1.13853 (Simulation time: 0 hr 12 min 2 sec) 
Heartbeat CPU 0 instructions: 141000003 cycles: 123424915 heartbeat IPC: 1.10646 cumulative IPC: 1.1383 (Simulation time: 0 hr 12 min 7 sec) 
Heartbeat CPU 0 instructions: 142000000 cycles: 124307229 heartbeat IPC: 1.13338 cumulative IPC: 1.13826 (Simulation time: 0 hr 12 min 13 sec) 
Heartbeat CPU 0 instructions: 143000000 cycles: 125198575 heartbeat IPC: 1.1219 cumulative IPC: 1.13814 (Simulation time: 0 hr 12 min 18 sec) 
Heartbeat CPU 0 instructions: 144000000 cycles: 126098295 heartbeat IPC: 1.11146 cumulative IPC: 1.13795 (Simulation time: 0 hr 12 min 23 sec) 
Heartbeat CPU 0 instructions: 145000002 cycles: 127116761 heartbeat IPC: 0.981871 cumulative IPC: 1.1367 (Simulation time: 0 hr 12 min 29 sec) 
Heartbeat CPU 0 instructions: 146000001 cycles: 128240016 heartbeat IPC: 0.890269 cumulative IPC: 1.13453 (Simulation time: 0 hr 12 min 34 sec) 
Heartbeat CPU 0 instructions: 147000002 cycles: 129330693 heartbeat IPC: 0.916863 cumulative IPC: 1.13269 (Simulation time: 0 hr 12 min 39 sec) 
Heartbeat CPU 0 instructions: 148000003 cycles: 130475966 heartbeat IPC: 0.873155 cumulative IPC: 1.1304 (Simulation time: 0 hr 12 min 44 sec) 
Heartbeat CPU 0 instructions: 149000003 cycles: 131524672 heartbeat IPC: 0.953556 cumulative IPC: 1.12899 (Simulation time: 0 hr 12 min 50 sec) 
Heartbeat CPU 0 instructions: 150000000 cycles: 132644481 heartbeat IPC: 0.893007 cumulative IPC: 1.12699 (Simulation time: 0 hr 12 min 55 sec) 
Heartbeat CPU 0 instructions: 151000002 cycles: 133672254 heartbeat IPC: 0.972979 cumulative IPC: 1.1258 (Simulation time: 0 hr 13 min 0 sec) 
Heartbeat CPU 0 instructions: 152000003 cycles: 134716170 heartbeat IPC: 0.957932 cumulative IPC: 1.1245 (Simulation time: 0 hr 13 min 5 sec) 
Heartbeat CPU 0 instructions: 153000000 cycles: 135743143 heartbeat IPC: 0.973733 cumulative IPC: 1.12335 (Simulation time: 0 hr 13 min 10 sec) 
Heartbeat CPU 0 instructions: 154000000 cycles: 136634313 heartbeat IPC: 1.12212 cumulative IPC: 1.12335 (Simulation time: 0 hr 13 min 15 sec) 
Heartbeat CPU 0 instructions: 155000000 cycles: 137538939 heartbeat IPC: 1.10543 cumulative IPC: 1.12323 (Simulation time: 0 hr 13 min 20 sec) 
Heartbeat CPU 0 instructions: 156000001 cycles: 138410368 heartbeat IPC: 1.14754 cumulative IPC: 1.12338 (Simulation time: 0 hr 13 min 26 sec) 
Heartbeat CPU 0 instructions: 157000000 cycles: 139280674 heartbeat IPC: 1.14902 cumulative IPC: 1.12354 (Simulation time: 0 hr 13 min 31 sec) 
Heartbeat CPU 0 instructions: 158000002 cycles: 140177941 heartbeat IPC: 1.1145 cumulative IPC: 1.12348 (Simulation time: 0 hr 13 min 36 sec) 
Heartbeat CPU 0 instructions: 159000002 cycles: 141187193 heartbeat IPC: 0.990833 cumulative IPC: 1.12253 (Simulation time: 0 hr 13 min 41 sec) 
Heartbeat CPU 0 instructions: 160000001 cycles: 142238892 heartbeat IPC: 0.950841 cumulative IPC: 1.12126 (Simulation time: 0 hr 13 min 46 sec) 
Heartbeat CPU 0 instructions: 161000001 cycles: 143381614 heartbeat IPC: 0.875103 cumulative IPC: 1.11929 (Simulation time: 0 hr 13 min 52 sec) 
Heartbeat CPU 0 instructions: 162000000 cycles: 144513787 heartbeat IPC: 0.883256 cumulative IPC: 1.11744 (Simulation time: 0 hr 13 min 57 sec) 
Heartbeat CPU 0 instructions: 163000000 cycles: 145635085 heartbeat IPC: 0.891824 cumulative IPC: 1.11569 (Simulation time: 0 hr 14 min 2 sec) 
Heartbeat CPU 0 instructions: 164000003 cycles: 146721134 heartbeat IPC: 0.920772 cumulative IPC: 1.11425 (Simulation time: 0 hr 14 min 7 sec) 
Heartbeat CPU 0 instructions: 165000000 cycles: 147761287 heartbeat IPC: 0.961394 cumulative IPC: 1.11317 (Simulation time: 0 hr 14 min 12 sec) 
Heartbeat CPU 0 instructions: 166000000 cycles: 148687776 heartbeat IPC: 1.07934 cumulative IPC: 1.11296 (Simulation time: 0 hr 14 min 17 sec) 
Heartbeat CPU 0 instructions: 167000000 cycles: 149577390 heartbeat IPC: 1.12408 cumulative IPC: 1.11302 (Simulation time: 0 hr 14 min 22 sec) 
Heartbeat CPU 0 instructions: 168000000 cycles: 150470691 heartbeat IPC: 1.11944 cumulative IPC: 1.11306 (Simulation time: 0 hr 14 min 27 sec) 
Heartbeat CPU 0 instructions: 169000000 cycles: 151357094 heartbeat IPC: 1.12815 cumulative IPC: 1.11315 (Simulation time: 0 hr 14 min 33 sec) 
Heartbeat CPU 0 instructions: 170000000 cycles: 152313778 heartbeat IPC: 1.04528 cumulative IPC: 1.11272 (Simulation time: 0 hr 14 min 38 sec) 
Heartbeat CPU 0 instructions: 171000001 cycles: 153301879 heartbeat IPC: 1.01204 cumulative IPC: 1.11207 (Simulation time: 0 hr 14 min 43 sec) 
Heartbeat CPU 0 instructions: 172000001 cycles: 154254406 heartbeat IPC: 1.04984 cumulative IPC: 1.11169 (Simulation time: 0 hr 14 min 48 sec) 
Heartbeat CPU 0 instructions: 173000003 cycles: 155148549 heartbeat IPC: 1.11839 cumulative IPC: 1.11172 (Simulation time: 0 hr 14 min 53 sec) 
Heartbeat CPU 0 instructions: 174000003 cycles: 156047828 heartbeat IPC: 1.112 cumulative IPC: 1.11173 (Simulation time: 0 hr 14 min 58 sec) 
Heartbeat CPU 0 instructions: 175000002 cycles: 156907651 heartbeat IPC: 1.16303 cumulative IPC: 1.11201 (Simulation time: 0 hr 15 min 3 sec) 
Heartbeat CPU 0 instructions: 176000000 cycles: 157824258 heartbeat IPC: 1.09098 cumulative IPC: 1.11189 (Simulation time: 0 hr 15 min 8 sec) 
Heartbeat CPU 0 instructions: 177000000 cycles: 158719195 heartbeat IPC: 1.1174 cumulative IPC: 1.11192 (Simulation time: 0 hr 15 min 14 sec) 
Heartbeat CPU 0 instructions: 178000003 cycles: 159625600 heartbeat IPC: 1.10326 cumulative IPC: 1.11187 (Simulation time: 0 hr 15 min 19 sec) 
Heartbeat CPU 0 instructions: 179000002 cycles: 160494458 heartbeat IPC: 1.15093 cumulative IPC: 1.11208 (Simulation time: 0 hr 15 min 24 sec) 
Heartbeat CPU 0 instructions: 180000001 cycles: 161391309 heartbeat IPC: 1.11501 cumulative IPC: 1.1121 (Simulation time: 0 hr 15 min 30 sec) 
Heartbeat CPU 0 instructions: 181000002 cycles: 162261146 heartbeat IPC: 1.14964 cumulative IPC: 1.1123 (Simulation time: 0 hr 15 min 35 sec) 
Heartbeat CPU 0 instructions: 182000000 cycles: 163201813 heartbeat IPC: 1.06307 cumulative IPC: 1.11201 (Simulation time: 0 hr 15 min 40 sec) 
Heartbeat CPU 0 instructions: 183000000 cycles: 164068608 heartbeat IPC: 1.15368 cumulative IPC: 1.11223 (Simulation time: 0 hr 15 min 45 sec) 
Heartbeat CPU 0 instructions: 184000000 cycles: 164967963 heartbeat IPC: 1.11191 cumulative IPC: 1.11223 (Simulation time: 0 hr 15 min 51 sec) 
Heartbeat CPU 0 instructions: 185000003 cycles: 165894566 heartbeat IPC: 1.07921 cumulative IPC: 1.11205 (Simulation time: 0 hr 15 min 56 sec) 
Heartbeat CPU 0 instructions: 186000002 cycles: 166812557 heartbeat IPC: 1.08933 cumulative IPC: 1.11192 (Simulation time: 0 hr 16 min 1 sec) 
Heartbeat CPU 0 instructions: 187000000 cycles: 167702790 heartbeat IPC: 1.1233 cumulative IPC: 1.11198 (Simulation time: 0 hr 16 min 6 sec) 
Heartbeat CPU 0 instructions: 188000002 cycles: 168568452 heartbeat IPC: 1.15519 cumulative IPC: 1.11221 (Simulation time: 0 hr 16 min 12 sec) 
Heartbeat CPU 0 instructions: 189000003 cycles: 169448640 heartbeat IPC: 1.13612 cumulative IPC: 1.11233 (Simulation time: 0 hr 16 min 17 sec) 
Heartbeat CPU 0 instructions: 190000002 cycles: 170408699 heartbeat IPC: 1.0416 cumulative IPC: 1.11193 (Simulation time: 0 hr 16 min 22 sec) 
Heartbeat CPU 0 instructions: 191000002 cycles: 171364554 heartbeat IPC: 1.04618 cumulative IPC: 1.11156 (Simulation time: 0 hr 16 min 27 sec) 
Heartbeat CPU 0 instructions: 192000003 cycles: 172354023 heartbeat IPC: 1.01064 cumulative IPC: 1.11098 (Simulation time: 0 hr 16 min 32 sec) 
Heartbeat CPU 0 instructions: 193000001 cycles: 173329729 heartbeat IPC: 1.0249 cumulative IPC: 1.1105 (Simulation time: 0 hr 16 min 38 sec) 
Heartbeat CPU 0 instructions: 194000001 cycles: 174319955 heartbeat IPC: 1.00987 cumulative IPC: 1.10992 (Simulation time: 0 hr 16 min 43 sec) 
Heartbeat CPU 0 instructions: 195000002 cycles: 175234699 heartbeat IPC: 1.0932 cumulative IPC: 1.10984 (Simulation time: 0 hr 16 min 48 sec) 
Heartbeat CPU 0 instructions: 196000000 cycles: 176153566 heartbeat IPC: 1.08829 cumulative IPC: 1.10972 (Simulation time: 0 hr 16 min 53 sec) 
Heartbeat CPU 0 instructions: 197000000 cycles: 177028334 heartbeat IPC: 1.14316 cumulative IPC: 1.10989 (Simulation time: 0 hr 16 min 58 sec) 
Heartbeat CPU 0 instructions: 198000000 cycles: 177877657 heartbeat IPC: 1.17741 cumulative IPC: 1.11021 (Simulation time: 0 hr 17 min 4 sec) 
Heartbeat CPU 0 instructions: 199000000 cycles: 178746189 heartbeat IPC: 1.15137 cumulative IPC: 1.11041 (Simulation time: 0 hr 17 min 9 sec) 
Heartbeat CPU 0 instructions: 200000002 cycles: 179593897 heartbeat IPC: 1.17965 cumulative IPC: 1.11074 (Simulation time: 0 hr 17 min 14 sec) 
Heartbeat CPU 0 instructions: 201000000 cycles: 180528965 heartbeat IPC: 1.06944 cumulative IPC: 1.11053 (Simulation time: 0 hr 17 min 20 sec) 
Heartbeat CPU 0 instructions: 202000003 cycles: 181423350 heartbeat IPC: 1.11809 cumulative IPC: 1.11056 (Simulation time: 0 hr 17 min 25 sec) 
Heartbeat CPU 0 instructions: 203000001 cycles: 182323388 heartbeat IPC: 1.11106 cumulative IPC: 1.11057 (Simulation time: 0 hr 17 min 30 sec) 
Heartbeat CPU 0 instructions: 204000003 cycles: 183255245 heartbeat IPC: 1.07313 cumulative IPC: 1.11037 (Simulation time: 0 hr 17 min 36 sec) 
Heartbeat CPU 0 instructions: 205000000 cycles: 184232714 heartbeat IPC: 1.02305 cumulative IPC: 1.10991 (Simulation time: 0 hr 17 min 41 sec) 
Heartbeat CPU 0 instructions: 206000003 cycles: 185185498 heartbeat IPC: 1.04956 cumulative IPC: 1.1096 (Simulation time: 0 hr 17 min 46 sec) 
Heartbeat CPU 0 instructions: 207000000 cycles: 186159099 heartbeat IPC: 1.02711 cumulative IPC: 1.10917 (Simulation time: 0 hr 17 min 51 sec) 
Heartbeat CPU 0 instructions: 208000000 cycles: 187164198 heartbeat IPC: 0.994927 cumulative IPC: 1.10855 (Simulation time: 0 hr 17 min 57 sec) 
Heartbeat CPU 0 instructions: 209000000 cycles: 188168581 heartbeat IPC: 0.995636 cumulative IPC: 1.10795 (Simulation time: 0 hr 18 min 2 sec) 
Heartbeat CPU 0 instructions: 210000001 cycles: 189122732 heartbeat IPC: 1.04805 cumulative IPC: 1.10764 (Simulation time: 0 hr 18 min 7 sec) 
Heartbeat CPU 0 instructions: 211000003 cycles: 190130100 heartbeat IPC: 0.992688 cumulative IPC: 1.10703 (Simulation time: 0 hr 18 min 12 sec) 
Heartbeat CPU 0 instructions: 212000003 cycles: 191101718 heartbeat IPC: 1.02921 cumulative IPC: 1.10664 (Simulation time: 0 hr 18 min 18 sec) 
Heartbeat CPU 0 instructions: 213000001 cycles: 192022178 heartbeat IPC: 1.08641 cumulative IPC: 1.10654 (Simulation time: 0 hr 18 min 23 sec) 
Heartbeat CPU 0 instructions: 214000002 cycles: 192882808 heartbeat IPC: 1.16194 cumulative IPC: 1.10679 (Simulation time: 0 hr 18 min 28 sec) 
Heartbeat CPU 0 instructions: 215000001 cycles: 193737988 heartbeat IPC: 1.16934 cumulative IPC: 1.10706 (Simulation time: 0 hr 18 min 34 sec) 
Heartbeat CPU 0 instructions: 216000000 cycles: 194564702 heartbeat IPC: 1.20961 cumulative IPC: 1.1075 (Simulation time: 0 hr 18 min 39 sec) 
Heartbeat CPU 0 instructions: 217000002 cycles: 195417989 heartbeat IPC: 1.17194 cumulative IPC: 1.10778 (Simulation time: 0 hr 18 min 44 sec) 
Heartbeat CPU 0 instructions: 218000001 cycles: 196271460 heartbeat IPC: 1.17168 cumulative IPC: 1.10806 (Simulation time: 0 hr 18 min 49 sec) 
Heartbeat CPU 0 instructions: 219000001 cycles: 197187058 heartbeat IPC: 1.09218 cumulative IPC: 1.10799 (Simulation time: 0 hr 18 min 55 sec) 
Heartbeat CPU 0 instructions: 220000000 cycles: 198062835 heartbeat IPC: 1.14184 cumulative IPC: 1.10814 (Simulation time: 0 hr 19 min 0 sec) 
Heartbeat CPU 0 instructions: 221000000 cycles: 198962127 heartbeat IPC: 1.11199 cumulative IPC: 1.10816 (Simulation time: 0 hr 19 min 5 sec) 
Heartbeat CPU 0 instructions: 222000000 cycles: 199877777 heartbeat IPC: 1.09212 cumulative IPC: 1.10808 (Simulation time: 0 hr 19 min 10 sec) 
Heartbeat CPU 0 instructions: 223000003 cycles: 200884024 heartbeat IPC: 0.993795 cumulative IPC: 1.10751 (Simulation time: 0 hr 19 min 16 sec) 
Heartbeat CPU 0 instructions: 224000001 cycles: 201898508 heartbeat IPC: 0.985721 cumulative IPC: 1.10689 (Simulation time: 0 hr 19 min 21 sec) 
Heartbeat CPU 0 instructions: 225000000 cycles: 202873899 heartbeat IPC: 1.02523 cumulative IPC: 1.1065 (Simulation time: 0 hr 19 min 26 sec) 
Heartbeat CPU 0 instructions: 226000001 cycles: 203824512 heartbeat IPC: 1.05195 cumulative IPC: 1.10625 (Simulation time: 0 hr 19 min 31 sec) 
Heartbeat CPU 0 instructions: 227000003 cycles: 204829969 heartbeat IPC: 0.994575 cumulative IPC: 1.1057 (Simulation time: 0 hr 19 min 36 sec) 
Heartbeat CPU 0 instructions: 228000000 cycles: 205842237 heartbeat IPC: 0.987878 cumulative IPC: 1.10512 (Simulation time: 0 hr 19 min 41 sec) 
Heartbeat CPU 0 instructions: 229000000 cycles: 206825843 heartbeat IPC: 1.01667 cumulative IPC: 1.10469 (Simulation time: 0 hr 19 min 46 sec) 
Heartbeat CPU 0 instructions: 230000002 cycles: 207772933 heartbeat IPC: 1.05587 cumulative IPC: 1.10447 (Simulation time: 0 hr 19 min 52 sec) 
Heartbeat CPU 0 instructions: 231000000 cycles: 208723715 heartbeat IPC: 1.05176 cumulative IPC: 1.10423 (Simulation time: 0 hr 19 min 57 sec) 
Heartbeat CPU 0 instructions: 232000001 cycles: 209601551 heartbeat IPC: 1.13917 cumulative IPC: 1.10438 (Simulation time: 0 hr 20 min 2 sec) 
Heartbeat CPU 0 instructions: 233000002 cycles: 210503286 heartbeat IPC: 1.10897 cumulative IPC: 1.1044 (Simulation time: 0 hr 20 min 7 sec) 
Heartbeat CPU 0 instructions: 234000000 cycles: 211406578 heartbeat IPC: 1.10706 cumulative IPC: 1.10441 (Simulation time: 0 hr 20 min 12 sec) 
Heartbeat CPU 0 instructions: 235000001 cycles: 212343618 heartbeat IPC: 1.06719 cumulative IPC: 1.10424 (Simulation time: 0 hr 20 min 18 sec) 
Heartbeat CPU 0 instructions: 236000000 cycles: 213230539 heartbeat IPC: 1.1275 cumulative IPC: 1.10434 (Simulation time: 0 hr 20 min 23 sec) 
Heartbeat CPU 0 instructions: 237000001 cycles: 214147109 heartbeat IPC: 1.09103 cumulative IPC: 1.10428 (Simulation time: 0 hr 20 min 28 sec) 
Heartbeat CPU 0 instructions: 238000000 cycles: 215024652 heartbeat IPC: 1.13954 cumulative IPC: 1.10443 (Simulation time: 0 hr 20 min 33 sec) 
Heartbeat CPU 0 instructions: 239000001 cycles: 215874485 heartbeat IPC: 1.1767 cumulative IPC: 1.10471 (Simulation time: 0 hr 20 min 39 sec) 
Heartbeat CPU 0 instructions: 240000002 cycles: 216772290 heartbeat IPC: 1.11383 cumulative IPC: 1.10475 (Simulation time: 0 hr 20 min 44 sec) 
Heartbeat CPU 0 instructions: 241000001 cycles: 217637635 heartbeat IPC: 1.15561 cumulative IPC: 1.10495 (Simulation time: 0 hr 20 min 49 sec) 
Heartbeat CPU 0 instructions: 242000000 cycles: 218527151 heartbeat IPC: 1.12421 cumulative IPC: 1.10503 (Simulation time: 0 hr 20 min 55 sec) 
Heartbeat CPU 0 instructions: 243000003 cycles: 219385547 heartbeat IPC: 1.16497 cumulative IPC: 1.10527 (Simulation time: 0 hr 21 min 0 sec) 
Heartbeat CPU 0 instructions: 244000002 cycles: 220248857 heartbeat IPC: 1.15833 cumulative IPC: 1.10548 (Simulation time: 0 hr 21 min 5 sec) 
Heartbeat CPU 0 instructions: 245000001 cycles: 221127406 heartbeat IPC: 1.13824 cumulative IPC: 1.10561 (Simulation time: 0 hr 21 min 11 sec) 
Heartbeat CPU 0 instructions: 246000000 cycles: 222029189 heartbeat IPC: 1.10891 cumulative IPC: 1.10562 (Simulation time: 0 hr 21 min 16 sec) 
Heartbeat CPU 0 instructions: 247000001 cycles: 222921237 heartbeat IPC: 1.12102 cumulative IPC: 1.10568 (Simulation time: 0 hr 21 min 21 sec) 
Heartbeat CPU 0 instructions: 248000002 cycles: 223771476 heartbeat IPC: 1.17614 cumulative IPC: 1.10595 (Simulation time: 0 hr 21 min 27 sec) 
Heartbeat CPU 0 instructions: 249000003 cycles: 224628868 heartbeat IPC: 1.16633 cumulative IPC: 1.10618 (Simulation time: 0 hr 21 min 32 sec) 
Heartbeat CPU 0 instructions: 250000002 cycles: 225495374 heartbeat IPC: 1.15406 cumulative IPC: 1.10636 (Simulation time: 0 hr 21 min 37 sec) 
Heartbeat CPU 0 instructions: 251000003 cycles: 226392851 heartbeat IPC: 1.11424 cumulative IPC: 1.1064 (Simulation time: 0 hr 21 min 43 sec) 
Heartbeat CPU 0 instructions: 252000000 cycles: 227278507 heartbeat IPC: 1.1291 cumulative IPC: 1.10648 (Simulation time: 0 hr 21 min 48 sec) 
Heartbeat CPU 0 instructions: 253000000 cycles: 228215519 heartbeat IPC: 1.06722 cumulative IPC: 1.10632 (Simulation time: 0 hr 21 min 54 sec) 
Heartbeat CPU 0 instructions: 254000000 cycles: 229137808 heartbeat IPC: 1.08426 cumulative IPC: 1.10623 (Simulation time: 0 hr 21 min 59 sec) 
Heartbeat CPU 0 instructions: 255000003 cycles: 230108493 heartbeat IPC: 1.0302 cumulative IPC: 1.10591 (Simulation time: 0 hr 22 min 5 sec) 
Heartbeat CPU 0 instructions: 256000002 cycles: 231008916 heartbeat IPC: 1.11059 cumulative IPC: 1.10593 (Simulation time: 0 hr 22 min 10 sec) 
Heartbeat CPU 0 instructions: 257000003 cycles: 231885983 heartbeat IPC: 1.14016 cumulative IPC: 1.10606 (Simulation time: 0 hr 22 min 16 sec) 
Heartbeat CPU 0 instructions: 258000002 cycles: 232783645 heartbeat IPC: 1.114 cumulative IPC: 1.10609 (Simulation time: 0 hr 22 min 21 sec) 
Heartbeat CPU 0 instructions: 259000001 cycles: 233715735 heartbeat IPC: 1.07286 cumulative IPC: 1.10596 (Simulation time: 0 hr 22 min 27 sec) 
Heartbeat CPU 0 instructions: 260000002 cycles: 234644045 heartbeat IPC: 1.07723 cumulative IPC: 1.10585 (Simulation time: 0 hr 22 min 32 sec) 
Heartbeat CPU 0 instructions: 261000000 cycles: 235600639 heartbeat IPC: 1.04537 cumulative IPC: 1.1056 (Simulation time: 0 hr 22 min 38 sec) 
Heartbeat CPU 0 instructions: 262000000 cycles: 236553050 heartbeat IPC: 1.04997 cumulative IPC: 1.10537 (Simulation time: 0 hr 22 min 43 sec) 
Heartbeat CPU 0 instructions: 263000000 cycles: 237528801 heartbeat IPC: 1.02485 cumulative IPC: 1.10504 (Simulation time: 0 hr 22 min 48 sec) 
Heartbeat CPU 0 instructions: 264000000 cycles: 238513571 heartbeat IPC: 1.01547 cumulative IPC: 1.10467 (Simulation time: 0 hr 22 min 54 sec) 
Heartbeat CPU 0 instructions: 265000003 cycles: 239485442 heartbeat IPC: 1.02895 cumulative IPC: 1.10436 (Simulation time: 0 hr 22 min 59 sec) 
Heartbeat CPU 0 instructions: 266000001 cycles: 240467891 heartbeat IPC: 1.01786 cumulative IPC: 1.10401 (Simulation time: 0 hr 23 min 4 sec) 
Heartbeat CPU 0 instructions: 267000003 cycles: 241384790 heartbeat IPC: 1.09063 cumulative IPC: 1.10396 (Simulation time: 0 hr 23 min 9 sec) 
Heartbeat CPU 0 instructions: 268000000 cycles: 242294714 heartbeat IPC: 1.09899 cumulative IPC: 1.10394 (Simulation time: 0 hr 23 min 14 sec) 
Heartbeat CPU 0 instructions: 269000003 cycles: 243202732 heartbeat IPC: 1.1013 cumulative IPC: 1.10393 (Simulation time: 0 hr 23 min 20 sec) 
Heartbeat CPU 0 instructions: 270000001 cycles: 244069192 heartbeat IPC: 1.15412 cumulative IPC: 1.10411 (Simulation time: 0 hr 23 min 25 sec) 
Heartbeat CPU 0 instructions: 271000002 cycles: 244944055 heartbeat IPC: 1.14304 cumulative IPC: 1.10425 (Simulation time: 0 hr 23 min 30 sec) 
Heartbeat CPU 0 instructions: 272000000 cycles: 245866100 heartbeat IPC: 1.08454 cumulative IPC: 1.10418 (Simulation time: 0 hr 23 min 36 sec) 
Heartbeat CPU 0 instructions: 273000000 cycles: 246768048 heartbeat IPC: 1.10871 cumulative IPC: 1.10419 (Simulation time: 0 hr 23 min 41 sec) 
Heartbeat CPU 0 instructions: 274000000 cycles: 247639150 heartbeat IPC: 1.14797 cumulative IPC: 1.10435 (Simulation time: 0 hr 23 min 46 sec) 
Heartbeat CPU 0 instructions: 275000000 cycles: 248539771 heartbeat IPC: 1.11035 cumulative IPC: 1.10437 (Simulation time: 0 hr 23 min 52 sec) 
Heartbeat CPU 0 instructions: 276000000 cycles: 249413015 heartbeat IPC: 1.14516 cumulative IPC: 1.10451 (Simulation time: 0 hr 23 min 57 sec) 
Heartbeat CPU 0 instructions: 277000002 cycles: 250292845 heartbeat IPC: 1.13659 cumulative IPC: 1.10462 (Simulation time: 0 hr 24 min 2 sec) 
Heartbeat CPU 0 instructions: 278000001 cycles: 251145485 heartbeat IPC: 1.17283 cumulative IPC: 1.10486 (Simulation time: 0 hr 24 min 8 sec) 
Heartbeat CPU 0 instructions: 279000001 cycles: 252008778 heartbeat IPC: 1.15836 cumulative IPC: 1.10504 (Simulation time: 0 hr 24 min 13 sec) 
Heartbeat CPU 0 instructions: 280000003 cycles: 252915661 heartbeat IPC: 1.10268 cumulative IPC: 1.10503 (Simulation time: 0 hr 24 min 18 sec) 
Heartbeat CPU 0 instructions: 281000003 cycles: 253799432 heartbeat IPC: 1.13151 cumulative IPC: 1.10512 (Simulation time: 0 hr 24 min 24 sec) 
Heartbeat CPU 0 instructions: 282000000 cycles: 254680728 heartbeat IPC: 1.13469 cumulative IPC: 1.10523 (Simulation time: 0 hr 24 min 29 sec) 
Heartbeat CPU 0 instructions: 283000001 cycles: 255571122 heartbeat IPC: 1.1231 cumulative IPC: 1.10529 (Simulation time: 0 hr 24 min 35 sec) 
Heartbeat CPU 0 instructions: 284000002 cycles: 256485953 heartbeat IPC: 1.0931 cumulative IPC: 1.10524 (Simulation time: 0 hr 24 min 40 sec) 
Heartbeat CPU 0 instructions: 285000000 cycles: 257427990 heartbeat IPC: 1.06153 cumulative IPC: 1.10508 (Simulation time: 0 hr 24 min 45 sec) 
Heartbeat CPU 0 instructions: 286000000 cycles: 258339796 heartbeat IPC: 1.09672 cumulative IPC: 1.10505 (Simulation time: 0 hr 24 min 51 sec) 
Heartbeat CPU 0 instructions: 287000000 cycles: 259311120 heartbeat IPC: 1.02952 cumulative IPC: 1.10477 (Simulation time: 0 hr 24 min 56 sec) 
Heartbeat CPU 0 instructions: 288000002 cycles: 260271843 heartbeat IPC: 1.04088 cumulative IPC: 1.10454 (Simulation time: 0 hr 25 min 1 sec) 
Heartbeat CPU 0 instructions: 289000003 cycles: 261219380 heartbeat IPC: 1.05537 cumulative IPC: 1.10436 (Simulation time: 0 hr 25 min 6 sec) 
Heartbeat CPU 0 instructions: 290000000 cycles: 262200768 heartbeat IPC: 1.01896 cumulative IPC: 1.10404 (Simulation time: 0 hr 25 min 12 sec) 
Heartbeat CPU 0 instructions: 291000000 cycles: 263157976 heartbeat IPC: 1.04471 cumulative IPC: 1.10382 (Simulation time: 0 hr 25 min 17 sec) 
Heartbeat CPU 0 instructions: 292000001 cycles: 264126467 heartbeat IPC: 1.03254 cumulative IPC: 1.10356 (Simulation time: 0 hr 25 min 22 sec) 
Heartbeat CPU 0 instructions: 293000000 cycles: 265116769 heartbeat IPC: 1.00979 cumulative IPC: 1.10321 (Simulation time: 0 hr 25 min 27 sec) 
Heartbeat CPU 0 instructions: 294000003 cycles: 266106702 heartbeat IPC: 1.01017 cumulative IPC: 1.10286 (Simulation time: 0 hr 25 min 33 sec) 
Heartbeat CPU 0 instructions: 295000002 cycles: 267091436 heartbeat IPC: 1.0155 cumulative IPC: 1.10254 (Simulation time: 0 hr 25 min 38 sec) 
Heartbeat CPU 0 instructions: 296000001 cycles: 268045288 heartbeat IPC: 1.04838 cumulative IPC: 1.10235 (Simulation time: 0 hr 25 min 43 sec) 
Heartbeat CPU 0 instructions: 297000000 cycles: 268988045 heartbeat IPC: 1.06072 cumulative IPC: 1.1022 (Simulation time: 0 hr 25 min 48 sec) 
Heartbeat CPU 0 instructions: 298000000 cycles: 269961894 heartbeat IPC: 1.02685 cumulative IPC: 1.10193 (Simulation time: 0 hr 25 min 54 sec) 
Heartbeat CPU 0 instructions: 299000002 cycles: 270937110 heartbeat IPC: 1.02542 cumulative IPC: 1.10165 (Simulation time: 0 hr 25 min 59 sec) 
Heartbeat CPU 0 instructions: 300000001 cycles: 271851819 heartbeat IPC: 1.09324 cumulative IPC: 1.10162 (Simulation time: 0 hr 26 min 4 sec) 
Heartbeat CPU 0 instructions: 301000001 cycles: 272823832 heartbeat IPC: 1.02879 cumulative IPC: 1.10136 (Simulation time: 0 hr 26 min 9 sec) 
Heartbeat CPU 0 instructions: 302000001 cycles: 273728884 heartbeat IPC: 1.10491 cumulative IPC: 1.10137 (Simulation time: 0 hr 26 min 15 sec) 
Heartbeat CPU 0 instructions: 303000000 cycles: 274663225 heartbeat IPC: 1.07027 cumulative IPC: 1.10127 (Simulation time: 0 hr 26 min 20 sec) 
Heartbeat CPU 0 instructions: 304000001 cycles: 275585696 heartbeat IPC: 1.08405 cumulative IPC: 1.10121 (Simulation time: 0 hr 26 min 25 sec) 
Heartbeat CPU 0 instructions: 305000003 cycles: 276521565 heartbeat IPC: 1.06853 cumulative IPC: 1.1011 (Simulation time: 0 hr 26 min 30 sec) 
Heartbeat CPU 0 instructions: 306000002 cycles: 277565346 heartbeat IPC: 0.958054 cumulative IPC: 1.10056 (Simulation time: 0 hr 26 min 35 sec) 
Heartbeat CPU 0 instructions: 307000000 cycles: 278623647 heartbeat IPC: 0.944909 cumulative IPC: 1.09997 (Simulation time: 0 hr 26 min 41 sec) 
Heartbeat CPU 0 instructions: 308000000 cycles: 279702823 heartbeat IPC: 0.926633 cumulative IPC: 1.0993 (Simulation time: 0 hr 26 min 46 sec) 
Heartbeat CPU 0 instructions: 309000000 cycles: 280781467 heartbeat IPC: 0.92709 cumulative IPC: 1.09864 (Simulation time: 0 hr 26 min 51 sec) 
Heartbeat CPU 0 instructions: 310000003 cycles: 281865837 heartbeat IPC: 0.922197 cumulative IPC: 1.09796 (Simulation time: 0 hr 26 min 56 sec) 
Heartbeat CPU 0 instructions: 311000001 cycles: 282872070 heartbeat IPC: 0.993804 cumulative IPC: 1.09759 (Simulation time: 0 hr 27 min 1 sec) 
Heartbeat CPU 0 instructions: 312000000 cycles: 283850307 heartbeat IPC: 1.02225 cumulative IPC: 1.09733 (Simulation time: 0 hr 27 min 6 sec) 
Heartbeat CPU 0 instructions: 313000000 cycles: 284766083 heartbeat IPC: 1.09197 cumulative IPC: 1.09731 (Simulation time: 0 hr 27 min 12 sec) 
Heartbeat CPU 0 instructions: 314000002 cycles: 285660257 heartbeat IPC: 1.11835 cumulative IPC: 1.09737 (Simulation time: 0 hr 27 min 17 sec) 
Heartbeat CPU 0 instructions: 315000001 cycles: 286565381 heartbeat IPC: 1.10482 cumulative IPC: 1.0974 (Simulation time: 0 hr 27 min 22 sec) 
Heartbeat CPU 0 instructions: 316000000 cycles: 287455726 heartbeat IPC: 1.12316 cumulative IPC: 1.09748 (Simulation time: 0 hr 27 min 27 sec) 
Heartbeat CPU 0 instructions: 317000000 cycles: 288325019 heartbeat IPC: 1.15036 cumulative IPC: 1.09764 (Simulation time: 0 hr 27 min 33 sec) 
Heartbeat CPU 0 instructions: 318000001 cycles: 289205232 heartbeat IPC: 1.13609 cumulative IPC: 1.09775 (Simulation time: 0 hr 27 min 38 sec) 
Heartbeat CPU 0 instructions: 319000000 cycles: 290119985 heartbeat IPC: 1.09319 cumulative IPC: 1.09774 (Simulation time: 0 hr 27 min 43 sec) 
Heartbeat CPU 0 instructions: 320000001 cycles: 291025894 heartbeat IPC: 1.10386 cumulative IPC: 1.09776 (Simulation time: 0 hr 27 min 49 sec) 
Heartbeat CPU 0 instructions: 321000000 cycles: 291907556 heartbeat IPC: 1.13422 cumulative IPC: 1.09787 (Simulation time: 0 hr 27 min 54 sec) 
Heartbeat CPU 0 instructions: 322000003 cycles: 292812811 heartbeat IPC: 1.10466 cumulative IPC: 1.09789 (Simulation time: 0 hr 27 min 59 sec) 
Heartbeat CPU 0 instructions: 323000001 cycles: 293717212 heartbeat IPC: 1.1057 cumulative IPC: 1.09791 (Simulation time: 0 hr 28 min 5 sec) 
Heartbeat CPU 0 instructions: 324000002 cycles: 294617280 heartbeat IPC: 1.11103 cumulative IPC: 1.09796 (Simulation time: 0 hr 28 min 10 sec) 
Heartbeat CPU 0 instructions: 325000003 cycles: 295528701 heartbeat IPC: 1.09719 cumulative IPC: 1.09795 (Simulation time: 0 hr 28 min 15 sec) 
Heartbeat CPU 0 instructions: 326000001 cycles: 296489421 heartbeat IPC: 1.04088 cumulative IPC: 1.09777 (Simulation time: 0 hr 28 min 20 sec) 
Heartbeat CPU 0 instructions: 327000001 cycles: 297410513 heartbeat IPC: 1.08567 cumulative IPC: 1.09773 (Simulation time: 0 hr 28 min 26 sec) 
Heartbeat CPU 0 instructions: 328000001 cycles: 298331556 heartbeat IPC: 1.08573 cumulative IPC: 1.09769 (Simulation time: 0 hr 28 min 31 sec) 
Heartbeat CPU 0 instructions: 329000002 cycles: 299271170 heartbeat IPC: 1.06427 cumulative IPC: 1.09759 (Simulation time: 0 hr 28 min 36 sec) 
Heartbeat CPU 0 instructions: 330000000 cycles: 300185238 heartbeat IPC: 1.09401 cumulative IPC: 1.09758 (Simulation time: 0 hr 28 min 41 sec) 
Heartbeat CPU 0 instructions: 331000001 cycles: 301183186 heartbeat IPC: 1.00206 cumulative IPC: 1.09726 (Simulation time: 0 hr 28 min 47 sec) 
Heartbeat CPU 0 instructions: 332000001 cycles: 302150185 heartbeat IPC: 1.03413 cumulative IPC: 1.09706 (Simulation time: 0 hr 28 min 52 sec) 
Heartbeat CPU 0 instructions: 333000000 cycles: 303072286 heartbeat IPC: 1.08448 cumulative IPC: 1.09702 (Simulation time: 0 hr 28 min 57 sec) 
Heartbeat CPU 0 instructions: 334000000 cycles: 304004893 heartbeat IPC: 1.07226 cumulative IPC: 1.09694 (Simulation time: 0 hr 29 min 2 sec) 
Heartbeat CPU 0 instructions: 335000002 cycles: 304942054 heartbeat IPC: 1.06705 cumulative IPC: 1.09685 (Simulation time: 0 hr 29 min 7 sec) 
Heartbeat CPU 0 instructions: 336000003 cycles: 305831333 heartbeat IPC: 1.12451 cumulative IPC: 1.09693 (Simulation time: 0 hr 29 min 13 sec) 
Heartbeat CPU 0 instructions: 337000001 cycles: 306717266 heartbeat IPC: 1.12875 cumulative IPC: 1.09702 (Simulation time: 0 hr 29 min 18 sec) 
Heartbeat CPU 0 instructions: 338000001 cycles: 307626080 heartbeat IPC: 1.10034 cumulative IPC: 1.09703 (Simulation time: 0 hr 29 min 23 sec) 
Heartbeat CPU 0 instructions: 339000001 cycles: 308516392 heartbeat IPC: 1.1232 cumulative IPC: 1.09711 (Simulation time: 0 hr 29 min 28 sec) 
Heartbeat CPU 0 instructions: 340000000 cycles: 309379005 heartbeat IPC: 1.15927 cumulative IPC: 1.09728 (Simulation time: 0 hr 29 min 34 sec) 
Heartbeat CPU 0 instructions: 341000000 cycles: 310272151 heartbeat IPC: 1.11964 cumulative IPC: 1.09735 (Simulation time: 0 hr 29 min 39 sec) 
Heartbeat CPU 0 instructions: 342000000 cycles: 311118214 heartbeat IPC: 1.18195 cumulative IPC: 1.09758 (Simulation time: 0 hr 29 min 44 sec) 
Heartbeat CPU 0 instructions: 343000001 cycles: 312033603 heartbeat IPC: 1.09243 cumulative IPC: 1.09756 (Simulation time: 0 hr 29 min 50 sec) 
Heartbeat CPU 0 instructions: 344000001 cycles: 312915445 heartbeat IPC: 1.13399 cumulative IPC: 1.09767 (Simulation time: 0 hr 29 min 55 sec) 
Heartbeat CPU 0 instructions: 345000001 cycles: 313895325 heartbeat IPC: 1.02053 cumulative IPC: 1.09742 (Simulation time: 0 hr 30 min 0 sec) 
Heartbeat CPU 0 instructions: 346000003 cycles: 314813804 heartbeat IPC: 1.08876 cumulative IPC: 1.0974 (Simulation time: 0 hr 30 min 5 sec) 
Heartbeat CPU 0 instructions: 347000001 cycles: 315711069 heartbeat IPC: 1.1145 cumulative IPC: 1.09745 (Simulation time: 0 hr 30 min 11 sec) 
Heartbeat CPU 0 instructions: 348000002 cycles: 316647545 heartbeat IPC: 1.06783 cumulative IPC: 1.09736 (Simulation time: 0 hr 30 min 16 sec) 
Heartbeat CPU 0 instructions: 349000003 cycles: 317544773 heartbeat IPC: 1.11454 cumulative IPC: 1.09741 (Simulation time: 0 hr 30 min 21 sec) 
Heartbeat CPU 0 instructions: 350000003 cycles: 318425150 heartbeat IPC: 1.13588 cumulative IPC: 1.09751 (Simulation time: 0 hr 30 min 27 sec) 
Heartbeat CPU 0 instructions: 351000000 cycles: 319319846 heartbeat IPC: 1.11769 cumulative IPC: 1.09757 (Simulation time: 0 hr 30 min 32 sec) 
Heartbeat CPU 0 instructions: 352000000 cycles: 320204317 heartbeat IPC: 1.13062 cumulative IPC: 1.09766 (Simulation time: 0 hr 30 min 37 sec) 
Heartbeat CPU 0 instructions: 353000000 cycles: 321082421 heartbeat IPC: 1.13882 cumulative IPC: 1.09778 (Simulation time: 0 hr 30 min 43 sec) 
Heartbeat CPU 0 instructions: 354000001 cycles: 321915672 heartbeat IPC: 1.20012 cumulative IPC: 1.09804 (Simulation time: 0 hr 30 min 48 sec) 
Heartbeat CPU 0 instructions: 355000000 cycles: 322833451 heartbeat IPC: 1.08959 cumulative IPC: 1.09802 (Simulation time: 0 hr 30 min 54 sec) 
Heartbeat CPU 0 instructions: 356000002 cycles: 323695532 heartbeat IPC: 1.15999 cumulative IPC: 1.09818 (Simulation time: 0 hr 30 min 59 sec) 
Heartbeat CPU 0 instructions: 357000002 cycles: 324597077 heartbeat IPC: 1.10921 cumulative IPC: 1.09821 (Simulation time: 0 hr 31 min 4 sec) 
Heartbeat CPU 0 instructions: 358000002 cycles: 325445908 heartbeat IPC: 1.17809 cumulative IPC: 1.09842 (Simulation time: 0 hr 31 min 10 sec) 
Heartbeat CPU 0 instructions: 359000001 cycles: 326362701 heartbeat IPC: 1.09076 cumulative IPC: 1.0984 (Simulation time: 0 hr 31 min 15 sec) 
Heartbeat CPU 0 instructions: 360000000 cycles: 327276773 heartbeat IPC: 1.094 cumulative IPC: 1.09839 (Simulation time: 0 hr 31 min 20 sec) 
Heartbeat CPU 0 instructions: 361000001 cycles: 328156832 heartbeat IPC: 1.13629 cumulative IPC: 1.09849 (Simulation time: 0 hr 31 min 26 sec) 
Heartbeat CPU 0 instructions: 362000000 cycles: 329056666 heartbeat IPC: 1.11132 cumulative IPC: 1.09852 (Simulation time: 0 hr 31 min 31 sec) 
Heartbeat CPU 0 instructions: 363000000 cycles: 329915417 heartbeat IPC: 1.16448 cumulative IPC: 1.0987 (Simulation time: 0 hr 31 min 36 sec) 
Heartbeat CPU 0 instructions: 364000003 cycles: 330792979 heartbeat IPC: 1.13952 cumulative IPC: 1.0988 (Simulation time: 0 hr 31 min 42 sec) 
Heartbeat CPU 0 instructions: 365000000 cycles: 331686329 heartbeat IPC: 1.11938 cumulative IPC: 1.09886 (Simulation time: 0 hr 31 min 47 sec) 
Heartbeat CPU 0 instructions: 366000000 cycles: 332586575 heartbeat IPC: 1.11081 cumulative IPC: 1.09889 (Simulation time: 0 hr 31 min 52 sec) 
Heartbeat CPU 0 instructions: 367000000 cycles: 333517378 heartbeat IPC: 1.07434 cumulative IPC: 1.09882 (Simulation time: 0 hr 31 min 57 sec) 
Heartbeat CPU 0 instructions: 368000001 cycles: 334416506 heartbeat IPC: 1.11219 cumulative IPC: 1.09886 (Simulation time: 0 hr 32 min 3 sec) 
Heartbeat CPU 0 instructions: 369000002 cycles: 335368272 heartbeat IPC: 1.05068 cumulative IPC: 1.09872 (Simulation time: 0 hr 32 min 8 sec) 
Heartbeat CPU 0 instructions: 370000003 cycles: 336282692 heartbeat IPC: 1.09359 cumulative IPC: 1.09871 (Simulation time: 0 hr 32 min 13 sec) 
Heartbeat CPU 0 instructions: 371000000 cycles: 337199460 heartbeat IPC: 1.09079 cumulative IPC: 1.09869 (Simulation time: 0 hr 32 min 18 sec) 
Heartbeat CPU 0 instructions: 372000000 cycles: 338095531 heartbeat IPC: 1.11598 cumulative IPC: 1.09873 (Simulation time: 0 hr 32 min 24 sec) 
Heartbeat CPU 0 instructions: 373000001 cycles: 339021935 heartbeat IPC: 1.07944 cumulative IPC: 1.09868 (Simulation time: 0 hr 32 min 29 sec) 
Heartbeat CPU 0 instructions: 374000000 cycles: 339929804 heartbeat IPC: 1.10148 cumulative IPC: 1.09869 (Simulation time: 0 hr 32 min 34 sec) 
Heartbeat CPU 0 instructions: 375000000 cycles: 340784112 heartbeat IPC: 1.17054 cumulative IPC: 1.09887 (Simulation time: 0 hr 32 min 40 sec) 
Heartbeat CPU 0 instructions: 376000001 cycles: 341690268 heartbeat IPC: 1.10356 cumulative IPC: 1.09888 (Simulation time: 0 hr 32 min 45 sec) 
Heartbeat CPU 0 instructions: 377000000 cycles: 342562108 heartbeat IPC: 1.147 cumulative IPC: 1.099 (Simulation time: 0 hr 32 min 50 sec) 
Heartbeat CPU 0 instructions: 378000000 cycles: 343472005 heartbeat IPC: 1.09903 cumulative IPC: 1.099 (Simulation time: 0 hr 32 min 55 sec) 
Heartbeat CPU 0 instructions: 379000002 cycles: 344370342 heartbeat IPC: 1.11317 cumulative IPC: 1.09904 (Simulation time: 0 hr 33 min 1 sec) 
Heartbeat CPU 0 instructions: 380000003 cycles: 345275961 heartbeat IPC: 1.10422 cumulative IPC: 1.09905 (Simulation time: 0 hr 33 min 6 sec) 
Heartbeat CPU 0 instructions: 381000000 cycles: 346150190 heartbeat IPC: 1.14386 cumulative IPC: 1.09917 (Simulation time: 0 hr 33 min 11 sec) 
Heartbeat CPU 0 instructions: 382000002 cycles: 347010150 heartbeat IPC: 1.16285 cumulative IPC: 1.09933 (Simulation time: 0 hr 33 min 16 sec) 
Heartbeat CPU 0 instructions: 383000002 cycles: 347924889 heartbeat IPC: 1.09321 cumulative IPC: 1.09931 (Simulation time: 0 hr 33 min 22 sec) 
Heartbeat CPU 0 instructions: 384000000 cycles: 348795659 heartbeat IPC: 1.14841 cumulative IPC: 1.09943 (Simulation time: 0 hr 33 min 27 sec) 
Heartbeat CPU 0 instructions: 385000000 cycles: 349694798 heartbeat IPC: 1.11218 cumulative IPC: 1.09947 (Simulation time: 0 hr 33 min 32 sec) 
Heartbeat CPU 0 instructions: 386000001 cycles: 350536494 heartbeat IPC: 1.18808 cumulative IPC: 1.09968 (Simulation time: 0 hr 33 min 38 sec) 
Heartbeat CPU 0 instructions: 387000001 cycles: 351456925 heartbeat IPC: 1.08645 cumulative IPC: 1.09964 (Simulation time: 0 hr 33 min 43 sec) 
Heartbeat CPU 0 instructions: 388000002 cycles: 352387511 heartbeat IPC: 1.07459 cumulative IPC: 1.09958 (Simulation time: 0 hr 33 min 48 sec) 
Heartbeat CPU 0 instructions: 389000000 cycles: 353349068 heartbeat IPC: 1.03998 cumulative IPC: 1.09941 (Simulation time: 0 hr 33 min 54 sec) 
Heartbeat CPU 0 instructions: 390000001 cycles: 354320551 heartbeat IPC: 1.02936 cumulative IPC: 1.09922 (Simulation time: 0 hr 33 min 59 sec) 
Heartbeat CPU 0 instructions: 391000000 cycles: 355341289 heartbeat IPC: 0.979682 cumulative IPC: 1.09888 (Simulation time: 0 hr 34 min 4 sec) 
Heartbeat CPU 0 instructions: 392000003 cycles: 356325318 heartbeat IPC: 1.01623 cumulative IPC: 1.09865 (Simulation time: 0 hr 34 min 10 sec) 
Heartbeat CPU 0 instructions: 393000002 cycles: 357276669 heartbeat IPC: 1.05114 cumulative IPC: 1.09852 (Simulation time: 0 hr 34 min 15 sec) 
Heartbeat CPU 0 instructions: 394000001 cycles: 358286114 heartbeat IPC: 0.990642 cumulative IPC: 1.09822 (Simulation time: 0 hr 34 min 20 sec) 
Heartbeat CPU 0 instructions: 395000001 cycles: 359287270 heartbeat IPC: 0.998845 cumulative IPC: 1.09794 (Simulation time: 0 hr 34 min 26 sec) 
Heartbeat CPU 0 instructions: 396000000 cycles: 360298723 heartbeat IPC: 0.988676 cumulative IPC: 1.09763 (Simulation time: 0 hr 34 min 31 sec) 
Heartbeat CPU 0 instructions: 397000003 cycles: 361291858 heartbeat IPC: 1.00692 cumulative IPC: 1.09739 (Simulation time: 0 hr 34 min 36 sec) 
Heartbeat CPU 0 instructions: 398000000 cycles: 362251967 heartbeat IPC: 1.04155 cumulative IPC: 1.09724 (Simulation time: 0 hr 34 min 41 sec) 
Heartbeat CPU 0 instructions: 399000000 cycles: 363225708 heartbeat IPC: 1.02697 cumulative IPC: 1.09705 (Simulation time: 0 hr 34 min 47 sec) 
Heartbeat CPU 0 instructions: 400000002 cycles: 364174566 heartbeat IPC: 1.0539 cumulative IPC: 1.09694 (Simulation time: 0 hr 34 min 52 sec) 
Heartbeat CPU 0 instructions: 401000000 cycles: 365160821 heartbeat IPC: 1.01393 cumulative IPC: 1.09671 (Simulation time: 0 hr 34 min 58 sec) 
Heartbeat CPU 0 instructions: 402000001 cycles: 366159285 heartbeat IPC: 1.00154 cumulative IPC: 1.09645 (Simulation time: 0 hr 35 min 3 sec) 
Heartbeat CPU 0 instructions: 403000002 cycles: 367142927 heartbeat IPC: 1.01663 cumulative IPC: 1.09624 (Simulation time: 0 hr 35 min 8 sec) 
Heartbeat CPU 0 instructions: 404000001 cycles: 368136731 heartbeat IPC: 1.00623 cumulative IPC: 1.09599 (Simulation time: 0 hr 35 min 13 sec) 
Heartbeat CPU 0 instructions: 405000003 cycles: 369130221 heartbeat IPC: 1.00655 cumulative IPC: 1.09575 (Simulation time: 0 hr 35 min 19 sec) 
Heartbeat CPU 0 instructions: 406000000 cycles: 370148689 heartbeat IPC: 0.981864 cumulative IPC: 1.09544 (Simulation time: 0 hr 35 min 24 sec) 
Heartbeat CPU 0 instructions: 407000000 cycles: 371272974 heartbeat IPC: 0.889454 cumulative IPC: 1.09481 (Simulation time: 0 hr 35 min 29 sec) 
Heartbeat CPU 0 instructions: 408000003 cycles: 372414651 heartbeat IPC: 0.875907 cumulative IPC: 1.09414 (Simulation time: 0 hr 35 min 34 sec) 
Heartbeat CPU 0 instructions: 409000002 cycles: 373526871 heartbeat IPC: 0.899102 cumulative IPC: 1.09356 (Simulation time: 0 hr 35 min 39 sec) 
Heartbeat CPU 0 instructions: 410000001 cycles: 374638627 heartbeat IPC: 0.899477 cumulative IPC: 1.09298 (Simulation time: 0 hr 35 min 44 sec) 
Heartbeat CPU 0 instructions: 411000003 cycles: 375713086 heartbeat IPC: 0.930703 cumulative IPC: 1.09252 (Simulation time: 0 hr 35 min 50 sec) 
Heartbeat CPU 0 instructions: 412000001 cycles: 376750778 heartbeat IPC: 0.963675 cumulative IPC: 1.09216 (Simulation time: 0 hr 35 min 56 sec) 
Heartbeat CPU 0 instructions: 413000001 cycles: 377764813 heartbeat IPC: 0.986159 cumulative IPC: 1.09188 (Simulation time: 0 hr 36 min 2 sec) 
Heartbeat CPU 0 instructions: 414000001 cycles: 378740486 heartbeat IPC: 1.02493 cumulative IPC: 1.09171 (Simulation time: 0 hr 36 min 8 sec) 
Heartbeat CPU 0 instructions: 415000000 cycles: 379755173 heartbeat IPC: 0.985525 cumulative IPC: 1.09142 (Simulation time: 0 hr 36 min 13 sec) 
Heartbeat CPU 0 instructions: 416000003 cycles: 380762973 heartbeat IPC: 0.992263 cumulative IPC: 1.09116 (Simulation time: 0 hr 36 min 19 sec) 
Heartbeat CPU 0 instructions: 417000000 cycles: 381873910 heartbeat IPC: 0.900138 cumulative IPC: 1.0906 (Simulation time: 0 hr 36 min 24 sec) 
Heartbeat CPU 0 instructions: 418000000 cycles: 382993343 heartbeat IPC: 0.893309 cumulative IPC: 1.09003 (Simulation time: 0 hr 36 min 29 sec) 
Heartbeat CPU 0 instructions: 419000001 cycles: 384151555 heartbeat IPC: 0.863401 cumulative IPC: 1.08934 (Simulation time: 0 hr 36 min 35 sec) 
Heartbeat CPU 0 instructions: 420000003 cycles: 385269689 heartbeat IPC: 0.894349 cumulative IPC: 1.08878 (Simulation time: 0 hr 36 min 40 sec) 
Heartbeat CPU 0 instructions: 421000001 cycles: 386395312 heartbeat IPC: 0.888395 cumulative IPC: 1.08819 (Simulation time: 0 hr 36 min 45 sec) 
Heartbeat CPU 0 instructions: 422000002 cycles: 387537479 heartbeat IPC: 0.87553 cumulative IPC: 1.08756 (Simulation time: 0 hr 36 min 50 sec) 
Heartbeat CPU 0 instructions: 423000000 cycles: 388624975 heartbeat IPC: 0.919542 cumulative IPC: 1.08709 (Simulation time: 0 hr 36 min 55 sec) 
Heartbeat CPU 0 instructions: 424000000 cycles: 389727966 heartbeat IPC: 0.906626 cumulative IPC: 1.08658 (Simulation time: 0 hr 37 min 1 sec) 
Heartbeat CPU 0 instructions: 425000003 cycles: 390960885 heartbeat IPC: 0.811086 cumulative IPC: 1.08571 (Simulation time: 0 hr 37 min 6 sec) 
Heartbeat CPU 0 instructions: 426000001 cycles: 392225889 heartbeat IPC: 0.79051 cumulative IPC: 1.08476 (Simulation time: 0 hr 37 min 11 sec) 
Heartbeat CPU 0 instructions: 427000001 cycles: 393464770 heartbeat IPC: 0.80718 cumulative IPC: 1.08388 (Simulation time: 0 hr 37 min 16 sec) 
Heartbeat CPU 0 instructions: 428000002 cycles: 394629555 heartbeat IPC: 0.858528 cumulative IPC: 1.08322 (Simulation time: 0 hr 37 min 21 sec) 
Heartbeat CPU 0 instructions: 429000000 cycles: 395774046 heartbeat IPC: 0.873749 cumulative IPC: 1.08261 (Simulation time: 0 hr 37 min 26 sec) 
Heartbeat CPU 0 instructions: 430000001 cycles: 396882803 heartbeat IPC: 0.901912 cumulative IPC: 1.08211 (Simulation time: 0 hr 37 min 32 sec) 
Heartbeat CPU 0 instructions: 431000001 cycles: 398001819 heartbeat IPC: 0.893642 cumulative IPC: 1.08158 (Simulation time: 0 hr 37 min 37 sec) 
Heartbeat CPU 0 instructions: 432000001 cycles: 399172228 heartbeat IPC: 0.854402 cumulative IPC: 1.08091 (Simulation time: 0 hr 37 min 42 sec) 
Heartbeat CPU 0 instructions: 433000000 cycles: 400296636 heartbeat IPC: 0.889356 cumulative IPC: 1.08037 (Simulation time: 0 hr 37 min 47 sec) 
Heartbeat CPU 0 instructions: 434000003 cycles: 401394611 heartbeat IPC: 0.91077 cumulative IPC: 1.07991 (Simulation time: 0 hr 37 min 53 sec) 
Heartbeat CPU 0 instructions: 435000001 cycles: 402501380 heartbeat IPC: 0.903529 cumulative IPC: 1.07942 (Simulation time: 0 hr 37 min 58 sec) 
Heartbeat CPU 0 instructions: 436000000 cycles: 403560191 heartbeat IPC: 0.944455 cumulative IPC: 1.07907 (Simulation time: 0 hr 38 min 3 sec) 
Heartbeat CPU 0 instructions: 437000003 cycles: 404667861 heartbeat IPC: 0.902799 cumulative IPC: 1.07858 (Simulation time: 0 hr 38 min 8 sec) 
Heartbeat CPU 0 instructions: 438000001 cycles: 405775926 heartbeat IPC: 0.902472 cumulative IPC: 1.0781 (Simulation time: 0 hr 38 min 14 sec) 
Heartbeat CPU 0 instructions: 439000003 cycles: 406877874 heartbeat IPC: 0.907486 cumulative IPC: 1.07764 (Simulation time: 0 hr 38 min 19 sec) 
Heartbeat CPU 0 instructions: 440000000 cycles: 408071649 heartbeat IPC: 0.837676 cumulative IPC: 1.07694 (Simulation time: 0 hr 38 min 24 sec) 
Heartbeat CPU 0 instructions: 441000003 cycles: 409290141 heartbeat IPC: 0.820689 cumulative IPC: 1.07617 (Simulation time: 0 hr 38 min 29 sec) 
Heartbeat CPU 0 instructions: 442000003 cycles: 410597903 heartbeat IPC: 0.764665 cumulative IPC: 1.07518 (Simulation time: 0 hr 38 min 35 sec) 
Heartbeat CPU 0 instructions: 443000003 cycles: 411907797 heartbeat IPC: 0.763421 cumulative IPC: 1.07419 (Simulation time: 0 hr 38 min 40 sec) 
Heartbeat CPU 0 instructions: 444000002 cycles: 413215687 heartbeat IPC: 0.76459 cumulative IPC: 1.07321 (Simulation time: 0 hr 38 min 45 sec) 
Heartbeat CPU 0 instructions: 445000001 cycles: 414456440 heartbeat IPC: 0.805961 cumulative IPC: 1.07241 (Simulation time: 0 hr 38 min 50 sec) 
Heartbeat CPU 0 instructions: 446000000 cycles: 415668777 heartbeat IPC: 0.824852 cumulative IPC: 1.07168 (Simulation time: 0 hr 38 min 55 sec) 
Heartbeat CPU 0 instructions: 447000000 cycles: 416847298 heartbeat IPC: 0.848521 cumulative IPC: 1.07105 (Simulation time: 0 hr 39 min 0 sec) 
Heartbeat CPU 0 instructions: 448000003 cycles: 418007060 heartbeat IPC: 0.862248 cumulative IPC: 1.07047 (Simulation time: 0 hr 39 min 6 sec) 
Heartbeat CPU 0 instructions: 449000000 cycles: 419138428 heartbeat IPC: 0.883883 cumulative IPC: 1.06997 (Simulation time: 0 hr 39 min 11 sec) 
Heartbeat CPU 0 instructions: 450000001 cycles: 420257753 heartbeat IPC: 0.893396 cumulative IPC: 1.0695 (Simulation time: 0 hr 39 min 16 sec) 

Warmup complete CPU 0 instructions: 450000001 cycles: 420257753 (Simulation time: 0 hr 39 min 16 sec) 

Heartbeat CPU 0 instructions: 451000000 cycles: 421232679 heartbeat IPC: 1.02572 cumulative IPC: 1.02572 (Simulation time: 0 hr 39 min 21 sec) 
Heartbeat CPU 0 instructions: 452000002 cycles: 422183451 heartbeat IPC: 1.05178 cumulative IPC: 1.03858 (Simulation time: 0 hr 39 min 27 sec) 
Heartbeat CPU 0 instructions: 453000002 cycles: 423204877 heartbeat IPC: 0.979023 cumulative IPC: 1.01794 (Simulation time: 0 hr 39 min 32 sec) 
Heartbeat CPU 0 instructions: 454000000 cycles: 424127839 heartbeat IPC: 1.08347 cumulative IPC: 1.03357 (Simulation time: 0 hr 39 min 37 sec) 
Heartbeat CPU 0 instructions: 455000000 cycles: 425043319 heartbeat IPC: 1.09232 cumulative IPC: 1.04481 (Simulation time: 0 hr 39 min 42 sec) 
Heartbeat CPU 0 instructions: 456000000 cycles: 425986936 heartbeat IPC: 1.05975 cumulative IPC: 1.04727 (Simulation time: 0 hr 39 min 47 sec) 
Heartbeat CPU 0 instructions: 457000001 cycles: 426929883 heartbeat IPC: 1.06051 cumulative IPC: 1.04914 (Simulation time: 0 hr 39 min 52 sec) 
Heartbeat CPU 0 instructions: 458000000 cycles: 427860640 heartbeat IPC: 1.07439 cumulative IPC: 1.05223 (Simulation time: 0 hr 39 min 57 sec) 
Heartbeat CPU 0 instructions: 459000002 cycles: 428753599 heartbeat IPC: 1.11987 cumulative IPC: 1.05934 (Simulation time: 0 hr 40 min 2 sec) 
Heartbeat CPU 0 instructions: 460000000 cycles: 429631342 heartbeat IPC: 1.13928 cumulative IPC: 1.06683 (Simulation time: 0 hr 40 min 8 sec) 
Heartbeat CPU 0 instructions: 461000003 cycles: 430513848 heartbeat IPC: 1.13314 cumulative IPC: 1.07253 (Simulation time: 0 hr 40 min 13 sec) 
Heartbeat CPU 0 instructions: 462000000 cycles: 431381471 heartbeat IPC: 1.15257 cumulative IPC: 1.07878 (Simulation time: 0 hr 40 min 18 sec) 
Heartbeat CPU 0 instructions: 463000001 cycles: 432263572 heartbeat IPC: 1.13366 cumulative IPC: 1.08281 (Simulation time: 0 hr 40 min 23 sec) 
Heartbeat CPU 0 instructions: 464000003 cycles: 433154372 heartbeat IPC: 1.12259 cumulative IPC: 1.08556 (Simulation time: 0 hr 40 min 28 sec) 
Heartbeat CPU 0 instructions: 465000001 cycles: 434020586 heartbeat IPC: 1.15445 cumulative IPC: 1.08989 (Simulation time: 0 hr 40 min 34 sec) 
Heartbeat CPU 0 instructions: 466000002 cycles: 434876954 heartbeat IPC: 1.16772 cumulative IPC: 1.09445 (Simulation time: 0 hr 40 min 39 sec) 
Heartbeat CPU 0 instructions: 467000001 cycles: 435778557 heartbeat IPC: 1.10913 cumulative IPC: 1.0953 (Simulation time: 0 hr 40 min 44 sec) 
Heartbeat CPU 0 instructions: 468000000 cycles: 436647363 heartbeat IPC: 1.151 cumulative IPC: 1.09826 (Simulation time: 0 hr 40 min 49 sec) 
Heartbeat CPU 0 instructions: 469000003 cycles: 437552532 heartbeat IPC: 1.10477 cumulative IPC: 1.0986 (Simulation time: 0 hr 40 min 54 sec) 
Heartbeat CPU 0 instructions: 470000001 cycles: 438414549 heartbeat IPC: 1.16007 cumulative IPC: 1.10152 (Simulation time: 0 hr 41 min 0 sec) 
Heartbeat CPU 0 instructions: 471000002 cycles: 439305974 heartbeat IPC: 1.1218 cumulative IPC: 1.10247 (Simulation time: 0 hr 41 min 5 sec) 
Heartbeat CPU 0 instructions: 472000002 cycles: 440186217 heartbeat IPC: 1.13605 cumulative IPC: 1.10395 (Simulation time: 0 hr 41 min 10 sec) 
Heartbeat CPU 0 instructions: 473000000 cycles: 441063596 heartbeat IPC: 1.13976 cumulative IPC: 1.10546 (Simulation time: 0 hr 41 min 15 sec) 
Heartbeat CPU 0 instructions: 474000003 cycles: 441950687 heartbeat IPC: 1.12728 cumulative IPC: 1.10635 (Simulation time: 0 hr 41 min 20 sec) 
Heartbeat CPU 0 instructions: 475000002 cycles: 442864196 heartbeat IPC: 1.09468 cumulative IPC: 1.10588 (Simulation time: 0 hr 41 min 25 sec) 
Heartbeat CPU 0 instructions: 476000000 cycles: 443841706 heartbeat IPC: 1.02301 cumulative IPC: 1.10244 (Simulation time: 0 hr 41 min 30 sec) 
Heartbeat CPU 0 instructions: 477000003 cycles: 444796409 heartbeat IPC: 1.04745 cumulative IPC: 1.1003 (Simulation time: 0 hr 41 min 35 sec) 
Heartbeat CPU 0 instructions: 478000003 cycles: 445791231 heartbeat IPC: 1.0052 cumulative IPC: 1.0966 (Simulation time: 0 hr 41 min 41 sec) 
Heartbeat CPU 0 instructions: 479000003 cycles: 446720805 heartbeat IPC: 1.07576 cumulative IPC: 1.09587 (Simulation time: 0 hr 41 min 46 sec) 
Heartbeat CPU 0 instructions: 480000003 cycles: 447681046 heartbeat IPC: 1.04141 cumulative IPC: 1.09396 (Simulation time: 0 hr 41 min 51 sec) 
Heartbeat CPU 0 instructions: 481000001 cycles: 448651228 heartbeat IPC: 1.03073 cumulative IPC: 1.0918 (Simulation time: 0 hr 41 min 56 sec) 
Heartbeat CPU 0 instructions: 482000001 cycles: 449595083 heartbeat IPC: 1.05948 cumulative IPC: 1.09076 (Simulation time: 0 hr 42 min 1 sec) 
Heartbeat CPU 0 instructions: 483000000 cycles: 450520984 heartbeat IPC: 1.08003 cumulative IPC: 1.09043 (Simulation time: 0 hr 42 min 6 sec) 
Heartbeat CPU 0 instructions: 484000000 cycles: 451457043 heartbeat IPC: 1.06831 cumulative IPC: 1.08977 (Simulation time: 0 hr 42 min 11 sec) 
Heartbeat CPU 0 instructions: 485000002 cycles: 452378194 heartbeat IPC: 1.0856 cumulative IPC: 1.08965 (Simulation time: 0 hr 42 min 16 sec) 
Heartbeat CPU 0 instructions: 486000002 cycles: 453305909 heartbeat IPC: 1.07792 cumulative IPC: 1.08932 (Simulation time: 0 hr 42 min 21 sec) 
Heartbeat CPU 0 instructions: 487000001 cycles: 454208948 heartbeat IPC: 1.10737 cumulative IPC: 1.0898 (Simulation time: 0 hr 42 min 26 sec) 
Heartbeat CPU 0 instructions: 488000000 cycles: 455081354 heartbeat IPC: 1.14625 cumulative IPC: 1.09121 (Simulation time: 0 hr 42 min 31 sec) 
Heartbeat CPU 0 instructions: 489000002 cycles: 455993466 heartbeat IPC: 1.09636 cumulative IPC: 1.09135 (Simulation time: 0 hr 42 min 37 sec) 
Heartbeat CPU 0 instructions: 490000002 cycles: 456898982 heartbeat IPC: 1.10434 cumulative IPC: 1.09167 (Simulation time: 0 hr 42 min 42 sec) 
Heartbeat CPU 0 instructions: 491000002 cycles: 457813165 heartbeat IPC: 1.09387 cumulative IPC: 1.09172 (Simulation time: 0 hr 42 min 47 sec) 
Heartbeat CPU 0 instructions: 492000000 cycles: 458772423 heartbeat IPC: 1.04247 cumulative IPC: 1.09049 (Simulation time: 0 hr 42 min 52 sec) 
Heartbeat CPU 0 instructions: 493000000 cycles: 459752932 heartbeat IPC: 1.01988 cumulative IPC: 1.08874 (Simulation time: 0 hr 42 min 57 sec) 
Heartbeat CPU 0 instructions: 494000001 cycles: 460729713 heartbeat IPC: 1.02377 cumulative IPC: 1.08717 (Simulation time: 0 hr 43 min 3 sec) 
Heartbeat CPU 0 instructions: 495000000 cycles: 461750582 heartbeat IPC: 0.979557 cumulative IPC: 1.08452 (Simulation time: 0 hr 43 min 8 sec) 
Heartbeat CPU 0 instructions: 496000002 cycles: 462772297 heartbeat IPC: 0.978749 cumulative IPC: 1.08198 (Simulation time: 0 hr 43 min 13 sec) 
Heartbeat CPU 0 instructions: 497000000 cycles: 463784197 heartbeat IPC: 0.988238 cumulative IPC: 1.0798 (Simulation time: 0 hr 43 min 18 sec) 
Heartbeat CPU 0 instructions: 498000000 cycles: 464807208 heartbeat IPC: 0.977507 cumulative IPC: 1.07745 (Simulation time: 0 hr 43 min 23 sec) 
Heartbeat CPU 0 instructions: 499000000 cycles: 465836001 heartbeat IPC: 0.972013 cumulative IPC: 1.07507 (Simulation time: 0 hr 43 min 28 sec) 
Heartbeat CPU 0 instructions: 500000002 cycles: 466918529 heartbeat IPC: 0.923765 cumulative IPC: 1.07156 (Simulation time: 0 hr 43 min 33 sec) 
Heartbeat CPU 0 instructions: 501000001 cycles: 468021139 heartbeat IPC: 0.906938 cumulative IPC: 1.06776 (Simulation time: 0 hr 43 min 39 sec) 
Heartbeat CPU 0 instructions: 502000002 cycles: 469064074 heartbeat IPC: 0.958833 cumulative IPC: 1.06544 (Simulation time: 0 hr 43 min 44 sec) 
Heartbeat CPU 0 instructions: 503000001 cycles: 470101056 heartbeat IPC: 0.964336 cumulative IPC: 1.06333 (Simulation time: 0 hr 43 min 49 sec) 
Heartbeat CPU 0 instructions: 504000000 cycles: 471103494 heartbeat IPC: 0.997567 cumulative IPC: 1.06204 (Simulation time: 0 hr 43 min 54 sec) 
Heartbeat CPU 0 instructions: 505000000 cycles: 472091012 heartbeat IPC: 1.01264 cumulative IPC: 1.06109 (Simulation time: 0 hr 43 min 59 sec) 
Heartbeat CPU 0 instructions: 506000000 cycles: 473033886 heartbeat IPC: 1.06059 cumulative IPC: 1.06109 (Simulation time: 0 hr 44 min 4 sec) 
Heartbeat CPU 0 instructions: 507000001 cycles: 473989227 heartbeat IPC: 1.04675 cumulative IPC: 1.06083 (Simulation time: 0 hr 44 min 9 sec) 
Heartbeat CPU 0 instructions: 508000003 cycles: 474960563 heartbeat IPC: 1.02951 cumulative IPC: 1.06027 (Simulation time: 0 hr 44 min 15 sec) 
Heartbeat CPU 0 instructions: 509000001 cycles: 475911002 heartbeat IPC: 1.05214 cumulative IPC: 1.06014 (Simulation time: 0 hr 44 min 20 sec) 
Heartbeat CPU 0 instructions: 510000000 cycles: 476875716 heartbeat IPC: 1.03658 cumulative IPC: 1.05973 (Simulation time: 0 hr 44 min 25 sec) 
Heartbeat CPU 0 instructions: 511000000 cycles: 477846700 heartbeat IPC: 1.02988 cumulative IPC: 1.05923 (Simulation time: 0 hr 44 min 30 sec) 
Heartbeat CPU 0 instructions: 512000002 cycles: 478800069 heartbeat IPC: 1.04891 cumulative IPC: 1.05906 (Simulation time: 0 hr 44 min 36 sec) 
Heartbeat CPU 0 instructions: 513000001 cycles: 479759825 heartbeat IPC: 1.04193 cumulative IPC: 1.05879 (Simulation time: 0 hr 44 min 41 sec) 
Heartbeat CPU 0 instructions: 514000001 cycles: 480734607 heartbeat IPC: 1.02587 cumulative IPC: 1.05826 (Simulation time: 0 hr 44 min 46 sec) 
Heartbeat CPU 0 instructions: 515000002 cycles: 481733749 heartbeat IPC: 1.00086 cumulative IPC: 1.05732 (Simulation time: 0 hr 44 min 51 sec) 
Heartbeat CPU 0 instructions: 516000003 cycles: 482738719 heartbeat IPC: 0.995056 cumulative IPC: 1.05632 (Simulation time: 0 hr 44 min 56 sec) 
Heartbeat CPU 0 instructions: 517000000 cycles: 483749668 heartbeat IPC: 0.989167 cumulative IPC: 1.05525 (Simulation time: 0 hr 45 min 1 sec) 
Heartbeat CPU 0 instructions: 518000002 cycles: 484744359 heartbeat IPC: 1.00534 cumulative IPC: 1.05448 (Simulation time: 0 hr 45 min 7 sec) 
Heartbeat CPU 0 instructions: 519000001 cycles: 485700065 heartbeat IPC: 1.04635 cumulative IPC: 1.05436 (Simulation time: 0 hr 45 min 12 sec) 
Heartbeat CPU 0 instructions: 520000002 cycles: 486660124 heartbeat IPC: 1.0416 cumulative IPC: 1.05418 (Simulation time: 0 hr 45 min 17 sec) 
Heartbeat CPU 0 instructions: 521000002 cycles: 487634576 heartbeat IPC: 1.02622 cumulative IPC: 1.05377 (Simulation time: 0 hr 45 min 22 sec) 
Heartbeat CPU 0 instructions: 522000000 cycles: 488594132 heartbeat IPC: 1.04215 cumulative IPC: 1.05361 (Simulation time: 0 hr 45 min 28 sec) 
Heartbeat CPU 0 instructions: 523000000 cycles: 489532606 heartbeat IPC: 1.06556 cumulative IPC: 1.05377 (Simulation time: 0 hr 45 min 33 sec) 
Heartbeat CPU 0 instructions: 524000000 cycles: 490506968 heartbeat IPC: 1.02631 cumulative IPC: 1.05339 (Simulation time: 0 hr 45 min 38 sec) 
Heartbeat CPU 0 instructions: 525000000 cycles: 491532771 heartbeat IPC: 0.974846 cumulative IPC: 1.05226 (Simulation time: 0 hr 45 min 43 sec) 
Heartbeat CPU 0 instructions: 526000000 cycles: 492570882 heartbeat IPC: 0.963288 cumulative IPC: 1.05098 (Simulation time: 0 hr 45 min 48 sec) 
Heartbeat CPU 0 instructions: 527000003 cycles: 493671816 heartbeat IPC: 0.908322 cumulative IPC: 1.04885 (Simulation time: 0 hr 45 min 53 sec) 
Heartbeat CPU 0 instructions: 528000000 cycles: 494777109 heartbeat IPC: 0.904735 cumulative IPC: 1.04671 (Simulation time: 0 hr 45 min 58 sec) 
Heartbeat CPU 0 instructions: 529000002 cycles: 495883506 heartbeat IPC: 0.903836 cumulative IPC: 1.04462 (Simulation time: 0 hr 46 min 3 sec) 
Heartbeat CPU 0 instructions: 530000000 cycles: 496945534 heartbeat IPC: 0.941593 cumulative IPC: 1.04319 (Simulation time: 0 hr 46 min 8 sec) 
Heartbeat CPU 0 instructions: 531000000 cycles: 498051981 heartbeat IPC: 0.903794 cumulative IPC: 1.04121 (Simulation time: 0 hr 46 min 13 sec) 
Heartbeat CPU 0 instructions: 532000000 cycles: 499169981 heartbeat IPC: 0.894454 cumulative IPC: 1.03913 (Simulation time: 0 hr 46 min 19 sec) 
Heartbeat CPU 0 instructions: 533000000 cycles: 500263529 heartbeat IPC: 0.914455 cumulative IPC: 1.03743 (Simulation time: 0 hr 46 min 24 sec) 
Heartbeat CPU 0 instructions: 534000001 cycles: 501349262 heartbeat IPC: 0.921038 cumulative IPC: 1.03587 (Simulation time: 0 hr 46 min 29 sec) 
Heartbeat CPU 0 instructions: 535000002 cycles: 502478119 heartbeat IPC: 0.885853 cumulative IPC: 1.03381 (Simulation time: 0 hr 46 min 34 sec) 
Heartbeat CPU 0 instructions: 536000002 cycles: 503576460 heartbeat IPC: 0.910464 cumulative IPC: 1.03218 (Simulation time: 0 hr 46 min 39 sec) 
Heartbeat CPU 0 instructions: 537000003 cycles: 504641754 heartbeat IPC: 0.938709 cumulative IPC: 1.031 (Simulation time: 0 hr 46 min 44 sec) 
Heartbeat CPU 0 instructions: 538000003 cycles: 505777417 heartbeat IPC: 0.880543 cumulative IPC: 1.029 (Simulation time: 0 hr 46 min 49 sec) 
Heartbeat CPU 0 instructions: 539000000 cycles: 506856040 heartbeat IPC: 0.927105 cumulative IPC: 1.02773 (Simulation time: 0 hr 46 min 54 sec) 
Heartbeat CPU 0 instructions: 540000003 cycles: 507886222 heartbeat IPC: 0.970705 cumulative IPC: 1.02706 (Simulation time: 0 hr 46 min 59 sec) 
Heartbeat CPU 0 instructions: 541000000 cycles: 508975907 heartbeat IPC: 0.917694 cumulative IPC: 1.02572 (Simulation time: 0 hr 47 min 4 sec) 
Heartbeat CPU 0 instructions: 542000001 cycles: 510057980 heartbeat IPC: 0.924153 cumulative IPC: 1.0245 (Simulation time: 0 hr 47 min 9 sec) 
Heartbeat CPU 0 instructions: 543000000 cycles: 511137765 heartbeat IPC: 0.926109 cumulative IPC: 1.02333 (Simulation time: 0 hr 47 min 14 sec) 
Heartbeat CPU 0 instructions: 544000000 cycles: 512203607 heartbeat IPC: 0.938225 cumulative IPC: 1.02234 (Simulation time: 0 hr 47 min 19 sec) 
Heartbeat CPU 0 instructions: 545000001 cycles: 513233752 heartbeat IPC: 0.970738 cumulative IPC: 1.02177 (Simulation time: 0 hr 47 min 25 sec) 
Heartbeat CPU 0 instructions: 546000001 cycles: 514266547 heartbeat IPC: 0.968246 cumulative IPC: 1.02118 (Simulation time: 0 hr 47 min 30 sec) 
Heartbeat CPU 0 instructions: 547000001 cycles: 515292470 heartbeat IPC: 0.974732 cumulative IPC: 1.02068 (Simulation time: 0 hr 47 min 35 sec) 
Heartbeat CPU 0 instructions: 548000002 cycles: 516337662 heartbeat IPC: 0.956763 cumulative IPC: 1.01998 (Simulation time: 0 hr 47 min 40 sec) 
Heartbeat CPU 0 instructions: 549000003 cycles: 517374881 heartbeat IPC: 0.964118 cumulative IPC: 1.01939 (Simulation time: 0 hr 47 min 45 sec) 
Heartbeat CPU 0 instructions: 550000000 cycles: 518385566 heartbeat IPC: 0.989425 cumulative IPC: 1.01908 (Simulation time: 0 hr 47 min 50 sec) 
Heartbeat CPU 0 instructions: 551000001 cycles: 519431422 heartbeat IPC: 0.956156 cumulative IPC: 1.01842 (Simulation time: 0 hr 47 min 55 sec) 
Heartbeat CPU 0 instructions: 552000000 cycles: 520438643 heartbeat IPC: 0.99283 cumulative IPC: 1.01816 (Simulation time: 0 hr 48 min 0 sec) 
Heartbeat CPU 0 instructions: 553000002 cycles: 521470766 heartbeat IPC: 0.968879 cumulative IPC: 1.01766 (Simulation time: 0 hr 48 min 5 sec) 
[...]
Heartbeat CPU 0 instructions: 835000000 cycles: 810722466 heartbeat IPC: 0.906927 cumulative IPC: 0.986005 (Simulation time: 1 hr 12 min 15 sec) 
Heartbeat CPU 0 instructions: 836000000 cycles: 811831605 heartbeat IPC: 0.9016 cumulative IPC: 0.985766 (Simulation time: 1 hr 12 min 20 sec) 
Heartbeat CPU 0 instructions: 837000002 cycles: 812898601 heartbeat IPC: 0.937213 cumulative IPC: 0.985634 (Simulation time: 1 hr 12 min 25 sec) 
Heartbeat CPU 0 instructions: 838000001 cycles: 814049731 heartbeat IPC: 0.868711 cumulative IPC: 0.985292 (Simulation time: 1 hr 12 min 30 sec) 
Heartbeat CPU 0 instructions: 839000003 cycles: 815189948 heartbeat IPC: 0.877028 cumulative IPC: 0.984979 (Simulation time: 1 hr 12 min 35 sec) 
Heartbeat CPU 0 instructions: 840000002 cycles: 816327333 heartbeat IPC: 0.879209 cumulative IPC: 0.984675 (Simulation time: 1 hr 12 min 40 sec) 
Heartbeat CPU 0 instructions: 841000000 cycles: 817482231 heartbeat IPC: 0.865876 cumulative IPC: 0.98433 (Simulation time: 1 hr 12 min 45 sec) 
Heartbeat CPU 0 instructions: 842000000 cycles: 818577398 heartbeat IPC: 0.913103 cumulative IPC: 0.984134 (Simulation time: 1 hr 12 min 50 sec) 
Heartbeat CPU 0 instructions: 843000000 cycles: 819675331 heartbeat IPC: 0.910802 cumulative IPC: 0.983933 (Simulation time: 1 hr 12 min 55 sec) 
Heartbeat CPU 0 instructions: 844000002 cycles: 820768196 heartbeat IPC: 0.915028 cumulative IPC: 0.983745 (Simulation time: 1 hr 13 min 0 sec) 
Heartbeat CPU 0 instructions: 845000003 cycles: 821888549 heartbeat IPC: 0.892577 cumulative IPC: 0.98349 (Simulation time: 1 hr 13 min 6 sec) 
Heartbeat CPU 0 instructions: 846000002 cycles: 822945950 heartbeat IPC: 0.945714 cumulative IPC: 0.983391 (Simulation time: 1 hr 13 min 11 sec) 
Heartbeat CPU 0 instructions: 847000000 cycles: 824112641 heartbeat IPC: 0.857123 cumulative IPC: 0.983026 (Simulation time: 1 hr 13 min 16 sec) 
Heartbeat CPU 0 instructions: 848000003 cycles: 825203454 heartbeat IPC: 0.91675 cumulative IPC: 0.982848 (Simulation time: 1 hr 13 min 21 sec) 
Heartbeat CPU 0 instructions: 849000001 cycles: 826298721 heartbeat IPC: 0.913018 cumulative IPC: 0.982659 (Simulation time: 1 hr 13 min 26 sec) 
Heartbeat CPU 0 instructions: 850000001 cycles: 827385104 heartbeat IPC: 0.920486 cumulative IPC: 0.982494 (Simulation time: 1 hr 13 min 31 sec) 
Heartbeat CPU 0 instructions: 851000001 cycles: 828461815 heartbeat IPC: 0.928754 cumulative IPC: 0.982352 (Simulation time: 1 hr 13 min 36 sec) 
Heartbeat CPU 0 instructions: 852000002 cycles: 829575381 heartbeat IPC: 0.898017 cumulative IPC: 0.982122 (Simulation time: 1 hr 13 min 41 sec) 
Heartbeat CPU 0 instructions: 853000000 cycles: 830654397 heartbeat IPC: 0.926768 cumulative IPC: 0.981977 (Simulation time: 1 hr 13 min 46 sec) 
Heartbeat CPU 0 instructions: 854000003 cycles: 831706524 heartbeat IPC: 0.950458 cumulative IPC: 0.981896 (Simulation time: 1 hr 13 min 51 sec) 
Heartbeat CPU 0 instructions: 855000000 cycles: 832772910 heartbeat IPC: 0.937744 cumulative IPC: 0.981782 (Simulation time: 1 hr 13 min 56 sec) 
Heartbeat CPU 0 instructions: 856000003 cycles: 833899623 heartbeat IPC: 0.88754 cumulative IPC: 0.981525 (Simulation time: 1 hr 14 min 2 sec) 
Heartbeat CPU 0 instructions: 857000003 cycles: 835024744 heartbeat IPC: 0.888793 cumulative IPC: 0.981274 (Simulation time: 1 hr 14 min 7 sec) 
Heartbeat CPU 0 instructions: 858000000 cycles: 836113399 heartbeat IPC: 0.918562 cumulative IPC: 0.98111 (Simulation time: 1 hr 14 min 12 sec) 
Heartbeat CPU 0 instructions: 859000000 cycles: 837214064 heartbeat IPC: 0.908542 cumulative IPC: 0.980918 (Simulation time: 1 hr 14 min 17 sec) 
Heartbeat CPU 0 instructions: 860000000 cycles: 838299431 heartbeat IPC: 0.921347 cumulative IPC: 0.980763 (Simulation time: 1 hr 14 min 22 sec) 
Heartbeat CPU 0 instructions: 861000002 cycles: 839407025 heartbeat IPC: 0.90286 cumulative IPC: 0.980558 (Simulation time: 1 hr 14 min 27 sec) 
Heartbeat CPU 0 instructions: 862000001 cycles: 840498335 heartbeat IPC: 0.916329 cumulative IPC: 0.980391 (Simulation time: 1 hr 14 min 32 sec) 
Heartbeat CPU 0 instructions: 863000003 cycles: 841612715 heartbeat IPC: 0.897362 cumulative IPC: 0.980171 (Simulation time: 1 hr 14 min 37 sec) 
Heartbeat CPU 0 instructions: 864000003 cycles: 842711990 heartbeat IPC: 0.90969 cumulative IPC: 0.979988 (Simulation time: 1 hr 14 min 42 sec) 
Heartbeat CPU 0 instructions: 865000001 cycles: 843876383 heartbeat IPC: 0.858815 cumulative IPC: 0.979655 (Simulation time: 1 hr 14 min 48 sec) 
Heartbeat CPU 0 instructions: 866000001 cycles: 844995183 heartbeat IPC: 0.893815 cumulative IPC: 0.979429 (Simulation time: 1 hr 14 min 52 sec) 
Heartbeat CPU 0 instructions: 867000001 cycles: 846157438 heartbeat IPC: 0.860396 cumulative IPC: 0.979104 (Simulation time: 1 hr 14 min 57 sec) 
Heartbeat CPU 0 instructions: 868000001 cycles: 847268896 heartbeat IPC: 0.899719 cumulative IPC: 0.978897 (Simulation time: 1 hr 15 min 2 sec) 
Heartbeat CPU 0 instructions: 869000000 cycles: 848368545 heartbeat IPC: 0.90938 cumulative IPC: 0.978719 (Simulation time: 1 hr 15 min 8 sec) 
Heartbeat CPU 0 instructions: 870000002 cycles: 849462590 heartbeat IPC: 0.914041 cumulative IPC: 0.978554 (Simulation time: 1 hr 15 min 13 sec) 
Heartbeat CPU 0 instructions: 871000000 cycles: 850582859 heartbeat IPC: 0.892641 cumulative IPC: 0.97833 (Simulation time: 1 hr 15 min 18 sec) 
Heartbeat CPU 0 instructions: 872000000 cycles: 851658926 heartbeat IPC: 0.92931 cumulative IPC: 0.978208 (Simulation time: 1 hr 15 min 23 sec) 
Heartbeat CPU 0 instructions: 873000003 cycles: 852807164 heartbeat IPC: 0.870902 cumulative IPC: 0.977923 (Simulation time: 1 hr 15 min 28 sec) 
Heartbeat CPU 0 instructions: 874000000 cycles: 853927858 heartbeat IPC: 0.892302 cumulative IPC: 0.977702 (Simulation time: 1 hr 15 min 33 sec) 
Heartbeat CPU 0 instructions: 875000003 cycles: 855007229 heartbeat IPC: 0.926468 cumulative IPC: 0.977575 (Simulation time: 1 hr 15 min 38 sec) 
Heartbeat CPU 0 instructions: 876000000 cycles: 856105692 heartbeat IPC: 0.91036 cumulative IPC: 0.977405 (Simulation time: 1 hr 15 min 43 sec) 
Heartbeat CPU 0 instructions: 877000000 cycles: 857193578 heartbeat IPC: 0.919214 cumulative IPC: 0.97726 (Simulation time: 1 hr 15 min 49 sec) 
Heartbeat CPU 0 instructions: 878000000 cycles: 858315004 heartbeat IPC: 0.891722 cumulative IPC: 0.977041 (Simulation time: 1 hr 15 min 54 sec) 
Heartbeat CPU 0 instructions: 879000002 cycles: 859379109 heartbeat IPC: 0.939759 cumulative IPC: 0.976951 (Simulation time: 1 hr 15 min 59 sec) 
Heartbeat CPU 0 instructions: 880000000 cycles: 860384335 heartbeat IPC: 0.994799 cumulative IPC: 0.976992 (Simulation time: 1 hr 16 min 4 sec) 
Heartbeat CPU 0 instructions: 881000000 cycles: 861372832 heartbeat IPC: 1.01164 cumulative IPC: 0.977069 (Simulation time: 1 hr 16 min 9 sec) 
Heartbeat CPU 0 instructions: 882000000 cycles: 862398205 heartbeat IPC: 0.975255 cumulative IPC: 0.977065 (Simulation time: 1 hr 16 min 14 sec) 
Heartbeat CPU 0 instructions: 883000002 cycles: 863431235 heartbeat IPC: 0.968028 cumulative IPC: 0.977044 (Simulation time: 1 hr 16 min 19 sec) 
Heartbeat CPU 0 instructions: 884000000 cycles: 864449650 heartbeat IPC: 0.981916 cumulative IPC: 0.977055 (Simulation time: 1 hr 16 min 24 sec) 
Heartbeat CPU 0 instructions: 885000001 cycles: 865424921 heartbeat IPC: 1.02536 cumulative IPC: 0.977161 (Simulation time: 1 hr 16 min 29 sec) 
Heartbeat CPU 0 instructions: 886000001 cycles: 866448269 heartbeat IPC: 0.977185 cumulative IPC: 0.977161 (Simulation time: 1 hr 16 min 35 sec) 
Heartbeat CPU 0 instructions: 887000003 cycles: 867396955 heartbeat IPC: 1.05409 cumulative IPC: 0.977324 (Simulation time: 1 hr 16 min 40 sec) 
Heartbeat CPU 0 instructions: 888000003 cycles: 868352028 heartbeat IPC: 1.04704 cumulative IPC: 0.977473 (Simulation time: 1 hr 16 min 45 sec) 
Heartbeat CPU 0 instructions: 889000002 cycles: 869281089 heartbeat IPC: 1.07635 cumulative IPC: 0.977677 (Simulation time: 1 hr 16 min 50 sec) 
Heartbeat CPU 0 instructions: 890000003 cycles: 870223415 heartbeat IPC: 1.0612 cumulative IPC: 0.977852 (Simulation time: 1 hr 16 min 55 sec) 
Heartbeat CPU 0 instructions: 891000000 cycles: 871163772 heartbeat IPC: 1.06342 cumulative IPC: 0.978031 (Simulation time: 1 hr 17 min 1 sec) 
Heartbeat CPU 0 instructions: 892000001 cycles: 872068952 heartbeat IPC: 1.10475 cumulative IPC: 0.978285 (Simulation time: 1 hr 17 min 6 sec) 
Heartbeat CPU 0 instructions: 893000000 cycles: 873023692 heartbeat IPC: 1.0474 cumulative IPC: 0.978431 (Simulation time: 1 hr 17 min 11 sec) 
Heartbeat CPU 0 instructions: 894000002 cycles: 873944203 heartbeat IPC: 1.08636 cumulative IPC: 0.978649 (Simulation time: 1 hr 17 min 16 sec) 
Heartbeat CPU 0 instructions: 895000002 cycles: 874791509 heartbeat IPC: 1.18021 cumulative IPC: 0.979025 (Simulation time: 1 hr 17 min 22 sec) 
Heartbeat CPU 0 instructions: 896000003 cycles: 875681724 heartbeat IPC: 1.12333 cumulative IPC: 0.979307 (Simulation time: 1 hr 17 min 27 sec) 
Heartbeat CPU 0 instructions: 897000001 cycles: 876584648 heartbeat IPC: 1.10751 cumulative IPC: 0.979561 (Simulation time: 1 hr 17 min 33 sec) 
Heartbeat CPU 0 instructions: 898000000 cycles: 877522422 heartbeat IPC: 1.06635 cumulative IPC: 0.979739 (Simulation time: 1 hr 17 min 38 sec) 
Heartbeat CPU 0 instructions: 899000001 cycles: 878439065 heartbeat IPC: 1.09094 cumulative IPC: 0.979961 (Simulation time: 1 hr 17 min 43 sec) 
Heartbeat CPU 0 instructions: 900000001 cycles: 879338963 heartbeat IPC: 1.11124 cumulative IPC: 0.980219 (Simulation time: 1 hr 17 min 48 sec) 
Heartbeat CPU 0 instructions: 901000002 cycles: 880270759 heartbeat IPC: 1.0732 cumulative IPC: 0.980407 (Simulation time: 1 hr 17 min 53 sec) 
Heartbeat CPU 0 instructions: 902000000 cycles: 881208640 heartbeat IPC: 1.06623 cumulative IPC: 0.980582 (Simulation time: 1 hr 17 min 59 sec) 
Heartbeat CPU 0 instructions: 903000000 cycles: 882138664 heartbeat IPC: 1.07524 cumulative IPC: 0.980772 (Simulation time: 1 hr 18 min 4 sec) 
Heartbeat CPU 0 instructions: 904000003 cycles: 883053592 heartbeat IPC: 1.09299 cumulative IPC: 0.980994 (Simulation time: 1 hr 18 min 9 sec) 
Heartbeat CPU 0 instructions: 905000001 cycles: 884014401 heartbeat IPC: 1.04079 cumulative IPC: 0.981118 (Simulation time: 1 hr 18 min 15 sec) 
Heartbeat CPU 0 instructions: 906000002 cycles: 884909781 heartbeat IPC: 1.11685 cumulative IPC: 0.98138 (Simulation time: 1 hr 18 min 20 sec) 
Heartbeat CPU 0 instructions: 907000002 cycles: 885838115 heartbeat IPC: 1.0772 cumulative IPC: 0.981571 (Simulation time: 1 hr 18 min 25 sec) 
Heartbeat CPU 0 instructions: 908000003 cycles: 886709305 heartbeat IPC: 1.14786 cumulative IPC: 0.981881 (Simulation time: 1 hr 18 min 31 sec) 
Heartbeat CPU 0 instructions: 909000002 cycles: 887599370 heartbeat IPC: 1.12351 cumulative IPC: 0.982151 (Simulation time: 1 hr 18 min 36 sec) 
Heartbeat CPU 0 instructions: 910000001 cycles: 888516570 heartbeat IPC: 1.09027 cumulative IPC: 0.982363 (Simulation time: 1 hr 18 min 41 sec) 
Heartbeat CPU 0 instructions: 911000002 cycles: 889478034 heartbeat IPC: 1.04008 cumulative IPC: 0.982481 (Simulation time: 1 hr 18 min 47 sec) 
Heartbeat CPU 0 instructions: 912000000 cycles: 890380372 heartbeat IPC: 1.10823 cumulative IPC: 0.982722 (Simulation time: 1 hr 18 min 52 sec) 
Heartbeat CPU 0 instructions: 913000000 cycles: 891268983 heartbeat IPC: 1.12535 cumulative IPC: 0.982991 (Simulation time: 1 hr 18 min 57 sec) 
Heartbeat CPU 0 instructions: 914000001 cycles: 892147714 heartbeat IPC: 1.13801 cumulative IPC: 0.98328 (Simulation time: 1 hr 19 min 2 sec) 
Heartbeat CPU 0 instructions: 915000000 cycles: 893069505 heartbeat IPC: 1.08484 cumulative IPC: 0.983478 (Simulation time: 1 hr 19 min 8 sec) 
Heartbeat CPU 0 instructions: 916000003 cycles: 893983596 heartbeat IPC: 1.09399 cumulative IPC: 0.983691 (Simulation time: 1 hr 19 min 13 sec) 
Heartbeat CPU 0 instructions: 917000001 cycles: 894910535 heartbeat IPC: 1.07882 cumulative IPC: 0.983877 (Simulation time: 1 hr 19 min 18 sec) 
Heartbeat CPU 0 instructions: 918000001 cycles: 895792256 heartbeat IPC: 1.13415 cumulative IPC: 0.984156 (Simulation time: 1 hr 19 min 24 sec) 
Heartbeat CPU 0 instructions: 919000000 cycles: 896690886 heartbeat IPC: 1.1128 cumulative IPC: 0.984398 (Simulation time: 1 hr 19 min 29 sec) 
Heartbeat CPU 0 instructions: 920000003 cycles: 897590427 heartbeat IPC: 1.11168 cumulative IPC: 0.984638 (Simulation time: 1 hr 19 min 34 sec) 
Heartbeat CPU 0 instructions: 921000003 cycles: 898494584 heartbeat IPC: 1.106 cumulative IPC: 0.984868 (Simulation time: 1 hr 19 min 40 sec) 
Heartbeat CPU 0 instructions: 922000000 cycles: 899418641 heartbeat IPC: 1.08218 cumulative IPC: 0.985055 (Simulation time: 1 hr 19 min 45 sec) 
Heartbeat CPU 0 instructions: 923000000 cycles: 900394438 heartbeat IPC: 1.0248 cumulative IPC: 0.985136 (Simulation time: 1 hr 19 min 50 sec) 
Heartbeat CPU 0 instructions: 924000000 cycles: 901372253 heartbeat IPC: 1.02269 cumulative IPC: 0.985212 (Simulation time: 1 hr 19 min 56 sec) 
Heartbeat CPU 0 instructions: 925000003 cycles: 902368984 heartbeat IPC: 1.00328 cumulative IPC: 0.98525 (Simulation time: 1 hr 20 min 1 sec) 
Heartbeat CPU 0 instructions: 926000001 cycles: 903361944 heartbeat IPC: 1.00709 cumulative IPC: 0.985295 (Simulation time: 1 hr 20 min 6 sec) 
Heartbeat CPU 0 instructions: 927000000 cycles: 904370411 heartbeat IPC: 0.991603 cumulative IPC: 0.985308 (Simulation time: 1 hr 20 min 12 sec) 
Heartbeat CPU 0 instructions: 928000001 cycles: 905380239 heartbeat IPC: 0.990269 cumulative IPC: 0.985318 (Simulation time: 1 hr 20 min 17 sec) 
Heartbeat CPU 0 instructions: 929000000 cycles: 906376187 heartbeat IPC: 1.00407 cumulative IPC: 0.985357 (Simulation time: 1 hr 20 min 22 sec) 
Heartbeat CPU 0 instructions: 930000001 cycles: 907433970 heartbeat IPC: 0.945374 cumulative IPC: 0.98527 (Simulation time: 1 hr 20 min 27 sec) 
Heartbeat CPU 0 instructions: 931000001 cycles: 908487172 heartbeat IPC: 0.949485 cumulative IPC: 0.985193 (Simulation time: 1 hr 20 min 32 sec) 
Heartbeat CPU 0 instructions: 932000000 cycles: 909517502 heartbeat IPC: 0.970562 cumulative IPC: 0.985162 (Simulation time: 1 hr 20 min 37 sec) 
Heartbeat CPU 0 instructions: 933000002 cycles: 910561718 heartbeat IPC: 0.957658 cumulative IPC: 0.985103 (Simulation time: 1 hr 20 min 43 sec) 
Heartbeat CPU 0 instructions: 934000002 cycles: 911599268 heartbeat IPC: 0.963809 cumulative IPC: 0.985058 (Simulation time: 1 hr 20 min 48 sec) 
Heartbeat CPU 0 instructions: 935000000 cycles: 912643341 heartbeat IPC: 0.957786 cumulative IPC: 0.985 (Simulation time: 1 hr 20 min 53 sec) 
Heartbeat CPU 0 instructions: 936000000 cycles: 913684960 heartbeat IPC: 0.960044 cumulative IPC: 0.984948 (Simulation time: 1 hr 20 min 58 sec) 
Heartbeat CPU 0 instructions: 937000000 cycles: 914706005 heartbeat IPC: 0.979389 cumulative IPC: 0.984936 (Simulation time: 1 hr 21 min 3 sec) 
Heartbeat CPU 0 instructions: 938000000 cycles: 915755404 heartbeat IPC: 0.952926 cumulative IPC: 0.984868 (Simulation time: 1 hr 21 min 9 sec) 
Heartbeat CPU 0 instructions: 939000000 cycles: 916747249 heartbeat IPC: 1.00822 cumulative IPC: 0.984915 (Simulation time: 1 hr 21 min 14 sec) 
Heartbeat CPU 0 instructions: 940000001 cycles: 917788801 heartbeat IPC: 0.960107 cumulative IPC: 0.984863 (Simulation time: 1 hr 21 min 19 sec) 
Heartbeat CPU 0 instructions: 941000000 cycles: 918828978 heartbeat IPC: 0.961374 cumulative IPC: 0.984814 (Simulation time: 1 hr 21 min 24 sec) 
Heartbeat CPU 0 instructions: 942000001 cycles: 919837836 heartbeat IPC: 0.991221 cumulative IPC: 0.984827 (Simulation time: 1 hr 21 min 29 sec) 
Heartbeat CPU 0 instructions: 943000002 cycles: 920881176 heartbeat IPC: 0.958461 cumulative IPC: 0.984772 (Simulation time: 1 hr 21 min 34 sec) 
Heartbeat CPU 0 instructions: 944000002 cycles: 921942100 heartbeat IPC: 0.942575 cumulative IPC: 0.984683 (Simulation time: 1 hr 21 min 39 sec) 
Heartbeat CPU 0 instructions: 945000001 cycles: 922997203 heartbeat IPC: 0.947774 cumulative IPC: 0.984605 (Simulation time: 1 hr 21 min 44 sec) 
Heartbeat CPU 0 instructions: 946000000 cycles: 924035690 heartbeat IPC: 0.962938 cumulative IPC: 0.984561 (Simulation time: 1 hr 21 min 50 sec) 
Heartbeat CPU 0 instructions: 947000001 cycles: 925116719 heartbeat IPC: 0.925045 cumulative IPC: 0.984433 (Simulation time: 1 hr 21 min 55 sec) 
Heartbeat CPU 0 instructions: 948000000 cycles: 926279873 heartbeat IPC: 0.859731 cumulative IPC: 0.984147 (Simulation time: 1 hr 22 min 0 sec) 
Heartbeat CPU 0 instructions: 949000003 cycles: 927350980 heartbeat IPC: 0.933616 cumulative IPC: 0.98404 (Simulation time: 1 hr 22 min 5 sec) 
Heartbeat CPU 0 instructions: 950000002 cycles: 928450629 heartbeat IPC: 0.90938 cumulative IPC: 0.983878 (Simulation time: 1 hr 22 min 10 sec) 
Finished CPU 0 instructions: 500000001 cycles: 508192876 cumulative IPC: 0.983878 (Simulation time: 1 hr 22 min 10 sec) 

ChampSim completed all CPUs

Region of Interest Statistics

CPU 0 cumulative IPC: 0.983878 instructions: 500000001 cycles: 508192876
L1D TOTAL     ACCESS:  141339947  HIT:  138164287  MISS:    3175660
L1D LOAD      ACCESS:   89816059  HIT:   86944025  MISS:    2872034
L1D RFO       ACCESS:   51523888  HIT:   51220262  MISS:     303626
L1D PREFETCH  ACCESS:          0  HIT:          0  MISS:          0
L1D WRITEBACK ACCESS:          0  HIT:          0  MISS:          0
L1D PREFETCH  REQUESTED:          0  ISSUED:          0  USEFUL:          0  USELESS:          0
L1D AVERAGE MISS LATENCY: 75.5899 cycles
L1I TOTAL     ACCESS:   89372114  HIT:   89372114  MISS:          0
L1I LOAD      ACCESS:   89372114  HIT:   89372114  MISS:          0
L1I RFO       ACCESS:          0  HIT:          0  MISS:          0
L1I PREFETCH  ACCESS:          0  HIT:          0  MISS:          0
L1I WRITEBACK ACCESS:          0  HIT:          0  MISS:          0
L1I PREFETCH  REQUESTED:          0  ISSUED:          0  USEFUL:          0  USELESS:          0
L1I AVERAGE MISS LATENCY: -nan cycles
L2C TOTAL     ACCESS:    4365414  HIT:    2914026  MISS:    1451388
L2C LOAD      ACCESS:    2871854  HIT:    1565383  MISS:    1306471
L2C RFO       ACCESS:     303620  HIT:     158747  MISS:     144873
L2C PREFETCH  ACCESS:          0  HIT:          0  MISS:          0
L2C WRITEBACK ACCESS:    1189940  HIT:    1189896  MISS:         44
L2C PREFETCH  REQUESTED:          0  ISSUED:          0  USEFUL:          0  USELESS:          0
L2C AVERAGE MISS LATENCY: 130.569 cycles
LLC TOTAL     ACCESS:    3589075  HIT:    2127648  MISS:    1461427
LLC LOAD      ACCESS:    1306465  HIT:     765749  MISS:     540716
LLC RFO       ACCESS:     144873  HIT:       1003  MISS:     143870
LLC PREFETCH  ACCESS:    1216354  HIT:     439590  MISS:     776764
LLC WRITEBACK ACCESS:     921383  HIT:     921306  MISS:         77
LLC PREFETCH  REQUESTED:    1242661  ISSUED:    1242661  USEFUL:     691980  USELESS:      81999
LLC AVERAGE MISS LATENCY: 209.934 cycles
Major fault: 0 Minor fault: 5760
performance stats:
mapping cache size: 217272
divergence: 1031390

DRAM Statistics
 CHANNEL 0
 RQ ROW_BUFFER_HIT:     261580  ROW_BUFFER_MISS:     477214
 DBUS_CONGESTED:     453496
 WQ ROW_BUFFER_HIT:      86591  ROW_BUFFER_MISS:     375468  FULL:          0

 CHANNEL 1
 RQ ROW_BUFFER_HIT:     255735  ROW_BUFFER_MISS:     466820
 DBUS_CONGESTED:     453496
 WQ ROW_BUFFER_HIT:      83031  ROW_BUFFER_MISS:     366001  FULL:          0

 AVG_CONGESTED_CYCLE: 13

CPU 0 Branch Prediction Accuracy: 98.4155% MPKI: 2.31243 Average ROB Occupancy at Mispredict: 117.651

Branch types
NOT_BRANCH: 427030975 85.4062%
BRANCH_DIRECT_JUMP: 3179709 0.635942%
BRANCH_INDIRECT: 0 0%
BRANCH_CONDITIONAL: 61339577 12.2679%
BRANCH_DIRECT_CALL: 4224864 0.844973%
BRANCH_INDIRECT_CALL: 0 0%
BRANCH_RETURN: 4224865 0.844973%
BRANCH_OTHER: 0 0%


gzip: stdout: Broken pipe
