
*** ChampSim Multicore Out-of-Order Simulator ***

Warmup Instructions: 1000000
Prefetch Warmup Instructions: 450000000
Simulation Instructions: 500000000
Stat Printing Period: 1000000
Number of CPUs: 1
LLC sets: 2048
LLC ways: 16
Off-chip DRAM Size: 32768 MB Channels: 2 Width: 64-bit Data Rate: 1024 MT/s

CPU 0 runs /scratch/cluster/cmolder/ML-DPC/ChampSimTraces/spec17/602.gcc-s1.trace.xz
Read seed: 270
Heartbeat CPU 0 instructions: 1000000 cycles: 486568 heartbeat IPC: 2.05521 cumulative IPC: 2.05521 (Simulation time: 0 hr 0 min 3 sec) 

Warmup complete CPU 0 instructions: 1000004 cycles: 486569 (Simulation time: 0 hr 0 min 3 sec) 

Heartbeat CPU 0 instructions: 2000003 cycles: 11427874 heartbeat IPC: 0.091397 cumulative IPC: 0.0913967 (Simulation time: 0 hr 0 min 11 sec) 
Heartbeat CPU 0 instructions: 3000002 cycles: 22419354 heartbeat IPC: 0.0909795 cumulative IPC: 0.0911876 (Simulation time: 0 hr 0 min 18 sec) 
Heartbeat CPU 0 instructions: 4000000 cycles: 33413295 heartbeat IPC: 0.090959 cumulative IPC: 0.0911113 (Simulation time: 0 hr 0 min 26 sec) 
Heartbeat CPU 0 instructions: 5000002 cycles: 44345557 heartbeat IPC: 0.0914726 cumulative IPC: 0.0912013 (Simulation time: 0 hr 0 min 34 sec) 
Heartbeat CPU 0 instructions: 6000000 cycles: 54407931 heartbeat IPC: 0.0993799 cumulative IPC: 0.0927276 (Simulation time: 0 hr 0 min 42 sec) 
Heartbeat CPU 0 instructions: 7000001 cycles: 65334849 heartbeat IPC: 0.0915172 cumulative IPC: 0.0925236 (Simulation time: 0 hr 0 min 50 sec) 
Heartbeat CPU 0 instructions: 8000000 cycles: 76291326 heartbeat IPC: 0.0912701 cumulative IPC: 0.0923424 (Simulation time: 0 hr 0 min 57 sec) 
Heartbeat CPU 0 instructions: 9000000 cycles: 87245534 heartbeat IPC: 0.0912891 cumulative IPC: 0.0922094 (Simulation time: 0 hr 1 min 5 sec) 
Heartbeat CPU 0 instructions: 10000002 cycles: 98196399 heartbeat IPC: 0.0913172 cumulative IPC: 0.0921094 (Simulation time: 0 hr 1 min 13 sec) 
Heartbeat CPU 0 instructions: 11000000 cycles: 109203893 heartbeat IPC: 0.090847 cumulative IPC: 0.0919816 (Simulation time: 0 hr 1 min 21 sec) 
Heartbeat CPU 0 instructions: 12000001 cycles: 120185258 heartbeat IPC: 0.0910635 cumulative IPC: 0.0918974 (Simulation time: 0 hr 1 min 29 sec) 
Heartbeat CPU 0 instructions: 13000002 cycles: 131136542 heartbeat IPC: 0.0913136 cumulative IPC: 0.0918485 (Simulation time: 0 hr 1 min 37 sec) 
Heartbeat CPU 0 instructions: 14000001 cycles: 142132941 heartbeat IPC: 0.0909388 cumulative IPC: 0.0917778 (Simulation time: 0 hr 1 min 45 sec) 
Heartbeat CPU 0 instructions: 15000000 cycles: 153079571 heartbeat IPC: 0.0913522 cumulative IPC: 0.0917473 (Simulation time: 0 hr 1 min 53 sec) 
Heartbeat CPU 0 instructions: 16000001 cycles: 164061931 heartbeat IPC: 0.0910552 cumulative IPC: 0.0917008 (Simulation time: 0 hr 2 min 1 sec) 
Heartbeat CPU 0 instructions: 17000001 cycles: 175041956 heartbeat IPC: 0.0910745 cumulative IPC: 0.0916614 (Simulation time: 0 hr 2 min 9 sec) 
Heartbeat CPU 0 instructions: 18000000 cycles: 186006568 heartbeat IPC: 0.0912024 cumulative IPC: 0.0916343 (Simulation time: 0 hr 2 min 17 sec) 
Heartbeat CPU 0 instructions: 19000001 cycles: 197043710 heartbeat IPC: 0.0906033 cumulative IPC: 0.0915764 (Simulation time: 0 hr 2 min 25 sec) 
Heartbeat CPU 0 instructions: 20000000 cycles: 208000856 heartbeat IPC: 0.0912646 cumulative IPC: 0.0915599 (Simulation time: 0 hr 2 min 33 sec) 
Heartbeat CPU 0 instructions: 21000002 cycles: 218943251 heartbeat IPC: 0.0913879 cumulative IPC: 0.0915513 (Simulation time: 0 hr 2 min 41 sec) 
Heartbeat CPU 0 instructions: 22000000 cycles: 229950785 heartbeat IPC: 0.0908467 cumulative IPC: 0.0915175 (Simulation time: 0 hr 2 min 49 sec) 
Heartbeat CPU 0 instructions: 23000001 cycles: 240914396 heartbeat IPC: 0.0912109 cumulative IPC: 0.0915035 (Simulation time: 0 hr 2 min 57 sec) 
Heartbeat CPU 0 instructions: 24000003 cycles: 251874379 heartbeat IPC: 0.0912412 cumulative IPC: 0.0914921 (Simulation time: 0 hr 3 min 5 sec) 
Heartbeat CPU 0 instructions: 25000000 cycles: 262803300 heartbeat IPC: 0.0915001 cumulative IPC: 0.0914924 (Simulation time: 0 hr 3 min 13 sec) 
Heartbeat CPU 0 instructions: 26000000 cycles: 273773291 heartbeat IPC: 0.0911578 cumulative IPC: 0.091479 (Simulation time: 0 hr 3 min 21 sec) 
Heartbeat CPU 0 instructions: 27000000 cycles: 284722308 heartbeat IPC: 0.0913324 cumulative IPC: 0.0914734 (Simulation time: 0 hr 3 min 29 sec) 
Heartbeat CPU 0 instructions: 28000000 cycles: 295661380 heartbeat IPC: 0.0914154 cumulative IPC: 0.0914712 (Simulation time: 0 hr 3 min 37 sec) 
Heartbeat CPU 0 instructions: 29000000 cycles: 306609270 heartbeat IPC: 0.0913418 cumulative IPC: 0.0914666 (Simulation time: 0 hr 3 min 45 sec) 
Heartbeat CPU 0 instructions: 30000001 cycles: 317586590 heartbeat IPC: 0.091097 cumulative IPC: 0.0914538 (Simulation time: 0 hr 3 min 53 sec) 
Heartbeat CPU 0 instructions: 31000001 cycles: 328578302 heartbeat IPC: 0.0909776 cumulative IPC: 0.0914378 (Simulation time: 0 hr 4 min 1 sec) 
Heartbeat CPU 0 instructions: 32000001 cycles: 339537443 heartbeat IPC: 0.091248 cumulative IPC: 0.0914317 (Simulation time: 0 hr 4 min 9 sec) 
Heartbeat CPU 0 instructions: 33000000 cycles: 350495358 heartbeat IPC: 0.0912581 cumulative IPC: 0.0914263 (Simulation time: 0 hr 4 min 17 sec) 
Heartbeat CPU 0 instructions: 34000003 cycles: 361428769 heartbeat IPC: 0.091463 cumulative IPC: 0.0914274 (Simulation time: 0 hr 4 min 25 sec) 
Heartbeat CPU 0 instructions: 35000000 cycles: 372430621 heartbeat IPC: 0.0908935 cumulative IPC: 0.0914116 (Simulation time: 0 hr 4 min 33 sec) 
Heartbeat CPU 0 instructions: 36000003 cycles: 383414750 heartbeat IPC: 0.0910407 cumulative IPC: 0.091401 (Simulation time: 0 hr 4 min 41 sec) 
Heartbeat CPU 0 instructions: 37000003 cycles: 394388928 heartbeat IPC: 0.091123 cumulative IPC: 0.0913932 (Simulation time: 0 hr 4 min 50 sec) 
Heartbeat CPU 0 instructions: 38000000 cycles: 405324703 heartbeat IPC: 0.0914427 cumulative IPC: 0.0913945 (Simulation time: 0 hr 4 min 58 sec) 
Heartbeat CPU 0 instructions: 39000000 cycles: 416280935 heartbeat IPC: 0.0912723 cumulative IPC: 0.0913913 (Simulation time: 0 hr 5 min 6 sec) 
Heartbeat CPU 0 instructions: 40000002 cycles: 427260768 heartbeat IPC: 0.0910762 cumulative IPC: 0.0913832 (Simulation time: 0 hr 5 min 14 sec) 
Heartbeat CPU 0 instructions: 41000000 cycles: 438239187 heartbeat IPC: 0.0910876 cumulative IPC: 0.0913758 (Simulation time: 0 hr 5 min 22 sec) 
Heartbeat CPU 0 instructions: 42000002 cycles: 448307915 heartbeat IPC: 0.0993176 cumulative IPC: 0.0915544 (Simulation time: 0 hr 5 min 31 sec) 
Heartbeat CPU 0 instructions: 43000000 cycles: 459235411 heartbeat IPC: 0.0915121 cumulative IPC: 0.0915534 (Simulation time: 0 hr 5 min 47 sec) 
Heartbeat CPU 0 instructions: 44000000 cycles: 470184351 heartbeat IPC: 0.091333 cumulative IPC: 0.0915482 (Simulation time: 0 hr 6 min 6 sec) 
Heartbeat CPU 0 instructions: 45000000 cycles: 481149017 heartbeat IPC: 0.0912021 cumulative IPC: 0.0915403 (Simulation time: 0 hr 6 min 24 sec) 
Heartbeat CPU 0 instructions: 46000003 cycles: 492065709 heartbeat IPC: 0.0916031 cumulative IPC: 0.0915417 (Simulation time: 0 hr 6 min 42 sec) 
Heartbeat CPU 0 instructions: 47000001 cycles: 503070953 heartbeat IPC: 0.0908656 cumulative IPC: 0.0915269 (Simulation time: 0 hr 7 min 1 sec) 
Heartbeat CPU 0 instructions: 48000000 cycles: 514044548 heartbeat IPC: 0.0911277 cumulative IPC: 0.0915184 (Simulation time: 0 hr 7 min 20 sec) 
Heartbeat CPU 0 instructions: 49000003 cycles: 525018567 heartbeat IPC: 0.0911246 cumulative IPC: 0.0915101 (Simulation time: 0 hr 7 min 38 sec) 
Heartbeat CPU 0 instructions: 50000000 cycles: 536007878 heartbeat IPC: 0.0909972 cumulative IPC: 0.0914996 (Simulation time: 0 hr 7 min 56 sec) 
Heartbeat CPU 0 instructions: 51000002 cycles: 546948264 heartbeat IPC: 0.0914046 cumulative IPC: 0.0914977 (Simulation time: 0 hr 8 min 13 sec) 
Heartbeat CPU 0 instructions: 52000000 cycles: 557911760 heartbeat IPC: 0.0912116 cumulative IPC: 0.0914921 (Simulation time: 0 hr 8 min 30 sec) 
Heartbeat CPU 0 instructions: 53000003 cycles: 568926689 heartbeat IPC: 0.0907862 cumulative IPC: 0.0914784 (Simulation time: 0 hr 8 min 48 sec) 
Heartbeat CPU 0 instructions: 54000000 cycles: 579887179 heartbeat IPC: 0.0912365 cumulative IPC: 0.0914738 (Simulation time: 0 hr 9 min 6 sec) 
Heartbeat CPU 0 instructions: 55000000 cycles: 590894745 heartbeat IPC: 0.0908466 cumulative IPC: 0.0914621 (Simulation time: 0 hr 9 min 24 sec) 
Heartbeat CPU 0 instructions: 56000002 cycles: 601904498 heartbeat IPC: 0.0908287 cumulative IPC: 0.0914505 (Simulation time: 0 hr 9 min 43 sec) 
Heartbeat CPU 0 instructions: 57000001 cycles: 612840514 heartbeat IPC: 0.0914409 cumulative IPC: 0.0914504 (Simulation time: 0 hr 10 min 1 sec) 
Heartbeat CPU 0 instructions: 58000000 cycles: 623822626 heartbeat IPC: 0.0910571 cumulative IPC: 0.0914434 (Simulation time: 0 hr 10 min 19 sec) 
Heartbeat CPU 0 instructions: 59000002 cycles: 634793394 heartbeat IPC: 0.0911515 cumulative IPC: 0.0914384 (Simulation time: 0 hr 10 min 38 sec) 
Heartbeat CPU 0 instructions: 60000002 cycles: 645754227 heartbeat IPC: 0.0912339 cumulative IPC: 0.0914349 (Simulation time: 0 hr 10 min 56 sec) 
Heartbeat CPU 0 instructions: 61000002 cycles: 656692206 heartbeat IPC: 0.0914246 cumulative IPC: 0.0914347 (Simulation time: 0 hr 11 min 14 sec) 
Heartbeat CPU 0 instructions: 62000002 cycles: 667643992 heartbeat IPC: 0.0913093 cumulative IPC: 0.0914327 (Simulation time: 0 hr 11 min 32 sec) 
Heartbeat CPU 0 instructions: 63000001 cycles: 678608503 heartbeat IPC: 0.0912032 cumulative IPC: 0.091429 (Simulation time: 0 hr 11 min 50 sec) 
Heartbeat CPU 0 instructions: 64000000 cycles: 689550710 heartbeat IPC: 0.0913891 cumulative IPC: 0.0914283 (Simulation time: 0 hr 12 min 8 sec) 
Heartbeat CPU 0 instructions: 65000000 cycles: 700503090 heartbeat IPC: 0.0913044 cumulative IPC: 0.0914264 (Simulation time: 0 hr 12 min 27 sec) 
Heartbeat CPU 0 instructions: 66000000 cycles: 711465595 heartbeat IPC: 0.09122 cumulative IPC: 0.0914232 (Simulation time: 0 hr 12 min 45 sec) 
Heartbeat CPU 0 instructions: 67000000 cycles: 722467802 heartbeat IPC: 0.0908909 cumulative IPC: 0.0914151 (Simulation time: 0 hr 13 min 4 sec) 
Heartbeat CPU 0 instructions: 68000000 cycles: 733423444 heartbeat IPC: 0.0912772 cumulative IPC: 0.0914131 (Simulation time: 0 hr 13 min 22 sec) 
Heartbeat CPU 0 instructions: 69000001 cycles: 744395469 heartbeat IPC: 0.091141 cumulative IPC: 0.091409 (Simulation time: 0 hr 13 min 40 sec) 
Heartbeat CPU 0 instructions: 70000000 cycles: 755331322 heartbeat IPC: 0.0914422 cumulative IPC: 0.0914095 (Simulation time: 0 hr 13 min 58 sec) 
Heartbeat CPU 0 instructions: 71000000 cycles: 766310961 heartbeat IPC: 0.0910777 cumulative IPC: 0.0914048 (Simulation time: 0 hr 14 min 17 sec) 
Heartbeat CPU 0 instructions: 72000000 cycles: 777290829 heartbeat IPC: 0.0910758 cumulative IPC: 0.0914001 (Simulation time: 0 hr 14 min 35 sec) 
Heartbeat CPU 0 instructions: 73000003 cycles: 788273799 heartbeat IPC: 0.0910503 cumulative IPC: 0.0913952 (Simulation time: 0 hr 14 min 54 sec) 
Heartbeat CPU 0 instructions: 74000000 cycles: 799221425 heartbeat IPC: 0.0913437 cumulative IPC: 0.0913945 (Simulation time: 0 hr 15 min 12 sec) 
Heartbeat CPU 0 instructions: 75000000 cycles: 810157951 heartbeat IPC: 0.0914367 cumulative IPC: 0.0913951 (Simulation time: 0 hr 15 min 30 sec) 
Heartbeat CPU 0 instructions: 76000001 cycles: 821136040 heartbeat IPC: 0.0910906 cumulative IPC: 0.091391 (Simulation time: 0 hr 15 min 48 sec) 
Heartbeat CPU 0 instructions: 77000000 cycles: 832127192 heartbeat IPC: 0.0909822 cumulative IPC: 0.0913856 (Simulation time: 0 hr 16 min 6 sec) 
Heartbeat CPU 0 instructions: 78000001 cycles: 843067122 heartbeat IPC: 0.0914084 cumulative IPC: 0.0913859 (Simulation time: 0 hr 16 min 24 sec) 
Heartbeat CPU 0 instructions: 79000003 cycles: 853122990 heartbeat IPC: 0.0994446 cumulative IPC: 0.091481 (Simulation time: 0 hr 16 min 41 sec) 
Heartbeat CPU 0 instructions: 80000000 cycles: 864046265 heartbeat IPC: 0.0915474 cumulative IPC: 0.0914818 (Simulation time: 0 hr 16 min 59 sec) 
Heartbeat CPU 0 instructions: 81000000 cycles: 874990775 heartbeat IPC: 0.09137 cumulative IPC: 0.0914804 (Simulation time: 0 hr 17 min 17 sec) 
Heartbeat CPU 0 instructions: 82000002 cycles: 885949682 heartbeat IPC: 0.0912502 cumulative IPC: 0.0914776 (Simulation time: 0 hr 17 min 35 sec) 
Heartbeat CPU 0 instructions: 83000000 cycles: 896913307 heartbeat IPC: 0.0912105 cumulative IPC: 0.0914743 (Simulation time: 0 hr 17 min 53 sec) 
Heartbeat CPU 0 instructions: 84000000 cycles: 907908778 heartbeat IPC: 0.0909465 cumulative IPC: 0.0914679 (Simulation time: 0 hr 18 min 11 sec) 
Heartbeat CPU 0 instructions: 85000000 cycles: 918886784 heartbeat IPC: 0.0910912 cumulative IPC: 0.0914634 (Simulation time: 0 hr 18 min 30 sec) 
Heartbeat CPU 0 instructions: 86000002 cycles: 929861434 heartbeat IPC: 0.0911193 cumulative IPC: 0.0914593 (Simulation time: 0 hr 18 min 48 sec) 
Heartbeat CPU 0 instructions: 87000000 cycles: 940831276 heartbeat IPC: 0.0911588 cumulative IPC: 0.0914558 (Simulation time: 0 hr 19 min 7 sec) 
Heartbeat CPU 0 instructions: 88000000 cycles: 951791715 heartbeat IPC: 0.0912372 cumulative IPC: 0.0914533 (Simulation time: 0 hr 19 min 25 sec) 
Heartbeat CPU 0 instructions: 89000003 cycles: 962782494 heartbeat IPC: 0.0909856 cumulative IPC: 0.091448 (Simulation time: 0 hr 19 min 44 sec) 
Heartbeat CPU 0 instructions: 90000001 cycles: 973752643 heartbeat IPC: 0.0911563 cumulative IPC: 0.0914447 (Simulation time: 0 hr 20 min 2 sec) 
Heartbeat CPU 0 instructions: 91000000 cycles: 984716643 heartbeat IPC: 0.0912075 cumulative IPC: 0.091442 (Simulation time: 0 hr 20 min 20 sec) 
Heartbeat CPU 0 instructions: 92000002 cycles: 995759821 heartbeat IPC: 0.0905538 cumulative IPC: 0.0914322 (Simulation time: 0 hr 20 min 39 sec) 
Heartbeat CPU 0 instructions: 93000002 cycles: 1006707990 heartbeat IPC: 0.0913395 cumulative IPC: 0.0914312 (Simulation time: 0 hr 20 min 57 sec) 
Heartbeat CPU 0 instructions: 94000001 cycles: 1017641653 heartbeat IPC: 0.0914606 cumulative IPC: 0.0914315 (Simulation time: 0 hr 21 min 14 sec) 
Heartbeat CPU 0 instructions: 95000002 cycles: 1028658228 heartbeat IPC: 0.0907724 cumulative IPC: 0.0914244 (Simulation time: 0 hr 21 min 32 sec) 
Heartbeat CPU 0 instructions: 96000001 cycles: 1039617654 heartbeat IPC: 0.0912456 cumulative IPC: 0.0914225 (Simulation time: 0 hr 21 min 51 sec) 
Heartbeat CPU 0 instructions: 97000001 cycles: 1050573100 heartbeat IPC: 0.0912788 cumulative IPC: 0.091421 (Simulation time: 0 hr 22 min 9 sec) 
Heartbeat CPU 0 instructions: 98000003 cycles: 1061520110 heartbeat IPC: 0.0913493 cumulative IPC: 0.0914203 (Simulation time: 0 hr 22 min 27 sec) 
Heartbeat CPU 0 instructions: 99000000 cycles: 1072474706 heartbeat IPC: 0.0912856 cumulative IPC: 0.0914189 (Simulation time: 0 hr 22 min 45 sec) 
Heartbeat CPU 0 instructions: 100000001 cycles: 1083428506 heartbeat IPC: 0.0912926 cumulative IPC: 0.0914176 (Simulation time: 0 hr 23 min 3 sec) 
Heartbeat CPU 0 instructions: 101000001 cycles: 1094376458 heartbeat IPC: 0.0913413 cumulative IPC: 0.0914169 (Simulation time: 0 hr 23 min 21 sec) 
Heartbeat CPU 0 instructions: 102000002 cycles: 1105311980 heartbeat IPC: 0.0914452 cumulative IPC: 0.0914172 (Simulation time: 0 hr 23 min 39 sec) 
Heartbeat CPU 0 instructions: 103000001 cycles: 1116305744 heartbeat IPC: 0.0909606 cumulative IPC: 0.0914127 (Simulation time: 0 hr 23 min 56 sec) 
Heartbeat CPU 0 instructions: 104000000 cycles: 1127289218 heartbeat IPC: 0.0910458 cumulative IPC: 0.0914091 (Simulation time: 0 hr 24 min 15 sec) 
Heartbeat CPU 0 instructions: 105000003 cycles: 1138238473 heartbeat IPC: 0.0913307 cumulative IPC: 0.0914083 (Simulation time: 0 hr 24 min 33 sec) 
Heartbeat CPU 0 instructions: 106000000 cycles: 1149207768 heartbeat IPC: 0.0911633 cumulative IPC: 0.091406 (Simulation time: 0 hr 24 min 51 sec) 
Heartbeat CPU 0 instructions: 107000000 cycles: 1160155325 heartbeat IPC: 0.0913446 cumulative IPC: 0.0914054 (Simulation time: 0 hr 25 min 10 sec) 
Heartbeat CPU 0 instructions: 108000001 cycles: 1171132346 heartbeat IPC: 0.0910995 cumulative IPC: 0.0914025 (Simulation time: 0 hr 25 min 28 sec) 
Heartbeat CPU 0 instructions: 109000002 cycles: 1182123299 heartbeat IPC: 0.090984 cumulative IPC: 0.0913986 (Simulation time: 0 hr 25 min 46 sec) 
Heartbeat CPU 0 instructions: 110000000 cycles: 1193089957 heartbeat IPC: 0.0911853 cumulative IPC: 0.0913967 (Simulation time: 0 hr 26 min 3 sec) 
Heartbeat CPU 0 instructions: 111000001 cycles: 1204027677 heartbeat IPC: 0.0914268 cumulative IPC: 0.091397 (Simulation time: 0 hr 26 min 21 sec) 
Heartbeat CPU 0 instructions: 112000000 cycles: 1214997137 heartbeat IPC: 0.0911621 cumulative IPC: 0.0913948 (Simulation time: 0 hr 26 min 38 sec) 
Heartbeat CPU 0 instructions: 113000000 cycles: 1225971921 heartbeat IPC: 0.091118 cumulative IPC: 0.0913924 (Simulation time: 0 hr 26 min 56 sec) 
Heartbeat CPU 0 instructions: 114000000 cycles: 1236938762 heartbeat IPC: 0.091184 cumulative IPC: 0.0913905 (Simulation time: 0 hr 27 min 13 sec) 
Heartbeat CPU 0 instructions: 115000000 cycles: 1245542624 heartbeat IPC: 0.116227 cumulative IPC: 0.0915621 (Simulation time: 0 hr 27 min 28 sec) 
Heartbeat CPU 0 instructions: 116000000 cycles: 1256471435 heartbeat IPC: 0.0915013 cumulative IPC: 0.0915616 (Simulation time: 0 hr 27 min 45 sec) 
Heartbeat CPU 0 instructions: 117000001 cycles: 1267423339 heartbeat IPC: 0.0913084 cumulative IPC: 0.0915594 (Simulation time: 0 hr 28 min 3 sec) 
Heartbeat CPU 0 instructions: 118000000 cycles: 1278370468 heartbeat IPC: 0.0913481 cumulative IPC: 0.0915576 (Simulation time: 0 hr 28 min 20 sec) 
Heartbeat CPU 0 instructions: 119000001 cycles: 1289301097 heartbeat IPC: 0.0914861 cumulative IPC: 0.091557 (Simulation time: 0 hr 28 min 38 sec) 
Heartbeat CPU 0 instructions: 120000000 cycles: 1300310441 heartbeat IPC: 0.0908318 cumulative IPC: 0.0915509 (Simulation time: 0 hr 28 min 56 sec) 
Heartbeat CPU 0 instructions: 121000000 cycles: 1311281433 heartbeat IPC: 0.0911495 cumulative IPC: 0.0915475 (Simulation time: 0 hr 29 min 14 sec) 
Heartbeat CPU 0 instructions: 122000000 cycles: 1322260038 heartbeat IPC: 0.0910863 cumulative IPC: 0.0915437 (Simulation time: 0 hr 29 min 32 sec) 
Heartbeat CPU 0 instructions: 123000001 cycles: 1333245740 heartbeat IPC: 0.0910275 cumulative IPC: 0.0915394 (Simulation time: 0 hr 29 min 50 sec) 
Heartbeat CPU 0 instructions: 124000001 cycles: 1344179243 heartbeat IPC: 0.091462 cumulative IPC: 0.0915388 (Simulation time: 0 hr 30 min 8 sec) 
Heartbeat CPU 0 instructions: 125000001 cycles: 1355152263 heartbeat IPC: 0.0911326 cumulative IPC: 0.0915355 (Simulation time: 0 hr 30 min 26 sec) 
Heartbeat CPU 0 instructions: 126000003 cycles: 1366162005 heartbeat IPC: 0.0908288 cumulative IPC: 0.0915298 (Simulation time: 0 hr 30 min 44 sec) 
Heartbeat CPU 0 instructions: 127000001 cycles: 1377123942 heartbeat IPC: 0.0912246 cumulative IPC: 0.0915274 (Simulation time: 0 hr 31 min 2 sec) 
Heartbeat CPU 0 instructions: 128000001 cycles: 1388126602 heartbeat IPC: 0.0908871 cumulative IPC: 0.0915223 (Simulation time: 0 hr 31 min 21 sec) 
Heartbeat CPU 0 instructions: 129000000 cycles: 1399140012 heartbeat IPC: 0.0907983 cumulative IPC: 0.0915166 (Simulation time: 0 hr 31 min 39 sec) 
Heartbeat CPU 0 instructions: 130000001 cycles: 1410074108 heartbeat IPC: 0.0914571 cumulative IPC: 0.0915161 (Simulation time: 0 hr 31 min 58 sec) 
Heartbeat CPU 0 instructions: 131000000 cycles: 1421040122 heartbeat IPC: 0.0911907 cumulative IPC: 0.0915136 (Simulation time: 0 hr 32 min 16 sec) 
Heartbeat CPU 0 instructions: 132000000 cycles: 1432022506 heartbeat IPC: 0.0910549 cumulative IPC: 0.0915101 (Simulation time: 0 hr 32 min 35 sec) 
Heartbeat CPU 0 instructions: 133000001 cycles: 1442983567 heartbeat IPC: 0.0912321 cumulative IPC: 0.091508 (Simulation time: 0 hr 32 min 53 sec) 
Heartbeat CPU 0 instructions: 134000001 cycles: 1453930003 heartbeat IPC: 0.0913539 cumulative IPC: 0.0915068 (Simulation time: 0 hr 33 min 12 sec) 
Heartbeat CPU 0 instructions: 135000000 cycles: 1464876927 heartbeat IPC: 0.0913498 cumulative IPC: 0.0915057 (Simulation time: 0 hr 33 min 30 sec) 
Heartbeat CPU 0 instructions: 136000000 cycles: 1475841878 heartbeat IPC: 0.0911997 cumulative IPC: 0.0915034 (Simulation time: 0 hr 33 min 48 sec) 
Heartbeat CPU 0 instructions: 137000002 cycles: 1486768498 heartbeat IPC: 0.0915198 cumulative IPC: 0.0915035 (Simulation time: 0 hr 34 min 6 sec) 
Heartbeat CPU 0 instructions: 138000000 cycles: 1497730761 heartbeat IPC: 0.0912219 cumulative IPC: 0.0915014 (Simulation time: 0 hr 34 min 25 sec) 
Heartbeat CPU 0 instructions: 139000001 cycles: 1508693463 heartbeat IPC: 0.0912185 cumulative IPC: 0.0914994 (Simulation time: 0 hr 34 min 43 sec) 
Heartbeat CPU 0 instructions: 140000000 cycles: 1519695105 heartbeat IPC: 0.0908954 cumulative IPC: 0.091495 (Simulation time: 0 hr 35 min 1 sec) 
Heartbeat CPU 0 instructions: 141000001 cycles: 1530648677 heartbeat IPC: 0.0912945 cumulative IPC: 0.0914936 (Simulation time: 0 hr 35 min 20 sec) 
Heartbeat CPU 0 instructions: 142000000 cycles: 1541614363 heartbeat IPC: 0.0911935 cumulative IPC: 0.0914914 (Simulation time: 0 hr 35 min 38 sec) 
Heartbeat CPU 0 instructions: 143000000 cycles: 1552558635 heartbeat IPC: 0.091372 cumulative IPC: 0.0914906 (Simulation time: 0 hr 35 min 57 sec) 
Heartbeat CPU 0 instructions: 144000003 cycles: 1563530032 heartbeat IPC: 0.0911464 cumulative IPC: 0.0914882 (Simulation time: 0 hr 36 min 15 sec) 
Heartbeat CPU 0 instructions: 145000001 cycles: 1574514581 heartbeat IPC: 0.0910368 cumulative IPC: 0.091485 (Simulation time: 0 hr 36 min 34 sec) 
Heartbeat CPU 0 instructions: 146000000 cycles: 1585498393 heartbeat IPC: 0.091043 cumulative IPC: 0.091482 (Simulation time: 0 hr 36 min 52 sec) 
Heartbeat CPU 0 instructions: 147000000 cycles: 1596435926 heartbeat IPC: 0.0914283 cumulative IPC: 0.0914816 (Simulation time: 0 hr 37 min 10 sec) 
Heartbeat CPU 0 instructions: 148000000 cycles: 1607380381 heartbeat IPC: 0.0913705 cumulative IPC: 0.0914808 (Simulation time: 0 hr 37 min 28 sec) 
Heartbeat CPU 0 instructions: 149000000 cycles: 1618357475 heartbeat IPC: 0.0910988 cumulative IPC: 0.0914783 (Simulation time: 0 hr 37 min 47 sec) 
Heartbeat CPU 0 instructions: 150000001 cycles: 1629346245 heartbeat IPC: 0.0910021 cumulative IPC: 0.091475 (Simulation time: 0 hr 38 min 5 sec) 
Heartbeat CPU 0 instructions: 151000000 cycles: 1640287174 heartbeat IPC: 0.0913998 cumulative IPC: 0.0914745 (Simulation time: 0 hr 38 min 24 sec) 
Heartbeat CPU 0 instructions: 152000001 cycles: 1650365566 heartbeat IPC: 0.0992223 cumulative IPC: 0.0915219 (Simulation time: 0 hr 38 min 41 sec) 
Heartbeat CPU 0 instructions: 153000002 cycles: 1661291056 heartbeat IPC: 0.0915292 cumulative IPC: 0.0915219 (Simulation time: 0 hr 39 min 0 sec) 
Heartbeat CPU 0 instructions: 154000000 cycles: 1672249126 heartbeat IPC: 0.0912568 cumulative IPC: 0.0915202 (Simulation time: 0 hr 39 min 18 sec) 
Heartbeat CPU 0 instructions: 155000000 cycles: 1683201164 heartbeat IPC: 0.0913072 cumulative IPC: 0.0915188 (Simulation time: 0 hr 39 min 36 sec) 
Heartbeat CPU 0 instructions: 156000000 cycles: 1694169336 heartbeat IPC: 0.0911729 cumulative IPC: 0.0915165 (Simulation time: 0 hr 39 min 54 sec) 
Heartbeat CPU 0 instructions: 157000000 cycles: 1705161108 heartbeat IPC: 0.0909771 cumulative IPC: 0.0915131 (Simulation time: 0 hr 40 min 13 sec) 
Heartbeat CPU 0 instructions: 158000001 cycles: 1716137910 heartbeat IPC: 0.0911013 cumulative IPC: 0.0915104 (Simulation time: 0 hr 40 min 31 sec) 
Heartbeat CPU 0 instructions: 159000000 cycles: 1727110466 heartbeat IPC: 0.0911364 cumulative IPC: 0.0915081 (Simulation time: 0 hr 40 min 49 sec) 
Heartbeat CPU 0 instructions: 160000002 cycles: 1738091542 heartbeat IPC: 0.0910659 cumulative IPC: 0.0915053 (Simulation time: 0 hr 41 min 7 sec) 
Heartbeat CPU 0 instructions: 161000001 cycles: 1749045263 heartbeat IPC: 0.0912931 cumulative IPC: 0.0915039 (Simulation time: 0 hr 41 min 26 sec) 
Heartbeat CPU 0 instructions: 162000000 cycles: 1760027712 heartbeat IPC: 0.0910543 cumulative IPC: 0.0915011 (Simulation time: 0 hr 41 min 44 sec) 
Heartbeat CPU 0 instructions: 163000003 cycles: 1771001875 heartbeat IPC: 0.0911234 cumulative IPC: 0.0914988 (Simulation time: 0 hr 42 min 2 sec) 
Heartbeat CPU 0 instructions: 164000001 cycles: 1781966942 heartbeat IPC: 0.0911985 cumulative IPC: 0.0914969 (Simulation time: 0 hr 42 min 21 sec) 
Heartbeat CPU 0 instructions: 165000000 cycles: 1793013132 heartbeat IPC: 0.0905289 cumulative IPC: 0.091491 (Simulation time: 0 hr 42 min 40 sec) 
Heartbeat CPU 0 instructions: 166000000 cycles: 1803964138 heartbeat IPC: 0.0913158 cumulative IPC: 0.0914899 (Simulation time: 0 hr 42 min 58 sec) 
Heartbeat CPU 0 instructions: 167000001 cycles: 1814899259 heartbeat IPC: 0.0914486 cumulative IPC: 0.0914897 (Simulation time: 0 hr 43 min 16 sec) 
Heartbeat CPU 0 instructions: 168000001 cycles: 1825902547 heartbeat IPC: 0.0908819 cumulative IPC: 0.091486 (Simulation time: 0 hr 43 min 33 sec) 
Heartbeat CPU 0 instructions: 169000001 cycles: 1836869421 heartbeat IPC: 0.0911837 cumulative IPC: 0.0914842 (Simulation time: 0 hr 43 min 50 sec) 
Heartbeat CPU 0 instructions: 170000001 cycles: 1847831108 heartbeat IPC: 0.0912268 cumulative IPC: 0.0914827 (Simulation time: 0 hr 44 min 8 sec) 
Heartbeat CPU 0 instructions: 171000000 cycles: 1858773811 heartbeat IPC: 0.091385 cumulative IPC: 0.0914821 (Simulation time: 0 hr 44 min 25 sec) 
Heartbeat CPU 0 instructions: 172000002 cycles: 1869732595 heartbeat IPC: 0.0912512 cumulative IPC: 0.0914807 (Simulation time: 0 hr 44 min 43 sec) 
Heartbeat CPU 0 instructions: 173000001 cycles: 1880675946 heartbeat IPC: 0.0913796 cumulative IPC: 0.0914801 (Simulation time: 0 hr 45 min 0 sec) 
Heartbeat CPU 0 instructions: 174000003 cycles: 1891626031 heartbeat IPC: 0.0913237 cumulative IPC: 0.0914792 (Simulation time: 0 hr 45 min 18 sec) 
Heartbeat CPU 0 instructions: 175000000 cycles: 1902559193 heartbeat IPC: 0.0914646 cumulative IPC: 0.0914792 (Simulation time: 0 hr 45 min 35 sec) 
Heartbeat CPU 0 instructions: 176000000 cycles: 1913544796 heartbeat IPC: 0.0910282 cumulative IPC: 0.0914766 (Simulation time: 0 hr 45 min 53 sec) 
Heartbeat CPU 0 instructions: 177000001 cycles: 1924536206 heartbeat IPC: 0.0909802 cumulative IPC: 0.0914737 (Simulation time: 0 hr 46 min 11 sec) 
Heartbeat CPU 0 instructions: 178000000 cycles: 1935488976 heartbeat IPC: 0.091301 cumulative IPC: 0.0914728 (Simulation time: 0 hr 46 min 30 sec) 
Heartbeat CPU 0 instructions: 179000001 cycles: 1946440965 heartbeat IPC: 0.0913077 cumulative IPC: 0.0914718 (Simulation time: 0 hr 46 min 48 sec) 
Heartbeat CPU 0 instructions: 180000000 cycles: 1957392290 heartbeat IPC: 0.0913131 cumulative IPC: 0.0914709 (Simulation time: 0 hr 47 min 7 sec) 
Heartbeat CPU 0 instructions: 181000002 cycles: 1968378786 heartbeat IPC: 0.091021 cumulative IPC: 0.0914684 (Simulation time: 0 hr 47 min 25 sec) 
Heartbeat CPU 0 instructions: 182000000 cycles: 1979355120 heartbeat IPC: 0.0911049 cumulative IPC: 0.0914664 (Simulation time: 0 hr 47 min 43 sec) 
Heartbeat CPU 0 instructions: 183000000 cycles: 1990325048 heartbeat IPC: 0.0911583 cumulative IPC: 0.0914647 (Simulation time: 0 hr 48 min 2 sec) 
Heartbeat CPU 0 instructions: 184000000 cycles: 2001264434 heartbeat IPC: 0.0914128 cumulative IPC: 0.0914644 (Simulation time: 0 hr 48 min 20 sec) 
Heartbeat CPU 0 instructions: 185000000 cycles: 2012234846 heartbeat IPC: 0.0911543 cumulative IPC: 0.0914627 (Simulation time: 0 hr 48 min 39 sec) 
Heartbeat CPU 0 instructions: 186000002 cycles: 2023207087 heartbeat IPC: 0.0911393 cumulative IPC: 0.091461 (Simulation time: 0 hr 48 min 57 sec) 
Heartbeat CPU 0 instructions: 187000000 cycles: 2034175195 heartbeat IPC: 0.0911732 cumulative IPC: 0.0914594 (Simulation time: 0 hr 49 min 15 sec) 
Heartbeat CPU 0 instructions: 188000000 cycles: 2042766636 heartbeat IPC: 0.116395 cumulative IPC: 0.0915643 (Simulation time: 0 hr 49 min 31 sec) 
Heartbeat CPU 0 instructions: 189000000 cycles: 2053709628 heartbeat IPC: 0.0913827 cumulative IPC: 0.0915634 (Simulation time: 0 hr 49 min 49 sec) 
Heartbeat CPU 0 instructions: 190000002 cycles: 2064653906 heartbeat IPC: 0.0913721 cumulative IPC: 0.0915623 (Simulation time: 0 hr 50 min 8 sec) 
Heartbeat CPU 0 instructions: 191000000 cycles: 2075609463 heartbeat IPC: 0.0912777 cumulative IPC: 0.0915608 (Simulation time: 0 hr 50 min 26 sec) 
Heartbeat CPU 0 instructions: 192000001 cycles: 2086545131 heartbeat IPC: 0.091444 cumulative IPC: 0.0915602 (Simulation time: 0 hr 50 min 44 sec) 
Heartbeat CPU 0 instructions: 193000001 cycles: 2097549349 heartbeat IPC: 0.0908742 cumulative IPC: 0.0915566 (Simulation time: 0 hr 51 min 3 sec) 
Heartbeat CPU 0 instructions: 194000003 cycles: 2108518314 heartbeat IPC: 0.0911665 cumulative IPC: 0.0915546 (Simulation time: 0 hr 51 min 21 sec) 
Heartbeat CPU 0 instructions: 195000001 cycles: 2119496472 heartbeat IPC: 0.0910898 cumulative IPC: 0.0915522 (Simulation time: 0 hr 51 min 39 sec) 
Heartbeat CPU 0 instructions: 196000000 cycles: 2130488281 heartbeat IPC: 0.0909767 cumulative IPC: 0.0915492 (Simulation time: 0 hr 51 min 58 sec) 
Heartbeat CPU 0 instructions: 197000000 cycles: 2141421421 heartbeat IPC: 0.091465 cumulative IPC: 0.0915488 (Simulation time: 0 hr 52 min 16 sec) 
Heartbeat CPU 0 instructions: 198000000 cycles: 2152393727 heartbeat IPC: 0.0911385 cumulative IPC: 0.0915467 (Simulation time: 0 hr 52 min 34 sec) 
Heartbeat CPU 0 instructions: 199000000 cycles: 2163399108 heartbeat IPC: 0.0908646 cumulative IPC: 0.0915432 (Simulation time: 0 hr 52 min 52 sec) 
Heartbeat CPU 0 instructions: 200000000 cycles: 2174352717 heartbeat IPC: 0.0912941 cumulative IPC: 0.091542 (Simulation time: 0 hr 53 min 10 sec) 
Heartbeat CPU 0 instructions: 201000000 cycles: 2185364785 heartbeat IPC: 0.0908095 cumulative IPC: 0.0915383 (Simulation time: 0 hr 53 min 28 sec) 
Heartbeat CPU 0 instructions: 202000000 cycles: 2196386207 heartbeat IPC: 0.0907324 cumulative IPC: 0.0915342 (Simulation time: 0 hr 53 min 46 sec) 
Heartbeat CPU 0 instructions: 203000000 cycles: 2207310147 heartbeat IPC: 0.0915421 cumulative IPC: 0.0915343 (Simulation time: 0 hr 54 min 4 sec) 
Heartbeat CPU 0 instructions: 204000003 cycles: 2218277031 heartbeat IPC: 0.0911839 cumulative IPC: 0.0915325 (Simulation time: 0 hr 54 min 22 sec) 
Heartbeat CPU 0 instructions: 205000000 cycles: 2229264109 heartbeat IPC: 0.0910157 cumulative IPC: 0.09153 (Simulation time: 0 hr 54 min 40 sec) 
Heartbeat CPU 0 instructions: 206000000 cycles: 2240224356 heartbeat IPC: 0.0912388 cumulative IPC: 0.0915286 (Simulation time: 0 hr 54 min 58 sec) 
Heartbeat CPU 0 instructions: 207000000 cycles: 2251167275 heartbeat IPC: 0.0913833 cumulative IPC: 0.0915279 (Simulation time: 0 hr 55 min 16 sec) 
Heartbeat CPU 0 instructions: 208000000 cycles: 2262120166 heartbeat IPC: 0.0913001 cumulative IPC: 0.0915268 (Simulation time: 0 hr 55 min 34 sec) 
Heartbeat CPU 0 instructions: 209000000 cycles: 2273079029 heartbeat IPC: 0.0912503 cumulative IPC: 0.0915254 (Simulation time: 0 hr 55 min 53 sec) 
Heartbeat CPU 0 instructions: 210000003 cycles: 2284011442 heartbeat IPC: 0.0914714 cumulative IPC: 0.0915252 (Simulation time: 0 hr 56 min 10 sec) 
Heartbeat CPU 0 instructions: 211000001 cycles: 2294975492 heartbeat IPC: 0.091207 cumulative IPC: 0.0915236 (Simulation time: 0 hr 56 min 28 sec) 
Heartbeat CPU 0 instructions: 212000000 cycles: 2305926269 heartbeat IPC: 0.0913176 cumulative IPC: 0.0915227 (Simulation time: 0 hr 56 min 46 sec) 
Heartbeat CPU 0 instructions: 213000003 cycles: 2316930546 heartbeat IPC: 0.090874 cumulative IPC: 0.0915196 (Simulation time: 0 hr 57 min 4 sec) 
Heartbeat CPU 0 instructions: 214000001 cycles: 2327888336 heartbeat IPC: 0.0912591 cumulative IPC: 0.0915184 (Simulation time: 0 hr 57 min 22 sec) 
Heartbeat CPU 0 instructions: 215000001 cycles: 2338851367 heartbeat IPC: 0.0912156 cumulative IPC: 0.0915169 (Simulation time: 0 hr 57 min 40 sec) 
Heartbeat CPU 0 instructions: 216000000 cycles: 2349803055 heartbeat IPC: 0.09131 cumulative IPC: 0.091516 (Simulation time: 0 hr 57 min 58 sec) 
Heartbeat CPU 0 instructions: 217000001 cycles: 2360763500 heartbeat IPC: 0.0912373 cumulative IPC: 0.0915147 (Simulation time: 0 hr 58 min 16 sec) 
Heartbeat CPU 0 instructions: 218000002 cycles: 2371757680 heartbeat IPC: 0.0909573 cumulative IPC: 0.0915121 (Simulation time: 0 hr 58 min 34 sec) 
Heartbeat CPU 0 instructions: 219000001 cycles: 2382737364 heartbeat IPC: 0.0910772 cumulative IPC: 0.0915101 (Simulation time: 0 hr 58 min 52 sec) 
Heartbeat CPU 0 instructions: 220000000 cycles: 2393677248 heartbeat IPC: 0.0914086 cumulative IPC: 0.0915096 (Simulation time: 0 hr 59 min 10 sec) 
Heartbeat CPU 0 instructions: 221000000 cycles: 2404619263 heartbeat IPC: 0.0913908 cumulative IPC: 0.0915091 (Simulation time: 0 hr 59 min 29 sec) 
Heartbeat CPU 0 instructions: 222000000 cycles: 2415606613 heartbeat IPC: 0.0910138 cumulative IPC: 0.0915068 (Simulation time: 0 hr 59 min 47 sec) 
Heartbeat CPU 0 instructions: 223000000 cycles: 2426598963 heartbeat IPC: 0.0909724 cumulative IPC: 0.0915044 (Simulation time: 1 hr 0 min 6 sec) 
Heartbeat CPU 0 instructions: 224000000 cycles: 2437537190 heartbeat IPC: 0.0914225 cumulative IPC: 0.091504 (Simulation time: 1 hr 0 min 25 sec) 
Heartbeat CPU 0 instructions: 225000000 cycles: 2447600371 heartbeat IPC: 0.0993722 cumulative IPC: 0.0915364 (Simulation time: 1 hr 0 min 41 sec) 
Heartbeat CPU 0 instructions: 226000000 cycles: 2458522415 heartbeat IPC: 0.091558 cumulative IPC: 0.0915365 (Simulation time: 1 hr 0 min 59 sec) 
Heartbeat CPU 0 instructions: 227000003 cycles: 2469480859 heartbeat IPC: 0.0912541 cumulative IPC: 0.0915352 (Simulation time: 1 hr 1 min 16 sec) 
Heartbeat CPU 0 instructions: 228000000 cycles: 2480436997 heartbeat IPC: 0.0912728 cumulative IPC: 0.0915341 (Simulation time: 1 hr 1 min 33 sec) 
Heartbeat CPU 0 instructions: 229000001 cycles: 2491400167 heartbeat IPC: 0.0912146 cumulative IPC: 0.0915327 (Simulation time: 1 hr 1 min 51 sec) 
Heartbeat CPU 0 instructions: 230000001 cycles: 2502393519 heartbeat IPC: 0.0909641 cumulative IPC: 0.0915302 (Simulation time: 1 hr 2 min 10 sec) 
Heartbeat CPU 0 instructions: 231000000 cycles: 2513370209 heartbeat IPC: 0.0911021 cumulative IPC: 0.0915283 (Simulation time: 1 hr 2 min 28 sec) 
Heartbeat CPU 0 instructions: 232000000 cycles: 2524340419 heartbeat IPC: 0.091156 cumulative IPC: 0.0915267 (Simulation time: 1 hr 2 min 46 sec) 
Heartbeat CPU 0 instructions: 233000003 cycles: 2535327174 heartbeat IPC: 0.091019 cumulative IPC: 0.0915245 (Simulation time: 1 hr 3 min 5 sec) 
Heartbeat CPU 0 instructions: 234000001 cycles: 2546274293 heartbeat IPC: 0.0913481 cumulative IPC: 0.0915237 (Simulation time: 1 hr 3 min 23 sec) 
Heartbeat CPU 0 instructions: 235000001 cycles: 2557260027 heartbeat IPC: 0.0910271 cumulative IPC: 0.0915216 (Simulation time: 1 hr 3 min 41 sec) 
Heartbeat CPU 0 instructions: 236000001 cycles: 2568232402 heartbeat IPC: 0.091138 cumulative IPC: 0.09152 (Simulation time: 1 hr 3 min 58 sec) 
Heartbeat CPU 0 instructions: 237000002 cycles: 2579199992 heartbeat IPC: 0.0911778 cumulative IPC: 0.0915185 (Simulation time: 1 hr 4 min 16 sec) 
Heartbeat CPU 0 instructions: 238000001 cycles: 2590239354 heartbeat IPC: 0.0905849 cumulative IPC: 0.0915145 (Simulation time: 1 hr 4 min 33 sec) 
Heartbeat CPU 0 instructions: 239000000 cycles: 2601200055 heartbeat IPC: 0.091235 cumulative IPC: 0.0915134 (Simulation time: 1 hr 4 min 51 sec) 
Heartbeat CPU 0 instructions: 240000001 cycles: 2612133019 heartbeat IPC: 0.0914666 cumulative IPC: 0.0915131 (Simulation time: 1 hr 5 min 9 sec) 
Heartbeat CPU 0 instructions: 241000000 cycles: 2623139933 heartbeat IPC: 0.0908519 cumulative IPC: 0.0915104 (Simulation time: 1 hr 5 min 27 sec) 
Heartbeat CPU 0 instructions: 242000000 cycles: 2634101543 heartbeat IPC: 0.0912275 cumulative IPC: 0.0915092 (Simulation time: 1 hr 5 min 45 sec) 
Heartbeat CPU 0 instructions: 243000000 cycles: 2645063735 heartbeat IPC: 0.0912226 cumulative IPC: 0.091508 (Simulation time: 1 hr 6 min 4 sec) 
Heartbeat CPU 0 instructions: 244000003 cycles: 2655998988 heartbeat IPC: 0.0914476 cumulative IPC: 0.0915078 (Simulation time: 1 hr 6 min 22 sec) 
Heartbeat CPU 0 instructions: 245000000 cycles: 2666964272 heartbeat IPC: 0.0911966 cumulative IPC: 0.0915065 (Simulation time: 1 hr 6 min 40 sec) 
Heartbeat CPU 0 instructions: 246000001 cycles: 2677917731 heartbeat IPC: 0.0912955 cumulative IPC: 0.0915056 (Simulation time: 1 hr 6 min 58 sec) 
Heartbeat CPU 0 instructions: 247000001 cycles: 2688862456 heartbeat IPC: 0.0913682 cumulative IPC: 0.0915051 (Simulation time: 1 hr 7 min 16 sec) 
Heartbeat CPU 0 instructions: 248000001 cycles: 2699801165 heartbeat IPC: 0.0914185 cumulative IPC: 0.0915047 (Simulation time: 1 hr 7 min 35 sec) 
Heartbeat CPU 0 instructions: 249000001 cycles: 2710782049 heartbeat IPC: 0.0910674 cumulative IPC: 0.0915029 (Simulation time: 1 hr 7 min 53 sec) 
Heartbeat CPU 0 instructions: 250000000 cycles: 2721781302 heartbeat IPC: 0.0909152 cumulative IPC: 0.0915006 (Simulation time: 1 hr 8 min 11 sec) 
Heartbeat CPU 0 instructions: 251000002 cycles: 2732730163 heartbeat IPC: 0.0913339 cumulative IPC: 0.0914999 (Simulation time: 1 hr 8 min 30 sec) 
Heartbeat CPU 0 instructions: 252000003 cycles: 2743688112 heartbeat IPC: 0.091258 cumulative IPC: 0.0914989 (Simulation time: 1 hr 8 min 48 sec) 
Heartbeat CPU 0 instructions: 253000000 cycles: 2754637981 heartbeat IPC: 0.091325 cumulative IPC: 0.0914982 (Simulation time: 1 hr 9 min 6 sec) 
Heartbeat CPU 0 instructions: 254000000 cycles: 2765620429 heartbeat IPC: 0.0910544 cumulative IPC: 0.0914965 (Simulation time: 1 hr 9 min 25 sec) 
Heartbeat CPU 0 instructions: 255000002 cycles: 2776605459 heartbeat IPC: 0.0910332 cumulative IPC: 0.0914946 (Simulation time: 1 hr 9 min 43 sec) 
Heartbeat CPU 0 instructions: 256000000 cycles: 2787580077 heartbeat IPC: 0.0911192 cumulative IPC: 0.0914932 (Simulation time: 1 hr 10 min 2 sec) 
Heartbeat CPU 0 instructions: 257000000 cycles: 2798515252 heartbeat IPC: 0.091448 cumulative IPC: 0.091493 (Simulation time: 1 hr 10 min 19 sec) 
Heartbeat CPU 0 instructions: 258000002 cycles: 2809478725 heartbeat IPC: 0.0912122 cumulative IPC: 0.0914919 (Simulation time: 1 hr 10 min 37 sec) 
Heartbeat CPU 0 instructions: 259000003 cycles: 2820450836 heartbeat IPC: 0.0911403 cumulative IPC: 0.0914905 (Simulation time: 1 hr 10 min 54 sec) 
Heartbeat CPU 0 instructions: 260000000 cycles: 2831428757 heartbeat IPC: 0.0910917 cumulative IPC: 0.091489 (Simulation time: 1 hr 11 min 12 sec) 
Heartbeat CPU 0 instructions: 261000002 cycles: 2841494389 heartbeat IPC: 0.0993482 cumulative IPC: 0.0915168 (Simulation time: 1 hr 11 min 29 sec) 
Heartbeat CPU 0 instructions: 262000000 cycles: 2852425157 heartbeat IPC: 0.0914847 cumulative IPC: 0.0915167 (Simulation time: 1 hr 11 min 46 sec) 
Heartbeat CPU 0 instructions: 263000000 cycles: 2863376692 heartbeat IPC: 0.0913114 cumulative IPC: 0.0915159 (Simulation time: 1 hr 12 min 4 sec) 
Heartbeat CPU 0 instructions: 264000000 cycles: 2874326239 heartbeat IPC: 0.091328 cumulative IPC: 0.0915152 (Simulation time: 1 hr 12 min 22 sec) 
Heartbeat CPU 0 instructions: 265000000 cycles: 2885253412 heartbeat IPC: 0.091515 cumulative IPC: 0.0915152 (Simulation time: 1 hr 12 min 41 sec) 
Heartbeat CPU 0 instructions: 266000003 cycles: 2896255978 heartbeat IPC: 0.0908882 cumulative IPC: 0.0915128 (Simulation time: 1 hr 12 min 59 sec) 
Heartbeat CPU 0 instructions: 267000003 cycles: 2907228814 heartbeat IPC: 0.0911341 cumulative IPC: 0.0915114 (Simulation time: 1 hr 13 min 17 sec) 
Heartbeat CPU 0 instructions: 268000002 cycles: 2918205414 heartbeat IPC: 0.0911028 cumulative IPC: 0.0915098 (Simulation time: 1 hr 13 min 35 sec) 
Heartbeat CPU 0 instructions: 269000002 cycles: 2929193805 heartbeat IPC: 0.0910051 cumulative IPC: 0.0915079 (Simulation time: 1 hr 13 min 54 sec) 
Heartbeat CPU 0 instructions: 270000000 cycles: 2940133423 heartbeat IPC: 0.0914107 cumulative IPC: 0.0915076 (Simulation time: 1 hr 14 min 12 sec) 
Heartbeat CPU 0 instructions: 271000001 cycles: 2951090563 heartbeat IPC: 0.0912648 cumulative IPC: 0.0915067 (Simulation time: 1 hr 14 min 30 sec) 
Heartbeat CPU 0 instructions: 272000003 cycles: 2962111164 heartbeat IPC: 0.0907393 cumulative IPC: 0.0915038 (Simulation time: 1 hr 14 min 49 sec) 
Heartbeat CPU 0 instructions: 273000001 cycles: 2973071087 heartbeat IPC: 0.0912413 cumulative IPC: 0.0915029 (Simulation time: 1 hr 15 min 7 sec) 
Heartbeat CPU 0 instructions: 274000002 cycles: 2984082229 heartbeat IPC: 0.0908172 cumulative IPC: 0.0915003 (Simulation time: 1 hr 15 min 25 sec) 
Heartbeat CPU 0 instructions: 275000000 cycles: 2995084817 heartbeat IPC: 0.0908875 cumulative IPC: 0.0914981 (Simulation time: 1 hr 15 min 44 sec) 
Heartbeat CPU 0 instructions: 276000001 cycles: 3006017393 heartbeat IPC: 0.0914698 cumulative IPC: 0.091498 (Simulation time: 1 hr 16 min 1 sec) 
Heartbeat CPU 0 instructions: 277000000 cycles: 3017009656 heartbeat IPC: 0.090973 cumulative IPC: 0.0914961 (Simulation time: 1 hr 16 min 19 sec) 
Heartbeat CPU 0 instructions: 278000000 cycles: 3027977087 heartbeat IPC: 0.0911791 cumulative IPC: 0.0914949 (Simulation time: 1 hr 16 min 36 sec) 
Heartbeat CPU 0 instructions: 279000003 cycles: 3038939807 heartbeat IPC: 0.0912185 cumulative IPC: 0.0914939 (Simulation time: 1 hr 16 min 54 sec) 
Heartbeat CPU 0 instructions: 280000003 cycles: 3049877435 heartbeat IPC: 0.0914275 cumulative IPC: 0.0914937 (Simulation time: 1 hr 17 min 11 sec) 
Heartbeat CPU 0 instructions: 281000001 cycles: 3060839669 heartbeat IPC: 0.0912221 cumulative IPC: 0.0914927 (Simulation time: 1 hr 17 min 29 sec) 
Heartbeat CPU 0 instructions: 282000000 cycles: 3071796183 heartbeat IPC: 0.0912698 cumulative IPC: 0.0914919 (Simulation time: 1 hr 17 min 47 sec) 
Heartbeat CPU 0 instructions: 283000000 cycles: 3082736995 heartbeat IPC: 0.0914009 cumulative IPC: 0.0914916 (Simulation time: 1 hr 18 min 4 sec) 
Heartbeat CPU 0 instructions: 284000003 cycles: 3093692811 heartbeat IPC: 0.091276 cumulative IPC: 0.0914908 (Simulation time: 1 hr 18 min 22 sec) 
Heartbeat CPU 0 instructions: 285000000 cycles: 3104657891 heartbeat IPC: 0.0911983 cumulative IPC: 0.0914898 (Simulation time: 1 hr 18 min 40 sec) 
Heartbeat CPU 0 instructions: 286000000 cycles: 3115653592 heartbeat IPC: 0.0909446 cumulative IPC: 0.0914879 (Simulation time: 1 hr 18 min 58 sec) 
Heartbeat CPU 0 instructions: 287000001 cycles: 3126609732 heartbeat IPC: 0.0912731 cumulative IPC: 0.0914871 (Simulation time: 1 hr 19 min 17 sec) 
Heartbeat CPU 0 instructions: 288000000 cycles: 3137585407 heartbeat IPC: 0.0911105 cumulative IPC: 0.0914858 (Simulation time: 1 hr 19 min 35 sec) 
Heartbeat CPU 0 instructions: 289000000 cycles: 3148516441 heartbeat IPC: 0.0914827 cumulative IPC: 0.0914858 (Simulation time: 1 hr 19 min 53 sec) 
Heartbeat CPU 0 instructions: 290000003 cycles: 3159495204 heartbeat IPC: 0.0910852 cumulative IPC: 0.0914844 (Simulation time: 1 hr 20 min 11 sec) 
Heartbeat CPU 0 instructions: 291000000 cycles: 3170473066 heartbeat IPC: 0.0910921 cumulative IPC: 0.091483 (Simulation time: 1 hr 20 min 30 sec) 
Heartbeat CPU 0 instructions: 292000003 cycles: 3181455947 heartbeat IPC: 0.0910511 cumulative IPC: 0.0914815 (Simulation time: 1 hr 20 min 48 sec) 
Heartbeat CPU 0 instructions: 293000001 cycles: 3192403630 heartbeat IPC: 0.0913433 cumulative IPC: 0.0914811 (Simulation time: 1 hr 21 min 6 sec) 
Heartbeat CPU 0 instructions: 294000002 cycles: 3203337322 heartbeat IPC: 0.0914605 cumulative IPC: 0.091481 (Simulation time: 1 hr 21 min 24 sec) 
Heartbeat CPU 0 instructions: 295000003 cycles: 3214321043 heartbeat IPC: 0.0910439 cumulative IPC: 0.0914795 (Simulation time: 1 hr 21 min 43 sec) 
Heartbeat CPU 0 instructions: 296000001 cycles: 3225305943 heartbeat IPC: 0.0910339 cumulative IPC: 0.091478 (Simulation time: 1 hr 22 min 1 sec) 
Heartbeat CPU 0 instructions: 297000000 cycles: 3236243779 heartbeat IPC: 0.0914257 cumulative IPC: 0.0914778 (Simulation time: 1 hr 22 min 19 sec) 
Heartbeat CPU 0 instructions: 298000002 cycles: 3246389866 heartbeat IPC: 0.0985604 cumulative IPC: 0.0915 (Simulation time: 1 hr 22 min 37 sec) 
Heartbeat CPU 0 instructions: 299000003 cycles: 3257328012 heartbeat IPC: 0.0914233 cumulative IPC: 0.0914997 (Simulation time: 1 hr 22 min 55 sec) 
Heartbeat CPU 0 instructions: 300000000 cycles: 3268274172 heartbeat IPC: 0.091356 cumulative IPC: 0.0914992 (Simulation time: 1 hr 23 min 13 sec) 
Heartbeat CPU 0 instructions: 301000000 cycles: 3279228482 heartbeat IPC: 0.0912883 cumulative IPC: 0.0914985 (Simulation time: 1 hr 23 min 32 sec) 
Heartbeat CPU 0 instructions: 302000001 cycles: 3290194347 heartbeat IPC: 0.0911922 cumulative IPC: 0.0914975 (Simulation time: 1 hr 23 min 50 sec) 
Heartbeat CPU 0 instructions: 303000000 cycles: 3301182086 heartbeat IPC: 0.0910104 cumulative IPC: 0.0914959 (Simulation time: 1 hr 24 min 8 sec) 
Heartbeat CPU 0 instructions: 304000003 cycles: 3312160210 heartbeat IPC: 0.0910905 cumulative IPC: 0.0914945 (Simulation time: 1 hr 24 min 27 sec) 
Heartbeat CPU 0 instructions: 305000000 cycles: 3323145648 heartbeat IPC: 0.0910293 cumulative IPC: 0.091493 (Simulation time: 1 hr 24 min 45 sec) 
Heartbeat CPU 0 instructions: 306000000 cycles: 3334109869 heartbeat IPC: 0.0912058 cumulative IPC: 0.091492 (Simulation time: 1 hr 25 min 3 sec) 
Heartbeat CPU 0 instructions: 307000000 cycles: 3345069775 heartbeat IPC: 0.0912417 cumulative IPC: 0.0914912 (Simulation time: 1 hr 25 min 22 sec) 
Heartbeat CPU 0 instructions: 308000000 cycles: 3356069866 heartbeat IPC: 0.0909083 cumulative IPC: 0.0914893 (Simulation time: 1 hr 25 min 40 sec) 
Heartbeat CPU 0 instructions: 309000001 cycles: 3367030444 heartbeat IPC: 0.0912362 cumulative IPC: 0.0914885 (Simulation time: 1 hr 25 min 58 sec) 
Heartbeat CPU 0 instructions: 310000000 cycles: 3378015774 heartbeat IPC: 0.0910304 cumulative IPC: 0.091487 (Simulation time: 1 hr 26 min 16 sec) 
Heartbeat CPU 0 instructions: 311000001 cycles: 3389054899 heartbeat IPC: 0.090587 cumulative IPC: 0.0914841 (Simulation time: 1 hr 26 min 35 sec) 
Heartbeat CPU 0 instructions: 312000000 cycles: 3399988143 heartbeat IPC: 0.0914641 cumulative IPC: 0.091484 (Simulation time: 1 hr 26 min 53 sec) 
Heartbeat CPU 0 instructions: 313000003 cycles: 3410925891 heartbeat IPC: 0.0914268 cumulative IPC: 0.0914838 (Simulation time: 1 hr 27 min 12 sec) 
Heartbeat CPU 0 instructions: 314000002 cycles: 3421944193 heartbeat IPC: 0.090758 cumulative IPC: 0.0914815 (Simulation time: 1 hr 27 min 30 sec) 
Heartbeat CPU 0 instructions: 315000000 cycles: 3432903827 heartbeat IPC: 0.0912437 cumulative IPC: 0.0914807 (Simulation time: 1 hr 27 min 48 sec) 
Heartbeat CPU 0 instructions: 316000002 cycles: 3443852455 heartbeat IPC: 0.0913358 cumulative IPC: 0.0914803 (Simulation time: 1 hr 28 min 6 sec) 
Heartbeat CPU 0 instructions: 317000000 cycles: 3454797998 heartbeat IPC: 0.0913612 cumulative IPC: 0.0914799 (Simulation time: 1 hr 28 min 25 sec) 
Heartbeat CPU 0 instructions: 318000000 cycles: 3465761821 heartbeat IPC: 0.0912091 cumulative IPC: 0.091479 (Simulation time: 1 hr 28 min 43 sec) 
Heartbeat CPU 0 instructions: 319000000 cycles: 3476701701 heartbeat IPC: 0.0914087 cumulative IPC: 0.0914788 (Simulation time: 1 hr 29 min 1 sec) 
Heartbeat CPU 0 instructions: 320000003 cycles: 3487660196 heartbeat IPC: 0.0912537 cumulative IPC: 0.0914781 (Simulation time: 1 hr 29 min 19 sec) 
Heartbeat CPU 0 instructions: 321000000 cycles: 3498590518 heartbeat IPC: 0.0914883 cumulative IPC: 0.0914781 (Simulation time: 1 hr 29 min 36 sec) 
Heartbeat CPU 0 instructions: 322000002 cycles: 3509587386 heartbeat IPC: 0.0909352 cumulative IPC: 0.0914764 (Simulation time: 1 hr 29 min 54 sec) 
Heartbeat CPU 0 instructions: 323000002 cycles: 3520560554 heartbeat IPC: 0.0911314 cumulative IPC: 0.0914754 (Simulation time: 1 hr 30 min 11 sec) 
Heartbeat CPU 0 instructions: 324000001 cycles: 3531518551 heartbeat IPC: 0.0912575 cumulative IPC: 0.0914747 (Simulation time: 1 hr 30 min 29 sec) 
Heartbeat CPU 0 instructions: 325000000 cycles: 3542485169 heartbeat IPC: 0.0911857 cumulative IPC: 0.0914738 (Simulation time: 1 hr 30 min 47 sec) 
Heartbeat CPU 0 instructions: 326000000 cycles: 3553428342 heartbeat IPC: 0.0913812 cumulative IPC: 0.0914735 (Simulation time: 1 hr 31 min 5 sec) 
Heartbeat CPU 0 instructions: 327000000 cycles: 3564402550 heartbeat IPC: 0.0911227 cumulative IPC: 0.0914724 (Simulation time: 1 hr 31 min 24 sec) 
Heartbeat CPU 0 instructions: 328000000 cycles: 3575386272 heartbeat IPC: 0.0910438 cumulative IPC: 0.0914711 (Simulation time: 1 hr 31 min 42 sec) 
Heartbeat CPU 0 instructions: 329000000 cycles: 3586360564 heartbeat IPC: 0.0911221 cumulative IPC: 0.09147 (Simulation time: 1 hr 32 min 0 sec) 
Heartbeat CPU 0 instructions: 330000000 cycles: 3597296505 heartbeat IPC: 0.0914416 cumulative IPC: 0.0914699 (Simulation time: 1 hr 32 min 19 sec) 
Heartbeat CPU 0 instructions: 331000001 cycles: 3608275756 heartbeat IPC: 0.091081 cumulative IPC: 0.0914688 (Simulation time: 1 hr 32 min 37 sec) 
Heartbeat CPU 0 instructions: 332000002 cycles: 3619261904 heartbeat IPC: 0.0910238 cumulative IPC: 0.0914674 (Simulation time: 1 hr 32 min 55 sec) 
Heartbeat CPU 0 instructions: 333000001 cycles: 3630209018 heartbeat IPC: 0.0913482 cumulative IPC: 0.091467 (Simulation time: 1 hr 33 min 13 sec) 
Heartbeat CPU 0 instructions: 334000000 cycles: 3640271580 heartbeat IPC: 0.0993782 cumulative IPC: 0.0914889 (Simulation time: 1 hr 33 min 31 sec) 
Heartbeat CPU 0 instructions: 335000002 cycles: 3651211327 heartbeat IPC: 0.09141 cumulative IPC: 0.0914887 (Simulation time: 1 hr 33 min 49 sec) 
Heartbeat CPU 0 instructions: 336000003 cycles: 3662156384 heartbeat IPC: 0.0913655 cumulative IPC: 0.0914883 (Simulation time: 1 hr 34 min 7 sec) 
Heartbeat CPU 0 instructions: 337000003 cycles: 3673105737 heartbeat IPC: 0.0913296 cumulative IPC: 0.0914878 (Simulation time: 1 hr 34 min 25 sec) 
Heartbeat CPU 0 instructions: 338000000 cycles: 3684049920 heartbeat IPC: 0.0913725 cumulative IPC: 0.0914875 (Simulation time: 1 hr 34 min 43 sec) 
Heartbeat CPU 0 instructions: 339000001 cycles: 3695042901 heartbeat IPC: 0.0909672 cumulative IPC: 0.0914859 (Simulation time: 1 hr 35 min 2 sec) 
Heartbeat CPU 0 instructions: 340000002 cycles: 3706022008 heartbeat IPC: 0.0910822 cumulative IPC: 0.0914848 (Simulation time: 1 hr 35 min 20 sec) 
Heartbeat CPU 0 instructions: 341000000 cycles: 3717004308 heartbeat IPC: 0.0910554 cumulative IPC: 0.0914835 (Simulation time: 1 hr 35 min 38 sec) 
Heartbeat CPU 0 instructions: 342000003 cycles: 3727998127 heartbeat IPC: 0.0909605 cumulative IPC: 0.0914819 (Simulation time: 1 hr 35 min 57 sec) 
Heartbeat CPU 0 instructions: 343000001 cycles: 3738926202 heartbeat IPC: 0.0915072 cumulative IPC: 0.091482 (Simulation time: 1 hr 36 min 15 sec) 
Heartbeat CPU 0 instructions: 344000000 cycles: 3749877028 heartbeat IPC: 0.0913172 cumulative IPC: 0.0914815 (Simulation time: 1 hr 36 min 33 sec) 
Heartbeat CPU 0 instructions: 345000001 cycles: 3760908070 heartbeat IPC: 0.0906534 cumulative IPC: 0.0914791 (Simulation time: 1 hr 36 min 52 sec) 
Heartbeat CPU 0 instructions: 346000001 cycles: 3771864503 heartbeat IPC: 0.0912706 cumulative IPC: 0.0914785 (Simulation time: 1 hr 37 min 10 sec) 
Heartbeat CPU 0 instructions: 347000002 cycles: 3782887009 heartbeat IPC: 0.0907236 cumulative IPC: 0.0914763 (Simulation time: 1 hr 37 min 28 sec) 
Heartbeat CPU 0 instructions: 348000002 cycles: 3793870298 heartbeat IPC: 0.0910474 cumulative IPC: 0.0914751 (Simulation time: 1 hr 37 min 47 sec) 
Heartbeat CPU 0 instructions: 349000000 cycles: 3804802585 heartbeat IPC: 0.091472 cumulative IPC: 0.091475 (Simulation time: 1 hr 38 min 5 sec) 
Heartbeat CPU 0 instructions: 350000000 cycles: 3815813101 heartbeat IPC: 0.0908223 cumulative IPC: 0.0914732 (Simulation time: 1 hr 38 min 23 sec) 
Heartbeat CPU 0 instructions: 351000000 cycles: 3826768460 heartbeat IPC: 0.0912795 cumulative IPC: 0.0914726 (Simulation time: 1 hr 38 min 42 sec) 
Heartbeat CPU 0 instructions: 352000000 cycles: 3837722930 heartbeat IPC: 0.0912869 cumulative IPC: 0.0914721 (Simulation time: 1 hr 39 min 0 sec) 
Heartbeat CPU 0 instructions: 353000000 cycles: 3848662561 heartbeat IPC: 0.0914108 cumulative IPC: 0.0914719 (Simulation time: 1 hr 39 min 19 sec) 
Heartbeat CPU 0 instructions: 354000001 cycles: 3859643175 heartbeat IPC: 0.0910697 cumulative IPC: 0.0914708 (Simulation time: 1 hr 39 min 37 sec) 
Heartbeat CPU 0 instructions: 355000000 cycles: 3870589850 heartbeat IPC: 0.0913519 cumulative IPC: 0.0914704 (Simulation time: 1 hr 39 min 55 sec) 
Heartbeat CPU 0 instructions: 356000001 cycles: 3881539355 heartbeat IPC: 0.0913284 cumulative IPC: 0.09147 (Simulation time: 1 hr 40 min 14 sec) 
Heartbeat CPU 0 instructions: 357000000 cycles: 3892475691 heartbeat IPC: 0.0914382 cumulative IPC: 0.0914699 (Simulation time: 1 hr 40 min 32 sec) 
Heartbeat CPU 0 instructions: 358000000 cycles: 3903453400 heartbeat IPC: 0.0910937 cumulative IPC: 0.0914689 (Simulation time: 1 hr 40 min 51 sec) 
Heartbeat CPU 0 instructions: 359000002 cycles: 3914443548 heartbeat IPC: 0.0909908 cumulative IPC: 0.0914675 (Simulation time: 1 hr 41 min 9 sec) 
Heartbeat CPU 0 instructions: 360000002 cycles: 3925393630 heartbeat IPC: 0.0913235 cumulative IPC: 0.0914671 (Simulation time: 1 hr 41 min 28 sec) 
Heartbeat CPU 0 instructions: 361000003 cycles: 3936357196 heartbeat IPC: 0.0912113 cumulative IPC: 0.0914664 (Simulation time: 1 hr 41 min 47 sec) 
Heartbeat CPU 0 instructions: 362000001 cycles: 3947300750 heartbeat IPC: 0.0913778 cumulative IPC: 0.0914662 (Simulation time: 1 hr 42 min 4 sec) 
Heartbeat CPU 0 instructions: 363000000 cycles: 3958284512 heartbeat IPC: 0.0910434 cumulative IPC: 0.091465 (Simulation time: 1 hr 42 min 22 sec) 
Heartbeat CPU 0 instructions: 364000002 cycles: 3969258480 heartbeat IPC: 0.0911249 cumulative IPC: 0.0914641 (Simulation time: 1 hr 42 min 40 sec) 
Heartbeat CPU 0 instructions: 365000000 cycles: 3980249810 heartbeat IPC: 0.0909806 cumulative IPC: 0.0914627 (Simulation time: 1 hr 42 min 58 sec) 
Heartbeat CPU 0 instructions: 366000002 cycles: 3991192206 heartbeat IPC: 0.0913878 cumulative IPC: 0.0914625 (Simulation time: 1 hr 43 min 16 sec) 
Heartbeat CPU 0 instructions: 367000001 cycles: 4002116188 heartbeat IPC: 0.0915416 cumulative IPC: 0.0914627 (Simulation time: 1 hr 43 min 35 sec) 
Heartbeat CPU 0 instructions: 368000000 cycles: 4013117416 heartbeat IPC: 0.0908988 cumulative IPC: 0.0914612 (Simulation time: 1 hr 43 min 53 sec) 
Heartbeat CPU 0 instructions: 369000001 cycles: 4024102739 heartbeat IPC: 0.0910306 cumulative IPC: 0.09146 (Simulation time: 1 hr 44 min 11 sec) 
Heartbeat CPU 0 instructions: 370000000 cycles: 4034123424 heartbeat IPC: 0.0997935 cumulative IPC: 0.0914807 (Simulation time: 1 hr 44 min 28 sec) 
Heartbeat CPU 0 instructions: 371000002 cycles: 4045109630 heartbeat IPC: 0.0910234 cumulative IPC: 0.0914795 (Simulation time: 1 hr 44 min 47 sec) 
Heartbeat CPU 0 instructions: 372000000 cycles: 4056048175 heartbeat IPC: 0.0914197 cumulative IPC: 0.0914793 (Simulation time: 1 hr 45 min 5 sec) 
Heartbeat CPU 0 instructions: 373000000 cycles: 4066997703 heartbeat IPC: 0.0913281 cumulative IPC: 0.0914789 (Simulation time: 1 hr 45 min 23 sec) 
Heartbeat CPU 0 instructions: 374000000 cycles: 4077944285 heartbeat IPC: 0.0913527 cumulative IPC: 0.0914786 (Simulation time: 1 hr 45 min 41 sec) 
Heartbeat CPU 0 instructions: 375000001 cycles: 4088930308 heartbeat IPC: 0.0910248 cumulative IPC: 0.0914773 (Simulation time: 1 hr 46 min 0 sec) 
Heartbeat CPU 0 instructions: 376000000 cycles: 4099897389 heartbeat IPC: 0.0911819 cumulative IPC: 0.0914766 (Simulation time: 1 hr 46 min 18 sec) 
Heartbeat CPU 0 instructions: 377000000 cycles: 4110878858 heartbeat IPC: 0.0910625 cumulative IPC: 0.0914754 (Simulation time: 1 hr 46 min 36 sec) 
Heartbeat CPU 0 instructions: 378000001 cycles: 4121882714 heartbeat IPC: 0.0908773 cumulative IPC: 0.0914739 (Simulation time: 1 hr 46 min 54 sec) 
Heartbeat CPU 0 instructions: 379000000 cycles: 4132814422 heartbeat IPC: 0.0914769 cumulative IPC: 0.0914739 (Simulation time: 1 hr 47 min 12 sec) 
Heartbeat CPU 0 instructions: 380000002 cycles: 4143775707 heartbeat IPC: 0.0912304 cumulative IPC: 0.0914732 (Simulation time: 1 hr 47 min 29 sec) 
Heartbeat CPU 0 instructions: 381000002 cycles: 4154794744 heartbeat IPC: 0.090752 cumulative IPC: 0.0914713 (Simulation time: 1 hr 47 min 47 sec) 
Heartbeat CPU 0 instructions: 382000003 cycles: 4165748860 heartbeat IPC: 0.09129 cumulative IPC: 0.0914708 (Simulation time: 1 hr 48 min 5 sec) 
Heartbeat CPU 0 instructions: 383000001 cycles: 4176749780 heartbeat IPC: 0.0909013 cumulative IPC: 0.0914693 (Simulation time: 1 hr 48 min 24 sec) 
Heartbeat CPU 0 instructions: 384000000 cycles: 4187779233 heartbeat IPC: 0.0906662 cumulative IPC: 0.0914672 (Simulation time: 1 hr 48 min 42 sec) 
Heartbeat CPU 0 instructions: 385000000 cycles: 4198709022 heartbeat IPC: 0.0914931 cumulative IPC: 0.0914673 (Simulation time: 1 hr 49 min 0 sec) 
Heartbeat CPU 0 instructions: 386000000 cycles: 4209664173 heartbeat IPC: 0.0912813 cumulative IPC: 0.0914668 (Simulation time: 1 hr 49 min 18 sec) 
Heartbeat CPU 0 instructions: 387000002 cycles: 4220666979 heartbeat IPC: 0.0908861 cumulative IPC: 0.0914653 (Simulation time: 1 hr 49 min 36 sec) 
Heartbeat CPU 0 instructions: 388000000 cycles: 4231618812 heartbeat IPC: 0.0913087 cumulative IPC: 0.0914649 (Simulation time: 1 hr 49 min 54 sec) 
Heartbeat CPU 0 instructions: 389000000 cycles: 4242567500 heartbeat IPC: 0.0913351 cumulative IPC: 0.0914645 (Simulation time: 1 hr 50 min 13 sec) 
Heartbeat CPU 0 instructions: 390000002 cycles: 4253513317 heartbeat IPC: 0.0913593 cumulative IPC: 0.0914643 (Simulation time: 1 hr 50 min 31 sec) 
Heartbeat CPU 0 instructions: 391000001 cycles: 4264489908 heartbeat IPC: 0.0911029 cumulative IPC: 0.0914633 (Simulation time: 1 hr 50 min 49 sec) 
Heartbeat CPU 0 instructions: 392000000 cycles: 4275418684 heartbeat IPC: 0.0915015 cumulative IPC: 0.0914634 (Simulation time: 1 hr 51 min 8 sec) 
Heartbeat CPU 0 instructions: 393000000 cycles: 4286377419 heartbeat IPC: 0.0912514 cumulative IPC: 0.0914629 (Simulation time: 1 hr 51 min 26 sec) 
Heartbeat CPU 0 instructions: 394000001 cycles: 4297315814 heartbeat IPC: 0.0914212 cumulative IPC: 0.0914628 (Simulation time: 1 hr 51 min 44 sec) 
Heartbeat CPU 0 instructions: 395000002 cycles: 4308308702 heartbeat IPC: 0.090968 cumulative IPC: 0.0914615 (Simulation time: 1 hr 52 min 3 sec) 
Heartbeat CPU 0 instructions: 396000000 cycles: 4319283999 heartbeat IPC: 0.0911135 cumulative IPC: 0.0914606 (Simulation time: 1 hr 52 min 21 sec) 
Heartbeat CPU 0 instructions: 397000002 cycles: 4330246077 heartbeat IPC: 0.0912238 cumulative IPC: 0.09146 (Simulation time: 1 hr 52 min 39 sec) 
Heartbeat CPU 0 instructions: 398000003 cycles: 4341212982 heartbeat IPC: 0.0911835 cumulative IPC: 0.0914593 (Simulation time: 1 hr 52 min 57 sec) 
Heartbeat CPU 0 instructions: 399000000 cycles: 4352156880 heartbeat IPC: 0.0913748 cumulative IPC: 0.0914591 (Simulation time: 1 hr 53 min 16 sec) 
Heartbeat CPU 0 instructions: 400000003 cycles: 4363139964 heartbeat IPC: 0.0910494 cumulative IPC: 0.0914581 (Simulation time: 1 hr 53 min 34 sec) 
Heartbeat CPU 0 instructions: 401000000 cycles: 4374125468 heartbeat IPC: 0.0910288 cumulative IPC: 0.091457 (Simulation time: 1 hr 53 min 53 sec) 
Heartbeat CPU 0 instructions: 402000003 cycles: 4385089963 heartbeat IPC: 0.0912037 cumulative IPC: 0.0914564 (Simulation time: 1 hr 54 min 11 sec) 
Heartbeat CPU 0 instructions: 403000003 cycles: 4396026587 heartbeat IPC: 0.0914359 cumulative IPC: 0.0914563 (Simulation time: 1 hr 54 min 29 sec) 
Heartbeat CPU 0 instructions: 404000003 cycles: 4407019336 heartbeat IPC: 0.0909691 cumulative IPC: 0.0914551 (Simulation time: 1 hr 54 min 48 sec) 
Heartbeat CPU 0 instructions: 405000000 cycles: 4418007307 heartbeat IPC: 0.0910083 cumulative IPC: 0.091454 (Simulation time: 1 hr 55 min 6 sec) 
Heartbeat CPU 0 instructions: 406000001 cycles: 4428959630 heartbeat IPC: 0.0913049 cumulative IPC: 0.0914536 (Simulation time: 1 hr 55 min 24 sec) 
Heartbeat CPU 0 instructions: 407000000 cycles: 4439000283 heartbeat IPC: 0.099595 cumulative IPC: 0.0914721 (Simulation time: 1 hr 55 min 42 sec) 
Heartbeat CPU 0 instructions: 408000000 cycles: 4449936499 heartbeat IPC: 0.0914393 cumulative IPC: 0.091472 (Simulation time: 1 hr 56 min 0 sec) 
Heartbeat CPU 0 instructions: 409000001 cycles: 4460891584 heartbeat IPC: 0.0912819 cumulative IPC: 0.0914715 (Simulation time: 1 hr 56 min 18 sec) 
Heartbeat CPU 0 instructions: 410000002 cycles: 4471844285 heartbeat IPC: 0.0913018 cumulative IPC: 0.0914711 (Simulation time: 1 hr 56 min 36 sec) 
Heartbeat CPU 0 instructions: 411000000 cycles: 4482795387 heartbeat IPC: 0.0913148 cumulative IPC: 0.0914707 (Simulation time: 1 hr 56 min 54 sec) 
Heartbeat CPU 0 instructions: 412000000 cycles: 4493784784 heartbeat IPC: 0.0909968 cumulative IPC: 0.0914696 (Simulation time: 1 hr 57 min 12 sec) 
Heartbeat CPU 0 instructions: 413000002 cycles: 4504770530 heartbeat IPC: 0.0910272 cumulative IPC: 0.0914685 (Simulation time: 1 hr 57 min 29 sec) 
Heartbeat CPU 0 instructions: 414000000 cycles: 4515733672 heartbeat IPC: 0.0912145 cumulative IPC: 0.0914679 (Simulation time: 1 hr 57 min 46 sec) 
Heartbeat CPU 0 instructions: 415000003 cycles: 4526735085 heartbeat IPC: 0.0908977 cumulative IPC: 0.0914665 (Simulation time: 1 hr 58 min 4 sec) 
Heartbeat CPU 0 instructions: 416000003 cycles: 4537657941 heartbeat IPC: 0.0915511 cumulative IPC: 0.0914667 (Simulation time: 1 hr 58 min 22 sec) 
Heartbeat CPU 0 instructions: 417000003 cycles: 4548626153 heartbeat IPC: 0.0911726 cumulative IPC: 0.091466 (Simulation time: 1 hr 58 min 40 sec) 
Heartbeat CPU 0 instructions: 418000000 cycles: 4559637530 heartbeat IPC: 0.0908149 cumulative IPC: 0.0914644 (Simulation time: 1 hr 58 min 58 sec) 
Heartbeat CPU 0 instructions: 419000001 cycles: 4570593439 heartbeat IPC: 0.091275 cumulative IPC: 0.0914639 (Simulation time: 1 hr 59 min 17 sec) 
Heartbeat CPU 0 instructions: 420000002 cycles: 4581629861 heartbeat IPC: 0.0906092 cumulative IPC: 0.0914619 (Simulation time: 1 hr 59 min 35 sec) 
Heartbeat CPU 0 instructions: 421000002 cycles: 4592603673 heartbeat IPC: 0.091126 cumulative IPC: 0.0914611 (Simulation time: 1 hr 59 min 53 sec) 
Heartbeat CPU 0 instructions: 422000003 cycles: 4603541218 heartbeat IPC: 0.0914283 cumulative IPC: 0.091461 (Simulation time: 2 hr 0 min 11 sec) 
Heartbeat CPU 0 instructions: 423000000 cycles: 4614552616 heartbeat IPC: 0.0908147 cumulative IPC: 0.0914595 (Simulation time: 2 hr 0 min 28 sec) 
Heartbeat CPU 0 instructions: 424000000 cycles: 4625513323 heartbeat IPC: 0.091235 cumulative IPC: 0.0914589 (Simulation time: 2 hr 0 min 46 sec) 
Heartbeat CPU 0 instructions: 425000002 cycles: 4636456182 heartbeat IPC: 0.091384 cumulative IPC: 0.0914588 (Simulation time: 2 hr 1 min 3 sec) 
Heartbeat CPU 0 instructions: 426000001 cycles: 4647404027 heartbeat IPC: 0.0913421 cumulative IPC: 0.0914585 (Simulation time: 2 hr 1 min 21 sec) 
Heartbeat CPU 0 instructions: 427000000 cycles: 4658377520 heartbeat IPC: 0.0911286 cumulative IPC: 0.0914577 (Simulation time: 2 hr 1 min 38 sec) 
Heartbeat CPU 0 instructions: 428000000 cycles: 4669319257 heartbeat IPC: 0.0913932 cumulative IPC: 0.0914575 (Simulation time: 2 hr 1 min 55 sec) 
Heartbeat CPU 0 instructions: 429000000 cycles: 4680268970 heartbeat IPC: 0.0913266 cumulative IPC: 0.0914572 (Simulation time: 2 hr 2 min 13 sec) 
Heartbeat CPU 0 instructions: 430000001 cycles: 4691203544 heartbeat IPC: 0.0914531 cumulative IPC: 0.0914572 (Simulation time: 2 hr 2 min 32 sec) 
Heartbeat CPU 0 instructions: 431000003 cycles: 4702188631 heartbeat IPC: 0.0910327 cumulative IPC: 0.0914562 (Simulation time: 2 hr 2 min 50 sec) 
Heartbeat CPU 0 instructions: 432000001 cycles: 4713178620 heartbeat IPC: 0.0909917 cumulative IPC: 0.0914552 (Simulation time: 2 hr 3 min 9 sec) 
Heartbeat CPU 0 instructions: 433000001 cycles: 4724139164 heartbeat IPC: 0.0912363 cumulative IPC: 0.0914546 (Simulation time: 2 hr 3 min 27 sec) 
Heartbeat CPU 0 instructions: 434000000 cycles: 4735096177 heartbeat IPC: 0.0912657 cumulative IPC: 0.0914542 (Simulation time: 2 hr 3 min 45 sec) 
Heartbeat CPU 0 instructions: 435000002 cycles: 4746040492 heartbeat IPC: 0.0913718 cumulative IPC: 0.091454 (Simulation time: 2 hr 4 min 3 sec) 
Heartbeat CPU 0 instructions: 436000001 cycles: 4757033168 heartbeat IPC: 0.0909696 cumulative IPC: 0.0914529 (Simulation time: 2 hr 4 min 22 sec) 
Heartbeat CPU 0 instructions: 437000000 cycles: 4768000614 heartbeat IPC: 0.0911788 cumulative IPC: 0.0914523 (Simulation time: 2 hr 4 min 40 sec) 
Heartbeat CPU 0 instructions: 438000003 cycles: 4778992894 heartbeat IPC: 0.0909732 cumulative IPC: 0.0914512 (Simulation time: 2 hr 4 min 58 sec) 
Heartbeat CPU 0 instructions: 439000002 cycles: 4789923152 heartbeat IPC: 0.0914891 cumulative IPC: 0.0914513 (Simulation time: 2 hr 5 min 17 sec) 
Heartbeat CPU 0 instructions: 440000000 cycles: 4800872206 heartbeat IPC: 0.0913319 cumulative IPC: 0.091451 (Simulation time: 2 hr 5 min 35 sec) 
Heartbeat CPU 0 instructions: 441000000 cycles: 4811853334 heartbeat IPC: 0.0910653 cumulative IPC: 0.0914501 (Simulation time: 2 hr 5 min 53 sec) 
Heartbeat CPU 0 instructions: 442000000 cycles: 4822843532 heartbeat IPC: 0.0909902 cumulative IPC: 0.0914491 (Simulation time: 2 hr 6 min 11 sec) 
Heartbeat CPU 0 instructions: 443000000 cycles: 4831747978 heartbeat IPC: 0.112303 cumulative IPC: 0.0914875 (Simulation time: 2 hr 6 min 27 sec) 
Heartbeat CPU 0 instructions: 444000003 cycles: 4837445500 heartbeat IPC: 0.175515 cumulative IPC: 0.0915865 (Simulation time: 2 hr 6 min 37 sec) 
Heartbeat CPU 0 instructions: 445000000 cycles: 4848430139 heartbeat IPC: 0.0910359 cumulative IPC: 0.0915852 (Simulation time: 2 hr 6 min 55 sec) 
Heartbeat CPU 0 instructions: 446000000 cycles: 4859388607 heartbeat IPC: 0.0912536 cumulative IPC: 0.0915845 (Simulation time: 2 hr 7 min 12 sec) 
Heartbeat CPU 0 instructions: 447000001 cycles: 4870341923 heartbeat IPC: 0.0912966 cumulative IPC: 0.0915838 (Simulation time: 2 hr 7 min 30 sec) 
Heartbeat CPU 0 instructions: 448000003 cycles: 4881306603 heartbeat IPC: 0.0912021 cumulative IPC: 0.091583 (Simulation time: 2 hr 7 min 48 sec) 
Heartbeat CPU 0 instructions: 449000000 cycles: 4892282709 heartbeat IPC: 0.0911067 cumulative IPC: 0.0915819 (Simulation time: 2 hr 8 min 6 sec) 
Heartbeat CPU 0 instructions: 450000000 cycles: 4903274255 heartbeat IPC: 0.090979 cumulative IPC: 0.0915805 (Simulation time: 2 hr 8 min 25 sec) 

Warmup complete CPU 0 instructions: 450000004 cycles: 4903274256 (Simulation time: 2 hr 8 min 25 sec) 

Heartbeat CPU 0 instructions: 451000000 cycles: 4909516889 heartbeat IPC: 0.160189 cumulative IPC: 0.160188 (Simulation time: 2 hr 8 min 37 sec) 
Heartbeat CPU 0 instructions: 452000003 cycles: 4915559332 heartbeat IPC: 0.165496 cumulative IPC: 0.162799 (Simulation time: 2 hr 8 min 49 sec) 
Heartbeat CPU 0 instructions: 453000000 cycles: 4921700932 heartbeat IPC: 0.162824 cumulative IPC: 0.162807 (Simulation time: 2 hr 9 min 2 sec) 
Heartbeat CPU 0 instructions: 454000000 cycles: 4927709454 heartbeat IPC: 0.16643 cumulative IPC: 0.163698 (Simulation time: 2 hr 9 min 14 sec) 
Heartbeat CPU 0 instructions: 455000000 cycles: 4933729994 heartbeat IPC: 0.166098 cumulative IPC: 0.164173 (Simulation time: 2 hr 9 min 26 sec) 
Heartbeat CPU 0 instructions: 456000003 cycles: 4939618056 heartbeat IPC: 0.169836 cumulative IPC: 0.16509 (Simulation time: 2 hr 9 min 38 sec) 
Heartbeat CPU 0 instructions: 457000003 cycles: 4945614633 heartbeat IPC: 0.166762 cumulative IPC: 0.165327 (Simulation time: 2 hr 9 min 50 sec) 
Heartbeat CPU 0 instructions: 458000000 cycles: 4951699820 heartbeat IPC: 0.164333 cumulative IPC: 0.165202 (Simulation time: 2 hr 10 min 3 sec) 
Heartbeat CPU 0 instructions: 459000002 cycles: 4957703279 heartbeat IPC: 0.166571 cumulative IPC: 0.165353 (Simulation time: 2 hr 10 min 15 sec) 
Heartbeat CPU 0 instructions: 460000000 cycles: 4963832487 heartbeat IPC: 0.163153 cumulative IPC: 0.16513 (Simulation time: 2 hr 10 min 27 sec) 
Heartbeat CPU 0 instructions: 461000000 cycles: 4969828766 heartbeat IPC: 0.16677 cumulative IPC: 0.165278 (Simulation time: 2 hr 10 min 40 sec) 
Heartbeat CPU 0 instructions: 462000000 cycles: 4976059259 heartbeat IPC: 0.160501 cumulative IPC: 0.164869 (Simulation time: 2 hr 10 min 52 sec) 
Heartbeat CPU 0 instructions: 463000001 cycles: 4982342645 heartbeat IPC: 0.15915 cumulative IPC: 0.164415 (Simulation time: 2 hr 11 min 5 sec) 
Heartbeat CPU 0 instructions: 464000000 cycles: 4988521130 heartbeat IPC: 0.161852 cumulative IPC: 0.164229 (Simulation time: 2 hr 11 min 17 sec) 
Heartbeat CPU 0 instructions: 465000001 cycles: 4994682123 heartbeat IPC: 0.162312 cumulative IPC: 0.1641 (Simulation time: 2 hr 11 min 30 sec) 
Heartbeat CPU 0 instructions: 466000000 cycles: 5000953488 heartbeat IPC: 0.159455 cumulative IPC: 0.163801 (Simulation time: 2 hr 11 min 42 sec) 
Heartbeat CPU 0 instructions: 467000001 cycles: 5007241612 heartbeat IPC: 0.15903 cumulative IPC: 0.163513 (Simulation time: 2 hr 11 min 54 sec) 
Heartbeat CPU 0 instructions: 468000000 cycles: 5013524395 heartbeat IPC: 0.159165 cumulative IPC: 0.163265 (Simulation time: 2 hr 12 min 7 sec) 
Heartbeat CPU 0 instructions: 469000001 cycles: 5019804773 heartbeat IPC: 0.159226 cumulative IPC: 0.163047 (Simulation time: 2 hr 12 min 20 sec) 
Heartbeat CPU 0 instructions: 470000000 cycles: 5026076707 heartbeat IPC: 0.15944 cumulative IPC: 0.162863 (Simulation time: 2 hr 12 min 32 sec) 
Heartbeat CPU 0 instructions: 471000001 cycles: 5032376410 heartbeat IPC: 0.158738 cumulative IPC: 0.162662 (Simulation time: 2 hr 12 min 45 sec) 
Heartbeat CPU 0 instructions: 472000002 cycles: 5038676255 heartbeat IPC: 0.158734 cumulative IPC: 0.162479 (Simulation time: 2 hr 12 min 57 sec) 
Heartbeat CPU 0 instructions: 473000000 cycles: 5044957312 heartbeat IPC: 0.159209 cumulative IPC: 0.162334 (Simulation time: 2 hr 13 min 10 sec) 
Heartbeat CPU 0 instructions: 474000001 cycles: 5051236002 heartbeat IPC: 0.159269 cumulative IPC: 0.162204 (Simulation time: 2 hr 13 min 22 sec) 
Heartbeat CPU 0 instructions: 475000000 cycles: 5057519978 heartbeat IPC: 0.159135 cumulative IPC: 0.162079 (Simulation time: 2 hr 13 min 34 sec) 
Heartbeat CPU 0 instructions: 476000002 cycles: 5063814616 heartbeat IPC: 0.158866 cumulative IPC: 0.161953 (Simulation time: 2 hr 13 min 47 sec) 
Heartbeat CPU 0 instructions: 477000000 cycles: 5070109630 heartbeat IPC: 0.158856 cumulative IPC: 0.161836 (Simulation time: 2 hr 13 min 59 sec) 
Heartbeat CPU 0 instructions: 478000000 cycles: 5076403377 heartbeat IPC: 0.158888 cumulative IPC: 0.161729 (Simulation time: 2 hr 14 min 12 sec) 
Heartbeat CPU 0 instructions: 479000003 cycles: 5082479925 heartbeat IPC: 0.164568 cumulative IPC: 0.161825 (Simulation time: 2 hr 14 min 25 sec) 
Heartbeat CPU 0 instructions: 480000000 cycles: 5088590883 heartbeat IPC: 0.16364 cumulative IPC: 0.161885 (Simulation time: 2 hr 14 min 37 sec) 
Heartbeat CPU 0 instructions: 481000002 cycles: 5094784313 heartbeat IPC: 0.161462 cumulative IPC: 0.161871 (Simulation time: 2 hr 14 min 49 sec) 
Heartbeat CPU 0 instructions: 482000002 cycles: 5100798855 heartbeat IPC: 0.166264 cumulative IPC: 0.162005 (Simulation time: 2 hr 15 min 1 sec) 
Heartbeat CPU 0 instructions: 483000001 cycles: 5106696040 heartbeat IPC: 0.169572 cumulative IPC: 0.162225 (Simulation time: 2 hr 15 min 13 sec) 
Heartbeat CPU 0 instructions: 484000000 cycles: 5111551923 heartbeat IPC: 0.205936 cumulative IPC: 0.163244 (Simulation time: 2 hr 15 min 24 sec) 
Heartbeat CPU 0 instructions: 485000000 cycles: 5117826203 heartbeat IPC: 0.159381 cumulative IPC: 0.163131 (Simulation time: 2 hr 15 min 37 sec) 
Heartbeat CPU 0 instructions: 486000000 cycles: 5124100375 heartbeat IPC: 0.159384 cumulative IPC: 0.163024 (Simulation time: 2 hr 15 min 49 sec) 
Heartbeat CPU 0 instructions: 487000000 cycles: 5130389277 heartbeat IPC: 0.15901 cumulative IPC: 0.162913 (Simulation time: 2 hr 16 min 1 sec) 
Heartbeat CPU 0 instructions: 488000000 cycles: 5136673513 heartbeat IPC: 0.159128 cumulative IPC: 0.162811 (Simulation time: 2 hr 16 min 14 sec) 
Heartbeat CPU 0 instructions: 489000002 cycles: 5142970687 heartbeat IPC: 0.158802 cumulative IPC: 0.162706 (Simulation time: 2 hr 16 min 26 sec) 
Heartbeat CPU 0 instructions: 490000000 cycles: 5149262308 heartbeat IPC: 0.158941 cumulative IPC: 0.16261 (Simulation time: 2 hr 16 min 39 sec) 
Heartbeat CPU 0 instructions: 491000002 cycles: 5155559124 heartbeat IPC: 0.158811 cumulative IPC: 0.162515 (Simulation time: 2 hr 16 min 51 sec) 
Heartbeat CPU 0 instructions: 492000000 cycles: 5161854185 heartbeat IPC: 0.158854 cumulative IPC: 0.162426 (Simulation time: 2 hr 17 min 4 sec) 
Heartbeat CPU 0 instructions: 493000001 cycles: 5168129227 heartbeat IPC: 0.159362 cumulative IPC: 0.162353 (Simulation time: 2 hr 17 min 16 sec) 
Heartbeat CPU 0 instructions: 494000000 cycles: 5174418742 heartbeat IPC: 0.158995 cumulative IPC: 0.162275 (Simulation time: 2 hr 17 min 28 sec) 
Heartbeat CPU 0 instructions: 495000000 cycles: 5180733826 heartbeat IPC: 0.158351 cumulative IPC: 0.162186 (Simulation time: 2 hr 17 min 41 sec) 
Heartbeat CPU 0 instructions: 496000001 cycles: 5187016859 heartbeat IPC: 0.159159 cumulative IPC: 0.162119 (Simulation time: 2 hr 17 min 53 sec) 
Heartbeat CPU 0 instructions: 497000001 cycles: 5193327677 heartbeat IPC: 0.158458 cumulative IPC: 0.162039 (Simulation time: 2 hr 18 min 5 sec) 
Heartbeat CPU 0 instructions: 498000000 cycles: 5199641837 heartbeat IPC: 0.158374 cumulative IPC: 0.161961 (Simulation time: 2 hr 18 min 18 sec) 
Heartbeat CPU 0 instructions: 499000003 cycles: 5205916641 heartbeat IPC: 0.159368 cumulative IPC: 0.161907 (Simulation time: 2 hr 18 min 30 sec) 
Heartbeat CPU 0 instructions: 500000000 cycles: 5212221408 heartbeat IPC: 0.15861 cumulative IPC: 0.16184 (Simulation time: 2 hr 18 min 43 sec) 
Heartbeat CPU 0 instructions: 501000002 cycles: 5218509715 heartbeat IPC: 0.159026 cumulative IPC: 0.161784 (Simulation time: 2 hr 18 min 55 sec) 
Heartbeat CPU 0 instructions: 502000000 cycles: 5224801347 heartbeat IPC: 0.158941 cumulative IPC: 0.161728 (Simulation time: 2 hr 19 min 8 sec) 
Heartbeat CPU 0 instructions: 503000000 cycles: 5231079913 heartbeat IPC: 0.159272 cumulative IPC: 0.161681 (Simulation time: 2 hr 19 min 21 sec) 
Heartbeat CPU 0 instructions: 504000001 cycles: 5237367301 heartbeat IPC: 0.159049 cumulative IPC: 0.161632 (Simulation time: 2 hr 19 min 33 sec) 
Heartbeat CPU 0 instructions: 505000001 cycles: 5243650512 heartbeat IPC: 0.159154 cumulative IPC: 0.161586 (Simulation time: 2 hr 19 min 46 sec) 
Heartbeat CPU 0 instructions: 506000000 cycles: 5249918998 heartbeat IPC: 0.159528 cumulative IPC: 0.161549 (Simulation time: 2 hr 19 min 58 sec) 
Heartbeat CPU 0 instructions: 507000000 cycles: 5256199595 heartbeat IPC: 0.159221 cumulative IPC: 0.161507 (Simulation time: 2 hr 20 min 11 sec) 
Heartbeat CPU 0 instructions: 508000002 cycles: 5262492006 heartbeat IPC: 0.158922 cumulative IPC: 0.161462 (Simulation time: 2 hr 20 min 24 sec) 
Heartbeat CPU 0 instructions: 509000002 cycles: 5268796946 heartbeat IPC: 0.158606 cumulative IPC: 0.161413 (Simulation time: 2 hr 20 min 36 sec) 
Heartbeat CPU 0 instructions: 510000001 cycles: 5275069343 heartbeat IPC: 0.159429 cumulative IPC: 0.161379 (Simulation time: 2 hr 20 min 49 sec) 
Heartbeat CPU 0 instructions: 511000000 cycles: 5281357710 heartbeat IPC: 0.159024 cumulative IPC: 0.16134 (Simulation time: 2 hr 21 min 1 sec) 
Heartbeat CPU 0 instructions: 512000000 cycles: 5287633984 heartbeat IPC: 0.15933 cumulative IPC: 0.161307 (Simulation time: 2 hr 21 min 14 sec) 
Heartbeat CPU 0 instructions: 513000000 cycles: 5293927949 heartbeat IPC: 0.158882 cumulative IPC: 0.161268 (Simulation time: 2 hr 21 min 26 sec) 
Heartbeat CPU 0 instructions: 514000003 cycles: 5300218752 heartbeat IPC: 0.158963 cumulative IPC: 0.161232 (Simulation time: 2 hr 21 min 39 sec) 
Heartbeat CPU 0 instructions: 515000003 cycles: 5306519550 heartbeat IPC: 0.15871 cumulative IPC: 0.161192 (Simulation time: 2 hr 21 min 51 sec) 
Heartbeat CPU 0 instructions: 516000001 cycles: 5312799239 heartbeat IPC: 0.159243 cumulative IPC: 0.161162 (Simulation time: 2 hr 22 min 4 sec) 
Heartbeat CPU 0 instructions: 517000000 cycles: 5319068994 heartbeat IPC: 0.159496 cumulative IPC: 0.161137 (Simulation time: 2 hr 22 min 16 sec) 
Heartbeat CPU 0 instructions: 518000000 cycles: 5325368264 heartbeat IPC: 0.158749 cumulative IPC: 0.161102 (Simulation time: 2 hr 22 min 29 sec) 
Heartbeat CPU 0 instructions: 519000001 cycles: 5331693658 heartbeat IPC: 0.158093 cumulative IPC: 0.161057 (Simulation time: 2 hr 22 min 41 sec) 
Heartbeat CPU 0 instructions: 520000001 cycles: 5337507332 heartbeat IPC: 0.172008 cumulative IPC: 0.161204 (Simulation time: 2 hr 22 min 53 sec) 
Heartbeat CPU 0 instructions: 521000001 cycles: 5342914224 heartbeat IPC: 0.184949 cumulative IPC: 0.161496 (Simulation time: 2 hr 23 min 5 sec) 
Heartbeat CPU 0 instructions: 522000001 cycles: 5349179267 heartbeat IPC: 0.159616 cumulative IPC: 0.161469 (Simulation time: 2 hr 23 min 17 sec) 
Heartbeat CPU 0 instructions: 523000000 cycles: 5355451313 heartbeat IPC: 0.159437 cumulative IPC: 0.161441 (Simulation time: 2 hr 23 min 30 sec) 
Heartbeat CPU 0 instructions: 524000002 cycles: 5361734648 heartbeat IPC: 0.159151 cumulative IPC: 0.16141 (Simulation time: 2 hr 23 min 42 sec) 
Heartbeat CPU 0 instructions: 525000000 cycles: 5368027425 heartbeat IPC: 0.158912 cumulative IPC: 0.161376 (Simulation time: 2 hr 23 min 55 sec) 
Heartbeat CPU 0 instructions: 526000000 cycles: 5374318045 heartbeat IPC: 0.158967 cumulative IPC: 0.161344 (Simulation time: 2 hr 24 min 7 sec) 
Heartbeat CPU 0 instructions: 527000002 cycles: 5380603338 heartbeat IPC: 0.159102 cumulative IPC: 0.161314 (Simulation time: 2 hr 24 min 20 sec) 
Heartbeat CPU 0 instructions: 528000000 cycles: 5386890658 heartbeat IPC: 0.15905 cumulative IPC: 0.161285 (Simulation time: 2 hr 24 min 33 sec) 
Heartbeat CPU 0 instructions: 529000001 cycles: 5393171270 heartbeat IPC: 0.15922 cumulative IPC: 0.161258 (Simulation time: 2 hr 24 min 45 sec) 
Heartbeat CPU 0 instructions: 530000001 cycles: 5399448261 heartbeat IPC: 0.159312 cumulative IPC: 0.161234 (Simulation time: 2 hr 24 min 58 sec) 
Heartbeat CPU 0 instructions: 531000001 cycles: 5405728846 heartbeat IPC: 0.159221 cumulative IPC: 0.161209 (Simulation time: 2 hr 25 min 10 sec) 
Heartbeat CPU 0 instructions: 532000001 cycles: 5412018777 heartbeat IPC: 0.158984 cumulative IPC: 0.161181 (Simulation time: 2 hr 25 min 22 sec) 
Heartbeat CPU 0 instructions: 533000000 cycles: 5418301849 heartbeat IPC: 0.159158 cumulative IPC: 0.161156 (Simulation time: 2 hr 25 min 35 sec) 
Heartbeat CPU 0 instructions: 534000000 cycles: 5424621341 heartbeat IPC: 0.158241 cumulative IPC: 0.161121 (Simulation time: 2 hr 25 min 47 sec) 
Heartbeat CPU 0 instructions: 535000000 cycles: 5430910466 heartbeat IPC: 0.159005 cumulative IPC: 0.161096 (Simulation time: 2 hr 26 min 0 sec) 
Heartbeat CPU 0 instructions: 536000000 cycles: 5437181293 heartbeat IPC: 0.159469 cumulative IPC: 0.161077 (Simulation time: 2 hr 26 min 13 sec) 
Heartbeat CPU 0 instructions: 537000002 cycles: 5443495066 heartbeat IPC: 0.158384 cumulative IPC: 0.161045 (Simulation time: 2 hr 26 min 26 sec) 
[...]
Heartbeat CPU 0 instructions: 836000000 cycles: 7286868971 heartbeat IPC: 0.158177 cumulative IPC: 0.16194 (Simulation time: 3 hr 28 min 23 sec) 
Heartbeat CPU 0 instructions: 837000000 cycles: 7293158056 heartbeat IPC: 0.159006 cumulative IPC: 0.161933 (Simulation time: 3 hr 28 min 36 sec) 
Heartbeat CPU 0 instructions: 838000001 cycles: 7299428989 heartbeat IPC: 0.159466 cumulative IPC: 0.161926 (Simulation time: 3 hr 28 min 49 sec) 
Heartbeat CPU 0 instructions: 839000001 cycles: 7305737504 heartbeat IPC: 0.158516 cumulative IPC: 0.161917 (Simulation time: 3 hr 29 min 2 sec) 
Heartbeat CPU 0 instructions: 840000000 cycles: 7312025778 heartbeat IPC: 0.159026 cumulative IPC: 0.16191 (Simulation time: 3 hr 29 min 14 sec) 
Heartbeat CPU 0 instructions: 841000001 cycles: 7318311830 heartbeat IPC: 0.159083 cumulative IPC: 0.161902 (Simulation time: 3 hr 29 min 27 sec) 
Heartbeat CPU 0 instructions: 842000001 cycles: 7324585969 heartbeat IPC: 0.159384 cumulative IPC: 0.161896 (Simulation time: 3 hr 29 min 39 sec) 
Heartbeat CPU 0 instructions: 843000003 cycles: 7330869722 heartbeat IPC: 0.159141 cumulative IPC: 0.161889 (Simulation time: 3 hr 29 min 51 sec) 
Heartbeat CPU 0 instructions: 844000000 cycles: 7337150677 heartbeat IPC: 0.159211 cumulative IPC: 0.161882 (Simulation time: 3 hr 30 min 4 sec) 
Heartbeat CPU 0 instructions: 845000001 cycles: 7343428002 heartbeat IPC: 0.159304 cumulative IPC: 0.161875 (Simulation time: 3 hr 30 min 16 sec) 
Heartbeat CPU 0 instructions: 846000000 cycles: 7349697187 heartbeat IPC: 0.15951 cumulative IPC: 0.161869 (Simulation time: 3 hr 30 min 28 sec) 
Heartbeat CPU 0 instructions: 847000000 cycles: 7355998773 heartbeat IPC: 0.15869 cumulative IPC: 0.161861 (Simulation time: 3 hr 30 min 40 sec) 
Heartbeat CPU 0 instructions: 848000001 cycles: 7362301350 heartbeat IPC: 0.158665 cumulative IPC: 0.161853 (Simulation time: 3 hr 30 min 53 sec) 
Heartbeat CPU 0 instructions: 849000003 cycles: 7368581283 heartbeat IPC: 0.159238 cumulative IPC: 0.161846 (Simulation time: 3 hr 31 min 5 sec) 
Heartbeat CPU 0 instructions: 850000000 cycles: 7374862643 heartbeat IPC: 0.159201 cumulative IPC: 0.161839 (Simulation time: 3 hr 31 min 17 sec) 
Heartbeat CPU 0 instructions: 851000000 cycles: 7381146618 heartbeat IPC: 0.159135 cumulative IPC: 0.161832 (Simulation time: 3 hr 31 min 29 sec) 
Heartbeat CPU 0 instructions: 852000003 cycles: 7387437260 heartbeat IPC: 0.158967 cumulative IPC: 0.161825 (Simulation time: 3 hr 31 min 42 sec) 
Heartbeat CPU 0 instructions: 853000000 cycles: 7393733243 heartbeat IPC: 0.158831 cumulative IPC: 0.161818 (Simulation time: 3 hr 31 min 54 sec) 
Heartbeat CPU 0 instructions: 854000001 cycles: 7400024752 heartbeat IPC: 0.158945 cumulative IPC: 0.16181 (Simulation time: 3 hr 32 min 6 sec) 
Heartbeat CPU 0 instructions: 855000001 cycles: 7406300238 heartbeat IPC: 0.15935 cumulative IPC: 0.161804 (Simulation time: 3 hr 32 min 18 sec) 
Heartbeat CPU 0 instructions: 856000000 cycles: 7412589088 heartbeat IPC: 0.159011 cumulative IPC: 0.161797 (Simulation time: 3 hr 32 min 31 sec) 
Heartbeat CPU 0 instructions: 857000003 cycles: 7418872234 heartbeat IPC: 0.159156 cumulative IPC: 0.161791 (Simulation time: 3 hr 32 min 43 sec) 
Heartbeat CPU 0 instructions: 858000000 cycles: 7425163784 heartbeat IPC: 0.158943 cumulative IPC: 0.161783 (Simulation time: 3 hr 32 min 55 sec) 
Heartbeat CPU 0 instructions: 859000001 cycles: 7429995340 heartbeat IPC: 0.206973 cumulative IPC: 0.16187 (Simulation time: 3 hr 33 min 6 sec) 
Heartbeat CPU 0 instructions: 860000001 cycles: 7436278925 heartbeat IPC: 0.159145 cumulative IPC: 0.161863 (Simulation time: 3 hr 33 min 19 sec) 
Heartbeat CPU 0 instructions: 861000001 cycles: 7442546737 heartbeat IPC: 0.159545 cumulative IPC: 0.161857 (Simulation time: 3 hr 33 min 31 sec) 
Heartbeat CPU 0 instructions: 862000002 cycles: 7448832228 heartbeat IPC: 0.159097 cumulative IPC: 0.161851 (Simulation time: 3 hr 33 min 44 sec) 
Heartbeat CPU 0 instructions: 863000001 cycles: 7455107974 heartbeat IPC: 0.159343 cumulative IPC: 0.161844 (Simulation time: 3 hr 33 min 57 sec) 
Heartbeat CPU 0 instructions: 864000003 cycles: 7461410146 heartbeat IPC: 0.158676 cumulative IPC: 0.161837 (Simulation time: 3 hr 34 min 10 sec) 
Heartbeat CPU 0 instructions: 865000000 cycles: 7467695643 heartbeat IPC: 0.159096 cumulative IPC: 0.16183 (Simulation time: 3 hr 34 min 22 sec) 
Heartbeat CPU 0 instructions: 866000000 cycles: 7473984439 heartbeat IPC: 0.159013 cumulative IPC: 0.161823 (Simulation time: 3 hr 34 min 35 sec) 
Heartbeat CPU 0 instructions: 867000000 cycles: 7480270045 heartbeat IPC: 0.159094 cumulative IPC: 0.161816 (Simulation time: 3 hr 34 min 48 sec) 
Heartbeat CPU 0 instructions: 868000002 cycles: 7486541186 heartbeat IPC: 0.159461 cumulative IPC: 0.161811 (Simulation time: 3 hr 35 min 1 sec) 
Heartbeat CPU 0 instructions: 869000000 cycles: 7492825868 heartbeat IPC: 0.159117 cumulative IPC: 0.161804 (Simulation time: 3 hr 35 min 13 sec) 
Heartbeat CPU 0 instructions: 870000002 cycles: 7499118652 heartbeat IPC: 0.158912 cumulative IPC: 0.161797 (Simulation time: 3 hr 35 min 26 sec) 
Heartbeat CPU 0 instructions: 871000000 cycles: 7505402358 heartbeat IPC: 0.159141 cumulative IPC: 0.161791 (Simulation time: 3 hr 35 min 39 sec) 
Heartbeat CPU 0 instructions: 872000001 cycles: 7511701238 heartbeat IPC: 0.158759 cumulative IPC: 0.161783 (Simulation time: 3 hr 35 min 52 sec) 
Heartbeat CPU 0 instructions: 873000001 cycles: 7518025787 heartbeat IPC: 0.158114 cumulative IPC: 0.161774 (Simulation time: 3 hr 36 min 4 sec) 
Heartbeat CPU 0 instructions: 874000000 cycles: 7524298128 heartbeat IPC: 0.15943 cumulative IPC: 0.161769 (Simulation time: 3 hr 36 min 17 sec) 
Heartbeat CPU 0 instructions: 875000000 cycles: 7530578117 heartbeat IPC: 0.159236 cumulative IPC: 0.161763 (Simulation time: 3 hr 36 min 30 sec) 
Heartbeat CPU 0 instructions: 876000000 cycles: 7536884402 heartbeat IPC: 0.158572 cumulative IPC: 0.161755 (Simulation time: 3 hr 36 min 43 sec) 
Heartbeat CPU 0 instructions: 877000001 cycles: 7543158547 heartbeat IPC: 0.159384 cumulative IPC: 0.16175 (Simulation time: 3 hr 36 min 55 sec) 
Heartbeat CPU 0 instructions: 878000003 cycles: 7549448900 heartbeat IPC: 0.158974 cumulative IPC: 0.161743 (Simulation time: 3 hr 37 min 8 sec) 
Heartbeat CPU 0 instructions: 879000001 cycles: 7555722284 heartbeat IPC: 0.159403 cumulative IPC: 0.161737 (Simulation time: 3 hr 37 min 20 sec) 
Heartbeat CPU 0 instructions: 880000000 cycles: 7562011826 heartbeat IPC: 0.158994 cumulative IPC: 0.161731 (Simulation time: 3 hr 37 min 33 sec) 
Heartbeat CPU 0 instructions: 881000000 cycles: 7568284213 heartbeat IPC: 0.159429 cumulative IPC: 0.161725 (Simulation time: 3 hr 37 min 46 sec) 
Heartbeat CPU 0 instructions: 882000002 cycles: 7574569041 heartbeat IPC: 0.159114 cumulative IPC: 0.161719 (Simulation time: 3 hr 37 min 59 sec) 
Heartbeat CPU 0 instructions: 883000000 cycles: 7580848440 heartbeat IPC: 0.159251 cumulative IPC: 0.161714 (Simulation time: 3 hr 38 min 11 sec) 
Heartbeat CPU 0 instructions: 884000001 cycles: 7587155773 heartbeat IPC: 0.158546 cumulative IPC: 0.161706 (Simulation time: 3 hr 38 min 24 sec) 
Heartbeat CPU 0 instructions: 885000000 cycles: 7593438361 heartbeat IPC: 0.15917 cumulative IPC: 0.1617 (Simulation time: 3 hr 38 min 37 sec) 
Heartbeat CPU 0 instructions: 886000002 cycles: 7599721871 heartbeat IPC: 0.159147 cumulative IPC: 0.161694 (Simulation time: 3 hr 38 min 49 sec) 
Heartbeat CPU 0 instructions: 887000000 cycles: 7606004368 heartbeat IPC: 0.159172 cumulative IPC: 0.161688 (Simulation time: 3 hr 39 min 2 sec) 
Heartbeat CPU 0 instructions: 888000000 cycles: 7612276714 heartbeat IPC: 0.15943 cumulative IPC: 0.161683 (Simulation time: 3 hr 39 min 15 sec) 
Heartbeat CPU 0 instructions: 889000003 cycles: 7618589144 heartbeat IPC: 0.158418 cumulative IPC: 0.161676 (Simulation time: 3 hr 39 min 27 sec) 
Heartbeat CPU 0 instructions: 890000003 cycles: 7624885414 heartbeat IPC: 0.158824 cumulative IPC: 0.161669 (Simulation time: 3 hr 39 min 40 sec) 
Heartbeat CPU 0 instructions: 891000000 cycles: 7631155381 heartbeat IPC: 0.15949 cumulative IPC: 0.161664 (Simulation time: 3 hr 39 min 53 sec) 
Heartbeat CPU 0 instructions: 892000000 cycles: 7637431935 heartbeat IPC: 0.159323 cumulative IPC: 0.161659 (Simulation time: 3 hr 40 min 5 sec) 
Heartbeat CPU 0 instructions: 893000000 cycles: 7643722894 heartbeat IPC: 0.158958 cumulative IPC: 0.161652 (Simulation time: 3 hr 40 min 18 sec) 
Heartbeat CPU 0 instructions: 894000000 cycles: 7650020373 heartbeat IPC: 0.158794 cumulative IPC: 0.161646 (Simulation time: 3 hr 40 min 31 sec) 
Heartbeat CPU 0 instructions: 895000000 cycles: 7656293215 heartbeat IPC: 0.159417 cumulative IPC: 0.161641 (Simulation time: 3 hr 40 min 43 sec) 
Heartbeat CPU 0 instructions: 896000000 cycles: 7662126263 heartbeat IPC: 0.171437 cumulative IPC: 0.161661 (Simulation time: 3 hr 40 min 56 sec) 
Heartbeat CPU 0 instructions: 897000000 cycles: 7668408528 heartbeat IPC: 0.159178 cumulative IPC: 0.161656 (Simulation time: 3 hr 41 min 9 sec) 
Heartbeat CPU 0 instructions: 898000000 cycles: 7674693487 heartbeat IPC: 0.15911 cumulative IPC: 0.16165 (Simulation time: 3 hr 41 min 22 sec) 
Heartbeat CPU 0 instructions: 899000002 cycles: 7680979152 heartbeat IPC: 0.159092 cumulative IPC: 0.161644 (Simulation time: 3 hr 41 min 35 sec) 
Heartbeat CPU 0 instructions: 900000000 cycles: 7687264630 heartbeat IPC: 0.159097 cumulative IPC: 0.161638 (Simulation time: 3 hr 41 min 48 sec) 
Heartbeat CPU 0 instructions: 901000000 cycles: 7693562193 heartbeat IPC: 0.158792 cumulative IPC: 0.161632 (Simulation time: 3 hr 42 min 0 sec) 
Heartbeat CPU 0 instructions: 902000000 cycles: 7699856253 heartbeat IPC: 0.15888 cumulative IPC: 0.161626 (Simulation time: 3 hr 42 min 13 sec) 
Heartbeat CPU 0 instructions: 903000000 cycles: 7706142699 heartbeat IPC: 0.159072 cumulative IPC: 0.16162 (Simulation time: 3 hr 42 min 25 sec) 
Heartbeat CPU 0 instructions: 904000000 cycles: 7712441202 heartbeat IPC: 0.158768 cumulative IPC: 0.161614 (Simulation time: 3 hr 42 min 38 sec) 
Heartbeat CPU 0 instructions: 905000001 cycles: 7718736711 heartbeat IPC: 0.158844 cumulative IPC: 0.161608 (Simulation time: 3 hr 42 min 50 sec) 
Heartbeat CPU 0 instructions: 906000000 cycles: 7725002101 heartbeat IPC: 0.159607 cumulative IPC: 0.161603 (Simulation time: 3 hr 43 min 3 sec) 
Heartbeat CPU 0 instructions: 907000002 cycles: 7731298437 heartbeat IPC: 0.158823 cumulative IPC: 0.161597 (Simulation time: 3 hr 43 min 16 sec) 
Heartbeat CPU 0 instructions: 908000000 cycles: 7737615408 heartbeat IPC: 0.158303 cumulative IPC: 0.16159 (Simulation time: 3 hr 43 min 28 sec) 
Heartbeat CPU 0 instructions: 909000003 cycles: 7743906339 heartbeat IPC: 0.158959 cumulative IPC: 0.161584 (Simulation time: 3 hr 43 min 41 sec) 
Heartbeat CPU 0 instructions: 910000003 cycles: 7750208229 heartbeat IPC: 0.158683 cumulative IPC: 0.161577 (Simulation time: 3 hr 43 min 54 sec) 
Heartbeat CPU 0 instructions: 911000000 cycles: 7756537680 heartbeat IPC: 0.157991 cumulative IPC: 0.161569 (Simulation time: 3 hr 44 min 6 sec) 
Heartbeat CPU 0 instructions: 912000000 cycles: 7762824597 heartbeat IPC: 0.15906 cumulative IPC: 0.161564 (Simulation time: 3 hr 44 min 19 sec) 
Heartbeat CPU 0 instructions: 913000000 cycles: 7769106710 heartbeat IPC: 0.159182 cumulative IPC: 0.161559 (Simulation time: 3 hr 44 min 32 sec) 
Heartbeat CPU 0 instructions: 914000001 cycles: 7775428042 heartbeat IPC: 0.158195 cumulative IPC: 0.161551 (Simulation time: 3 hr 44 min 45 sec) 
Heartbeat CPU 0 instructions: 915000001 cycles: 7781713851 heartbeat IPC: 0.159089 cumulative IPC: 0.161546 (Simulation time: 3 hr 44 min 57 sec) 
Heartbeat CPU 0 instructions: 916000001 cycles: 7788019273 heartbeat IPC: 0.158594 cumulative IPC: 0.161539 (Simulation time: 3 hr 45 min 10 sec) 
Heartbeat CPU 0 instructions: 917000002 cycles: 7794289479 heartbeat IPC: 0.159485 cumulative IPC: 0.161535 (Simulation time: 3 hr 45 min 23 sec) 
Heartbeat CPU 0 instructions: 918000000 cycles: 7800575333 heartbeat IPC: 0.159087 cumulative IPC: 0.16153 (Simulation time: 3 hr 45 min 36 sec) 
Heartbeat CPU 0 instructions: 919000001 cycles: 7806856208 heartbeat IPC: 0.159214 cumulative IPC: 0.161525 (Simulation time: 3 hr 45 min 48 sec) 
Heartbeat CPU 0 instructions: 920000000 cycles: 7813132119 heartbeat IPC: 0.159339 cumulative IPC: 0.16152 (Simulation time: 3 hr 46 min 1 sec) 
Heartbeat CPU 0 instructions: 921000002 cycles: 7819405885 heartbeat IPC: 0.159394 cumulative IPC: 0.161515 (Simulation time: 3 hr 46 min 14 sec) 
Heartbeat CPU 0 instructions: 922000000 cycles: 7825701021 heartbeat IPC: 0.158852 cumulative IPC: 0.16151 (Simulation time: 3 hr 46 min 27 sec) 
Heartbeat CPU 0 instructions: 923000001 cycles: 7832000657 heartbeat IPC: 0.158739 cumulative IPC: 0.161504 (Simulation time: 3 hr 46 min 39 sec) 
Heartbeat CPU 0 instructions: 924000000 cycles: 7838281953 heartbeat IPC: 0.159203 cumulative IPC: 0.161499 (Simulation time: 3 hr 46 min 52 sec) 
Heartbeat CPU 0 instructions: 925000001 cycles: 7844559206 heartbeat IPC: 0.159306 cumulative IPC: 0.161494 (Simulation time: 3 hr 47 min 5 sec) 
Heartbeat CPU 0 instructions: 926000000 cycles: 7850838134 heartbeat IPC: 0.159263 cumulative IPC: 0.161489 (Simulation time: 3 hr 47 min 18 sec) 
Heartbeat CPU 0 instructions: 927000002 cycles: 7857136782 heartbeat IPC: 0.158765 cumulative IPC: 0.161483 (Simulation time: 3 hr 47 min 30 sec) 
Heartbeat CPU 0 instructions: 928000001 cycles: 7863428065 heartbeat IPC: 0.15895 cumulative IPC: 0.161478 (Simulation time: 3 hr 47 min 43 sec) 
Heartbeat CPU 0 instructions: 929000002 cycles: 7869723882 heartbeat IPC: 0.158836 cumulative IPC: 0.161472 (Simulation time: 3 hr 47 min 56 sec) 
Heartbeat CPU 0 instructions: 930000001 cycles: 7876013521 heartbeat IPC: 0.158991 cumulative IPC: 0.161467 (Simulation time: 3 hr 48 min 9 sec) 
Heartbeat CPU 0 instructions: 931000002 cycles: 7882299873 heartbeat IPC: 0.159075 cumulative IPC: 0.161462 (Simulation time: 3 hr 48 min 22 sec) 
Heartbeat CPU 0 instructions: 932000001 cycles: 7888599603 heartbeat IPC: 0.158737 cumulative IPC: 0.161456 (Simulation time: 3 hr 48 min 34 sec) 
Heartbeat CPU 0 instructions: 933000003 cycles: 7894916452 heartbeat IPC: 0.158307 cumulative IPC: 0.16145 (Simulation time: 3 hr 48 min 47 sec) 
Heartbeat CPU 0 instructions: 934000003 cycles: 7901202868 heartbeat IPC: 0.159073 cumulative IPC: 0.161445 (Simulation time: 3 hr 49 min 0 sec) 
Heartbeat CPU 0 instructions: 935000000 cycles: 7904401008 heartbeat IPC: 0.312681 cumulative IPC: 0.161606 (Simulation time: 3 hr 49 min 7 sec) 
Heartbeat CPU 0 instructions: 936000000 cycles: 7906040529 heartbeat IPC: 0.609934 cumulative IPC: 0.161851 (Simulation time: 3 hr 49 min 13 sec) 
Heartbeat CPU 0 instructions: 937000001 cycles: 7910656122 heartbeat IPC: 0.216657 cumulative IPC: 0.161935 (Simulation time: 3 hr 49 min 24 sec) 
Heartbeat CPU 0 instructions: 938000002 cycles: 7916925040 heartbeat IPC: 0.159517 cumulative IPC: 0.16193 (Simulation time: 3 hr 49 min 36 sec) 
Heartbeat CPU 0 instructions: 939000001 cycles: 7923200534 heartbeat IPC: 0.15935 cumulative IPC: 0.161924 (Simulation time: 3 hr 49 min 49 sec) 
Heartbeat CPU 0 instructions: 940000001 cycles: 7929499782 heartbeat IPC: 0.158749 cumulative IPC: 0.161918 (Simulation time: 3 hr 50 min 2 sec) 
Heartbeat CPU 0 instructions: 941000000 cycles: 7935787626 heartbeat IPC: 0.159037 cumulative IPC: 0.161912 (Simulation time: 3 hr 50 min 15 sec) 
Heartbeat CPU 0 instructions: 942000000 cycles: 7942085133 heartbeat IPC: 0.158793 cumulative IPC: 0.161905 (Simulation time: 3 hr 50 min 27 sec) 
Heartbeat CPU 0 instructions: 943000000 cycles: 7948376349 heartbeat IPC: 0.158952 cumulative IPC: 0.161899 (Simulation time: 3 hr 50 min 40 sec) 
Heartbeat CPU 0 instructions: 944000003 cycles: 7954666171 heartbeat IPC: 0.158987 cumulative IPC: 0.161893 (Simulation time: 3 hr 50 min 52 sec) 
Heartbeat CPU 0 instructions: 945000000 cycles: 7960958840 heartbeat IPC: 0.158915 cumulative IPC: 0.161887 (Simulation time: 3 hr 51 min 4 sec) 
Heartbeat CPU 0 instructions: 946000000 cycles: 7967234904 heartbeat IPC: 0.159336 cumulative IPC: 0.161882 (Simulation time: 3 hr 51 min 17 sec) 
Heartbeat CPU 0 instructions: 947000001 cycles: 7973536546 heartbeat IPC: 0.158689 cumulative IPC: 0.161875 (Simulation time: 3 hr 51 min 29 sec) 
Heartbeat CPU 0 instructions: 948000002 cycles: 7979832689 heartbeat IPC: 0.158828 cumulative IPC: 0.161869 (Simulation time: 3 hr 51 min 42 sec) 
Heartbeat CPU 0 instructions: 949000000 cycles: 7986120735 heartbeat IPC: 0.159032 cumulative IPC: 0.161863 (Simulation time: 3 hr 51 min 54 sec) 
Heartbeat CPU 0 instructions: 950000000 cycles: 7992431718 heartbeat IPC: 0.158454 cumulative IPC: 0.161856 (Simulation time: 3 hr 52 min 6 sec) 
Finished CPU 0 instructions: 500000000 cycles: 3089157582 cumulative IPC: 0.161856 (Simulation time: 3 hr 52 min 6 sec) 

ChampSim completed all CPUs

Region of Interest Statistics

CPU 0 cumulative IPC: 0.161856 instructions: 500000000 cycles: 3089157582
L1D TOTAL     ACCESS:   78260359  HIT:   43750366  MISS:   34509993
L1D LOAD      ACCESS:   70874797  HIT:   36393742  MISS:   34481055
L1D RFO       ACCESS:    7385562  HIT:    7356624  MISS:      28938
L1D PREFETCH  ACCESS:          0  HIT:          0  MISS:          0
L1D WRITEBACK ACCESS:          0  HIT:          0  MISS:          0
L1D PREFETCH  REQUESTED:          0  ISSUED:          0  USEFUL:          0  USELESS:          0
L1D AVERAGE MISS LATENCY: 80.1519 cycles
L1I TOTAL     ACCESS:  117213486  HIT:  117213471  MISS:         15
L1I LOAD      ACCESS:  117213486  HIT:  117213471  MISS:         15
L1I RFO       ACCESS:          0  HIT:          0  MISS:          0
L1I PREFETCH  ACCESS:          0  HIT:          0  MISS:          0
L1I WRITEBACK ACCESS:          0  HIT:          0  MISS:          0
L1I PREFETCH  REQUESTED:          0  ISSUED:          0  USEFUL:          0  USELESS:          0
L1I AVERAGE MISS LATENCY: 303.4 cycles
L2C TOTAL     ACCESS:   34582294  HIT:     126601  MISS:   34455693
L2C LOAD      ACCESS:   34481012  HIT:      45925  MISS:   34435087
L2C RFO       ACCESS:      28938  HIT:       8735  MISS:      20203
L2C PREFETCH  ACCESS:          0  HIT:          0  MISS:          0
L2C WRITEBACK ACCESS:      72344  HIT:      71941  MISS:        403
L2C PREFETCH  REQUESTED:          0  ISSUED:          0  USEFUL:          0  USELESS:          0
L2C AVERAGE MISS LATENCY: 66.201 cycles
LLC TOTAL     ACCESS:   42844682  HIT:    8432520  MISS:   34412162
LLC LOAD      ACCESS:   34435087  HIT:    8297610  MISS:   26137477
LLC RFO       ACCESS:      20203  HIT:       2969  MISS:      17234
LLC PREFETCH  ACCESS:    8324707  HIT:      67543  MISS:    8257164
LLC WRITEBACK ACCESS:      64685  HIT:      64398  MISS:        287
LLC PREFETCH  REQUESTED:   34435072  ISSUED:   34426058  USEFUL:    8238213  USELESS:      18928
LLC AVERAGE MISS LATENCY: 75.26 cycles
Major fault: 0 Minor fault: 55995
performance stats:
mapping cache size: 2842682
divergence: 72549

DRAM Statistics
 CHANNEL 0
 RQ ROW_BUFFER_HIT:   16911537  ROW_BUFFER_MISS:     294576
 DBUS_CONGESTED:     354895
 WQ ROW_BUFFER_HIT:      25029  ROW_BUFFER_MISS:       4406  FULL:          0

 CHANNEL 1
 RQ ROW_BUFFER_HIT:   16914626  ROW_BUFFER_MISS:     291136
 DBUS_CONGESTED:     354895
 WQ ROW_BUFFER_HIT:      27209  ROW_BUFFER_MISS:       3355  FULL:          0

 AVG_CONGESTED_CYCLE: 13

CPU 0 Branch Prediction Accuracy: 99.6802% MPKI: 1.13185 Average ROB Occupancy at Mispredict: 251.098

Branch types
NOT_BRANCH: 323063470 64.6127%
BRANCH_DIRECT_JUMP: 1925294 0.385059%
BRANCH_INDIRECT: 0 0%
BRANCH_CONDITIONAL: 173147419 34.6295%
BRANCH_DIRECT_CALL: 931949 0.18639%
BRANCH_INDIRECT_CALL: 0 0%
BRANCH_RETURN: 931949 0.18639%
BRANCH_OTHER: 0 0%

