
*** ChampSim Multicore Out-of-Order Simulator ***

Warmup Instructions: 1000000
Prefetch Warmup Instructions: 450000000
Simulation Instructions: 500000000
Stat Printing Period: 1000000
Number of CPUs: 1
LLC sets: 2048
LLC ways: 16
Off-chip DRAM Size: 32768 MB Channels: 2 Width: 64-bit Data Rate: 1024 MT/s

CPU 0 runs /scratch/cluster/cmolder/ML-DPC/ChampSimTraces/spec17/602.gcc-s2.trace.xz
Read seed: 275
Heartbeat CPU 0 instructions: 1000000 cycles: 552882 heartbeat IPC: 1.8087 cumulative IPC: 1.8087 (Simulation time: 0 hr 0 min 7 sec) 

Warmup complete CPU 0 instructions: 1000001 cycles: 552884 (Simulation time: 0 hr 0 min 7 sec) 

Heartbeat CPU 0 instructions: 2000003 cycles: 1830406 heartbeat IPC: 0.782767 cumulative IPC: 0.782767 (Simulation time: 0 hr 0 min 13 sec) 
Heartbeat CPU 0 instructions: 3000000 cycles: 3620517 heartbeat IPC: 0.558623 cumulative IPC: 0.651968 (Simulation time: 0 hr 0 min 18 sec) 
Heartbeat CPU 0 instructions: 4000000 cycles: 5179864 heartbeat IPC: 0.641294 cumulative IPC: 0.648371 (Simulation time: 0 hr 0 min 24 sec) 
Heartbeat CPU 0 instructions: 5000000 cycles: 7196344 heartbeat IPC: 0.495914 cumulative IPC: 0.602096 (Simulation time: 0 hr 0 min 30 sec) 
Heartbeat CPU 0 instructions: 6000003 cycles: 8534422 heartbeat IPC: 0.747343 cumulative IPC: 0.626446 (Simulation time: 0 hr 0 min 36 sec) 
Heartbeat CPU 0 instructions: 7000002 cycles: 9819146 heartbeat IPC: 0.778377 cumulative IPC: 0.64751 (Simulation time: 0 hr 0 min 42 sec) 
Heartbeat CPU 0 instructions: 8000001 cycles: 11340771 heartbeat IPC: 0.657192 cumulative IPC: 0.648876 (Simulation time: 0 hr 0 min 47 sec) 
Heartbeat CPU 0 instructions: 9000000 cycles: 12791185 heartbeat IPC: 0.689458 cumulative IPC: 0.653685 (Simulation time: 0 hr 0 min 53 sec) 
Heartbeat CPU 0 instructions: 10000000 cycles: 14392417 heartbeat IPC: 0.624519 cumulative IPC: 0.650311 (Simulation time: 0 hr 0 min 58 sec) 
Heartbeat CPU 0 instructions: 11000000 cycles: 15900189 heartbeat IPC: 0.66323 cumulative IPC: 0.65158 (Simulation time: 0 hr 1 min 4 sec) 
Heartbeat CPU 0 instructions: 12000001 cycles: 17058926 heartbeat IPC: 0.863009 cumulative IPC: 0.666423 (Simulation time: 0 hr 1 min 9 sec) 
Heartbeat CPU 0 instructions: 13000001 cycles: 18501222 heartbeat IPC: 0.693339 cumulative IPC: 0.668586 (Simulation time: 0 hr 1 min 15 sec) 
Heartbeat CPU 0 instructions: 14000001 cycles: 19456524 heartbeat IPC: 1.04679 cumulative IPC: 0.687698 (Simulation time: 0 hr 1 min 20 sec) 
Heartbeat CPU 0 instructions: 15000003 cycles: 20600044 heartbeat IPC: 0.874495 cumulative IPC: 0.698353 (Simulation time: 0 hr 1 min 25 sec) 
Heartbeat CPU 0 instructions: 16000000 cycles: 22287140 heartbeat IPC: 0.592733 cumulative IPC: 0.690155 (Simulation time: 0 hr 1 min 30 sec) 
Heartbeat CPU 0 instructions: 17000000 cycles: 23610028 heartbeat IPC: 0.755922 cumulative IPC: 0.693928 (Simulation time: 0 hr 1 min 36 sec) 
Heartbeat CPU 0 instructions: 18000000 cycles: 24960489 heartbeat IPC: 0.740488 cumulative IPC: 0.696504 (Simulation time: 0 hr 1 min 41 sec) 
Heartbeat CPU 0 instructions: 19000000 cycles: 26166182 heartbeat IPC: 0.829399 cumulative IPC: 0.70276 (Simulation time: 0 hr 1 min 46 sec) 
Heartbeat CPU 0 instructions: 20000000 cycles: 27360530 heartbeat IPC: 0.837277 cumulative IPC: 0.708753 (Simulation time: 0 hr 1 min 51 sec) 
Heartbeat CPU 0 instructions: 21000001 cycles: 28572345 heartbeat IPC: 0.825209 cumulative IPC: 0.71379 (Simulation time: 0 hr 1 min 57 sec) 
Heartbeat CPU 0 instructions: 22000000 cycles: 29709667 heartbeat IPC: 0.879258 cumulative IPC: 0.720244 (Simulation time: 0 hr 2 min 3 sec) 
Heartbeat CPU 0 instructions: 23000002 cycles: 30862735 heartbeat IPC: 0.867253 cumulative IPC: 0.725837 (Simulation time: 0 hr 2 min 9 sec) 
Heartbeat CPU 0 instructions: 24000001 cycles: 32017470 heartbeat IPC: 0.865999 cumulative IPC: 0.730981 (Simulation time: 0 hr 2 min 15 sec) 
Heartbeat CPU 0 instructions: 25000001 cycles: 33110702 heartbeat IPC: 0.914719 cumulative IPC: 0.73715 (Simulation time: 0 hr 2 min 21 sec) 
Heartbeat CPU 0 instructions: 26000002 cycles: 34272360 heartbeat IPC: 0.860839 cumulative IPC: 0.741411 (Simulation time: 0 hr 2 min 27 sec) 
Heartbeat CPU 0 instructions: 27000000 cycles: 35372285 heartbeat IPC: 0.909151 cumulative IPC: 0.74671 (Simulation time: 0 hr 2 min 34 sec) 
Heartbeat CPU 0 instructions: 28000002 cycles: 36554833 heartbeat IPC: 0.845633 cumulative IPC: 0.749959 (Simulation time: 0 hr 2 min 39 sec) 
Heartbeat CPU 0 instructions: 29000003 cycles: 37844273 heartbeat IPC: 0.775531 cumulative IPC: 0.750844 (Simulation time: 0 hr 2 min 45 sec) 
Heartbeat CPU 0 instructions: 30000000 cycles: 39307991 heartbeat IPC: 0.68319 cumulative IPC: 0.748288 (Simulation time: 0 hr 2 min 50 sec) 
Heartbeat CPU 0 instructions: 31000003 cycles: 40525648 heartbeat IPC: 0.821252 cumulative IPC: 0.750511 (Simulation time: 0 hr 2 min 55 sec) 
Heartbeat CPU 0 instructions: 32000001 cycles: 41595260 heartbeat IPC: 0.934917 cumulative IPC: 0.755317 (Simulation time: 0 hr 3 min 0 sec) 
Heartbeat CPU 0 instructions: 33000000 cycles: 42873961 heartbeat IPC: 0.782043 cumulative IPC: 0.756124 (Simulation time: 0 hr 3 min 4 sec) 
Heartbeat CPU 0 instructions: 34000000 cycles: 43922189 heartbeat IPC: 0.953991 cumulative IPC: 0.760907 (Simulation time: 0 hr 3 min 9 sec) 
Heartbeat CPU 0 instructions: 35000000 cycles: 45156443 heartbeat IPC: 0.810206 cumulative IPC: 0.762271 (Simulation time: 0 hr 3 min 14 sec) 
Heartbeat CPU 0 instructions: 36000000 cycles: 46410360 heartbeat IPC: 0.797501 cumulative IPC: 0.763234 (Simulation time: 0 hr 3 min 20 sec) 
Heartbeat CPU 0 instructions: 37000002 cycles: 47649400 heartbeat IPC: 0.807078 cumulative IPC: 0.764388 (Simulation time: 0 hr 3 min 25 sec) 
Heartbeat CPU 0 instructions: 38000000 cycles: 48761973 heartbeat IPC: 0.898816 cumulative IPC: 0.76749 (Simulation time: 0 hr 3 min 29 sec) 
Heartbeat CPU 0 instructions: 39000000 cycles: 50333530 heartbeat IPC: 0.636312 cumulative IPC: 0.763349 (Simulation time: 0 hr 3 min 35 sec) 
Heartbeat CPU 0 instructions: 40000001 cycles: 51430689 heartbeat IPC: 0.911446 cumulative IPC: 0.766542 (Simulation time: 0 hr 3 min 40 sec) 
Heartbeat CPU 0 instructions: 41000000 cycles: 52562623 heartbeat IPC: 0.883443 cumulative IPC: 0.769087 (Simulation time: 0 hr 3 min 46 sec) 
Heartbeat CPU 0 instructions: 42000000 cycles: 53954004 heartbeat IPC: 0.71871 cumulative IPC: 0.767774 (Simulation time: 0 hr 3 min 51 sec) 
Heartbeat CPU 0 instructions: 43000003 cycles: 54816389 heartbeat IPC: 1.15958 cumulative IPC: 0.774001 (Simulation time: 0 hr 3 min 56 sec) 
Heartbeat CPU 0 instructions: 44000000 cycles: 55401802 heartbeat IPC: 1.70819 cumulative IPC: 0.783972 (Simulation time: 0 hr 4 min 2 sec) 
Heartbeat CPU 0 instructions: 45000000 cycles: 56330090 heartbeat IPC: 1.07725 cumulative IPC: 0.788853 (Simulation time: 0 hr 4 min 8 sec) 
Heartbeat CPU 0 instructions: 46000000 cycles: 57527189 heartbeat IPC: 0.835353 cumulative IPC: 0.78983 (Simulation time: 0 hr 4 min 13 sec) 
Heartbeat CPU 0 instructions: 47000001 cycles: 58118896 heartbeat IPC: 1.69003 cumulative IPC: 0.799083 (Simulation time: 0 hr 4 min 18 sec) 
Heartbeat CPU 0 instructions: 48000002 cycles: 58693469 heartbeat IPC: 1.74042 cumulative IPC: 0.808385 (Simulation time: 0 hr 4 min 24 sec) 
Heartbeat CPU 0 instructions: 49000001 cycles: 59775950 heartbeat IPC: 0.923803 cumulative IPC: 0.810495 (Simulation time: 0 hr 4 min 31 sec) 
Heartbeat CPU 0 instructions: 50000000 cycles: 60954582 heartbeat IPC: 0.84844 cumulative IPC: 0.811235 (Simulation time: 0 hr 4 min 36 sec) 
Heartbeat CPU 0 instructions: 51000000 cycles: 61875335 heartbeat IPC: 1.08607 cumulative IPC: 0.815362 (Simulation time: 0 hr 4 min 42 sec) 
Heartbeat CPU 0 instructions: 52000000 cycles: 62972572 heartbeat IPC: 0.91138 cumulative IPC: 0.81705 (Simulation time: 0 hr 4 min 47 sec) 
Heartbeat CPU 0 instructions: 53000001 cycles: 64052073 heartbeat IPC: 0.926355 cumulative IPC: 0.818908 (Simulation time: 0 hr 4 min 52 sec) 
Heartbeat CPU 0 instructions: 54000002 cycles: 64801266 heartbeat IPC: 1.33477 cumulative IPC: 0.824924 (Simulation time: 0 hr 4 min 55 sec) 
Heartbeat CPU 0 instructions: 55000000 cycles: 65735333 heartbeat IPC: 1.07058 cumulative IPC: 0.828444 (Simulation time: 0 hr 4 min 59 sec) 
Heartbeat CPU 0 instructions: 56000003 cycles: 66713973 heartbeat IPC: 1.02183 cumulative IPC: 0.831304 (Simulation time: 0 hr 5 min 4 sec) 
Heartbeat CPU 0 instructions: 57000001 cycles: 67557368 heartbeat IPC: 1.18568 cumulative IPC: 0.835765 (Simulation time: 0 hr 5 min 9 sec) 
Heartbeat CPU 0 instructions: 58000000 cycles: 68437681 heartbeat IPC: 1.13596 cumulative IPC: 0.839658 (Simulation time: 0 hr 5 min 13 sec) 
Heartbeat CPU 0 instructions: 59000001 cycles: 69296918 heartbeat IPC: 1.16382 cumulative IPC: 0.84371 (Simulation time: 0 hr 5 min 18 sec) 
Heartbeat CPU 0 instructions: 60000000 cycles: 70276306 heartbeat IPC: 1.02104 cumulative IPC: 0.846201 (Simulation time: 0 hr 5 min 23 sec) 
Heartbeat CPU 0 instructions: 61000002 cycles: 71733007 heartbeat IPC: 0.686484 cumulative IPC: 0.842932 (Simulation time: 0 hr 5 min 28 sec) 
Heartbeat CPU 0 instructions: 62000002 cycles: 73198094 heartbeat IPC: 0.682553 cumulative IPC: 0.839697 (Simulation time: 0 hr 5 min 34 sec) 
Heartbeat CPU 0 instructions: 63000002 cycles: 74667111 heartbeat IPC: 0.680727 cumulative IPC: 0.836547 (Simulation time: 0 hr 5 min 39 sec) 
Heartbeat CPU 0 instructions: 64000000 cycles: 76196308 heartbeat IPC: 0.653937 cumulative IPC: 0.832855 (Simulation time: 0 hr 5 min 44 sec) 
Heartbeat CPU 0 instructions: 65000002 cycles: 77469479 heartbeat IPC: 0.785442 cumulative IPC: 0.83207 (Simulation time: 0 hr 5 min 49 sec) 
Heartbeat CPU 0 instructions: 66000000 cycles: 79118030 heartbeat IPC: 0.606592 cumulative IPC: 0.827339 (Simulation time: 0 hr 5 min 54 sec) 
Heartbeat CPU 0 instructions: 67000000 cycles: 80398321 heartbeat IPC: 0.781072 cumulative IPC: 0.826597 (Simulation time: 0 hr 5 min 59 sec) 
Heartbeat CPU 0 instructions: 68000001 cycles: 81499302 heartbeat IPC: 0.908282 cumulative IPC: 0.827708 (Simulation time: 0 hr 6 min 3 sec) 
Heartbeat CPU 0 instructions: 69000000 cycles: 82840648 heartbeat IPC: 0.745519 cumulative IPC: 0.826368 (Simulation time: 0 hr 6 min 8 sec) 
Heartbeat CPU 0 instructions: 70000003 cycles: 83932772 heartbeat IPC: 0.91565 cumulative IPC: 0.827538 (Simulation time: 0 hr 6 min 13 sec) 
Heartbeat CPU 0 instructions: 71000001 cycles: 85556073 heartbeat IPC: 0.616027 cumulative IPC: 0.823498 (Simulation time: 0 hr 6 min 18 sec) 
Heartbeat CPU 0 instructions: 72000000 cycles: 86429952 heartbeat IPC: 1.14432 cumulative IPC: 0.826763 (Simulation time: 0 hr 6 min 23 sec) 
Heartbeat CPU 0 instructions: 73000000 cycles: 87218512 heartbeat IPC: 1.26813 cumulative IPC: 0.830779 (Simulation time: 0 hr 6 min 28 sec) 
Heartbeat CPU 0 instructions: 74000001 cycles: 87987213 heartbeat IPC: 1.3009 cumulative IPC: 0.834912 (Simulation time: 0 hr 6 min 32 sec) 
Heartbeat CPU 0 instructions: 75000000 cycles: 88797231 heartbeat IPC: 1.23454 cumulative IPC: 0.838581 (Simulation time: 0 hr 6 min 36 sec) 
Heartbeat CPU 0 instructions: 76000001 cycles: 89540823 heartbeat IPC: 1.34482 cumulative IPC: 0.842811 (Simulation time: 0 hr 6 min 39 sec) 
Heartbeat CPU 0 instructions: 77000000 cycles: 90441303 heartbeat IPC: 1.11052 cumulative IPC: 0.845493 (Simulation time: 0 hr 6 min 42 sec) 
Heartbeat CPU 0 instructions: 78000001 cycles: 91363084 heartbeat IPC: 1.08486 cumulative IPC: 0.847922 (Simulation time: 0 hr 6 min 47 sec) 
Heartbeat CPU 0 instructions: 79000000 cycles: 92122162 heartbeat IPC: 1.31739 cumulative IPC: 0.851814 (Simulation time: 0 hr 6 min 52 sec) 
Heartbeat CPU 0 instructions: 80000000 cycles: 92860766 heartbeat IPC: 1.35391 cumulative IPC: 0.855832 (Simulation time: 0 hr 6 min 58 sec) 
Heartbeat CPU 0 instructions: 81000002 cycles: 93606137 heartbeat IPC: 1.34162 cumulative IPC: 0.859723 (Simulation time: 0 hr 7 min 2 sec) 
Heartbeat CPU 0 instructions: 82000000 cycles: 94338247 heartbeat IPC: 1.36591 cumulative IPC: 0.863674 (Simulation time: 0 hr 7 min 5 sec) 
Heartbeat CPU 0 instructions: 83000003 cycles: 95057446 heartbeat IPC: 1.39044 cumulative IPC: 0.867683 (Simulation time: 0 hr 7 min 7 sec) 
Heartbeat CPU 0 instructions: 84000000 cycles: 95875548 heartbeat IPC: 1.22234 cumulative IPC: 0.870727 (Simulation time: 0 hr 7 min 12 sec) 
Heartbeat CPU 0 instructions: 85000000 cycles: 96634907 heartbeat IPC: 1.3169 cumulative IPC: 0.874253 (Simulation time: 0 hr 7 min 17 sec) 
Heartbeat CPU 0 instructions: 86000003 cycles: 97371455 heartbeat IPC: 1.35769 cumulative IPC: 0.877931 (Simulation time: 0 hr 7 min 22 sec) 
Heartbeat CPU 0 instructions: 87000003 cycles: 98092844 heartbeat IPC: 1.38621 cumulative IPC: 0.88169 (Simulation time: 0 hr 7 min 26 sec) 
Heartbeat CPU 0 instructions: 88000000 cycles: 98805420 heartbeat IPC: 1.40335 cumulative IPC: 0.885473 (Simulation time: 0 hr 7 min 30 sec) 
Heartbeat CPU 0 instructions: 89000000 cycles: 99515936 heartbeat IPC: 1.40743 cumulative IPC: 0.889221 (Simulation time: 0 hr 7 min 33 sec) 
Heartbeat CPU 0 instructions: 90000000 cycles: 100489117 heartbeat IPC: 1.02756 cumulative IPC: 0.890568 (Simulation time: 0 hr 7 min 37 sec) 
Heartbeat CPU 0 instructions: 91000000 cycles: 101443103 heartbeat IPC: 1.04823 cumulative IPC: 0.892059 (Simulation time: 0 hr 7 min 41 sec) 
Heartbeat CPU 0 instructions: 92000002 cycles: 102320865 heartbeat IPC: 1.13926 cumulative IPC: 0.894191 (Simulation time: 0 hr 7 min 45 sec) 
Heartbeat CPU 0 instructions: 93000002 cycles: 103186828 heartbeat IPC: 1.15478 cumulative IPC: 0.89639 (Simulation time: 0 hr 7 min 49 sec) 
Heartbeat CPU 0 instructions: 94000000 cycles: 104027567 heartbeat IPC: 1.18943 cumulative IPC: 0.898771 (Simulation time: 0 hr 7 min 54 sec) 
Heartbeat CPU 0 instructions: 95000001 cycles: 105374770 heartbeat IPC: 0.742279 cumulative IPC: 0.896759 (Simulation time: 0 hr 7 min 59 sec) 
Heartbeat CPU 0 instructions: 96000003 cycles: 106925768 heartbeat IPC: 0.644747 cumulative IPC: 0.893085 (Simulation time: 0 hr 8 min 5 sec) 
Heartbeat CPU 0 instructions: 97000001 cycles: 108392923 heartbeat IPC: 0.68159 cumulative IPC: 0.890207 (Simulation time: 0 hr 8 min 10 sec) 
Heartbeat CPU 0 instructions: 98000001 cycles: 109641439 heartbeat IPC: 0.800951 cumulative IPC: 0.889186 (Simulation time: 0 hr 8 min 17 sec) 
Heartbeat CPU 0 instructions: 99000000 cycles: 110850264 heartbeat IPC: 0.827249 cumulative IPC: 0.888507 (Simulation time: 0 hr 8 min 23 sec) 
Heartbeat CPU 0 instructions: 100000000 cycles: 112603642 heartbeat IPC: 0.570328 cumulative IPC: 0.883528 (Simulation time: 0 hr 8 min 28 sec) 
Heartbeat CPU 0 instructions: 101000002 cycles: 114006200 heartbeat IPC: 0.712984 cumulative IPC: 0.88142 (Simulation time: 0 hr 8 min 33 sec) 
Heartbeat CPU 0 instructions: 102000000 cycles: 115106239 heartbeat IPC: 0.909057 cumulative IPC: 0.881685 (Simulation time: 0 hr 8 min 38 sec) 
Heartbeat CPU 0 instructions: 103000003 cycles: 116171675 heartbeat IPC: 0.938586 cumulative IPC: 0.88221 (Simulation time: 0 hr 8 min 43 sec) 
Heartbeat CPU 0 instructions: 104000003 cycles: 117253401 heartbeat IPC: 0.924449 cumulative IPC: 0.882601 (Simulation time: 0 hr 8 min 49 sec) 
Heartbeat CPU 0 instructions: 105000000 cycles: 118359708 heartbeat IPC: 0.903906 cumulative IPC: 0.882801 (Simulation time: 0 hr 8 min 54 sec) 
Heartbeat CPU 0 instructions: 106000002 cycles: 119531339 heartbeat IPC: 0.853513 cumulative IPC: 0.882513 (Simulation time: 0 hr 8 min 59 sec) 
Heartbeat CPU 0 instructions: 107000002 cycles: 120544667 heartbeat IPC: 0.986847 cumulative IPC: 0.883394 (Simulation time: 0 hr 9 min 4 sec) 
Heartbeat CPU 0 instructions: 108000001 cycles: 121541619 heartbeat IPC: 1.00306 cumulative IPC: 0.88438 (Simulation time: 0 hr 9 min 10 sec) 
Heartbeat CPU 0 instructions: 109000000 cycles: 122591952 heartbeat IPC: 0.952078 cumulative IPC: 0.884962 (Simulation time: 0 hr 9 min 15 sec) 
Heartbeat CPU 0 instructions: 110000000 cycles: 123671811 heartbeat IPC: 0.926047 cumulative IPC: 0.885323 (Simulation time: 0 hr 9 min 21 sec) 
Heartbeat CPU 0 instructions: 111000002 cycles: 124843603 heartbeat IPC: 0.853395 cumulative IPC: 0.885022 (Simulation time: 0 hr 9 min 27 sec) 
Heartbeat CPU 0 instructions: 112000000 cycles: 126170675 heartbeat IPC: 0.753537 cumulative IPC: 0.883633 (Simulation time: 0 hr 9 min 32 sec) 
Heartbeat CPU 0 instructions: 113000001 cycles: 127565548 heartbeat IPC: 0.716912 cumulative IPC: 0.881802 (Simulation time: 0 hr 9 min 38 sec) 
Heartbeat CPU 0 instructions: 114000002 cycles: 128709141 heartbeat IPC: 0.874438 cumulative IPC: 0.881736 (Simulation time: 0 hr 9 min 44 sec) 
Heartbeat CPU 0 instructions: 115000001 cycles: 129814523 heartbeat IPC: 0.904664 cumulative IPC: 0.881932 (Simulation time: 0 hr 9 min 50 sec) 
Heartbeat CPU 0 instructions: 116000001 cycles: 131318800 heartbeat IPC: 0.664771 cumulative IPC: 0.879434 (Simulation time: 0 hr 9 min 55 sec) 
Heartbeat CPU 0 instructions: 117000003 cycles: 132768269 heartbeat IPC: 0.689909 cumulative IPC: 0.877356 (Simulation time: 0 hr 10 min 1 sec) 
Heartbeat CPU 0 instructions: 118000000 cycles: 134095536 heartbeat IPC: 0.753426 cumulative IPC: 0.876125 (Simulation time: 0 hr 10 min 7 sec) 
Heartbeat CPU 0 instructions: 119000000 cycles: 135390957 heartbeat IPC: 0.77195 cumulative IPC: 0.875124 (Simulation time: 0 hr 10 min 12 sec) 
Heartbeat CPU 0 instructions: 120000001 cycles: 137046549 heartbeat IPC: 0.604014 cumulative IPC: 0.871835 (Simulation time: 0 hr 10 min 18 sec) 
Heartbeat CPU 0 instructions: 121000000 cycles: 138584814 heartbeat IPC: 0.650082 cumulative IPC: 0.869364 (Simulation time: 0 hr 10 min 23 sec) 
Heartbeat CPU 0 instructions: 122000001 cycles: 139861451 heartbeat IPC: 0.783309 cumulative IPC: 0.868575 (Simulation time: 0 hr 10 min 29 sec) 
Heartbeat CPU 0 instructions: 123000000 cycles: 141328022 heartbeat IPC: 0.681862 cumulative IPC: 0.86663 (Simulation time: 0 hr 10 min 34 sec) 
Heartbeat CPU 0 instructions: 124000000 cycles: 142677231 heartbeat IPC: 0.741175 cumulative IPC: 0.865439 (Simulation time: 0 hr 10 min 40 sec) 
Heartbeat CPU 0 instructions: 125000003 cycles: 143959342 heartbeat IPC: 0.779966 cumulative IPC: 0.864675 (Simulation time: 0 hr 10 min 45 sec) 
Heartbeat CPU 0 instructions: 126000000 cycles: 145465475 heartbeat IPC: 0.66395 cumulative IPC: 0.862589 (Simulation time: 0 hr 10 min 51 sec) 
Heartbeat CPU 0 instructions: 127000000 cycles: 146608393 heartbeat IPC: 0.874953 cumulative IPC: 0.862686 (Simulation time: 0 hr 10 min 56 sec) 
Heartbeat CPU 0 instructions: 128000002 cycles: 147411163 heartbeat IPC: 1.24569 cumulative IPC: 0.864779 (Simulation time: 0 hr 11 min 1 sec) 
Heartbeat CPU 0 instructions: 129000001 cycles: 148220741 heartbeat IPC: 1.23521 cumulative IPC: 0.86681 (Simulation time: 0 hr 11 min 6 sec) 
Heartbeat CPU 0 instructions: 130000001 cycles: 149469236 heartbeat IPC: 0.800964 cumulative IPC: 0.866258 (Simulation time: 0 hr 11 min 12 sec) 
Heartbeat CPU 0 instructions: 131000002 cycles: 151007334 heartbeat IPC: 0.650154 cumulative IPC: 0.864049 (Simulation time: 0 hr 11 min 18 sec) 
Heartbeat CPU 0 instructions: 132000000 cycles: 152121232 heartbeat IPC: 0.897746 cumulative IPC: 0.864297 (Simulation time: 0 hr 11 min 23 sec) 
Heartbeat CPU 0 instructions: 133000001 cycles: 153428521 heartbeat IPC: 0.764943 cumulative IPC: 0.863447 (Simulation time: 0 hr 11 min 29 sec) 
Heartbeat CPU 0 instructions: 134000000 cycles: 154604444 heartbeat IPC: 0.850395 cumulative IPC: 0.863347 (Simulation time: 0 hr 11 min 34 sec) 
Heartbeat CPU 0 instructions: 135000001 cycles: 156091986 heartbeat IPC: 0.672251 cumulative IPC: 0.86152 (Simulation time: 0 hr 11 min 40 sec) 
Heartbeat CPU 0 instructions: 136000001 cycles: 157596681 heartbeat IPC: 0.664586 cumulative IPC: 0.859633 (Simulation time: 0 hr 11 min 46 sec) 
Heartbeat CPU 0 instructions: 137000000 cycles: 159364528 heartbeat IPC: 0.565659 cumulative IPC: 0.85636 (Simulation time: 0 hr 11 min 51 sec) 
Heartbeat CPU 0 instructions: 138000000 cycles: 160499758 heartbeat IPC: 0.880879 cumulative IPC: 0.856534 (Simulation time: 0 hr 11 min 56 sec) 
Heartbeat CPU 0 instructions: 139000000 cycles: 161593556 heartbeat IPC: 0.914246 cumulative IPC: 0.856926 (Simulation time: 0 hr 12 min 2 sec) 
Heartbeat CPU 0 instructions: 140000000 cycles: 162700908 heartbeat IPC: 0.903055 cumulative IPC: 0.857241 (Simulation time: 0 hr 12 min 7 sec) 
Heartbeat CPU 0 instructions: 141000000 cycles: 163836548 heartbeat IPC: 0.880561 cumulative IPC: 0.857404 (Simulation time: 0 hr 12 min 12 sec) 
Heartbeat CPU 0 instructions: 142000000 cycles: 164883857 heartbeat IPC: 0.954828 cumulative IPC: 0.858024 (Simulation time: 0 hr 12 min 18 sec) 
Heartbeat CPU 0 instructions: 143000000 cycles: 165981620 heartbeat IPC: 0.910943 cumulative IPC: 0.858376 (Simulation time: 0 hr 12 min 23 sec) 
Heartbeat CPU 0 instructions: 144000001 cycles: 167038751 heartbeat IPC: 0.945957 cumulative IPC: 0.858932 (Simulation time: 0 hr 12 min 29 sec) 
Heartbeat CPU 0 instructions: 145000000 cycles: 168130765 heartbeat IPC: 0.915738 cumulative IPC: 0.859302 (Simulation time: 0 hr 12 min 34 sec) 
Heartbeat CPU 0 instructions: 146000000 cycles: 169255449 heartbeat IPC: 0.889139 cumulative IPC: 0.859501 (Simulation time: 0 hr 12 min 40 sec) 
Heartbeat CPU 0 instructions: 147000002 cycles: 170291233 heartbeat IPC: 0.965454 cumulative IPC: 0.860147 (Simulation time: 0 hr 12 min 45 sec) 
Heartbeat CPU 0 instructions: 148000003 cycles: 171462921 heartbeat IPC: 0.85347 cumulative IPC: 0.860102 (Simulation time: 0 hr 12 min 51 sec) 
Heartbeat CPU 0 instructions: 149000000 cycles: 172434396 heartbeat IPC: 1.02936 cumulative IPC: 0.861058 (Simulation time: 0 hr 12 min 56 sec) 
Heartbeat CPU 0 instructions: 150000002 cycles: 173554302 heartbeat IPC: 0.892934 cumulative IPC: 0.861265 (Simulation time: 0 hr 13 min 2 sec) 
Heartbeat CPU 0 instructions: 151000000 cycles: 174547210 heartbeat IPC: 1.00714 cumulative IPC: 0.862097 (Simulation time: 0 hr 13 min 8 sec) 
Heartbeat CPU 0 instructions: 152000003 cycles: 175901560 heartbeat IPC: 0.738364 cumulative IPC: 0.861141 (Simulation time: 0 hr 13 min 13 sec) 
Heartbeat CPU 0 instructions: 153000002 cycles: 177034223 heartbeat IPC: 0.882874 cumulative IPC: 0.861281 (Simulation time: 0 hr 13 min 19 sec) 
Heartbeat CPU 0 instructions: 154000000 cycles: 177876027 heartbeat IPC: 1.18792 cumulative IPC: 0.862832 (Simulation time: 0 hr 13 min 24 sec) 
Heartbeat CPU 0 instructions: 155000001 cycles: 178729378 heartbeat IPC: 1.17185 cumulative IPC: 0.864312 (Simulation time: 0 hr 13 min 30 sec) 
Heartbeat CPU 0 instructions: 156000001 cycles: 179518000 heartbeat IPC: 1.26803 cumulative IPC: 0.866091 (Simulation time: 0 hr 13 min 35 sec) 
Heartbeat CPU 0 instructions: 157000002 cycles: 180569001 heartbeat IPC: 0.951475 cumulative IPC: 0.866589 (Simulation time: 0 hr 13 min 41 sec) 
Heartbeat CPU 0 instructions: 158000003 cycles: 181465089 heartbeat IPC: 1.11596 cumulative IPC: 0.867824 (Simulation time: 0 hr 13 min 47 sec) 
Heartbeat CPU 0 instructions: 159000002 cycles: 182302030 heartbeat IPC: 1.19483 cumulative IPC: 0.86933 (Simulation time: 0 hr 13 min 53 sec) 
Heartbeat CPU 0 instructions: 160000001 cycles: 184473032 heartbeat IPC: 0.460616 cumulative IPC: 0.864506 (Simulation time: 0 hr 14 min 2 sec) 
Heartbeat CPU 0 instructions: 161000000 cycles: 186081322 heartbeat IPC: 0.621778 cumulative IPC: 0.862401 (Simulation time: 0 hr 14 min 8 sec) 
Heartbeat CPU 0 instructions: 162000000 cycles: 187508437 heartbeat IPC: 0.700714 cumulative IPC: 0.861167 (Simulation time: 0 hr 14 min 13 sec) 
Heartbeat CPU 0 instructions: 163000001 cycles: 188855897 heartbeat IPC: 0.742138 cumulative IPC: 0.860316 (Simulation time: 0 hr 14 min 18 sec) 
Heartbeat CPU 0 instructions: 164000002 cycles: 190096577 heartbeat IPC: 0.80601 cumulative IPC: 0.85996 (Simulation time: 0 hr 14 min 25 sec) 
Heartbeat CPU 0 instructions: 165000000 cycles: 191624336 heartbeat IPC: 0.654552 cumulative IPC: 0.858318 (Simulation time: 0 hr 14 min 31 sec) 
Heartbeat CPU 0 instructions: 166000003 cycles: 193115064 heartbeat IPC: 0.670815 cumulative IPC: 0.856866 (Simulation time: 0 hr 14 min 36 sec) 
Heartbeat CPU 0 instructions: 167000001 cycles: 194424606 heartbeat IPC: 0.763624 cumulative IPC: 0.856236 (Simulation time: 0 hr 14 min 42 sec) 
Heartbeat CPU 0 instructions: 168000000 cycles: 195675860 heartbeat IPC: 0.799197 cumulative IPC: 0.85587 (Simulation time: 0 hr 14 min 47 sec) 
Heartbeat CPU 0 instructions: 169000001 cycles: 196957290 heartbeat IPC: 0.780379 cumulative IPC: 0.855378 (Simulation time: 0 hr 14 min 52 sec) 
Heartbeat CPU 0 instructions: 170000000 cycles: 198113263 heartbeat IPC: 0.865071 cumulative IPC: 0.855435 (Simulation time: 0 hr 14 min 58 sec) 
Heartbeat CPU 0 instructions: 171000001 cycles: 199151205 heartbeat IPC: 0.963446 cumulative IPC: 0.855999 (Simulation time: 0 hr 15 min 2 sec) 
Heartbeat CPU 0 instructions: 172000000 cycles: 200132812 heartbeat IPC: 1.01874 cumulative IPC: 0.8568 (Simulation time: 0 hr 15 min 7 sec) 
Heartbeat CPU 0 instructions: 173000001 cycles: 201044020 heartbeat IPC: 1.09745 cumulative IPC: 0.857893 (Simulation time: 0 hr 15 min 13 sec) 
Heartbeat CPU 0 instructions: 174000001 cycles: 201890573 heartbeat IPC: 1.18126 cumulative IPC: 0.859253 (Simulation time: 0 hr 15 min 17 sec) 
Heartbeat CPU 0 instructions: 175000003 cycles: 202725395 heartbeat IPC: 1.19786 cumulative IPC: 0.860651 (Simulation time: 0 hr 15 min 21 sec) 
Heartbeat CPU 0 instructions: 176000000 cycles: 203836709 heartbeat IPC: 0.899833 cumulative IPC: 0.860865 (Simulation time: 0 hr 15 min 26 sec) 
Heartbeat CPU 0 instructions: 177000003 cycles: 204742810 heartbeat IPC: 1.10363 cumulative IPC: 0.861943 (Simulation time: 0 hr 15 min 31 sec) 
Heartbeat CPU 0 instructions: 178000002 cycles: 205969898 heartbeat IPC: 0.814937 cumulative IPC: 0.861662 (Simulation time: 0 hr 15 min 36 sec) 
Heartbeat CPU 0 instructions: 179000001 cycles: 207320406 heartbeat IPC: 0.740461 cumulative IPC: 0.86087 (Simulation time: 0 hr 15 min 41 sec) 
Heartbeat CPU 0 instructions: 180000000 cycles: 208612834 heartbeat IPC: 0.773737 cumulative IPC: 0.860329 (Simulation time: 0 hr 15 min 47 sec) 
Heartbeat CPU 0 instructions: 181000003 cycles: 209812691 heartbeat IPC: 0.833435 cumulative IPC: 0.860175 (Simulation time: 0 hr 15 min 52 sec) 
Heartbeat CPU 0 instructions: 182000001 cycles: 211185128 heartbeat IPC: 0.728629 cumulative IPC: 0.859318 (Simulation time: 0 hr 15 min 57 sec) 
Heartbeat CPU 0 instructions: 183000002 cycles: 212328341 heartbeat IPC: 0.874729 cumulative IPC: 0.859401 (Simulation time: 0 hr 16 min 2 sec) 
Heartbeat CPU 0 instructions: 184000002 cycles: 213580817 heartbeat IPC: 0.798419 cumulative IPC: 0.859042 (Simulation time: 0 hr 16 min 7 sec) 
Heartbeat CPU 0 instructions: 185000001 cycles: 215535932 heartbeat IPC: 0.511478 cumulative IPC: 0.855881 (Simulation time: 0 hr 16 min 12 sec) 
Heartbeat CPU 0 instructions: 186000001 cycles: 217078440 heartbeat IPC: 0.648295 cumulative IPC: 0.854403 (Simulation time: 0 hr 16 min 17 sec) 
Heartbeat CPU 0 instructions: 187000000 cycles: 218340557 heartbeat IPC: 0.792319 cumulative IPC: 0.854043 (Simulation time: 0 hr 16 min 22 sec) 
Heartbeat CPU 0 instructions: 188000000 cycles: 219795890 heartbeat IPC: 0.687128 cumulative IPC: 0.852935 (Simulation time: 0 hr 16 min 27 sec) 
Heartbeat CPU 0 instructions: 189000000 cycles: 221031535 heartbeat IPC: 0.809294 cumulative IPC: 0.85269 (Simulation time: 0 hr 16 min 32 sec) 
Heartbeat CPU 0 instructions: 190000002 cycles: 222357354 heartbeat IPC: 0.754252 cumulative IPC: 0.852102 (Simulation time: 0 hr 16 min 37 sec) 
Heartbeat CPU 0 instructions: 191000000 cycles: 223635523 heartbeat IPC: 0.782368 cumulative IPC: 0.851702 (Simulation time: 0 hr 16 min 42 sec) 
Heartbeat CPU 0 instructions: 192000000 cycles: 224930248 heartbeat IPC: 0.772365 cumulative IPC: 0.851245 (Simulation time: 0 hr 16 min 47 sec) 
Heartbeat CPU 0 instructions: 193000000 cycles: 226130456 heartbeat IPC: 0.833189 cumulative IPC: 0.851148 (Simulation time: 0 hr 16 min 52 sec) 
Heartbeat CPU 0 instructions: 194000003 cycles: 227319517 heartbeat IPC: 0.841002 cumulative IPC: 0.851095 (Simulation time: 0 hr 16 min 57 sec) 
Heartbeat CPU 0 instructions: 195000001 cycles: 228528462 heartbeat IPC: 0.827166 cumulative IPC: 0.850968 (Simulation time: 0 hr 17 min 2 sec) 
Heartbeat CPU 0 instructions: 196000003 cycles: 229659662 heartbeat IPC: 0.884019 cumulative IPC: 0.851131 (Simulation time: 0 hr 17 min 7 sec) 
Heartbeat CPU 0 instructions: 197000000 cycles: 230890420 heartbeat IPC: 0.812505 cumulative IPC: 0.850925 (Simulation time: 0 hr 17 min 12 sec) 
Heartbeat CPU 0 instructions: 198000000 cycles: 232106225 heartbeat IPC: 0.8225 cumulative IPC: 0.850776 (Simulation time: 0 hr 17 min 17 sec) 
Heartbeat CPU 0 instructions: 199000002 cycles: 233344347 heartbeat IPC: 0.807676 cumulative IPC: 0.850547 (Simulation time: 0 hr 17 min 22 sec) 
Heartbeat CPU 0 instructions: 200000000 cycles: 234536799 heartbeat IPC: 0.838606 cumulative IPC: 0.850486 (Simulation time: 0 hr 17 min 27 sec) 
Heartbeat CPU 0 instructions: 201000000 cycles: 235994221 heartbeat IPC: 0.686143 cumulative IPC: 0.849468 (Simulation time: 0 hr 17 min 32 sec) 
Heartbeat CPU 0 instructions: 202000000 cycles: 237337565 heartbeat IPC: 0.744411 cumulative IPC: 0.848872 (Simulation time: 0 hr 17 min 37 sec) 
Heartbeat CPU 0 instructions: 203000000 cycles: 238571361 heartbeat IPC: 0.810507 cumulative IPC: 0.848674 (Simulation time: 0 hr 17 min 42 sec) 
Heartbeat CPU 0 instructions: 204000000 cycles: 239794687 heartbeat IPC: 0.817444 cumulative IPC: 0.848514 (Simulation time: 0 hr 17 min 46 sec) 
Heartbeat CPU 0 instructions: 205000003 cycles: 241012916 heartbeat IPC: 0.820866 cumulative IPC: 0.848374 (Simulation time: 0 hr 17 min 51 sec) 
Heartbeat CPU 0 instructions: 206000000 cycles: 241895920 heartbeat IPC: 1.13249 cumulative IPC: 0.849413 (Simulation time: 0 hr 17 min 56 sec) 
Heartbeat CPU 0 instructions: 207000000 cycles: 243068430 heartbeat IPC: 0.852871 cumulative IPC: 0.84943 (Simulation time: 0 hr 18 min 0 sec) 
Heartbeat CPU 0 instructions: 208000000 cycles: 244252444 heartbeat IPC: 0.844585 cumulative IPC: 0.849407 (Simulation time: 0 hr 18 min 5 sec) 
Heartbeat CPU 0 instructions: 209000000 cycles: 245532010 heartbeat IPC: 0.781515 cumulative IPC: 0.849052 (Simulation time: 0 hr 18 min 10 sec) 
Heartbeat CPU 0 instructions: 210000001 cycles: 246810235 heartbeat IPC: 0.782336 cumulative IPC: 0.848706 (Simulation time: 0 hr 18 min 15 sec) 
Heartbeat CPU 0 instructions: 211000003 cycles: 247827132 heartbeat IPC: 0.983386 cumulative IPC: 0.849259 (Simulation time: 0 hr 18 min 19 sec) 
Heartbeat CPU 0 instructions: 212000000 cycles: 249025477 heartbeat IPC: 0.834482 cumulative IPC: 0.849188 (Simulation time: 0 hr 18 min 24 sec) 
Heartbeat CPU 0 instructions: 213000000 cycles: 250284065 heartbeat IPC: 0.794541 cumulative IPC: 0.848913 (Simulation time: 0 hr 18 min 29 sec) 
Heartbeat CPU 0 instructions: 214000003 cycles: 251346002 heartbeat IPC: 0.941678 cumulative IPC: 0.849306 (Simulation time: 0 hr 18 min 34 sec) 
Heartbeat CPU 0 instructions: 215000000 cycles: 252570687 heartbeat IPC: 0.816534 cumulative IPC: 0.849146 (Simulation time: 0 hr 18 min 39 sec) 
Heartbeat CPU 0 instructions: 216000000 cycles: 253790606 heartbeat IPC: 0.819727 cumulative IPC: 0.849005 (Simulation time: 0 hr 18 min 44 sec) 
Heartbeat CPU 0 instructions: 217000000 cycles: 255136226 heartbeat IPC: 0.743152 cumulative IPC: 0.848445 (Simulation time: 0 hr 18 min 49 sec) 
Heartbeat CPU 0 instructions: 218000000 cycles: 256326632 heartbeat IPC: 0.84005 cumulative IPC: 0.848406 (Simulation time: 0 hr 18 min 54 sec) 
Heartbeat CPU 0 instructions: 219000001 cycles: 257428533 heartbeat IPC: 0.907523 cumulative IPC: 0.84866 (Simulation time: 0 hr 19 min 0 sec) 
Heartbeat CPU 0 instructions: 220000000 cycles: 258758653 heartbeat IPC: 0.751811 cumulative IPC: 0.848161 (Simulation time: 0 hr 19 min 5 sec) 
Heartbeat CPU 0 instructions: 221000000 cycles: 260128830 heartbeat IPC: 0.729833 cumulative IPC: 0.847536 (Simulation time: 0 hr 19 min 10 sec) 
Heartbeat CPU 0 instructions: 222000003 cycles: 261314567 heartbeat IPC: 0.84336 cumulative IPC: 0.847517 (Simulation time: 0 hr 19 min 15 sec) 
Heartbeat CPU 0 instructions: 223000000 cycles: 262446434 heartbeat IPC: 0.883493 cumulative IPC: 0.847673 (Simulation time: 0 hr 19 min 21 sec) 
Heartbeat CPU 0 instructions: 224000002 cycles: 263639262 heartbeat IPC: 0.838346 cumulative IPC: 0.84763 (Simulation time: 0 hr 19 min 26 sec) 
Heartbeat CPU 0 instructions: 225000000 cycles: 264644048 heartbeat IPC: 0.995235 cumulative IPC: 0.848192 (Simulation time: 0 hr 19 min 31 sec) 
Heartbeat CPU 0 instructions: 226000003 cycles: 266445583 heartbeat IPC: 0.555084 cumulative IPC: 0.846206 (Simulation time: 0 hr 19 min 36 sec) 
Heartbeat CPU 0 instructions: 227000002 cycles: 267959683 heartbeat IPC: 0.660458 cumulative IPC: 0.845154 (Simulation time: 0 hr 19 min 41 sec) 
Heartbeat CPU 0 instructions: 228000002 cycles: 269419472 heartbeat IPC: 0.685031 cumulative IPC: 0.844285 (Simulation time: 0 hr 19 min 46 sec) 
Heartbeat CPU 0 instructions: 229000002 cycles: 270864766 heartbeat IPC: 0.691901 cumulative IPC: 0.84347 (Simulation time: 0 hr 19 min 51 sec) 
Heartbeat CPU 0 instructions: 230000000 cycles: 272358621 heartbeat IPC: 0.669408 cumulative IPC: 0.842514 (Simulation time: 0 hr 19 min 55 sec) 
Heartbeat CPU 0 instructions: 231000000 cycles: 273702939 heartbeat IPC: 0.743872 cumulative IPC: 0.842028 (Simulation time: 0 hr 20 min 0 sec) 
Heartbeat CPU 0 instructions: 232000001 cycles: 274899923 heartbeat IPC: 0.835434 cumulative IPC: 0.841999 (Simulation time: 0 hr 20 min 5 sec) 
Heartbeat CPU 0 instructions: 233000001 cycles: 275935792 heartbeat IPC: 0.965373 cumulative IPC: 0.842463 (Simulation time: 0 hr 20 min 9 sec) 
Heartbeat CPU 0 instructions: 234000000 cycles: 277289690 heartbeat IPC: 0.738607 cumulative IPC: 0.841955 (Simulation time: 0 hr 20 min 14 sec) 
Heartbeat CPU 0 instructions: 235000003 cycles: 278538225 heartbeat IPC: 0.800941 cumulative IPC: 0.841771 (Simulation time: 0 hr 20 min 19 sec) 
Heartbeat CPU 0 instructions: 236000001 cycles: 280557560 heartbeat IPC: 0.495212 cumulative IPC: 0.839272 (Simulation time: 0 hr 20 min 24 sec) 
Heartbeat CPU 0 instructions: 237000003 cycles: 282007774 heartbeat IPC: 0.689555 cumulative IPC: 0.8385 (Simulation time: 0 hr 20 min 29 sec) 
Heartbeat CPU 0 instructions: 238000000 cycles: 283109031 heartbeat IPC: 0.908051 cumulative IPC: 0.838771 (Simulation time: 0 hr 20 min 34 sec) 
Heartbeat CPU 0 instructions: 239000001 cycles: 284604936 heartbeat IPC: 0.668492 cumulative IPC: 0.837875 (Simulation time: 0 hr 20 min 39 sec) 
Heartbeat CPU 0 instructions: 240000002 cycles: 285936407 heartbeat IPC: 0.75105 cumulative IPC: 0.83747 (Simulation time: 0 hr 20 min 44 sec) 
Heartbeat CPU 0 instructions: 241000002 cycles: 287303243 heartbeat IPC: 0.731617 cumulative IPC: 0.836965 (Simulation time: 0 hr 20 min 48 sec) 
Heartbeat CPU 0 instructions: 242000000 cycles: 288422789 heartbeat IPC: 0.893217 cumulative IPC: 0.837184 (Simulation time: 0 hr 20 min 53 sec) 
Heartbeat CPU 0 instructions: 243000002 cycles: 289657710 heartbeat IPC: 0.80977 cumulative IPC: 0.837067 (Simulation time: 0 hr 20 min 58 sec) 
Heartbeat CPU 0 instructions: 244000001 cycles: 290925054 heartbeat IPC: 0.789051 cumulative IPC: 0.836857 (Simulation time: 0 hr 21 min 4 sec) 
Heartbeat CPU 0 instructions: 245000003 cycles: 292166343 heartbeat IPC: 0.805616 cumulative IPC: 0.836724 (Simulation time: 0 hr 21 min 9 sec) 
Heartbeat CPU 0 instructions: 246000000 cycles: 293620926 heartbeat IPC: 0.68748 cumulative IPC: 0.835983 (Simulation time: 0 hr 21 min 13 sec) 
Heartbeat CPU 0 instructions: 247000003 cycles: 294871724 heartbeat IPC: 0.799492 cumulative IPC: 0.835828 (Simulation time: 0 hr 21 min 18 sec) 
Heartbeat CPU 0 instructions: 248000002 cycles: 296068211 heartbeat IPC: 0.835779 cumulative IPC: 0.835828 (Simulation time: 0 hr 21 min 23 sec) 
Heartbeat CPU 0 instructions: 249000000 cycles: 297125012 heartbeat IPC: 0.94625 cumulative IPC: 0.836222 (Simulation time: 0 hr 21 min 27 sec) 
Heartbeat CPU 0 instructions: 250000002 cycles: 297996307 heartbeat IPC: 1.14772 cumulative IPC: 0.837134 (Simulation time: 0 hr 21 min 32 sec) 
Heartbeat CPU 0 instructions: 251000000 cycles: 299332543 heartbeat IPC: 0.748369 cumulative IPC: 0.836737 (Simulation time: 0 hr 21 min 36 sec) 
Heartbeat CPU 0 instructions: 252000002 cycles: 300254641 heartbeat IPC: 1.08449 cumulative IPC: 0.837499 (Simulation time: 0 hr 21 min 40 sec) 
Heartbeat CPU 0 instructions: 253000000 cycles: 301314670 heartbeat IPC: 0.943369 cumulative IPC: 0.837872 (Simulation time: 0 hr 21 min 45 sec) 
Heartbeat CPU 0 instructions: 254000002 cycles: 302482661 heartbeat IPC: 0.856173 cumulative IPC: 0.837943 (Simulation time: 0 hr 21 min 50 sec) 
Heartbeat CPU 0 instructions: 255000001 cycles: 303538884 heartbeat IPC: 0.946769 cumulative IPC: 0.838323 (Simulation time: 0 hr 21 min 55 sec) 
Heartbeat CPU 0 instructions: 256000000 cycles: 304777837 heartbeat IPC: 0.807132 cumulative IPC: 0.838196 (Simulation time: 0 hr 22 min 0 sec) 
Heartbeat CPU 0 instructions: 257000000 cycles: 306098351 heartbeat IPC: 0.757281 cumulative IPC: 0.837846 (Simulation time: 0 hr 22 min 5 sec) 
Heartbeat CPU 0 instructions: 258000001 cycles: 307137118 heartbeat IPC: 0.962681 cumulative IPC: 0.838269 (Simulation time: 0 hr 22 min 10 sec) 
Heartbeat CPU 0 instructions: 259000000 cycles: 308447959 heartbeat IPC: 0.762868 cumulative IPC: 0.837948 (Simulation time: 0 hr 22 min 15 sec) 
Heartbeat CPU 0 instructions: 260000000 cycles: 309787562 heartbeat IPC: 0.74649 cumulative IPC: 0.837552 (Simulation time: 0 hr 22 min 20 sec) 
Heartbeat CPU 0 instructions: 261000003 cycles: 310946326 heartbeat IPC: 0.862991 cumulative IPC: 0.837647 (Simulation time: 0 hr 22 min 25 sec) 
Heartbeat CPU 0 instructions: 262000000 cycles: 311926532 heartbeat IPC: 1.02019 cumulative IPC: 0.838221 (Simulation time: 0 hr 22 min 31 sec) 
Heartbeat CPU 0 instructions: 263000000 cycles: 313017531 heartbeat IPC: 0.916591 cumulative IPC: 0.838495 (Simulation time: 0 hr 22 min 36 sec) 
Heartbeat CPU 0 instructions: 264000000 cycles: 314776682 heartbeat IPC: 0.568456 cumulative IPC: 0.836983 (Simulation time: 0 hr 22 min 41 sec) 
Heartbeat CPU 0 instructions: 265000001 cycles: 316521205 heartbeat IPC: 0.573223 cumulative IPC: 0.835527 (Simulation time: 0 hr 22 min 46 sec) 
Heartbeat CPU 0 instructions: 266000001 cycles: 317883073 heartbeat IPC: 0.734286 cumulative IPC: 0.835092 (Simulation time: 0 hr 22 min 50 sec) 
Heartbeat CPU 0 instructions: 267000000 cycles: 319122843 heartbeat IPC: 0.8066 cumulative IPC: 0.834981 (Simulation time: 0 hr 22 min 55 sec) 
Heartbeat CPU 0 instructions: 268000000 cycles: 320606436 heartbeat IPC: 0.674039 cumulative IPC: 0.834235 (Simulation time: 0 hr 23 min 0 sec) 
Heartbeat CPU 0 instructions: 269000001 cycles: 322539153 heartbeat IPC: 0.517407 cumulative IPC: 0.832334 (Simulation time: 0 hr 23 min 5 sec) 
Heartbeat CPU 0 instructions: 270000001 cycles: 324170120 heartbeat IPC: 0.613133 cumulative IPC: 0.831229 (Simulation time: 0 hr 23 min 9 sec) 
Heartbeat CPU 0 instructions: 271000000 cycles: 325565217 heartbeat IPC: 0.716795 cumulative IPC: 0.830738 (Simulation time: 0 hr 23 min 14 sec) 
Heartbeat CPU 0 instructions: 272000000 cycles: 327009806 heartbeat IPC: 0.692238 cumulative IPC: 0.830125 (Simulation time: 0 hr 23 min 19 sec) 
Heartbeat CPU 0 instructions: 273000002 cycles: 328345904 heartbeat IPC: 0.74845 cumulative IPC: 0.829792 (Simulation time: 0 hr 23 min 24 sec) 
Heartbeat CPU 0 instructions: 274000003 cycles: 329579670 heartbeat IPC: 0.810527 cumulative IPC: 0.82972 (Simulation time: 0 hr 23 min 28 sec) 
Heartbeat CPU 0 instructions: 275000000 cycles: 331052696 heartbeat IPC: 0.678873 cumulative IPC: 0.829047 (Simulation time: 0 hr 23 min 32 sec) 
Heartbeat CPU 0 instructions: 276000000 cycles: 332326299 heartbeat IPC: 0.785174 cumulative IPC: 0.828879 (Simulation time: 0 hr 23 min 37 sec) 
Heartbeat CPU 0 instructions: 277000000 cycles: 333674931 heartbeat IPC: 0.741492 cumulative IPC: 0.828525 (Simulation time: 0 hr 23 min 42 sec) 
Heartbeat CPU 0 instructions: 278000000 cycles: 335002006 heartbeat IPC: 0.753537 cumulative IPC: 0.828228 (Simulation time: 0 hr 23 min 47 sec) 
Heartbeat CPU 0 instructions: 279000000 cycles: 336195978 heartbeat IPC: 0.837541 cumulative IPC: 0.828261 (Simulation time: 0 hr 23 min 52 sec) 
Heartbeat CPU 0 instructions: 280000002 cycles: 337607260 heartbeat IPC: 0.708577 cumulative IPC: 0.82776 (Simulation time: 0 hr 23 min 57 sec) 
Heartbeat CPU 0 instructions: 281000003 cycles: 339208165 heartbeat IPC: 0.624647 cumulative IPC: 0.826799 (Simulation time: 0 hr 24 min 3 sec) 
Heartbeat CPU 0 instructions: 282000002 cycles: 340787541 heartbeat IPC: 0.633161 cumulative IPC: 0.825901 (Simulation time: 0 hr 24 min 8 sec) 
Heartbeat CPU 0 instructions: 283000003 cycles: 341927278 heartbeat IPC: 0.877396 cumulative IPC: 0.826073 (Simulation time: 0 hr 24 min 12 sec) 
Heartbeat CPU 0 instructions: 284000000 cycles: 343376365 heartbeat IPC: 0.690088 cumulative IPC: 0.825498 (Simulation time: 0 hr 24 min 17 sec) 
Heartbeat CPU 0 instructions: 285000002 cycles: 344711180 heartbeat IPC: 0.749169 cumulative IPC: 0.825202 (Simulation time: 0 hr 24 min 21 sec) 
Heartbeat CPU 0 instructions: 286000000 cycles: 345822900 heartbeat IPC: 0.899505 cumulative IPC: 0.825441 (Simulation time: 0 hr 24 min 26 sec) 
Heartbeat CPU 0 instructions: 287000000 cycles: 347026138 heartbeat IPC: 0.831091 cumulative IPC: 0.825461 (Simulation time: 0 hr 24 min 31 sec) 
Heartbeat CPU 0 instructions: 288000001 cycles: 348322780 heartbeat IPC: 0.771224 cumulative IPC: 0.825258 (Simulation time: 0 hr 24 min 36 sec) 
Heartbeat CPU 0 instructions: 289000002 cycles: 349698118 heartbeat IPC: 0.727095 cumulative IPC: 0.824872 (Simulation time: 0 hr 24 min 41 sec) 
Heartbeat CPU 0 instructions: 290000002 cycles: 351273863 heartbeat IPC: 0.63462 cumulative IPC: 0.824017 (Simulation time: 0 hr 24 min 46 sec) 
Heartbeat CPU 0 instructions: 291000000 cycles: 352691338 heartbeat IPC: 0.705478 cumulative IPC: 0.82354 (Simulation time: 0 hr 24 min 51 sec) 
Heartbeat CPU 0 instructions: 292000002 cycles: 353907052 heartbeat IPC: 0.822564 cumulative IPC: 0.823536 (Simulation time: 0 hr 24 min 56 sec) 
Heartbeat CPU 0 instructions: 293000000 cycles: 355056514 heartbeat IPC: 0.869971 cumulative IPC: 0.823687 (Simulation time: 0 hr 25 min 1 sec) 
Heartbeat CPU 0 instructions: 294000002 cycles: 356178342 heartbeat IPC: 0.891404 cumulative IPC: 0.823901 (Simulation time: 0 hr 25 min 6 sec) 
Heartbeat CPU 0 instructions: 295000001 cycles: 357469637 heartbeat IPC: 0.774416 cumulative IPC: 0.823721 (Simulation time: 0 hr 25 min 11 sec) 
Heartbeat CPU 0 instructions: 296000001 cycles: 358873191 heartbeat IPC: 0.712477 cumulative IPC: 0.823286 (Simulation time: 0 hr 25 min 17 sec) 
Heartbeat CPU 0 instructions: 297000000 cycles: 360015705 heartbeat IPC: 0.875262 cumulative IPC: 0.823451 (Simulation time: 0 hr 25 min 22 sec) 
Heartbeat CPU 0 instructions: 298000000 cycles: 361064105 heartbeat IPC: 0.953834 cumulative IPC: 0.82383 (Simulation time: 0 hr 25 min 26 sec) 
Heartbeat CPU 0 instructions: 299000003 cycles: 362173671 heartbeat IPC: 0.901256 cumulative IPC: 0.824068 (Simulation time: 0 hr 25 min 32 sec) 
Heartbeat CPU 0 instructions: 300000000 cycles: 363347002 heartbeat IPC: 0.852272 cumulative IPC: 0.824159 (Simulation time: 0 hr 25 min 36 sec) 
Heartbeat CPU 0 instructions: 301000003 cycles: 364360740 heartbeat IPC: 0.986451 cumulative IPC: 0.824611 (Simulation time: 0 hr 25 min 41 sec) 
Heartbeat CPU 0 instructions: 302000000 cycles: 365289937 heartbeat IPC: 1.07619 cumulative IPC: 0.825252 (Simulation time: 0 hr 25 min 45 sec) 
Heartbeat CPU 0 instructions: 303000003 cycles: 366265634 heartbeat IPC: 1.02491 cumulative IPC: 0.825785 (Simulation time: 0 hr 25 min 49 sec) 
Heartbeat CPU 0 instructions: 304000000 cycles: 367247060 heartbeat IPC: 1.01892 cumulative IPC: 0.826302 (Simulation time: 0 hr 25 min 53 sec) 
Heartbeat CPU 0 instructions: 305000000 cycles: 368140703 heartbeat IPC: 1.11902 cumulative IPC: 0.827013 (Simulation time: 0 hr 25 min 57 sec) 
Heartbeat CPU 0 instructions: 306000000 cycles: 369256927 heartbeat IPC: 0.895878 cumulative IPC: 0.827222 (Simulation time: 0 hr 26 min 3 sec) 
Heartbeat CPU 0 instructions: 307000003 cycles: 370326946 heartbeat IPC: 0.934566 cumulative IPC: 0.827532 (Simulation time: 0 hr 26 min 8 sec) 
Heartbeat CPU 0 instructions: 308000000 cycles: 371514292 heartbeat IPC: 0.842212 cumulative IPC: 0.827579 (Simulation time: 0 hr 26 min 14 sec) 
Heartbeat CPU 0 instructions: 309000000 cycles: 372822385 heartbeat IPC: 0.764472 cumulative IPC: 0.827358 (Simulation time: 0 hr 26 min 20 sec) 
Heartbeat CPU 0 instructions: 310000000 cycles: 374245180 heartbeat IPC: 0.702842 cumulative IPC: 0.826883 (Simulation time: 0 hr 26 min 25 sec) 
Heartbeat CPU 0 instructions: 311000000 cycles: 375525157 heartbeat IPC: 0.781264 cumulative IPC: 0.826728 (Simulation time: 0 hr 26 min 30 sec) 
Heartbeat CPU 0 instructions: 312000001 cycles: 376747122 heartbeat IPC: 0.818355 cumulative IPC: 0.826701 (Simulation time: 0 hr 26 min 35 sec) 
Heartbeat CPU 0 instructions: 313000000 cycles: 378000060 heartbeat IPC: 0.798123 cumulative IPC: 0.826606 (Simulation time: 0 hr 26 min 40 sec) 
Heartbeat CPU 0 instructions: 314000001 cycles: 379413430 heartbeat IPC: 0.70753 cumulative IPC: 0.826162 (Simulation time: 0 hr 26 min 45 sec) 
Heartbeat CPU 0 instructions: 315000003 cycles: 380696272 heartbeat IPC: 0.779521 cumulative IPC: 0.826004 (Simulation time: 0 hr 26 min 50 sec) 
Heartbeat CPU 0 instructions: 316000000 cycles: 382120865 heartbeat IPC: 0.701953 cumulative IPC: 0.825541 (Simulation time: 0 hr 26 min 55 sec) 
Heartbeat CPU 0 instructions: 317000001 cycles: 383266671 heartbeat IPC: 0.872749 cumulative IPC: 0.825682 (Simulation time: 0 hr 27 min 0 sec) 
Heartbeat CPU 0 instructions: 318000000 cycles: 384397475 heartbeat IPC: 0.884326 cumulative IPC: 0.825855 (Simulation time: 0 hr 27 min 5 sec) 
Heartbeat CPU 0 instructions: 319000000 cycles: 385608241 heartbeat IPC: 0.825923 cumulative IPC: 0.825855 (Simulation time: 0 hr 27 min 10 sec) 
Heartbeat CPU 0 instructions: 320000001 cycles: 386919754 heartbeat IPC: 0.762479 cumulative IPC: 0.82564 (Simulation time: 0 hr 27 min 15 sec) 
Heartbeat CPU 0 instructions: 321000002 cycles: 388280073 heartbeat IPC: 0.735122 cumulative IPC: 0.825323 (Simulation time: 0 hr 27 min 21 sec) 
Heartbeat CPU 0 instructions: 322000000 cycles: 390227253 heartbeat IPC: 0.513562 cumulative IPC: 0.823765 (Simulation time: 0 hr 27 min 29 sec) 
Heartbeat CPU 0 instructions: 323000001 cycles: 391641253 heartbeat IPC: 0.707214 cumulative IPC: 0.823343 (Simulation time: 0 hr 27 min 35 sec) 
Heartbeat CPU 0 instructions: 324000000 cycles: 393044186 heartbeat IPC: 0.712792 cumulative IPC: 0.822948 (Simulation time: 0 hr 27 min 41 sec) 
Heartbeat CPU 0 instructions: 325000001 cycles: 394373466 heartbeat IPC: 0.752288 cumulative IPC: 0.82271 (Simulation time: 0 hr 27 min 47 sec) 
Heartbeat CPU 0 instructions: 326000000 cycles: 395514248 heartbeat IPC: 0.876591 cumulative IPC: 0.822865 (Simulation time: 0 hr 27 min 53 sec) 
Heartbeat CPU 0 instructions: 327000002 cycles: 396805405 heartbeat IPC: 0.774501 cumulative IPC: 0.822708 (Simulation time: 0 hr 27 min 58 sec) 
Heartbeat CPU 0 instructions: 328000000 cycles: 398349165 heartbeat IPC: 0.647768 cumulative IPC: 0.822029 (Simulation time: 0 hr 28 min 3 sec) 
Heartbeat CPU 0 instructions: 329000003 cycles: 399571881 heartbeat IPC: 0.817854 cumulative IPC: 0.822016 (Simulation time: 0 hr 28 min 8 sec) 
Heartbeat CPU 0 instructions: 330000000 cycles: 400765084 heartbeat IPC: 0.838078 cumulative IPC: 0.822064 (Simulation time: 0 hr 28 min 14 sec) 
Heartbeat CPU 0 instructions: 331000000 cycles: 401986744 heartbeat IPC: 0.818558 cumulative IPC: 0.822053 (Simulation time: 0 hr 28 min 19 sec) 
Heartbeat CPU 0 instructions: 332000003 cycles: 403209785 heartbeat IPC: 0.817637 cumulative IPC: 0.82204 (Simulation time: 0 hr 28 min 24 sec) 
Heartbeat CPU 0 instructions: 333000000 cycles: 404709989 heartbeat IPC: 0.666574 cumulative IPC: 0.821463 (Simulation time: 0 hr 28 min 29 sec) 
Heartbeat CPU 0 instructions: 334000000 cycles: 405942626 heartbeat IPC: 0.811269 cumulative IPC: 0.821432 (Simulation time: 0 hr 28 min 34 sec) 
Heartbeat CPU 0 instructions: 335000000 cycles: 407147602 heartbeat IPC: 0.829892 cumulative IPC: 0.821457 (Simulation time: 0 hr 28 min 39 sec) 
Heartbeat CPU 0 instructions: 336000001 cycles: 408421890 heartbeat IPC: 0.784753 cumulative IPC: 0.821342 (Simulation time: 0 hr 28 min 44 sec) 
Heartbeat CPU 0 instructions: 337000002 cycles: 409632904 heartbeat IPC: 0.825755 cumulative IPC: 0.821355 (Simulation time: 0 hr 28 min 49 sec) 
Heartbeat CPU 0 instructions: 338000003 cycles: 411022344 heartbeat IPC: 0.719715 cumulative IPC: 0.821011 (Simulation time: 0 hr 28 min 55 sec) 
Heartbeat CPU 0 instructions: 339000000 cycles: 412317792 heartbeat IPC: 0.771931 cumulative IPC: 0.820857 (Simulation time: 0 hr 29 min 1 sec) 
Heartbeat CPU 0 instructions: 340000000 cycles: 413580249 heartbeat IPC: 0.792106 cumulative IPC: 0.820769 (Simulation time: 0 hr 29 min 6 sec) 
Heartbeat CPU 0 instructions: 341000000 cycles: 414743059 heartbeat IPC: 0.859986 cumulative IPC: 0.820879 (Simulation time: 0 hr 29 min 11 sec) 
Heartbeat CPU 0 instructions: 342000001 cycles: 415912449 heartbeat IPC: 0.855148 cumulative IPC: 0.820975 (Simulation time: 0 hr 29 min 16 sec) 
Heartbeat CPU 0 instructions: 343000002 cycles: 417125116 heartbeat IPC: 0.824629 cumulative IPC: 0.820986 (Simulation time: 0 hr 29 min 21 sec) 
Heartbeat CPU 0 instructions: 344000000 cycles: 418276717 heartbeat IPC: 0.868355 cumulative IPC: 0.821117 (Simulation time: 0 hr 29 min 27 sec) 
Heartbeat CPU 0 instructions: 345000000 cycles: 419569802 heartbeat IPC: 0.773344 cumulative IPC: 0.820969 (Simulation time: 0 hr 29 min 32 sec) 
Heartbeat CPU 0 instructions: 346000001 cycles: 420734094 heartbeat IPC: 0.858892 cumulative IPC: 0.821074 (Simulation time: 0 hr 29 min 38 sec) 
Heartbeat CPU 0 instructions: 347000000 cycles: 421986942 heartbeat IPC: 0.798181 cumulative IPC: 0.821006 (Simulation time: 0 hr 29 min 43 sec) 
Heartbeat CPU 0 instructions: 348000002 cycles: 423083893 heartbeat IPC: 0.91162 cumulative IPC: 0.821241 (Simulation time: 0 hr 29 min 48 sec) 
Heartbeat CPU 0 instructions: 349000002 cycles: 424321245 heartbeat IPC: 0.808177 cumulative IPC: 0.821203 (Simulation time: 0 hr 29 min 53 sec) 
Heartbeat CPU 0 instructions: 350000001 cycles: 425442452 heartbeat IPC: 0.891895 cumulative IPC: 0.82139 (Simulation time: 0 hr 29 min 57 sec) 
Heartbeat CPU 0 instructions: 351000003 cycles: 426589028 heartbeat IPC: 0.872164 cumulative IPC: 0.821527 (Simulation time: 0 hr 30 min 2 sec) 
Heartbeat CPU 0 instructions: 352000000 cycles: 427819252 heartbeat IPC: 0.812858 cumulative IPC: 0.821502 (Simulation time: 0 hr 30 min 7 sec) 
Heartbeat CPU 0 instructions: 353000001 cycles: 429161941 heartbeat IPC: 0.744775 cumulative IPC: 0.821261 (Simulation time: 0 hr 30 min 13 sec) 
Heartbeat CPU 0 instructions: 354000002 cycles: 430331790 heartbeat IPC: 0.854812 cumulative IPC: 0.821353 (Simulation time: 0 hr 30 min 18 sec) 
Heartbeat CPU 0 instructions: 355000002 cycles: 431489822 heartbeat IPC: 0.863534 cumulative IPC: 0.821466 (Simulation time: 0 hr 30 min 24 sec) 
Heartbeat CPU 0 instructions: 356000001 cycles: 432660131 heartbeat IPC: 0.854474 cumulative IPC: 0.821555 (Simulation time: 0 hr 30 min 29 sec) 
Heartbeat CPU 0 instructions: 357000000 cycles: 434040990 heartbeat IPC: 0.724186 cumulative IPC: 0.821245 (Simulation time: 0 hr 30 min 35 sec) 
Heartbeat CPU 0 instructions: 358000000 cycles: 435308167 heartbeat IPC: 0.789156 cumulative IPC: 0.821152 (Simulation time: 0 hr 30 min 40 sec) 
Heartbeat CPU 0 instructions: 359000000 cycles: 436616425 heartbeat IPC: 0.764375 cumulative IPC: 0.820981 (Simulation time: 0 hr 30 min 45 sec) 
Heartbeat CPU 0 instructions: 360000000 cycles: 437926158 heartbeat IPC: 0.763514 cumulative IPC: 0.820809 (Simulation time: 0 hr 30 min 50 sec) 
Heartbeat CPU 0 instructions: 361000000 cycles: 439010643 heartbeat IPC: 0.922097 cumulative IPC: 0.82106 (Simulation time: 0 hr 30 min 55 sec) 
Heartbeat CPU 0 instructions: 362000000 cycles: 440335596 heartbeat IPC: 0.754744 cumulative IPC: 0.82086 (Simulation time: 0 hr 31 min 0 sec) 
Heartbeat CPU 0 instructions: 363000000 cycles: 441835159 heartbeat IPC: 0.666861 cumulative IPC: 0.820337 (Simulation time: 0 hr 31 min 5 sec) 
Heartbeat CPU 0 instructions: 364000003 cycles: 443049028 heartbeat IPC: 0.823815 cumulative IPC: 0.820346 (Simulation time: 0 hr 31 min 11 sec) 
Heartbeat CPU 0 instructions: 365000000 cycles: 444230594 heartbeat IPC: 0.846332 cumulative IPC: 0.820415 (Simulation time: 0 hr 31 min 16 sec) 
Heartbeat CPU 0 instructions: 366000001 cycles: 445402376 heartbeat IPC: 0.853402 cumulative IPC: 0.820502 (Simulation time: 0 hr 31 min 21 sec) 
Heartbeat CPU 0 instructions: 367000000 cycles: 446592647 heartbeat IPC: 0.840144 cumulative IPC: 0.820555 (Simulation time: 0 hr 31 min 27 sec) 
Heartbeat CPU 0 instructions: 368000000 cycles: 447790625 heartbeat IPC: 0.83474 cumulative IPC: 0.820593 (Simulation time: 0 hr 31 min 32 sec) 
Heartbeat CPU 0 instructions: 369000002 cycles: 449088126 heartbeat IPC: 0.770714 cumulative IPC: 0.820448 (Simulation time: 0 hr 31 min 37 sec) 
Heartbeat CPU 0 instructions: 370000001 cycles: 450219728 heartbeat IPC: 0.883702 cumulative IPC: 0.820608 (Simulation time: 0 hr 31 min 42 sec) 
Heartbeat CPU 0 instructions: 371000000 cycles: 451439098 heartbeat IPC: 0.820095 cumulative IPC: 0.820606 (Simulation time: 0 hr 31 min 47 sec) 
Heartbeat CPU 0 instructions: 372000003 cycles: 452693392 heartbeat IPC: 0.797264 cumulative IPC: 0.820541 (Simulation time: 0 hr 31 min 52 sec) 
Heartbeat CPU 0 instructions: 373000002 cycles: 453870278 heartbeat IPC: 0.849699 cumulative IPC: 0.820617 (Simulation time: 0 hr 31 min 56 sec) 
Heartbeat CPU 0 instructions: 374000000 cycles: 454530356 heartbeat IPC: 1.51497 cumulative IPC: 0.821627 (Simulation time: 0 hr 32 min 1 sec) 
Heartbeat CPU 0 instructions: 375000000 cycles: 455423534 heartbeat IPC: 1.1196 cumulative IPC: 0.822212 (Simulation time: 0 hr 32 min 6 sec) 
Heartbeat CPU 0 instructions: 376000002 cycles: 456140000 heartbeat IPC: 1.39574 cumulative IPC: 0.823114 (Simulation time: 0 hr 32 min 11 sec) 
Heartbeat CPU 0 instructions: 377000000 cycles: 457262462 heartbeat IPC: 0.890897 cumulative IPC: 0.82328 (Simulation time: 0 hr 32 min 16 sec) 
Heartbeat CPU 0 instructions: 378000002 cycles: 458409665 heartbeat IPC: 0.871687 cumulative IPC: 0.823402 (Simulation time: 0 hr 32 min 20 sec) 
Heartbeat CPU 0 instructions: 379000000 cycles: 459458715 heartbeat IPC: 0.953242 cumulative IPC: 0.823698 (Simulation time: 0 hr 32 min 24 sec) 
Heartbeat CPU 0 instructions: 380000000 cycles: 460951493 heartbeat IPC: 0.669892 cumulative IPC: 0.8232 (Simulation time: 0 hr 32 min 29 sec) 
Heartbeat CPU 0 instructions: 381000001 cycles: 462239772 heartbeat IPC: 0.77623 cumulative IPC: 0.823069 (Simulation time: 0 hr 32 min 34 sec) 
Heartbeat CPU 0 instructions: 382000001 cycles: 463445973 heartbeat IPC: 0.829049 cumulative IPC: 0.823084 (Simulation time: 0 hr 32 min 39 sec) 
Heartbeat CPU 0 instructions: 383000001 cycles: 464710720 heartbeat IPC: 0.790672 cumulative IPC: 0.822996 (Simulation time: 0 hr 32 min 44 sec) 
Heartbeat CPU 0 instructions: 384000000 cycles: 465581656 heartbeat IPC: 1.14819 cumulative IPC: 0.823605 (Simulation time: 0 hr 32 min 48 sec) 
Heartbeat CPU 0 instructions: 385000000 cycles: 466448838 heartbeat IPC: 1.15316 cumulative IPC: 0.824218 (Simulation time: 0 hr 32 min 52 sec) 
Heartbeat CPU 0 instructions: 386000003 cycles: 467223920 heartbeat IPC: 1.29019 cumulative IPC: 0.824992 (Simulation time: 0 hr 32 min 58 sec) 
Heartbeat CPU 0 instructions: 387000002 cycles: 468135130 heartbeat IPC: 1.09744 cumulative IPC: 0.825523 (Simulation time: 0 hr 33 min 1 sec) 
Heartbeat CPU 0 instructions: 388000001 cycles: 469067107 heartbeat IPC: 1.07299 cumulative IPC: 0.826015 (Simulation time: 0 hr 33 min 6 sec) 
Heartbeat CPU 0 instructions: 389000000 cycles: 470212756 heartbeat IPC: 0.872867 cumulative IPC: 0.82613 (Simulation time: 0 hr 33 min 11 sec) 
Heartbeat CPU 0 instructions: 390000001 cycles: 471501896 heartbeat IPC: 0.775712 cumulative IPC: 0.825992 (Simulation time: 0 hr 33 min 16 sec) 
Heartbeat CPU 0 instructions: 391000000 cycles: 472815942 heartbeat IPC: 0.761008 cumulative IPC: 0.825811 (Simulation time: 0 hr 33 min 22 sec) 
Heartbeat CPU 0 instructions: 392000003 cycles: 474059544 heartbeat IPC: 0.804118 cumulative IPC: 0.825754 (Simulation time: 0 hr 33 min 27 sec) 
Heartbeat CPU 0 instructions: 393000002 cycles: 475115196 heartbeat IPC: 0.947281 cumulative IPC: 0.826024 (Simulation time: 0 hr 33 min 32 sec) 
Heartbeat CPU 0 instructions: 394000000 cycles: 476207117 heartbeat IPC: 0.915815 cumulative IPC: 0.82623 (Simulation time: 0 hr 33 min 37 sec) 
Heartbeat CPU 0 instructions: 395000001 cycles: 477208157 heartbeat IPC: 0.998962 cumulative IPC: 0.826593 (Simulation time: 0 hr 33 min 42 sec) 
Heartbeat CPU 0 instructions: 396000000 cycles: 478375744 heartbeat IPC: 0.856466 cumulative IPC: 0.826666 (Simulation time: 0 hr 33 min 47 sec) 
Heartbeat CPU 0 instructions: 397000000 cycles: 479645106 heartbeat IPC: 0.787797 cumulative IPC: 0.826563 (Simulation time: 0 hr 33 min 52 sec) 
Heartbeat CPU 0 instructions: 398000002 cycles: 480986517 heartbeat IPC: 0.745485 cumulative IPC: 0.826337 (Simulation time: 0 hr 33 min 57 sec) 
Heartbeat CPU 0 instructions: 399000000 cycles: 482281946 heartbeat IPC: 0.771944 cumulative IPC: 0.826191 (Simulation time: 0 hr 34 min 3 sec) 
Heartbeat CPU 0 instructions: 400000000 cycles: 483781908 heartbeat IPC: 0.666684 cumulative IPC: 0.825695 (Simulation time: 0 hr 34 min 8 sec) 
Heartbeat CPU 0 instructions: 401000002 cycles: 485120851 heartbeat IPC: 0.746859 cumulative IPC: 0.825478 (Simulation time: 0 hr 34 min 13 sec) 
Heartbeat CPU 0 instructions: 402000000 cycles: 486356794 heartbeat IPC: 0.809097 cumulative IPC: 0.825436 (Simulation time: 0 hr 34 min 18 sec) 
Heartbeat CPU 0 instructions: 403000000 cycles: 487605294 heartbeat IPC: 0.800961 cumulative IPC: 0.825373 (Simulation time: 0 hr 34 min 23 sec) 
Heartbeat CPU 0 instructions: 404000002 cycles: 488538451 heartbeat IPC: 1.07163 cumulative IPC: 0.825844 (Simulation time: 0 hr 34 min 28 sec) 
Heartbeat CPU 0 instructions: 405000000 cycles: 489751212 heartbeat IPC: 0.824563 cumulative IPC: 0.825841 (Simulation time: 0 hr 34 min 33 sec) 
Heartbeat CPU 0 instructions: 406000003 cycles: 490986603 heartbeat IPC: 0.809463 cumulative IPC: 0.8258 (Simulation time: 0 hr 34 min 39 sec) 
Heartbeat CPU 0 instructions: 407000000 cycles: 492288905 heartbeat IPC: 0.767869 cumulative IPC: 0.825646 (Simulation time: 0 hr 34 min 44 sec) 
Heartbeat CPU 0 instructions: 408000000 cycles: 493662790 heartbeat IPC: 0.727863 cumulative IPC: 0.825374 (Simulation time: 0 hr 34 min 50 sec) 
Heartbeat CPU 0 instructions: 409000000 cycles: 494981751 heartbeat IPC: 0.758173 cumulative IPC: 0.825195 (Simulation time: 0 hr 34 min 54 sec) 
Heartbeat CPU 0 instructions: 410000002 cycles: 496078676 heartbeat IPC: 0.911641 cumulative IPC: 0.825386 (Simulation time: 0 hr 35 min 0 sec) 
Heartbeat CPU 0 instructions: 411000002 cycles: 497166418 heartbeat IPC: 0.919336 cumulative IPC: 0.825592 (Simulation time: 0 hr 35 min 5 sec) 
Heartbeat CPU 0 instructions: 412000000 cycles: 498248038 heartbeat IPC: 0.924537 cumulative IPC: 0.825807 (Simulation time: 0 hr 35 min 10 sec) 
Heartbeat CPU 0 instructions: 413000001 cycles: 499334002 heartbeat IPC: 0.920842 cumulative IPC: 0.826014 (Simulation time: 0 hr 35 min 16 sec) 
Heartbeat CPU 0 instructions: 414000001 cycles: 500447140 heartbeat IPC: 0.898361 cumulative IPC: 0.826175 (Simulation time: 0 hr 35 min 21 sec) 
Heartbeat CPU 0 instructions: 415000003 cycles: 501705604 heartbeat IPC: 0.794621 cumulative IPC: 0.826095 (Simulation time: 0 hr 35 min 27 sec) 
Heartbeat CPU 0 instructions: 416000003 cycles: 502591189 heartbeat IPC: 1.1292 cumulative IPC: 0.82663 (Simulation time: 0 hr 35 min 32 sec) 
Heartbeat CPU 0 instructions: 417000001 cycles: 503594945 heartbeat IPC: 0.996256 cumulative IPC: 0.826969 (Simulation time: 0 hr 35 min 37 sec) 
Heartbeat CPU 0 instructions: 418000000 cycles: 504490768 heartbeat IPC: 1.11629 cumulative IPC: 0.827483 (Simulation time: 0 hr 35 min 42 sec) 
Heartbeat CPU 0 instructions: 419000000 cycles: 506636199 heartbeat IPC: 0.466107 cumulative IPC: 0.825951 (Simulation time: 0 hr 35 min 48 sec) 
Heartbeat CPU 0 instructions: 420000002 cycles: 508382740 heartbeat IPC: 0.572561 cumulative IPC: 0.82508 (Simulation time: 0 hr 35 min 52 sec) 
Heartbeat CPU 0 instructions: 421000000 cycles: 510071950 heartbeat IPC: 0.591992 cumulative IPC: 0.824307 (Simulation time: 0 hr 35 min 57 sec) 
Heartbeat CPU 0 instructions: 422000000 cycles: 511283319 heartbeat IPC: 0.825512 cumulative IPC: 0.82431 (Simulation time: 0 hr 36 min 1 sec) 
Heartbeat CPU 0 instructions: 423000000 cycles: 512707861 heartbeat IPC: 0.70198 cumulative IPC: 0.823969 (Simulation time: 0 hr 36 min 6 sec) 
Heartbeat CPU 0 instructions: 424000001 cycles: 514615827 heartbeat IPC: 0.524119 cumulative IPC: 0.822856 (Simulation time: 0 hr 36 min 11 sec) 
Heartbeat CPU 0 instructions: 425000000 cycles: 515746574 heartbeat IPC: 0.88437 cumulative IPC: 0.822991 (Simulation time: 0 hr 36 min 16 sec) 
Heartbeat CPU 0 instructions: 426000000 cycles: 517150243 heartbeat IPC: 0.712419 cumulative IPC: 0.822691 (Simulation time: 0 hr 36 min 21 sec) 
Heartbeat CPU 0 instructions: 427000000 cycles: 518419402 heartbeat IPC: 0.787923 cumulative IPC: 0.822606 (Simulation time: 0 hr 36 min 26 sec) 
Heartbeat CPU 0 instructions: 428000002 cycles: 519672684 heartbeat IPC: 0.797907 cumulative IPC: 0.822546 (Simulation time: 0 hr 36 min 31 sec) 
Heartbeat CPU 0 instructions: 429000000 cycles: 520841106 heartbeat IPC: 0.855853 cumulative IPC: 0.822621 (Simulation time: 0 hr 36 min 36 sec) 
Heartbeat CPU 0 instructions: 430000001 cycles: 522110997 heartbeat IPC: 0.78747 cumulative IPC: 0.822535 (Simulation time: 0 hr 36 min 41 sec) 
Heartbeat CPU 0 instructions: 431000000 cycles: 523426273 heartbeat IPC: 0.760296 cumulative IPC: 0.822379 (Simulation time: 0 hr 36 min 46 sec) 
Heartbeat CPU 0 instructions: 432000001 cycles: 524561898 heartbeat IPC: 0.880573 cumulative IPC: 0.822505 (Simulation time: 0 hr 36 min 50 sec) 
Heartbeat CPU 0 instructions: 433000001 cycles: 525752312 heartbeat IPC: 0.840044 cumulative IPC: 0.822545 (Simulation time: 0 hr 36 min 55 sec) 
Heartbeat CPU 0 instructions: 434000000 cycles: 526720232 heartbeat IPC: 1.03314 cumulative IPC: 0.822932 (Simulation time: 0 hr 37 min 0 sec) 
Heartbeat CPU 0 instructions: 435000001 cycles: 527831994 heartbeat IPC: 0.899474 cumulative IPC: 0.823093 (Simulation time: 0 hr 37 min 5 sec) 
Heartbeat CPU 0 instructions: 436000001 cycles: 528918070 heartbeat IPC: 0.920746 cumulative IPC: 0.823294 (Simulation time: 0 hr 37 min 10 sec) 
Heartbeat CPU 0 instructions: 437000003 cycles: 530192836 heartbeat IPC: 0.784459 cumulative IPC: 0.823201 (Simulation time: 0 hr 37 min 15 sec) 
Heartbeat CPU 0 instructions: 438000000 cycles: 531414042 heartbeat IPC: 0.81886 cumulative IPC: 0.823191 (Simulation time: 0 hr 37 min 20 sec) 
Heartbeat CPU 0 instructions: 439000001 cycles: 532715718 heartbeat IPC: 0.768241 cumulative IPC: 0.823056 (Simulation time: 0 hr 37 min 25 sec) 
Heartbeat CPU 0 instructions: 440000000 cycles: 533879589 heartbeat IPC: 0.859201 cumulative IPC: 0.823135 (Simulation time: 0 hr 37 min 30 sec) 
Heartbeat CPU 0 instructions: 441000003 cycles: 535291722 heartbeat IPC: 0.708151 cumulative IPC: 0.822832 (Simulation time: 0 hr 37 min 35 sec) 
Heartbeat CPU 0 instructions: 442000000 cycles: 536657761 heartbeat IPC: 0.732041 cumulative IPC: 0.8226 (Simulation time: 0 hr 37 min 41 sec) 
Heartbeat CPU 0 instructions: 443000003 cycles: 538203250 heartbeat IPC: 0.647046 cumulative IPC: 0.822096 (Simulation time: 0 hr 37 min 46 sec) 
Heartbeat CPU 0 instructions: 444000000 cycles: 539310732 heartbeat IPC: 0.902947 cumulative IPC: 0.822262 (Simulation time: 0 hr 37 min 51 sec) 
Heartbeat CPU 0 instructions: 445000001 cycles: 540735384 heartbeat IPC: 0.701927 cumulative IPC: 0.821944 (Simulation time: 0 hr 37 min 56 sec) 
Heartbeat CPU 0 instructions: 446000000 cycles: 541960300 heartbeat IPC: 0.816382 cumulative IPC: 0.821932 (Simulation time: 0 hr 38 min 0 sec) 
Heartbeat CPU 0 instructions: 447000000 cycles: 543015418 heartbeat IPC: 0.947761 cumulative IPC: 0.822177 (Simulation time: 0 hr 38 min 5 sec) 
Heartbeat CPU 0 instructions: 448000000 cycles: 544200829 heartbeat IPC: 0.843589 cumulative IPC: 0.822223 (Simulation time: 0 hr 38 min 11 sec) 
Heartbeat CPU 0 instructions: 449000000 cycles: 545583454 heartbeat IPC: 0.723262 cumulative IPC: 0.821972 (Simulation time: 0 hr 38 min 15 sec) 
Heartbeat CPU 0 instructions: 450000000 cycles: 547092544 heartbeat IPC: 0.662651 cumulative IPC: 0.821532 (Simulation time: 0 hr 38 min 20 sec) 

Warmup complete CPU 0 instructions: 450000001 cycles: 547092545 (Simulation time: 0 hr 38 min 20 sec) 

Heartbeat CPU 0 instructions: 451000000 cycles: 548304966 heartbeat IPC: 0.824795 cumulative IPC: 0.824795 (Simulation time: 0 hr 38 min 25 sec) 
Heartbeat CPU 0 instructions: 452000002 cycles: 549506921 heartbeat IPC: 0.83198 cumulative IPC: 0.828372 (Simulation time: 0 hr 38 min 30 sec) 
Heartbeat CPU 0 instructions: 453000002 cycles: 550841188 heartbeat IPC: 0.749475 cumulative IPC: 0.80029 (Simulation time: 0 hr 38 min 35 sec) 
Heartbeat CPU 0 instructions: 454000001 cycles: 551961897 heartbeat IPC: 0.892291 cumulative IPC: 0.821465 (Simulation time: 0 hr 38 min 40 sec) 
Heartbeat CPU 0 instructions: 455000001 cycles: 552976112 heartbeat IPC: 0.985984 cumulative IPC: 0.849825 (Simulation time: 0 hr 38 min 45 sec) 
Heartbeat CPU 0 instructions: 456000000 cycles: 553998427 heartbeat IPC: 0.978171 cumulative IPC: 0.868824 (Simulation time: 0 hr 38 min 50 sec) 
Heartbeat CPU 0 instructions: 457000002 cycles: 555108670 heartbeat IPC: 0.900706 cumulative IPC: 0.87324 (Simulation time: 0 hr 38 min 54 sec) 
Heartbeat CPU 0 instructions: 458000000 cycles: 556054057 heartbeat IPC: 1.05777 cumulative IPC: 0.892706 (Simulation time: 0 hr 38 min 59 sec) 
Heartbeat CPU 0 instructions: 459000001 cycles: 556933237 heartbeat IPC: 1.13742 cumulative IPC: 0.91457 (Simulation time: 0 hr 39 min 3 sec) 
Heartbeat CPU 0 instructions: 460000000 cycles: 557911602 heartbeat IPC: 1.02211 cumulative IPC: 0.924295 (Simulation time: 0 hr 39 min 7 sec) 
Heartbeat CPU 0 instructions: 461000000 cycles: 558926713 heartbeat IPC: 0.985114 cumulative IPC: 0.929512 (Simulation time: 0 hr 39 min 12 sec) 
Heartbeat CPU 0 instructions: 462000000 cycles: 560111998 heartbeat IPC: 0.843679 cumulative IPC: 0.921698 (Simulation time: 0 hr 39 min 17 sec) 
Heartbeat CPU 0 instructions: 463000002 cycles: 561395324 heartbeat IPC: 0.779227 cumulative IPC: 0.908914 (Simulation time: 0 hr 39 min 21 sec) 
Heartbeat CPU 0 instructions: 464000000 cycles: 562695290 heartbeat IPC: 0.769249 cumulative IPC: 0.897278 (Simulation time: 0 hr 39 min 26 sec) 
Heartbeat CPU 0 instructions: 465000000 cycles: 563851468 heartbeat IPC: 0.864919 cumulative IPC: 0.895046 (Simulation time: 0 hr 39 min 31 sec) 
Heartbeat CPU 0 instructions: 466000003 cycles: 565021960 heartbeat IPC: 0.854344 cumulative IPC: 0.892388 (Simulation time: 0 hr 39 min 36 sec) 
Heartbeat CPU 0 instructions: 467000002 cycles: 566349177 heartbeat IPC: 0.753456 cumulative IPC: 0.882813 (Simulation time: 0 hr 39 min 41 sec) 
Heartbeat CPU 0 instructions: 468000000 cycles: 567469229 heartbeat IPC: 0.892814 cumulative IPC: 0.883363 (Simulation time: 0 hr 39 min 46 sec) 
Heartbeat CPU 0 instructions: 469000000 cycles: 568644535 heartbeat IPC: 0.850842 cumulative IPC: 0.881589 (Simulation time: 0 hr 39 min 52 sec) 
Heartbeat CPU 0 instructions: 470000002 cycles: 569991584 heartbeat IPC: 0.742365 cumulative IPC: 0.873399 (Simulation time: 0 hr 39 min 57 sec) 
Heartbeat CPU 0 instructions: 471000000 cycles: 571832770 heartbeat IPC: 0.543127 cumulative IPC: 0.84882 (Simulation time: 0 hr 40 min 2 sec) 
Heartbeat CPU 0 instructions: 472000001 cycles: 573329122 heartbeat IPC: 0.668293 cumulative IPC: 0.838524 (Simulation time: 0 hr 40 min 7 sec) 
Heartbeat CPU 0 instructions: 473000000 cycles: 574700735 heartbeat IPC: 0.729068 cumulative IPC: 0.833086 (Simulation time: 0 hr 40 min 13 sec) 
Heartbeat CPU 0 instructions: 474000000 cycles: 575887150 heartbeat IPC: 0.842875 cumulative IPC: 0.833489 (Simulation time: 0 hr 40 min 18 sec) 
Heartbeat CPU 0 instructions: 475000003 cycles: 577402861 heartbeat IPC: 0.659758 cumulative IPC: 0.824802 (Simulation time: 0 hr 40 min 23 sec) 
Heartbeat CPU 0 instructions: 476000000 cycles: 578651100 heartbeat IPC: 0.801126 cumulative IPC: 0.823865 (Simulation time: 0 hr 40 min 29 sec) 
Heartbeat CPU 0 instructions: 477000001 cycles: 579828582 heartbeat IPC: 0.849271 cumulative IPC: 0.824779 (Simulation time: 0 hr 40 min 34 sec) 
Heartbeat CPU 0 instructions: 478000000 cycles: 581175151 heartbeat IPC: 0.742627 cumulative IPC: 0.821533 (Simulation time: 0 hr 40 min 39 sec) 
Heartbeat CPU 0 instructions: 479000000 cycles: 582330645 heartbeat IPC: 0.865431 cumulative IPC: 0.822973 (Simulation time: 0 hr 40 min 44 sec) 
Heartbeat CPU 0 instructions: 480000001 cycles: 583632975 heartbeat IPC: 0.767855 cumulative IPC: 0.821008 (Simulation time: 0 hr 40 min 49 sec) 
Heartbeat CPU 0 instructions: 481000002 cycles: 584916370 heartbeat IPC: 0.779184 cumulative IPC: 0.819589 (Simulation time: 0 hr 40 min 55 sec) 
Heartbeat CPU 0 instructions: 482000000 cycles: 586184211 heartbeat IPC: 0.788741 cumulative IPC: 0.818589 (Simulation time: 0 hr 41 min 1 sec) 
Heartbeat CPU 0 instructions: 483000001 cycles: 587432200 heartbeat IPC: 0.80129 cumulative IPC: 0.818054 (Simulation time: 0 hr 41 min 7 sec) 
Heartbeat CPU 0 instructions: 484000000 cycles: 588637011 heartbeat IPC: 0.830005 cumulative IPC: 0.8184 (Simulation time: 0 hr 41 min 13 sec) 
Heartbeat CPU 0 instructions: 485000000 cycles: 589756481 heartbeat IPC: 0.89328 cumulative IPC: 0.820365 (Simulation time: 0 hr 41 min 18 sec) 
Heartbeat CPU 0 instructions: 486000001 cycles: 591038732 heartbeat IPC: 0.779879 cumulative IPC: 0.819184 (Simulation time: 0 hr 41 min 23 sec) 
Heartbeat CPU 0 instructions: 487000002 cycles: 592198663 heartbeat IPC: 0.862121 cumulative IPC: 0.820288 (Simulation time: 0 hr 41 min 28 sec) 
Heartbeat CPU 0 instructions: 488000001 cycles: 593383783 heartbeat IPC: 0.843796 cumulative IPC: 0.82089 (Simulation time: 0 hr 41 min 34 sec) 
Heartbeat CPU 0 instructions: 489000003 cycles: 594599871 heartbeat IPC: 0.822311 cumulative IPC: 0.820926 (Simulation time: 0 hr 41 min 39 sec) 
Heartbeat CPU 0 instructions: 490000002 cycles: 595641557 heartbeat IPC: 0.959981 cumulative IPC: 0.82391 (Simulation time: 0 hr 41 min 45 sec) 
Heartbeat CPU 0 instructions: 491000001 cycles: 596667061 heartbeat IPC: 0.975129 cumulative IPC: 0.827038 (Simulation time: 0 hr 41 min 50 sec) 
Heartbeat CPU 0 instructions: 492000003 cycles: 597834082 heartbeat IPC: 0.856884 cumulative IPC: 0.827724 (Simulation time: 0 hr 41 min 55 sec) 
Heartbeat CPU 0 instructions: 493000002 cycles: 598954334 heartbeat IPC: 0.892655 cumulative IPC: 0.829127 (Simulation time: 0 hr 42 min 1 sec) 
Heartbeat CPU 0 instructions: 494000000 cycles: 600228414 heartbeat IPC: 0.784878 cumulative IPC: 0.828066 (Simulation time: 0 hr 42 min 6 sec) 
Heartbeat CPU 0 instructions: 495000000 cycles: 601415402 heartbeat IPC: 0.842469 cumulative IPC: 0.828381 (Simulation time: 0 hr 42 min 13 sec) 
Heartbeat CPU 0 instructions: 496000003 cycles: 602609802 heartbeat IPC: 0.837243 cumulative IPC: 0.828571 (Simulation time: 0 hr 42 min 19 sec) 
Heartbeat CPU 0 instructions: 497000000 cycles: 603920365 heartbeat IPC: 0.763029 cumulative IPC: 0.82706 (Simulation time: 0 hr 42 min 25 sec) 
Heartbeat CPU 0 instructions: 498000000 cycles: 605122641 heartbeat IPC: 0.831756 cumulative IPC: 0.827157 (Simulation time: 0 hr 42 min 30 sec) 
Heartbeat CPU 0 instructions: 499000000 cycles: 606206589 heartbeat IPC: 0.922553 cumulative IPC: 0.828906 (Simulation time: 0 hr 42 min 35 sec) 
Heartbeat CPU 0 instructions: 500000000 cycles: 607633173 heartbeat IPC: 0.700975 cumulative IPC: 0.825892 (Simulation time: 0 hr 42 min 40 sec) 
Heartbeat CPU 0 instructions: 501000000 cycles: 608887310 heartbeat IPC: 0.797361 cumulative IPC: 0.825313 (Simulation time: 0 hr 42 min 46 sec) 
Heartbeat CPU 0 instructions: 502000001 cycles: 610174571 heartbeat IPC: 0.776844 cumulative IPC: 0.824324 (Simulation time: 0 hr 42 min 51 sec) 
Heartbeat CPU 0 instructions: 503000000 cycles: 611388646 heartbeat IPC: 0.823672 cumulative IPC: 0.824311 (Simulation time: 0 hr 42 min 56 sec) 
Heartbeat CPU 0 instructions: 504000000 cycles: 612546710 heartbeat IPC: 0.86351 cumulative IPC: 0.825005 (Simulation time: 0 hr 43 min 1 sec) 
Heartbeat CPU 0 instructions: 505000003 cycles: 613784854 heartbeat IPC: 0.807663 cumulative IPC: 0.824683 (Simulation time: 0 hr 43 min 6 sec) 
Heartbeat CPU 0 instructions: 506000000 cycles: 614726349 heartbeat IPC: 1.06214 cumulative IPC: 0.827988 (Simulation time: 0 hr 43 min 11 sec) 
Heartbeat CPU 0 instructions: 507000000 cycles: 615592044 heartbeat IPC: 1.15514 cumulative IPC: 0.832123 (Simulation time: 0 hr 43 min 17 sec) 
Heartbeat CPU 0 instructions: 508000001 cycles: 616705182 heartbeat IPC: 0.898362 cumulative IPC: 0.833182 (Simulation time: 0 hr 43 min 22 sec) 
Heartbeat CPU 0 instructions: 509000002 cycles: 617653097 heartbeat IPC: 1.05495 cumulative IPC: 0.836161 (Simulation time: 0 hr 43 min 26 sec) 
Heartbeat CPU 0 instructions: 510000000 cycles: 618689809 heartbeat IPC: 0.964586 cumulative IPC: 0.838021 (Simulation time: 0 hr 43 min 31 sec) 
Heartbeat CPU 0 instructions: 511000002 cycles: 620024981 heartbeat IPC: 0.748969 cumulative IPC: 0.836391 (Simulation time: 0 hr 43 min 36 sec) 
Heartbeat CPU 0 instructions: 512000000 cycles: 621296294 heartbeat IPC: 0.786587 cumulative IPC: 0.835537 (Simulation time: 0 hr 43 min 41 sec) 
Heartbeat CPU 0 instructions: 513000001 cycles: 622410695 heartbeat IPC: 0.897344 cumulative IPC: 0.836452 (Simulation time: 0 hr 43 min 46 sec) 
Heartbeat CPU 0 instructions: 514000000 cycles: 623291549 heartbeat IPC: 1.13526 cumulative IPC: 0.839906 (Simulation time: 0 hr 43 min 51 sec) 
Heartbeat CPU 0 instructions: 515000003 cycles: 624037573 heartbeat IPC: 1.34044 cumulative IPC: 0.844759 (Simulation time: 0 hr 43 min 56 sec) 
Heartbeat CPU 0 instructions: 516000002 cycles: 624995328 heartbeat IPC: 1.04411 cumulative IPC: 0.84721 (Simulation time: 0 hr 44 min 0 sec) 
Heartbeat CPU 0 instructions: 517000000 cycles: 626087915 heartbeat IPC: 0.915257 cumulative IPC: 0.848151 (Simulation time: 0 hr 44 min 5 sec) 
Heartbeat CPU 0 instructions: 518000000 cycles: 627317605 heartbeat IPC: 0.813213 cumulative IPC: 0.847615 (Simulation time: 0 hr 44 min 12 sec) 
Heartbeat CPU 0 instructions: 519000000 cycles: 628520590 heartbeat IPC: 0.831266 cumulative IPC: 0.847374 (Simulation time: 0 hr 44 min 17 sec) 
Heartbeat CPU 0 instructions: 520000000 cycles: 629649540 heartbeat IPC: 0.885779 cumulative IPC: 0.847899 (Simulation time: 0 hr 44 min 22 sec) 
Heartbeat CPU 0 instructions: 521000000 cycles: 630691600 heartbeat IPC: 0.959638 cumulative IPC: 0.849292 (Simulation time: 0 hr 44 min 28 sec) 
Heartbeat CPU 0 instructions: 522000000 cycles: 631902745 heartbeat IPC: 0.825665 cumulative IPC: 0.848954 (Simulation time: 0 hr 44 min 33 sec) 
Heartbeat CPU 0 instructions: 523000003 cycles: 633087441 heartbeat IPC: 0.844101 cumulative IPC: 0.848888 (Simulation time: 0 hr 44 min 39 sec) 
Heartbeat CPU 0 instructions: 524000000 cycles: 634426898 heartbeat IPC: 0.746569 cumulative IPC: 0.847318 (Simulation time: 0 hr 44 min 45 sec) 
Heartbeat CPU 0 instructions: 525000003 cycles: 635781756 heartbeat IPC: 0.738087 cumulative IPC: 0.84565 (Simulation time: 0 hr 44 min 50 sec) 
Heartbeat CPU 0 instructions: 526000001 cycles: 636889759 heartbeat IPC: 0.902523 cumulative IPC: 0.846351 (Simulation time: 0 hr 44 min 55 sec) 
Heartbeat CPU 0 instructions: 527000000 cycles: 637934887 heartbeat IPC: 0.95682 cumulative IPC: 0.847622 (Simulation time: 0 hr 45 min 1 sec) 
Heartbeat CPU 0 instructions: 528000000 cycles: 639240676 heartbeat IPC: 0.765821 cumulative IPC: 0.846463 (Simulation time: 0 hr 45 min 7 sec) 
Heartbeat CPU 0 instructions: 529000003 cycles: 640614341 heartbeat IPC: 0.727982 cumulative IPC: 0.844723 (Simulation time: 0 hr 45 min 12 sec) 
Heartbeat CPU 0 instructions: 530000002 cycles: 641756585 heartbeat IPC: 0.875469 cumulative IPC: 0.845094 (Simulation time: 0 hr 45 min 18 sec) 
Heartbeat CPU 0 instructions: 531000003 cycles: 642843388 heartbeat IPC: 0.920131 cumulative IPC: 0.845946 (Simulation time: 0 hr 45 min 24 sec) 
Heartbeat CPU 0 instructions: 532000000 cycles: 644006560 heartbeat IPC: 0.859716 cumulative IPC: 0.846111 (Simulation time: 0 hr 45 min 29 sec) 
Heartbeat CPU 0 instructions: 533000000 cycles: 645066541 heartbeat IPC: 0.943413 cumulative IPC: 0.847164 (Simulation time: 0 hr 45 min 35 sec) 
Heartbeat CPU 0 instructions: 534000000 cycles: 646248754 heartbeat IPC: 0.845871 cumulative IPC: 0.847148 (Simulation time: 0 hr 45 min 41 sec) 
Heartbeat CPU 0 instructions: 535000002 cycles: 647096385 heartbeat IPC: 1.17976 cumulative IPC: 0.849967 (Simulation time: 0 hr 45 min 46 sec) 
Heartbeat CPU 0 instructions: 536000000 cycles: 648133467 heartbeat IPC: 0.964242 cumulative IPC: 0.85114 (Simulation time: 0 hr 45 min 52 sec) 
Heartbeat CPU 0 instructions: 537000002 cycles: 649844854 heartbeat IPC: 0.584323 cumulative IPC: 0.846696 (Simulation time: 0 hr 45 min 58 sec) 
Heartbeat CPU 0 instructions: 538000000 cycles: 651425152 heartbeat IPC: 0.632791 cumulative IPC: 0.843456 (Simulation time: 0 hr 46 min 3 sec) 
Heartbeat CPU 0 instructions: 539000000 cycles: 652725482 heartbeat IPC: 0.769036 cumulative IPC: 0.84254 (Simulation time: 0 hr 46 min 8 sec) 
Heartbeat CPU 0 instructions: 540000003 cycles: 654230148 heartbeat IPC: 0.664601 cumulative IPC: 0.840041 (Simulation time: 0 hr 46 min 13 sec) 
Heartbeat CPU 0 instructions: 541000002 cycles: 655570858 heartbeat IPC: 0.745873 cumulative IPC: 0.838877 (Simulation time: 0 hr 46 min 18 sec) 
Heartbeat CPU 0 instructions: 542000000 cycles: 656715235 heartbeat IPC: 0.873836 cumulative IPC: 0.839242 (Simulation time: 0 hr 46 min 23 sec) 
Heartbeat CPU 0 instructions: 543000001 cycles: 657968829 heartbeat IPC: 0.797707 cumulative IPC: 0.838773 (Simulation time: 0 hr 46 min 28 sec) 
Heartbeat CPU 0 instructions: 544000000 cycles: 659385602 heartbeat IPC: 0.705829 cumulative IPC: 0.837095 (Simulation time: 0 hr 46 min 33 sec) 
Heartbeat CPU 0 instructions: 545000000 cycles: 660930257 heartbeat IPC: 0.647394 cumulative IPC: 0.834521 (Simulation time: 0 hr 46 min 38 sec) 
Heartbeat CPU 0 instructions: 546000000 cycles: 662332811 heartbeat IPC: 0.712985 cumulative IPC: 0.833042 (Simulation time: 0 hr 46 min 43 sec) 
Heartbeat CPU 0 instructions: 547000002 cycles: 663492235 heartbeat IPC: 0.862499 cumulative IPC: 0.833336 (Simulation time: 0 hr 46 min 48 sec) 
[...]
Heartbeat CPU 0 instructions: 835000001 cycles: 1015951139 heartbeat IPC: 0.789104 cumulative IPC: 0.821143 (Simulation time: 1 hr 10 min 50 sec) 
Heartbeat CPU 0 instructions: 836000000 cycles: 1017158105 heartbeat IPC: 0.828523 cumulative IPC: 0.821162 (Simulation time: 1 hr 10 min 55 sec) 
Heartbeat CPU 0 instructions: 837000000 cycles: 1018344482 heartbeat IPC: 0.842902 cumulative IPC: 0.821217 (Simulation time: 1 hr 11 min 0 sec) 
Heartbeat CPU 0 instructions: 838000001 cycles: 1019431366 heartbeat IPC: 0.920062 cumulative IPC: 0.821444 (Simulation time: 1 hr 11 min 6 sec) 
Heartbeat CPU 0 instructions: 839000002 cycles: 1020512053 heartbeat IPC: 0.925338 cumulative IPC: 0.821681 (Simulation time: 1 hr 11 min 11 sec) 
Heartbeat CPU 0 instructions: 840000002 cycles: 1021737254 heartbeat IPC: 0.816193 cumulative IPC: 0.821667 (Simulation time: 1 hr 11 min 17 sec) 
Heartbeat CPU 0 instructions: 841000002 cycles: 1022925599 heartbeat IPC: 0.841506 cumulative IPC: 0.821717 (Simulation time: 1 hr 11 min 22 sec) 
Heartbeat CPU 0 instructions: 842000000 cycles: 1024136535 heartbeat IPC: 0.825806 cumulative IPC: 0.821727 (Simulation time: 1 hr 11 min 27 sec) 
Heartbeat CPU 0 instructions: 843000000 cycles: 1025210374 heartbeat IPC: 0.931238 cumulative IPC: 0.821973 (Simulation time: 1 hr 11 min 32 sec) 
Heartbeat CPU 0 instructions: 844000003 cycles: 1025965093 heartbeat IPC: 1.325 cumulative IPC: 0.822766 (Simulation time: 1 hr 11 min 37 sec) 
Heartbeat CPU 0 instructions: 845000001 cycles: 1026989950 heartbeat IPC: 0.975744 cumulative IPC: 0.823093 (Simulation time: 1 hr 11 min 41 sec) 
Heartbeat CPU 0 instructions: 846000001 cycles: 1027937589 heartbeat IPC: 1.05525 cumulative IPC: 0.82355 (Simulation time: 1 hr 11 min 46 sec) 
Heartbeat CPU 0 instructions: 847000000 cycles: 1028862570 heartbeat IPC: 1.0811 cumulative IPC: 0.824045 (Simulation time: 1 hr 11 min 51 sec) 
Heartbeat CPU 0 instructions: 848000002 cycles: 1029808409 heartbeat IPC: 1.05726 cumulative IPC: 0.824502 (Simulation time: 1 hr 11 min 57 sec) 
Heartbeat CPU 0 instructions: 849000000 cycles: 1030855761 heartbeat IPC: 0.954787 cumulative IPC: 0.824784 (Simulation time: 1 hr 12 min 3 sec) 
Heartbeat CPU 0 instructions: 850000001 cycles: 1031907561 heartbeat IPC: 0.950752 cumulative IPC: 0.825057 (Simulation time: 1 hr 12 min 8 sec) 
Heartbeat CPU 0 instructions: 851000000 cycles: 1032994067 heartbeat IPC: 0.920381 cumulative IPC: 0.82527 (Simulation time: 1 hr 12 min 14 sec) 
Heartbeat CPU 0 instructions: 852000003 cycles: 1033932444 heartbeat IPC: 1.06567 cumulative IPC: 0.825733 (Simulation time: 1 hr 12 min 19 sec) 
Heartbeat CPU 0 instructions: 853000001 cycles: 1035145280 heartbeat IPC: 0.824512 cumulative IPC: 0.82573 (Simulation time: 1 hr 12 min 25 sec) 
Heartbeat CPU 0 instructions: 854000000 cycles: 1036057512 heartbeat IPC: 1.09621 cumulative IPC: 0.826235 (Simulation time: 1 hr 12 min 30 sec) 
Heartbeat CPU 0 instructions: 855000000 cycles: 1037159287 heartbeat IPC: 0.907626 cumulative IPC: 0.826418 (Simulation time: 1 hr 12 min 35 sec) 
Heartbeat CPU 0 instructions: 856000000 cycles: 1038422653 heartbeat IPC: 0.791536 cumulative IPC: 0.826328 (Simulation time: 1 hr 12 min 41 sec) 
Heartbeat CPU 0 instructions: 857000000 cycles: 1039535195 heartbeat IPC: 0.898842 cumulative IPC: 0.826492 (Simulation time: 1 hr 12 min 47 sec) 
Heartbeat CPU 0 instructions: 858000000 cycles: 1040406070 heartbeat IPC: 1.14827 cumulative IPC: 0.82706 (Simulation time: 1 hr 12 min 52 sec) 
Heartbeat CPU 0 instructions: 859000003 cycles: 1041392642 heartbeat IPC: 1.01361 cumulative IPC: 0.827433 (Simulation time: 1 hr 12 min 58 sec) 
Heartbeat CPU 0 instructions: 860000002 cycles: 1042453659 heartbeat IPC: 0.942491 cumulative IPC: 0.827679 (Simulation time: 1 hr 13 min 4 sec) 
Heartbeat CPU 0 instructions: 861000000 cycles: 1043483420 heartbeat IPC: 0.971097 cumulative IPC: 0.827977 (Simulation time: 1 hr 13 min 10 sec) 
Heartbeat CPU 0 instructions: 862000001 cycles: 1045021222 heartbeat IPC: 0.650279 cumulative IPC: 0.827428 (Simulation time: 1 hr 13 min 15 sec) 
Heartbeat CPU 0 instructions: 863000000 cycles: 1046534733 heartbeat IPC: 0.660715 cumulative IPC: 0.826923 (Simulation time: 1 hr 13 min 20 sec) 
Heartbeat CPU 0 instructions: 864000001 cycles: 1047998679 heartbeat IPC: 0.683086 cumulative IPC: 0.826502 (Simulation time: 1 hr 13 min 25 sec) 
Heartbeat CPU 0 instructions: 865000000 cycles: 1049336982 heartbeat IPC: 0.747214 cumulative IPC: 0.826291 (Simulation time: 1 hr 13 min 31 sec) 
Heartbeat CPU 0 instructions: 866000003 cycles: 1050459240 heartbeat IPC: 0.891063 cumulative IPC: 0.826435 (Simulation time: 1 hr 13 min 36 sec) 
Heartbeat CPU 0 instructions: 867000000 cycles: 1051495040 heartbeat IPC: 0.965434 cumulative IPC: 0.826721 (Simulation time: 1 hr 13 min 42 sec) 
Heartbeat CPU 0 instructions: 868000000 cycles: 1052672724 heartbeat IPC: 0.849124 cumulative IPC: 0.826773 (Simulation time: 1 hr 13 min 47 sec) 
Heartbeat CPU 0 instructions: 869000000 cycles: 1053854314 heartbeat IPC: 0.846317 cumulative IPC: 0.826818 (Simulation time: 1 hr 13 min 52 sec) 
Heartbeat CPU 0 instructions: 870000001 cycles: 1054793406 heartbeat IPC: 1.06486 cumulative IPC: 0.827259 (Simulation time: 1 hr 13 min 57 sec) 
Heartbeat CPU 0 instructions: 871000001 cycles: 1055758831 heartbeat IPC: 1.03581 cumulative IPC: 0.827655 (Simulation time: 1 hr 14 min 2 sec) 
Heartbeat CPU 0 instructions: 872000001 cycles: 1056732472 heartbeat IPC: 1.02707 cumulative IPC: 0.828036 (Simulation time: 1 hr 14 min 8 sec) 
Heartbeat CPU 0 instructions: 873000002 cycles: 1057814544 heartbeat IPC: 0.924154 cumulative IPC: 0.828239 (Simulation time: 1 hr 14 min 13 sec) 
Heartbeat CPU 0 instructions: 874000000 cycles: 1058763329 heartbeat IPC: 1.05398 cumulative IPC: 0.828658 (Simulation time: 1 hr 14 min 19 sec) 
Heartbeat CPU 0 instructions: 875000000 cycles: 1059818270 heartbeat IPC: 0.94792 cumulative IPC: 0.828903 (Simulation time: 1 hr 14 min 24 sec) 
Heartbeat CPU 0 instructions: 876000003 cycles: 1061039417 heartbeat IPC: 0.818905 cumulative IPC: 0.828879 (Simulation time: 1 hr 14 min 29 sec) 
Heartbeat CPU 0 instructions: 877000002 cycles: 1061932594 heartbeat IPC: 1.1196 cumulative IPC: 0.829384 (Simulation time: 1 hr 14 min 35 sec) 
Heartbeat CPU 0 instructions: 878000000 cycles: 1062827584 heartbeat IPC: 1.11733 cumulative IPC: 0.829884 (Simulation time: 1 hr 14 min 41 sec) 
Heartbeat CPU 0 instructions: 879000000 cycles: 1063800228 heartbeat IPC: 1.02813 cumulative IPC: 0.830257 (Simulation time: 1 hr 14 min 47 sec) 
Heartbeat CPU 0 instructions: 880000000 cycles: 1065352796 heartbeat IPC: 0.644094 cumulative IPC: 0.829699 (Simulation time: 1 hr 14 min 52 sec) 
Heartbeat CPU 0 instructions: 881000001 cycles: 1066678751 heartbeat IPC: 0.754174 cumulative IPC: 0.829506 (Simulation time: 1 hr 14 min 57 sec) 
Heartbeat CPU 0 instructions: 882000003 cycles: 1068052065 heartbeat IPC: 0.728167 cumulative IPC: 0.829239 (Simulation time: 1 hr 15 min 2 sec) 
Heartbeat CPU 0 instructions: 883000002 cycles: 1069142910 heartbeat IPC: 0.91672 cumulative IPC: 0.829422 (Simulation time: 1 hr 15 min 8 sec) 
Heartbeat CPU 0 instructions: 884000001 cycles: 1070339409 heartbeat IPC: 0.835771 cumulative IPC: 0.829436 (Simulation time: 1 hr 15 min 13 sec) 
Heartbeat CPU 0 instructions: 885000000 cycles: 1071339848 heartbeat IPC: 0.99956 cumulative IPC: 0.829761 (Simulation time: 1 hr 15 min 18 sec) 
Heartbeat CPU 0 instructions: 886000002 cycles: 1072534327 heartbeat IPC: 0.837187 cumulative IPC: 0.829778 (Simulation time: 1 hr 15 min 24 sec) 
Heartbeat CPU 0 instructions: 887000002 cycles: 1073546063 heartbeat IPC: 0.9884 cumulative IPC: 0.830083 (Simulation time: 1 hr 15 min 29 sec) 
Heartbeat CPU 0 instructions: 888000002 cycles: 1074511194 heartbeat IPC: 1.03613 cumulative IPC: 0.83046 (Simulation time: 1 hr 15 min 34 sec) 
Heartbeat CPU 0 instructions: 889000000 cycles: 1075403556 heartbeat IPC: 1.12062 cumulative IPC: 0.83095 (Simulation time: 1 hr 15 min 39 sec) 
Heartbeat CPU 0 instructions: 890000002 cycles: 1076447910 heartbeat IPC: 0.957532 cumulative IPC: 0.8312 (Simulation time: 1 hr 15 min 44 sec) 
Heartbeat CPU 0 instructions: 891000000 cycles: 1077437691 heartbeat IPC: 1.01032 cumulative IPC: 0.831534 (Simulation time: 1 hr 15 min 50 sec) 
Heartbeat CPU 0 instructions: 892000002 cycles: 1078501720 heartbeat IPC: 0.939826 cumulative IPC: 0.831751 (Simulation time: 1 hr 15 min 55 sec) 
Heartbeat CPU 0 instructions: 893000003 cycles: 1079499607 heartbeat IPC: 1.00212 cumulative IPC: 0.83207 (Simulation time: 1 hr 16 min 0 sec) 
Heartbeat CPU 0 instructions: 894000003 cycles: 1080733988 heartbeat IPC: 0.810123 cumulative IPC: 0.832019 (Simulation time: 1 hr 16 min 6 sec) 
Heartbeat CPU 0 instructions: 895000001 cycles: 1081620766 heartbeat IPC: 1.12768 cumulative IPC: 0.83251 (Simulation time: 1 hr 16 min 12 sec) 
Heartbeat CPU 0 instructions: 896000000 cycles: 1082418513 heartbeat IPC: 1.25353 cumulative IPC: 0.833137 (Simulation time: 1 hr 16 min 18 sec) 
Heartbeat CPU 0 instructions: 897000001 cycles: 1083559819 heartbeat IPC: 0.87619 cumulative IPC: 0.833229 (Simulation time: 1 hr 16 min 23 sec) 
Heartbeat CPU 0 instructions: 898000000 cycles: 1085068184 heartbeat IPC: 0.662969 cumulative IPC: 0.832751 (Simulation time: 1 hr 16 min 28 sec) 
Heartbeat CPU 0 instructions: 899000000 cycles: 1086344627 heartbeat IPC: 0.783427 cumulative IPC: 0.832635 (Simulation time: 1 hr 16 min 33 sec) 
Heartbeat CPU 0 instructions: 900000001 cycles: 1087820717 heartbeat IPC: 0.677466 cumulative IPC: 0.832211 (Simulation time: 1 hr 16 min 38 sec) 
Heartbeat CPU 0 instructions: 901000000 cycles: 1088813621 heartbeat IPC: 1.00715 cumulative IPC: 0.832532 (Simulation time: 1 hr 16 min 44 sec) 
Heartbeat CPU 0 instructions: 902000000 cycles: 1089983409 heartbeat IPC: 0.854856 cumulative IPC: 0.83258 (Simulation time: 1 hr 16 min 49 sec) 
Heartbeat CPU 0 instructions: 903000001 cycles: 1091088313 heartbeat IPC: 0.905057 cumulative IPC: 0.832727 (Simulation time: 1 hr 16 min 55 sec) 
Heartbeat CPU 0 instructions: 904000002 cycles: 1092212456 heartbeat IPC: 0.889567 cumulative IPC: 0.832844 (Simulation time: 1 hr 17 min 0 sec) 
Heartbeat CPU 0 instructions: 905000001 cycles: 1093145618 heartbeat IPC: 1.07162 cumulative IPC: 0.833252 (Simulation time: 1 hr 17 min 5 sec) 
Heartbeat CPU 0 instructions: 906000000 cycles: 1094130464 heartbeat IPC: 1.01539 cumulative IPC: 0.83358 (Simulation time: 1 hr 17 min 10 sec) 
Heartbeat CPU 0 instructions: 907000001 cycles: 1095051541 heartbeat IPC: 1.08569 cumulative IPC: 0.834004 (Simulation time: 1 hr 17 min 15 sec) 
Heartbeat CPU 0 instructions: 908000002 cycles: 1096104569 heartbeat IPC: 0.949643 cumulative IPC: 0.834226 (Simulation time: 1 hr 17 min 21 sec) 
Heartbeat CPU 0 instructions: 909000001 cycles: 1097033378 heartbeat IPC: 1.07665 cumulative IPC: 0.834635 (Simulation time: 1 hr 17 min 26 sec) 
Heartbeat CPU 0 instructions: 910000002 cycles: 1098149908 heartbeat IPC: 0.895633 cumulative IPC: 0.834759 (Simulation time: 1 hr 17 min 32 sec) 
Heartbeat CPU 0 instructions: 911000000 cycles: 1099255498 heartbeat IPC: 0.904493 cumulative IPC: 0.834898 (Simulation time: 1 hr 17 min 37 sec) 
Heartbeat CPU 0 instructions: 912000000 cycles: 1100346258 heartbeat IPC: 0.916792 cumulative IPC: 0.83506 (Simulation time: 1 hr 17 min 43 sec) 
Heartbeat CPU 0 instructions: 913000000 cycles: 1101215052 heartbeat IPC: 1.15102 cumulative IPC: 0.835555 (Simulation time: 1 hr 17 min 48 sec) 
Heartbeat CPU 0 instructions: 914000000 cycles: 1102130244 heartbeat IPC: 1.09267 cumulative IPC: 0.835979 (Simulation time: 1 hr 17 min 54 sec) 
Heartbeat CPU 0 instructions: 915000002 cycles: 1103408793 heartbeat IPC: 0.782138 cumulative IPC: 0.835855 (Simulation time: 1 hr 18 min 0 sec) 
Heartbeat CPU 0 instructions: 916000001 cycles: 1105038196 heartbeat IPC: 0.613721 cumulative IPC: 0.835207 (Simulation time: 1 hr 18 min 5 sec) 
Heartbeat CPU 0 instructions: 917000001 cycles: 1106407805 heartbeat IPC: 0.730135 cumulative IPC: 0.834949 (Simulation time: 1 hr 18 min 11 sec) 
Heartbeat CPU 0 instructions: 918000001 cycles: 1107581201 heartbeat IPC: 0.852227 cumulative IPC: 0.834986 (Simulation time: 1 hr 18 min 16 sec) 
Heartbeat CPU 0 instructions: 919000003 cycles: 1108874689 heartbeat IPC: 0.773105 cumulative IPC: 0.834843 (Simulation time: 1 hr 18 min 21 sec) 
Heartbeat CPU 0 instructions: 920000000 cycles: 1110176795 heartbeat IPC: 0.767984 cumulative IPC: 0.834689 (Simulation time: 1 hr 18 min 27 sec) 
Heartbeat CPU 0 instructions: 921000000 cycles: 1111336614 heartbeat IPC: 0.862203 cumulative IPC: 0.834745 (Simulation time: 1 hr 18 min 32 sec) 
Heartbeat CPU 0 instructions: 922000002 cycles: 1112519005 heartbeat IPC: 0.845746 cumulative IPC: 0.834768 (Simulation time: 1 hr 18 min 37 sec) 
Heartbeat CPU 0 instructions: 923000003 cycles: 1113803023 heartbeat IPC: 0.778806 cumulative IPC: 0.834641 (Simulation time: 1 hr 18 min 42 sec) 
Heartbeat CPU 0 instructions: 924000000 cycles: 1115454857 heartbeat IPC: 0.605386 cumulative IPC: 0.833975 (Simulation time: 1 hr 18 min 47 sec) 
Heartbeat CPU 0 instructions: 925000000 cycles: 1116998816 heartbeat IPC: 0.647686 cumulative IPC: 0.83347 (Simulation time: 1 hr 18 min 53 sec) 
Heartbeat CPU 0 instructions: 926000003 cycles: 1118078038 heartbeat IPC: 0.926596 cumulative IPC: 0.833646 (Simulation time: 1 hr 18 min 59 sec) 
Heartbeat CPU 0 instructions: 927000002 cycles: 1119476140 heartbeat IPC: 0.715255 cumulative IPC: 0.833357 (Simulation time: 1 hr 19 min 4 sec) 
Heartbeat CPU 0 instructions: 928000002 cycles: 1120714794 heartbeat IPC: 0.807328 cumulative IPC: 0.833301 (Simulation time: 1 hr 19 min 10 sec) 
Heartbeat CPU 0 instructions: 929000002 cycles: 1122030300 heartbeat IPC: 0.760164 cumulative IPC: 0.833134 (Simulation time: 1 hr 19 min 15 sec) 
Heartbeat CPU 0 instructions: 930000000 cycles: 1123365722 heartbeat IPC: 0.748825 cumulative IPC: 0.832938 (Simulation time: 1 hr 19 min 20 sec) 
Heartbeat CPU 0 instructions: 931000000 cycles: 1124434698 heartbeat IPC: 0.935475 cumulative IPC: 0.833128 (Simulation time: 1 hr 19 min 26 sec) 
Heartbeat CPU 0 instructions: 932000000 cycles: 1125633071 heartbeat IPC: 0.834465 cumulative IPC: 0.833131 (Simulation time: 1 hr 19 min 32 sec) 
Heartbeat CPU 0 instructions: 933000001 cycles: 1126895035 heartbeat IPC: 0.792416 cumulative IPC: 0.833042 (Simulation time: 1 hr 19 min 37 sec) 
Heartbeat CPU 0 instructions: 934000000 cycles: 1128202811 heartbeat IPC: 0.764656 cumulative IPC: 0.832888 (Simulation time: 1 hr 19 min 42 sec) 
Heartbeat CPU 0 instructions: 935000000 cycles: 1129433111 heartbeat IPC: 0.81281 cumulative IPC: 0.832846 (Simulation time: 1 hr 19 min 47 sec) 
Heartbeat CPU 0 instructions: 936000001 cycles: 1130399771 heartbeat IPC: 1.03449 cumulative IPC: 0.83318 (Simulation time: 1 hr 19 min 52 sec) 
Heartbeat CPU 0 instructions: 937000003 cycles: 1131434897 heartbeat IPC: 0.966068 cumulative IPC: 0.833416 (Simulation time: 1 hr 19 min 57 sec) 
Heartbeat CPU 0 instructions: 938000000 cycles: 1132420713 heartbeat IPC: 1.01438 cumulative IPC: 0.83372 (Simulation time: 1 hr 20 min 2 sec) 
Heartbeat CPU 0 instructions: 939000000 cycles: 1133367464 heartbeat IPC: 1.05624 cumulative IPC: 0.83408 (Simulation time: 1 hr 20 min 7 sec) 
Heartbeat CPU 0 instructions: 940000000 cycles: 1134475404 heartbeat IPC: 0.902576 cumulative IPC: 0.834209 (Simulation time: 1 hr 20 min 13 sec) 
Heartbeat CPU 0 instructions: 941000003 cycles: 1135587245 heartbeat IPC: 0.899412 cumulative IPC: 0.834332 (Simulation time: 1 hr 20 min 18 sec) 
Heartbeat CPU 0 instructions: 942000002 cycles: 1136743620 heartbeat IPC: 0.864771 cumulative IPC: 0.834392 (Simulation time: 1 hr 20 min 24 sec) 
Heartbeat CPU 0 instructions: 943000000 cycles: 1137872133 heartbeat IPC: 0.88612 cumulative IPC: 0.834491 (Simulation time: 1 hr 20 min 30 sec) 
Heartbeat CPU 0 instructions: 944000003 cycles: 1139127246 heartbeat IPC: 0.796743 cumulative IPC: 0.834411 (Simulation time: 1 hr 20 min 36 sec) 
Heartbeat CPU 0 instructions: 945000001 cycles: 1140118876 heartbeat IPC: 1.00844 cumulative IPC: 0.834702 (Simulation time: 1 hr 20 min 41 sec) 
Heartbeat CPU 0 instructions: 946000000 cycles: 1141490743 heartbeat IPC: 0.728933 cumulative IPC: 0.834457 (Simulation time: 1 hr 20 min 46 sec) 
Heartbeat CPU 0 instructions: 947000003 cycles: 1142572866 heartbeat IPC: 0.924112 cumulative IPC: 0.83462 (Simulation time: 1 hr 20 min 52 sec) 
Heartbeat CPU 0 instructions: 948000002 cycles: 1143577529 heartbeat IPC: 0.995358 cumulative IPC: 0.834891 (Simulation time: 1 hr 20 min 57 sec) 
Heartbeat CPU 0 instructions: 949000002 cycles: 1144561346 heartbeat IPC: 1.01645 cumulative IPC: 0.83519 (Simulation time: 1 hr 21 min 3 sec) 
Heartbeat CPU 0 instructions: 950000003 cycles: 1145542470 heartbeat IPC: 1.01924 cumulative IPC: 0.835492 (Simulation time: 1 hr 21 min 8 sec) 
Finished CPU 0 instructions: 500000002 cycles: 598449925 cumulative IPC: 0.835492 (Simulation time: 1 hr 21 min 8 sec) 

ChampSim completed all CPUs

Region of Interest Statistics

CPU 0 cumulative IPC: 0.835492 instructions: 500000002 cycles: 598449925
L1D TOTAL     ACCESS:  167143146  HIT:  163234904  MISS:    3908242
L1D LOAD      ACCESS:  100531302  HIT:   97098150  MISS:    3433152
L1D RFO       ACCESS:   66611844  HIT:   66136754  MISS:     475090
L1D PREFETCH  ACCESS:          0  HIT:          0  MISS:          0
L1D WRITEBACK ACCESS:          0  HIT:          0  MISS:          0
L1D PREFETCH  REQUESTED:          0  ISSUED:          0  USEFUL:          0  USELESS:          0
L1D AVERAGE MISS LATENCY: 29.2126 cycles
L1I TOTAL     ACCESS:   99021680  HIT:   97935074  MISS:    1086606
L1I LOAD      ACCESS:   99021680  HIT:   97935074  MISS:    1086606
L1I RFO       ACCESS:          0  HIT:          0  MISS:          0
L1I PREFETCH  ACCESS:          0  HIT:          0  MISS:          0
L1I WRITEBACK ACCESS:          0  HIT:          0  MISS:          0
L1I PREFETCH  REQUESTED:          0  ISSUED:          0  USEFUL:          0  USELESS:          0
L1I AVERAGE MISS LATENCY: 43.7391 cycles
L2C TOTAL     ACCESS:    6015538  HIT:    5006368  MISS:    1009170
L2C LOAD      ACCESS:    4519562  HIT:    3743447  MISS:     776115
L2C RFO       ACCESS:     475062  HIT:     244219  MISS:     230843
L2C PREFETCH  ACCESS:          0  HIT:          0  MISS:          0
L2C WRITEBACK ACCESS:    1020914  HIT:    1018702  MISS:       2212
L2C PREFETCH  REQUESTED:          0  ISSUED:          0  USEFUL:          0  USELESS:          0
L2C AVERAGE MISS LATENCY: 89.7596 cycles
LLC TOTAL     ACCESS:    1368474  HIT:    1068832  MISS:     299642
LLC LOAD      ACCESS:     776110  HIT:     578400  MISS:     197710
LLC RFO       ACCESS:     230839  HIT:     131822  MISS:      99017
LLC PREFETCH  ACCESS:          0  HIT:          0  MISS:          0
LLC WRITEBACK ACCESS:     361525  HIT:     358610  MISS:       2915
LLC PREFETCH  REQUESTED:          0  ISSUED:          0  USEFUL:          0  USELESS:          0
LLC AVERAGE MISS LATENCY: 196.75 cycles
Major fault: 0 Minor fault: 25025

DRAM Statistics
 CHANNEL 0
 RQ ROW_BUFFER_HIT:      65701  ROW_BUFFER_MISS:      83735
 DBUS_CONGESTED:     147176
 WQ ROW_BUFFER_HIT:      15334  ROW_BUFFER_MISS:      51304  FULL:          0

 CHANNEL 1
 RQ ROW_BUFFER_HIT:      64341  ROW_BUFFER_MISS:      82895
 DBUS_CONGESTED:     147176
 WQ ROW_BUFFER_HIT:      14847  ROW_BUFFER_MISS:      50991  FULL:          0

 AVG_CONGESTED_CYCLE: 18

CPU 0 Branch Prediction Accuracy: 96.0805% MPKI: 8.45558 Average ROB Occupancy at Mispredict: 45.0814

Branch types
NOT_BRANCH: 392134657 78.4269%
BRANCH_DIRECT_JUMP: 8745227 1.74905%
BRANCH_INDIRECT: 2091314 0.418263%
BRANCH_CONDITIONAL: 78670275 15.7341%
BRANCH_DIRECT_CALL: 8670976 1.7342%
BRANCH_INDIRECT_CALL: 508438 0.101688%
BRANCH_RETURN: 9179409 1.83588%
BRANCH_OTHER: 0 0%

