
*** ChampSim Multicore Out-of-Order Simulator ***

Warmup Instructions: 1000000
Prefetch Warmup Instructions: 450000000
Simulation Instructions: 500000000
Stat Printing Period: 1000000
Number of CPUs: 1
LLC sets: 2048
LLC ways: 16
Off-chip DRAM Size: 32768 MB Channels: 2 Width: 64-bit Data Rate: 1024 MT/s

CPU 0 runs /scratch/cluster/cmolder/ML-DPC/ChampSimTraces/spec17/602.gcc-s3.trace.xz
Read seed: 224
Heartbeat CPU 0 instructions: 1000000 cycles: 501312 heartbeat IPC: 1.99477 cumulative IPC: 1.99477 (Simulation time: 0 hr 0 min 6 sec) 

Warmup complete CPU 0 instructions: 1000004 cycles: 501313 (Simulation time: 0 hr 0 min 6 sec) 

Heartbeat CPU 0 instructions: 2000003 cycles: 2333438 heartbeat IPC: 0.545816 cumulative IPC: 0.545814 (Simulation time: 0 hr 0 min 13 sec) 
Heartbeat CPU 0 instructions: 3000000 cycles: 4149825 heartbeat IPC: 0.550542 cumulative IPC: 0.548168 (Simulation time: 0 hr 0 min 20 sec) 
Heartbeat CPU 0 instructions: 4000002 cycles: 5957452 heartbeat IPC: 0.553213 cumulative IPC: 0.549839 (Simulation time: 0 hr 0 min 28 sec) 
Heartbeat CPU 0 instructions: 5000003 cycles: 7789888 heartbeat IPC: 0.545722 cumulative IPC: 0.548804 (Simulation time: 0 hr 0 min 35 sec) 
Heartbeat CPU 0 instructions: 6000003 cycles: 9609416 heartbeat IPC: 0.549593 cumulative IPC: 0.548962 (Simulation time: 0 hr 0 min 42 sec) 
Heartbeat CPU 0 instructions: 7000000 cycles: 11423458 heartbeat IPC: 0.551253 cumulative IPC: 0.549342 (Simulation time: 0 hr 0 min 49 sec) 
Heartbeat CPU 0 instructions: 8000003 cycles: 13274765 heartbeat IPC: 0.540161 cumulative IPC: 0.548012 (Simulation time: 0 hr 0 min 56 sec) 
Heartbeat CPU 0 instructions: 9000000 cycles: 15122032 heartbeat IPC: 0.541339 cumulative IPC: 0.547168 (Simulation time: 0 hr 1 min 3 sec) 
Heartbeat CPU 0 instructions: 10000000 cycles: 16953846 heartbeat IPC: 0.545907 cumulative IPC: 0.547028 (Simulation time: 0 hr 1 min 10 sec) 
Heartbeat CPU 0 instructions: 11000000 cycles: 18759301 heartbeat IPC: 0.553877 cumulative IPC: 0.547705 (Simulation time: 0 hr 1 min 17 sec) 
Heartbeat CPU 0 instructions: 12000000 cycles: 20578239 heartbeat IPC: 0.549771 cumulative IPC: 0.547892 (Simulation time: 0 hr 1 min 25 sec) 
Heartbeat CPU 0 instructions: 13000003 cycles: 22447142 heartbeat IPC: 0.535075 cumulative IPC: 0.546801 (Simulation time: 0 hr 1 min 32 sec) 
Heartbeat CPU 0 instructions: 14000003 cycles: 24369804 heartbeat IPC: 0.520112 cumulative IPC: 0.544651 (Simulation time: 0 hr 1 min 39 sec) 
Heartbeat CPU 0 instructions: 15000002 cycles: 26382166 heartbeat IPC: 0.496928 cumulative IPC: 0.54094 (Simulation time: 0 hr 1 min 46 sec) 
Heartbeat CPU 0 instructions: 16000003 cycles: 28202333 heartbeat IPC: 0.549401 cumulative IPC: 0.541496 (Simulation time: 0 hr 1 min 53 sec) 
Heartbeat CPU 0 instructions: 17000001 cycles: 30015152 heartbeat IPC: 0.551626 cumulative IPC: 0.542118 (Simulation time: 0 hr 2 min 1 sec) 
Heartbeat CPU 0 instructions: 18000002 cycles: 31850106 heartbeat IPC: 0.544973 cumulative IPC: 0.542286 (Simulation time: 0 hr 2 min 8 sec) 
Heartbeat CPU 0 instructions: 19000001 cycles: 33685853 heartbeat IPC: 0.544737 cumulative IPC: 0.542421 (Simulation time: 0 hr 2 min 15 sec) 
Heartbeat CPU 0 instructions: 20000000 cycles: 35527093 heartbeat IPC: 0.543112 cumulative IPC: 0.542457 (Simulation time: 0 hr 2 min 22 sec) 
Heartbeat CPU 0 instructions: 21000000 cycles: 37351444 heartbeat IPC: 0.54814 cumulative IPC: 0.542739 (Simulation time: 0 hr 2 min 29 sec) 
Heartbeat CPU 0 instructions: 22000000 cycles: 39160461 heartbeat IPC: 0.552786 cumulative IPC: 0.543209 (Simulation time: 0 hr 2 min 36 sec) 
Heartbeat CPU 0 instructions: 23000001 cycles: 40984425 heartbeat IPC: 0.548257 cumulative IPC: 0.543436 (Simulation time: 0 hr 2 min 43 sec) 
Heartbeat CPU 0 instructions: 24000001 cycles: 42813933 heartbeat IPC: 0.546595 cumulative IPC: 0.543573 (Simulation time: 0 hr 2 min 50 sec) 
Heartbeat CPU 0 instructions: 25000001 cycles: 44641888 heartbeat IPC: 0.547059 cumulative IPC: 0.543717 (Simulation time: 0 hr 2 min 57 sec) 
Heartbeat CPU 0 instructions: 26000000 cycles: 46446003 heartbeat IPC: 0.554288 cumulative IPC: 0.544132 (Simulation time: 0 hr 3 min 4 sec) 
Heartbeat CPU 0 instructions: 27000003 cycles: 48250390 heartbeat IPC: 0.554206 cumulative IPC: 0.544513 (Simulation time: 0 hr 3 min 11 sec) 
Heartbeat CPU 0 instructions: 28000001 cycles: 50053733 heartbeat IPC: 0.554525 cumulative IPC: 0.544877 (Simulation time: 0 hr 3 min 18 sec) 
Heartbeat CPU 0 instructions: 29000001 cycles: 51876516 heartbeat IPC: 0.548612 cumulative IPC: 0.54501 (Simulation time: 0 hr 3 min 25 sec) 
Heartbeat CPU 0 instructions: 30000000 cycles: 53701696 heartbeat IPC: 0.547891 cumulative IPC: 0.545109 (Simulation time: 0 hr 3 min 32 sec) 
Heartbeat CPU 0 instructions: 31000000 cycles: 55538479 heartbeat IPC: 0.54443 cumulative IPC: 0.545086 (Simulation time: 0 hr 3 min 39 sec) 
Heartbeat CPU 0 instructions: 32000002 cycles: 57370975 heartbeat IPC: 0.545705 cumulative IPC: 0.545106 (Simulation time: 0 hr 3 min 46 sec) 
Heartbeat CPU 0 instructions: 33000000 cycles: 59185441 heartbeat IPC: 0.551125 cumulative IPC: 0.545292 (Simulation time: 0 hr 3 min 54 sec) 
Heartbeat CPU 0 instructions: 34000000 cycles: 61019929 heartbeat IPC: 0.545111 cumulative IPC: 0.545287 (Simulation time: 0 hr 4 min 1 sec) 
Heartbeat CPU 0 instructions: 35000002 cycles: 62850313 heartbeat IPC: 0.546335 cumulative IPC: 0.545317 (Simulation time: 0 hr 4 min 8 sec) 
Heartbeat CPU 0 instructions: 36000003 cycles: 64660634 heartbeat IPC: 0.552389 cumulative IPC: 0.545517 (Simulation time: 0 hr 4 min 15 sec) 
Heartbeat CPU 0 instructions: 37000001 cycles: 66640775 heartbeat IPC: 0.505014 cumulative IPC: 0.544304 (Simulation time: 0 hr 4 min 22 sec) 
Heartbeat CPU 0 instructions: 38000003 cycles: 68660879 heartbeat IPC: 0.495025 cumulative IPC: 0.542844 (Simulation time: 0 hr 4 min 30 sec) 
Heartbeat CPU 0 instructions: 39000000 cycles: 70643463 heartbeat IPC: 0.504391 cumulative IPC: 0.541757 (Simulation time: 0 hr 4 min 37 sec) 
Heartbeat CPU 0 instructions: 40000000 cycles: 72456959 heartbeat IPC: 0.551421 cumulative IPC: 0.542 (Simulation time: 0 hr 4 min 44 sec) 
Heartbeat CPU 0 instructions: 41000001 cycles: 74267660 heartbeat IPC: 0.552273 cumulative IPC: 0.542253 (Simulation time: 0 hr 4 min 51 sec) 
Heartbeat CPU 0 instructions: 42000001 cycles: 76085161 heartbeat IPC: 0.550206 cumulative IPC: 0.542444 (Simulation time: 0 hr 4 min 59 sec) 
Heartbeat CPU 0 instructions: 43000001 cycles: 77909392 heartbeat IPC: 0.548176 cumulative IPC: 0.542579 (Simulation time: 0 hr 5 min 6 sec) 
Heartbeat CPU 0 instructions: 44000000 cycles: 79741481 heartbeat IPC: 0.545824 cumulative IPC: 0.542654 (Simulation time: 0 hr 5 min 13 sec) 
Heartbeat CPU 0 instructions: 45000003 cycles: 81570242 heartbeat IPC: 0.54682 cumulative IPC: 0.542748 (Simulation time: 0 hr 5 min 20 sec) 
Heartbeat CPU 0 instructions: 46000000 cycles: 83374430 heartbeat IPC: 0.554264 cumulative IPC: 0.542999 (Simulation time: 0 hr 5 min 27 sec) 
Heartbeat CPU 0 instructions: 47000000 cycles: 85189386 heartbeat IPC: 0.550978 cumulative IPC: 0.54317 (Simulation time: 0 hr 5 min 34 sec) 
Heartbeat CPU 0 instructions: 48000000 cycles: 87014106 heartbeat IPC: 0.548029 cumulative IPC: 0.543272 (Simulation time: 0 hr 5 min 42 sec) 
Heartbeat CPU 0 instructions: 49000003 cycles: 88839018 heartbeat IPC: 0.547973 cumulative IPC: 0.543369 (Simulation time: 0 hr 5 min 49 sec) 
Heartbeat CPU 0 instructions: 50000000 cycles: 90638569 heartbeat IPC: 0.555692 cumulative IPC: 0.543615 (Simulation time: 0 hr 5 min 56 sec) 
Heartbeat CPU 0 instructions: 51000002 cycles: 92441068 heartbeat IPC: 0.554786 cumulative IPC: 0.543834 (Simulation time: 0 hr 6 min 3 sec) 
Heartbeat CPU 0 instructions: 52000001 cycles: 94240711 heartbeat IPC: 0.555665 cumulative IPC: 0.544061 (Simulation time: 0 hr 6 min 10 sec) 
Heartbeat CPU 0 instructions: 53000000 cycles: 96056871 heartbeat IPC: 0.550612 cumulative IPC: 0.544186 (Simulation time: 0 hr 6 min 17 sec) 
Heartbeat CPU 0 instructions: 54000000 cycles: 97883061 heartbeat IPC: 0.547588 cumulative IPC: 0.54425 (Simulation time: 0 hr 6 min 24 sec) 
Heartbeat CPU 0 instructions: 55000000 cycles: 99708561 heartbeat IPC: 0.547795 cumulative IPC: 0.544315 (Simulation time: 0 hr 6 min 31 sec) 
Heartbeat CPU 0 instructions: 56000000 cycles: 101537143 heartbeat IPC: 0.546872 cumulative IPC: 0.544361 (Simulation time: 0 hr 6 min 38 sec) 
Heartbeat CPU 0 instructions: 57000003 cycles: 103348379 heartbeat IPC: 0.552111 cumulative IPC: 0.544498 (Simulation time: 0 hr 6 min 46 sec) 
Heartbeat CPU 0 instructions: 58000001 cycles: 105178202 heartbeat IPC: 0.5465 cumulative IPC: 0.544533 (Simulation time: 0 hr 6 min 53 sec) 
Heartbeat CPU 0 instructions: 59000003 cycles: 107000732 heartbeat IPC: 0.548689 cumulative IPC: 0.544604 (Simulation time: 0 hr 7 min 0 sec) 
Heartbeat CPU 0 instructions: 60000000 cycles: 108807146 heartbeat IPC: 0.553581 cumulative IPC: 0.544754 (Simulation time: 0 hr 7 min 8 sec) 
Heartbeat CPU 0 instructions: 61000001 cycles: 110792364 heartbeat IPC: 0.503724 cumulative IPC: 0.544015 (Simulation time: 0 hr 7 min 15 sec) 
Heartbeat CPU 0 instructions: 62000000 cycles: 112790222 heartbeat IPC: 0.500536 cumulative IPC: 0.543242 (Simulation time: 0 hr 7 min 22 sec) 
Heartbeat CPU 0 instructions: 63000001 cycles: 115004664 heartbeat IPC: 0.451581 cumulative IPC: 0.541469 (Simulation time: 0 hr 7 min 29 sec) 
Heartbeat CPU 0 instructions: 64000003 cycles: 116817455 heartbeat IPC: 0.551637 cumulative IPC: 0.541627 (Simulation time: 0 hr 7 min 36 sec) 
Heartbeat CPU 0 instructions: 65000001 cycles: 118621564 heartbeat IPC: 0.554289 cumulative IPC: 0.541821 (Simulation time: 0 hr 7 min 43 sec) 
Heartbeat CPU 0 instructions: 66000000 cycles: 120419515 heartbeat IPC: 0.556188 cumulative IPC: 0.542036 (Simulation time: 0 hr 7 min 50 sec) 
Heartbeat CPU 0 instructions: 67000000 cycles: 122240913 heartbeat IPC: 0.549029 cumulative IPC: 0.542141 (Simulation time: 0 hr 7 min 57 sec) 
Heartbeat CPU 0 instructions: 68000003 cycles: 124070463 heartbeat IPC: 0.546584 cumulative IPC: 0.542207 (Simulation time: 0 hr 8 min 4 sec) 
Heartbeat CPU 0 instructions: 69000000 cycles: 125902660 heartbeat IPC: 0.545791 cumulative IPC: 0.542259 (Simulation time: 0 hr 8 min 12 sec) 
Heartbeat CPU 0 instructions: 70000000 cycles: 127720919 heartbeat IPC: 0.549977 cumulative IPC: 0.542369 (Simulation time: 0 hr 8 min 19 sec) 
Heartbeat CPU 0 instructions: 71000002 cycles: 129534396 heartbeat IPC: 0.551428 cumulative IPC: 0.542497 (Simulation time: 0 hr 8 min 26 sec) 
Heartbeat CPU 0 instructions: 72000003 cycles: 131345268 heartbeat IPC: 0.552221 cumulative IPC: 0.542631 (Simulation time: 0 hr 8 min 33 sec) 
Heartbeat CPU 0 instructions: 73000000 cycles: 133173412 heartbeat IPC: 0.547001 cumulative IPC: 0.542691 (Simulation time: 0 hr 8 min 40 sec) 
Heartbeat CPU 0 instructions: 74000000 cycles: 134980534 heartbeat IPC: 0.553366 cumulative IPC: 0.542835 (Simulation time: 0 hr 8 min 47 sec) 
Heartbeat CPU 0 instructions: 75000002 cycles: 136773820 heartbeat IPC: 0.557637 cumulative IPC: 0.54303 (Simulation time: 0 hr 8 min 55 sec) 
Heartbeat CPU 0 instructions: 76000003 cycles: 138585420 heartbeat IPC: 0.551999 cumulative IPC: 0.543147 (Simulation time: 0 hr 9 min 2 sec) 
Heartbeat CPU 0 instructions: 77000000 cycles: 140378923 heartbeat IPC: 0.557566 cumulative IPC: 0.543332 (Simulation time: 0 hr 9 min 9 sec) 
Heartbeat CPU 0 instructions: 78000001 cycles: 142214655 heartbeat IPC: 0.544742 cumulative IPC: 0.54335 (Simulation time: 0 hr 9 min 16 sec) 
Heartbeat CPU 0 instructions: 79000000 cycles: 144035858 heartbeat IPC: 0.549087 cumulative IPC: 0.543423 (Simulation time: 0 hr 9 min 23 sec) 
Heartbeat CPU 0 instructions: 80000000 cycles: 145867342 heartbeat IPC: 0.546005 cumulative IPC: 0.543456 (Simulation time: 0 hr 9 min 30 sec) 
Heartbeat CPU 0 instructions: 81000000 cycles: 147684352 heartbeat IPC: 0.550355 cumulative IPC: 0.543541 (Simulation time: 0 hr 9 min 37 sec) 
Heartbeat CPU 0 instructions: 82000003 cycles: 149496555 heartbeat IPC: 0.551816 cumulative IPC: 0.543642 (Simulation time: 0 hr 9 min 44 sec) 
Heartbeat CPU 0 instructions: 83000001 cycles: 151328552 heartbeat IPC: 0.545851 cumulative IPC: 0.543668 (Simulation time: 0 hr 9 min 51 sec) 
Heartbeat CPU 0 instructions: 84000002 cycles: 153146274 heartbeat IPC: 0.55014 cumulative IPC: 0.543745 (Simulation time: 0 hr 9 min 59 sec) 
Heartbeat CPU 0 instructions: 85000001 cycles: 154964353 heartbeat IPC: 0.550031 cumulative IPC: 0.543819 (Simulation time: 0 hr 10 min 6 sec) 
Heartbeat CPU 0 instructions: 86000001 cycles: 156814960 heartbeat IPC: 0.540363 cumulative IPC: 0.543778 (Simulation time: 0 hr 10 min 13 sec) 
Heartbeat CPU 0 instructions: 87000000 cycles: 158657521 heartbeat IPC: 0.542722 cumulative IPC: 0.543766 (Simulation time: 0 hr 10 min 20 sec) 
Heartbeat CPU 0 instructions: 88000000 cycles: 160492512 heartbeat IPC: 0.544962 cumulative IPC: 0.54378 (Simulation time: 0 hr 10 min 27 sec) 
Heartbeat CPU 0 instructions: 89000000 cycles: 162299717 heartbeat IPC: 0.553341 cumulative IPC: 0.543887 (Simulation time: 0 hr 10 min 34 sec) 
Heartbeat CPU 0 instructions: 90000000 cycles: 164124111 heartbeat IPC: 0.548127 cumulative IPC: 0.543934 (Simulation time: 0 hr 10 min 41 sec) 
Heartbeat CPU 0 instructions: 91000003 cycles: 165986557 heartbeat IPC: 0.53693 cumulative IPC: 0.543855 (Simulation time: 0 hr 10 min 49 sec) 
Heartbeat CPU 0 instructions: 92000002 cycles: 167902860 heartbeat IPC: 0.521838 cumulative IPC: 0.543603 (Simulation time: 0 hr 10 min 58 sec) 
Heartbeat CPU 0 instructions: 93000003 cycles: 175430842 heartbeat IPC: 0.132838 cumulative IPC: 0.525926 (Simulation time: 0 hr 11 min 12 sec) 
Heartbeat CPU 0 instructions: 94000000 cycles: 185912705 heartbeat IPC: 0.0954026 cumulative IPC: 0.501587 (Simulation time: 0 hr 11 min 30 sec) 
Heartbeat CPU 0 instructions: 95000001 cycles: 194311102 heartbeat IPC: 0.11907 cumulative IPC: 0.485012 (Simulation time: 0 hr 11 min 45 sec) 
Heartbeat CPU 0 instructions: 96000000 cycles: 198004647 heartbeat IPC: 0.270742 cumulative IPC: 0.481005 (Simulation time: 0 hr 11 min 51 sec) 
Heartbeat CPU 0 instructions: 97000002 cycles: 199741779 heartbeat IPC: 0.575663 cumulative IPC: 0.48183 (Simulation time: 0 hr 11 min 59 sec) 
Heartbeat CPU 0 instructions: 98000001 cycles: 201554180 heartbeat IPC: 0.551754 cumulative IPC: 0.48246 (Simulation time: 0 hr 12 min 6 sec) 
Heartbeat CPU 0 instructions: 99000000 cycles: 203380527 heartbeat IPC: 0.547541 cumulative IPC: 0.483046 (Simulation time: 0 hr 12 min 14 sec) 
Heartbeat CPU 0 instructions: 100000000 cycles: 205208942 heartbeat IPC: 0.546922 cumulative IPC: 0.483617 (Simulation time: 0 hr 12 min 21 sec) 
Heartbeat CPU 0 instructions: 101000000 cycles: 207040900 heartbeat IPC: 0.545864 cumulative IPC: 0.484169 (Simulation time: 0 hr 12 min 28 sec) 
Heartbeat CPU 0 instructions: 102000002 cycles: 208874763 heartbeat IPC: 0.545298 cumulative IPC: 0.484707 (Simulation time: 0 hr 12 min 35 sec) 
Heartbeat CPU 0 instructions: 103000002 cycles: 210703087 heartbeat IPC: 0.546949 cumulative IPC: 0.485248 (Simulation time: 0 hr 12 min 42 sec) 
Heartbeat CPU 0 instructions: 104000002 cycles: 212499006 heartbeat IPC: 0.556818 cumulative IPC: 0.485854 (Simulation time: 0 hr 12 min 50 sec) 
Heartbeat CPU 0 instructions: 105000002 cycles: 214309605 heartbeat IPC: 0.552303 cumulative IPC: 0.486417 (Simulation time: 0 hr 12 min 57 sec) 
Heartbeat CPU 0 instructions: 106000000 cycles: 216140341 heartbeat IPC: 0.546227 cumulative IPC: 0.486925 (Simulation time: 0 hr 13 min 5 sec) 
Heartbeat CPU 0 instructions: 107000003 cycles: 217946521 heartbeat IPC: 0.553656 cumulative IPC: 0.487479 (Simulation time: 0 hr 13 min 12 sec) 
Heartbeat CPU 0 instructions: 108000000 cycles: 219737589 heartbeat IPC: 0.558324 cumulative IPC: 0.488058 (Simulation time: 0 hr 13 min 19 sec) 
Heartbeat CPU 0 instructions: 109000000 cycles: 221539865 heartbeat IPC: 0.554854 cumulative IPC: 0.488603 (Simulation time: 0 hr 13 min 26 sec) 
Heartbeat CPU 0 instructions: 110000000 cycles: 223335871 heartbeat IPC: 0.556791 cumulative IPC: 0.489152 (Simulation time: 0 hr 13 min 33 sec) 
Heartbeat CPU 0 instructions: 111000000 cycles: 225152849 heartbeat IPC: 0.550364 cumulative IPC: 0.489647 (Simulation time: 0 hr 13 min 41 sec) 
Heartbeat CPU 0 instructions: 112000000 cycles: 226977522 heartbeat IPC: 0.548043 cumulative IPC: 0.490118 (Simulation time: 0 hr 13 min 48 sec) 
Heartbeat CPU 0 instructions: 113000000 cycles: 228800172 heartbeat IPC: 0.548652 cumulative IPC: 0.490585 (Simulation time: 0 hr 13 min 56 sec) 
Heartbeat CPU 0 instructions: 114000000 cycles: 230620442 heartbeat IPC: 0.549369 cumulative IPC: 0.49105 (Simulation time: 0 hr 14 min 3 sec) 
Heartbeat CPU 0 instructions: 115000001 cycles: 232430008 heartbeat IPC: 0.552619 cumulative IPC: 0.49153 (Simulation time: 0 hr 14 min 10 sec) 
Heartbeat CPU 0 instructions: 116000002 cycles: 234254965 heartbeat IPC: 0.547959 cumulative IPC: 0.491971 (Simulation time: 0 hr 14 min 18 sec) 
Heartbeat CPU 0 instructions: 117000002 cycles: 236068305 heartbeat IPC: 0.551469 cumulative IPC: 0.492429 (Simulation time: 0 hr 14 min 25 sec) 
Heartbeat CPU 0 instructions: 118000001 cycles: 237874859 heartbeat IPC: 0.55354 cumulative IPC: 0.492894 (Simulation time: 0 hr 14 min 33 sec) 
Heartbeat CPU 0 instructions: 119000001 cycles: 239716060 heartbeat IPC: 0.543124 cumulative IPC: 0.493281 (Simulation time: 0 hr 14 min 40 sec) 
Heartbeat CPU 0 instructions: 120000000 cycles: 241567649 heartbeat IPC: 0.540076 cumulative IPC: 0.49364 (Simulation time: 0 hr 14 min 48 sec) 
Heartbeat CPU 0 instructions: 121000000 cycles: 243398781 heartbeat IPC: 0.54611 cumulative IPC: 0.494036 (Simulation time: 0 hr 14 min 55 sec) 
Heartbeat CPU 0 instructions: 122000000 cycles: 245206282 heartbeat IPC: 0.55325 cumulative IPC: 0.494473 (Simulation time: 0 hr 15 min 3 sec) 
Heartbeat CPU 0 instructions: 123000000 cycles: 247015393 heartbeat IPC: 0.552758 cumulative IPC: 0.494901 (Simulation time: 0 hr 15 min 11 sec) 
Heartbeat CPU 0 instructions: 124000002 cycles: 248882649 heartbeat IPC: 0.535546 cumulative IPC: 0.495206 (Simulation time: 0 hr 15 min 18 sec) 
Heartbeat CPU 0 instructions: 125000000 cycles: 250757307 heartbeat IPC: 0.53343 cumulative IPC: 0.495493 (Simulation time: 0 hr 15 min 26 sec) 
Heartbeat CPU 0 instructions: 126000001 cycles: 253225150 heartbeat IPC: 0.405213 cumulative IPC: 0.494611 (Simulation time: 0 hr 15 min 33 sec) 
Heartbeat CPU 0 instructions: 127000003 cycles: 255549512 heartbeat IPC: 0.430226 cumulative IPC: 0.494024 (Simulation time: 0 hr 15 min 40 sec) 
Heartbeat CPU 0 instructions: 128000000 cycles: 257432548 heartbeat IPC: 0.531056 cumulative IPC: 0.494296 (Simulation time: 0 hr 15 min 47 sec) 
Heartbeat CPU 0 instructions: 129000000 cycles: 259272985 heartbeat IPC: 0.543349 cumulative IPC: 0.494645 (Simulation time: 0 hr 15 min 55 sec) 
Heartbeat CPU 0 instructions: 130000003 cycles: 261126788 heartbeat IPC: 0.539433 cumulative IPC: 0.494963 (Simulation time: 0 hr 16 min 2 sec) 
Heartbeat CPU 0 instructions: 131000000 cycles: 263001013 heartbeat IPC: 0.533552 cumulative IPC: 0.495239 (Simulation time: 0 hr 16 min 10 sec) 
Heartbeat CPU 0 instructions: 132000000 cycles: 264876615 heartbeat IPC: 0.533162 cumulative IPC: 0.495508 (Simulation time: 0 hr 16 min 17 sec) 
Heartbeat CPU 0 instructions: 133000003 cycles: 266753787 heartbeat IPC: 0.532718 cumulative IPC: 0.49577 (Simulation time: 0 hr 16 min 25 sec) 
Heartbeat CPU 0 instructions: 134000000 cycles: 268612598 heartbeat IPC: 0.537977 cumulative IPC: 0.496063 (Simulation time: 0 hr 16 min 33 sec) 
Heartbeat CPU 0 instructions: 135000003 cycles: 270461605 heartbeat IPC: 0.540832 cumulative IPC: 0.496369 (Simulation time: 0 hr 16 min 41 sec) 
Heartbeat CPU 0 instructions: 136000000 cycles: 272308323 heartbeat IPC: 0.5415 cumulative IPC: 0.496676 (Simulation time: 0 hr 16 min 49 sec) 
Heartbeat CPU 0 instructions: 137000002 cycles: 274178981 heartbeat IPC: 0.534572 cumulative IPC: 0.496935 (Simulation time: 0 hr 16 min 57 sec) 
Heartbeat CPU 0 instructions: 138000000 cycles: 276022687 heartbeat IPC: 0.542385 cumulative IPC: 0.497239 (Simulation time: 0 hr 17 min 5 sec) 
Heartbeat CPU 0 instructions: 139000001 cycles: 277859064 heartbeat IPC: 0.544551 cumulative IPC: 0.497552 (Simulation time: 0 hr 17 min 12 sec) 
Heartbeat CPU 0 instructions: 140000001 cycles: 279707974 heartbeat IPC: 0.540859 cumulative IPC: 0.497839 (Simulation time: 0 hr 17 min 19 sec) 
Heartbeat CPU 0 instructions: 141000003 cycles: 281543293 heartbeat IPC: 0.544865 cumulative IPC: 0.498146 (Simulation time: 0 hr 17 min 27 sec) 
Heartbeat CPU 0 instructions: 142000003 cycles: 283413614 heartbeat IPC: 0.534668 cumulative IPC: 0.498388 (Simulation time: 0 hr 17 min 35 sec) 
Heartbeat CPU 0 instructions: 143000000 cycles: 285280393 heartbeat IPC: 0.53568 cumulative IPC: 0.498632 (Simulation time: 0 hr 17 min 42 sec) 
Heartbeat CPU 0 instructions: 144000000 cycles: 287147746 heartbeat IPC: 0.535517 cumulative IPC: 0.498872 (Simulation time: 0 hr 17 min 50 sec) 
Heartbeat CPU 0 instructions: 145000001 cycles: 289004494 heartbeat IPC: 0.538577 cumulative IPC: 0.499128 (Simulation time: 0 hr 17 min 58 sec) 
Heartbeat CPU 0 instructions: 146000002 cycles: 290857149 heartbeat IPC: 0.539766 cumulative IPC: 0.499387 (Simulation time: 0 hr 18 min 6 sec) 
Heartbeat CPU 0 instructions: 147000002 cycles: 292727215 heartbeat IPC: 0.534741 cumulative IPC: 0.499613 (Simulation time: 0 hr 18 min 13 sec) 
Heartbeat CPU 0 instructions: 148000002 cycles: 294582629 heartbeat IPC: 0.538963 cumulative IPC: 0.499862 (Simulation time: 0 hr 18 min 21 sec) 
Heartbeat CPU 0 instructions: 149000003 cycles: 296440786 heartbeat IPC: 0.538168 cumulative IPC: 0.500102 (Simulation time: 0 hr 18 min 29 sec) 
Heartbeat CPU 0 instructions: 150000000 cycles: 298335508 heartbeat IPC: 0.52778 cumulative IPC: 0.500278 (Simulation time: 0 hr 18 min 36 sec) 
Heartbeat CPU 0 instructions: 151000000 cycles: 300225793 heartbeat IPC: 0.529021 cumulative IPC: 0.50046 (Simulation time: 0 hr 18 min 44 sec) 
Heartbeat CPU 0 instructions: 152000003 cycles: 302103787 heartbeat IPC: 0.532485 cumulative IPC: 0.500659 (Simulation time: 0 hr 18 min 51 sec) 
Heartbeat CPU 0 instructions: 153000000 cycles: 303949845 heartbeat IPC: 0.541693 cumulative IPC: 0.500909 (Simulation time: 0 hr 18 min 58 sec) 
Heartbeat CPU 0 instructions: 154000000 cycles: 305796627 heartbeat IPC: 0.541482 cumulative IPC: 0.501154 (Simulation time: 0 hr 19 min 6 sec) 
Heartbeat CPU 0 instructions: 155000002 cycles: 307712176 heartbeat IPC: 0.522045 cumulative IPC: 0.501284 (Simulation time: 0 hr 19 min 13 sec) 
Heartbeat CPU 0 instructions: 156000000 cycles: 309604496 heartbeat IPC: 0.528451 cumulative IPC: 0.501451 (Simulation time: 0 hr 19 min 21 sec) 
Heartbeat CPU 0 instructions: 157000000 cycles: 311585911 heartbeat IPC: 0.50469 cumulative IPC: 0.501471 (Simulation time: 0 hr 19 min 28 sec) 
Heartbeat CPU 0 instructions: 158000001 cycles: 313402463 heartbeat IPC: 0.550494 cumulative IPC: 0.501756 (Simulation time: 0 hr 19 min 36 sec) 
Heartbeat CPU 0 instructions: 159000001 cycles: 315215611 heartbeat IPC: 0.551527 cumulative IPC: 0.502043 (Simulation time: 0 hr 19 min 43 sec) 
Heartbeat CPU 0 instructions: 160000003 cycles: 317046643 heartbeat IPC: 0.546141 cumulative IPC: 0.502298 (Simulation time: 0 hr 19 min 51 sec) 
Heartbeat CPU 0 instructions: 161000002 cycles: 318883471 heartbeat IPC: 0.544416 cumulative IPC: 0.502541 (Simulation time: 0 hr 19 min 58 sec) 
Heartbeat CPU 0 instructions: 162000001 cycles: 320726716 heartbeat IPC: 0.542521 cumulative IPC: 0.502771 (Simulation time: 0 hr 20 min 5 sec) 
Heartbeat CPU 0 instructions: 163000000 cycles: 322554041 heartbeat IPC: 0.547247 cumulative IPC: 0.503023 (Simulation time: 0 hr 20 min 13 sec) 
Heartbeat CPU 0 instructions: 164000003 cycles: 324364300 heartbeat IPC: 0.552409 cumulative IPC: 0.503299 (Simulation time: 0 hr 20 min 21 sec) 
Heartbeat CPU 0 instructions: 165000000 cycles: 326178433 heartbeat IPC: 0.551226 cumulative IPC: 0.503566 (Simulation time: 0 hr 20 min 28 sec) 
Heartbeat CPU 0 instructions: 166000003 cycles: 328005862 heartbeat IPC: 0.547219 cumulative IPC: 0.50381 (Simulation time: 0 hr 20 min 35 sec) 
Heartbeat CPU 0 instructions: 167000001 cycles: 329836483 heartbeat IPC: 0.546262 cumulative IPC: 0.504046 (Simulation time: 0 hr 20 min 43 sec) 
Heartbeat CPU 0 instructions: 168000000 cycles: 331629130 heartbeat IPC: 0.557834 cumulative IPC: 0.504337 (Simulation time: 0 hr 20 min 50 sec) 
Heartbeat CPU 0 instructions: 169000002 cycles: 333436904 heartbeat IPC: 0.553168 cumulative IPC: 0.504602 (Simulation time: 0 hr 20 min 57 sec) 
Heartbeat CPU 0 instructions: 170000000 cycles: 335237062 heartbeat IPC: 0.555506 cumulative IPC: 0.504876 (Simulation time: 0 hr 21 min 5 sec) 
Heartbeat CPU 0 instructions: 171000002 cycles: 337051954 heartbeat IPC: 0.550998 cumulative IPC: 0.505125 (Simulation time: 0 hr 21 min 12 sec) 
Heartbeat CPU 0 instructions: 172000001 cycles: 338870257 heartbeat IPC: 0.549963 cumulative IPC: 0.505365 (Simulation time: 0 hr 21 min 20 sec) 
Heartbeat CPU 0 instructions: 173000003 cycles: 340708554 heartbeat IPC: 0.543983 cumulative IPC: 0.505574 (Simulation time: 0 hr 21 min 27 sec) 
Heartbeat CPU 0 instructions: 174000000 cycles: 342539167 heartbeat IPC: 0.546263 cumulative IPC: 0.505792 (Simulation time: 0 hr 21 min 34 sec) 
Heartbeat CPU 0 instructions: 175000001 cycles: 344351162 heartbeat IPC: 0.551878 cumulative IPC: 0.506035 (Simulation time: 0 hr 21 min 42 sec) 
Heartbeat CPU 0 instructions: 176000000 cycles: 346178877 heartbeat IPC: 0.547131 cumulative IPC: 0.506252 (Simulation time: 0 hr 21 min 50 sec) 
Heartbeat CPU 0 instructions: 177000003 cycles: 348006251 heartbeat IPC: 0.547235 cumulative IPC: 0.506468 (Simulation time: 0 hr 21 min 57 sec) 
Heartbeat CPU 0 instructions: 178000000 cycles: 349812399 heartbeat IPC: 0.553663 cumulative IPC: 0.506712 (Simulation time: 0 hr 22 min 5 sec) 
Heartbeat CPU 0 instructions: 179000000 cycles: 351765902 heartbeat IPC: 0.511901 cumulative IPC: 0.506741 (Simulation time: 0 hr 22 min 13 sec) 
Heartbeat CPU 0 instructions: 180000000 cycles: 353800892 heartbeat IPC: 0.491403 cumulative IPC: 0.506652 (Simulation time: 0 hr 22 min 22 sec) 
Heartbeat CPU 0 instructions: 181000000 cycles: 356331052 heartbeat IPC: 0.395232 cumulative IPC: 0.50586 (Simulation time: 0 hr 22 min 30 sec) 
Heartbeat CPU 0 instructions: 182000002 cycles: 359545924 heartbeat IPC: 0.311055 cumulative IPC: 0.504116 (Simulation time: 0 hr 22 min 39 sec) 
Heartbeat CPU 0 instructions: 183000001 cycles: 362797116 heartbeat IPC: 0.307579 cumulative IPC: 0.502352 (Simulation time: 0 hr 22 min 50 sec) 
Heartbeat CPU 0 instructions: 184000002 cycles: 366078363 heartbeat IPC: 0.304762 cumulative IPC: 0.500578 (Simulation time: 0 hr 23 min 0 sec) 
Heartbeat CPU 0 instructions: 185000000 cycles: 369392901 heartbeat IPC: 0.301701 cumulative IPC: 0.498792 (Simulation time: 0 hr 23 min 10 sec) 
Heartbeat CPU 0 instructions: 186000000 cycles: 372646139 heartbeat IPC: 0.307386 cumulative IPC: 0.497118 (Simulation time: 0 hr 23 min 20 sec) 
Heartbeat CPU 0 instructions: 187000000 cycles: 375911009 heartbeat IPC: 0.306291 cumulative IPC: 0.495459 (Simulation time: 0 hr 23 min 30 sec) 
Heartbeat CPU 0 instructions: 188000000 cycles: 379170836 heartbeat IPC: 0.306765 cumulative IPC: 0.493834 (Simulation time: 0 hr 23 min 40 sec) 
Heartbeat CPU 0 instructions: 189000003 cycles: 382413082 heartbeat IPC: 0.308429 cumulative IPC: 0.49226 (Simulation time: 0 hr 23 min 49 sec) 
Heartbeat CPU 0 instructions: 190000002 cycles: 385714706 heartbeat IPC: 0.302881 cumulative IPC: 0.490637 (Simulation time: 0 hr 23 min 57 sec) 
Heartbeat CPU 0 instructions: 191000003 cycles: 388990910 heartbeat IPC: 0.305232 cumulative IPC: 0.489074 (Simulation time: 0 hr 24 min 6 sec) 
Heartbeat CPU 0 instructions: 192000002 cycles: 392276519 heartbeat IPC: 0.304357 cumulative IPC: 0.487524 (Simulation time: 0 hr 24 min 15 sec) 
Heartbeat CPU 0 instructions: 193000001 cycles: 395553033 heartbeat IPC: 0.305202 cumulative IPC: 0.486012 (Simulation time: 0 hr 24 min 24 sec) 
Heartbeat CPU 0 instructions: 194000000 cycles: 397825297 heartbeat IPC: 0.440089 cumulative IPC: 0.48575 (Simulation time: 0 hr 24 min 32 sec) 
Heartbeat CPU 0 instructions: 195000001 cycles: 399642669 heartbeat IPC: 0.550246 cumulative IPC: 0.486043 (Simulation time: 0 hr 24 min 39 sec) 
Heartbeat CPU 0 instructions: 196000001 cycles: 401459823 heartbeat IPC: 0.550311 cumulative IPC: 0.486335 (Simulation time: 0 hr 24 min 47 sec) 
Heartbeat CPU 0 instructions: 197000003 cycles: 403281126 heartbeat IPC: 0.549059 cumulative IPC: 0.486618 (Simulation time: 0 hr 24 min 55 sec) 
Heartbeat CPU 0 instructions: 198000000 cycles: 405138907 heartbeat IPC: 0.538275 cumulative IPC: 0.486855 (Simulation time: 0 hr 25 min 3 sec) 
Heartbeat CPU 0 instructions: 199000003 cycles: 406981486 heartbeat IPC: 0.542719 cumulative IPC: 0.487109 (Simulation time: 0 hr 25 min 10 sec) 
Heartbeat CPU 0 instructions: 200000000 cycles: 408804891 heartbeat IPC: 0.548423 cumulative IPC: 0.487382 (Simulation time: 0 hr 25 min 18 sec) 
Heartbeat CPU 0 instructions: 201000000 cycles: 410614056 heartbeat IPC: 0.552741 cumulative IPC: 0.487671 (Simulation time: 0 hr 25 min 25 sec) 
Heartbeat CPU 0 instructions: 202000001 cycles: 412433668 heartbeat IPC: 0.549568 cumulative IPC: 0.487944 (Simulation time: 0 hr 25 min 33 sec) 
Heartbeat CPU 0 instructions: 203000000 cycles: 414251277 heartbeat IPC: 0.550173 cumulative IPC: 0.488218 (Simulation time: 0 hr 25 min 41 sec) 
Heartbeat CPU 0 instructions: 204000000 cycles: 416080931 heartbeat IPC: 0.546551 cumulative IPC: 0.488474 (Simulation time: 0 hr 25 min 48 sec) 
Heartbeat CPU 0 instructions: 205000000 cycles: 417889695 heartbeat IPC: 0.552864 cumulative IPC: 0.488753 (Simulation time: 0 hr 25 min 56 sec) 
Heartbeat CPU 0 instructions: 206000003 cycles: 419696047 heartbeat IPC: 0.553604 cumulative IPC: 0.489033 (Simulation time: 0 hr 26 min 4 sec) 
Heartbeat CPU 0 instructions: 207000002 cycles: 421504566 heartbeat IPC: 0.552938 cumulative IPC: 0.489307 (Simulation time: 0 hr 26 min 12 sec) 
Heartbeat CPU 0 instructions: 208000000 cycles: 423309673 heartbeat IPC: 0.553983 cumulative IPC: 0.489583 (Simulation time: 0 hr 26 min 19 sec) 
Heartbeat CPU 0 instructions: 209000000 cycles: 425134596 heartbeat IPC: 0.547968 cumulative IPC: 0.489834 (Simulation time: 0 hr 26 min 27 sec) 
Heartbeat CPU 0 instructions: 210000000 cycles: 426968230 heartbeat IPC: 0.545365 cumulative IPC: 0.490073 (Simulation time: 0 hr 26 min 35 sec) 
Heartbeat CPU 0 instructions: 211000003 cycles: 428799820 heartbeat IPC: 0.545975 cumulative IPC: 0.490312 (Simulation time: 0 hr 26 min 42 sec) 
Heartbeat CPU 0 instructions: 212000000 cycles: 430616948 heartbeat IPC: 0.550317 cumulative IPC: 0.490566 (Simulation time: 0 hr 26 min 49 sec) 
Heartbeat CPU 0 instructions: 213000000 cycles: 432433953 heartbeat IPC: 0.550356 cumulative IPC: 0.490817 (Simulation time: 0 hr 26 min 56 sec) 
Heartbeat CPU 0 instructions: 214000003 cycles: 434262700 heartbeat IPC: 0.546824 cumulative IPC: 0.491053 (Simulation time: 0 hr 27 min 3 sec) 
Heartbeat CPU 0 instructions: 215000000 cycles: 436076814 heartbeat IPC: 0.551232 cumulative IPC: 0.491304 (Simulation time: 0 hr 27 min 11 sec) 
Heartbeat CPU 0 instructions: 216000001 cycles: 437954720 heartbeat IPC: 0.532509 cumulative IPC: 0.491481 (Simulation time: 0 hr 27 min 18 sec) 
Heartbeat CPU 0 instructions: 217000001 cycles: 440011528 heartbeat IPC: 0.48619 cumulative IPC: 0.491456 (Simulation time: 0 hr 27 min 25 sec) 
Heartbeat CPU 0 instructions: 218000003 cycles: 442078861 heartbeat IPC: 0.483716 cumulative IPC: 0.49142 (Simulation time: 0 hr 27 min 33 sec) 
Heartbeat CPU 0 instructions: 219000000 cycles: 443892817 heartbeat IPC: 0.55128 cumulative IPC: 0.491665 (Simulation time: 0 hr 27 min 40 sec) 
Heartbeat CPU 0 instructions: 220000000 cycles: 445704091 heartbeat IPC: 0.552098 cumulative IPC: 0.491911 (Simulation time: 0 hr 27 min 47 sec) 
Heartbeat CPU 0 instructions: 221000001 cycles: 447521670 heartbeat IPC: 0.550183 cumulative IPC: 0.492148 (Simulation time: 0 hr 27 min 55 sec) 
Heartbeat CPU 0 instructions: 222000000 cycles: 449369216 heartbeat IPC: 0.541258 cumulative IPC: 0.49235 (Simulation time: 0 hr 28 min 2 sec) 
Heartbeat CPU 0 instructions: 223000000 cycles: 451208017 heartbeat IPC: 0.543833 cumulative IPC: 0.49256 (Simulation time: 0 hr 28 min 10 sec) 
Heartbeat CPU 0 instructions: 224000000 cycles: 453031132 heartbeat IPC: 0.548512 cumulative IPC: 0.492785 (Simulation time: 0 hr 28 min 17 sec) 
Heartbeat CPU 0 instructions: 225000000 cycles: 454842130 heartbeat IPC: 0.552182 cumulative IPC: 0.493022 (Simulation time: 0 hr 28 min 25 sec) 
Heartbeat CPU 0 instructions: 226000001 cycles: 456660044 heartbeat IPC: 0.550082 cumulative IPC: 0.493249 (Simulation time: 0 hr 28 min 32 sec) 
Heartbeat CPU 0 instructions: 227000003 cycles: 458476351 heartbeat IPC: 0.550569 cumulative IPC: 0.493477 (Simulation time: 0 hr 28 min 39 sec) 
Heartbeat CPU 0 instructions: 228000001 cycles: 460314816 heartbeat IPC: 0.543931 cumulative IPC: 0.493678 (Simulation time: 0 hr 28 min 46 sec) 
Heartbeat CPU 0 instructions: 229000000 cycles: 462119813 heartbeat IPC: 0.554017 cumulative IPC: 0.493914 (Simulation time: 0 hr 28 min 53 sec) 
Heartbeat CPU 0 instructions: 230000002 cycles: 463925633 heartbeat IPC: 0.553766 cumulative IPC: 0.494148 (Simulation time: 0 hr 29 min 1 sec) 
Heartbeat CPU 0 instructions: 231000000 cycles: 465728320 heartbeat IPC: 0.554726 cumulative IPC: 0.494382 (Simulation time: 0 hr 29 min 9 sec) 
Heartbeat CPU 0 instructions: 232000002 cycles: 467532924 heartbeat IPC: 0.554139 cumulative IPC: 0.494613 (Simulation time: 0 hr 29 min 16 sec) 
Heartbeat CPU 0 instructions: 233000000 cycles: 469361474 heartbeat IPC: 0.54688 cumulative IPC: 0.494817 (Simulation time: 0 hr 29 min 23 sec) 
Heartbeat CPU 0 instructions: 234000003 cycles: 471195917 heartbeat IPC: 0.545126 cumulative IPC: 0.495013 (Simulation time: 0 hr 29 min 31 sec) 
Heartbeat CPU 0 instructions: 235000002 cycles: 473033815 heartbeat IPC: 0.544099 cumulative IPC: 0.495204 (Simulation time: 0 hr 29 min 38 sec) 
Heartbeat CPU 0 instructions: 236000003 cycles: 474851937 heartbeat IPC: 0.550019 cumulative IPC: 0.495414 (Simulation time: 0 hr 29 min 45 sec) 
Heartbeat CPU 0 instructions: 237000001 cycles: 476671401 heartbeat IPC: 0.549611 cumulative IPC: 0.495621 (Simulation time: 0 hr 29 min 52 sec) 
Heartbeat CPU 0 instructions: 238000002 cycles: 478499743 heartbeat IPC: 0.546944 cumulative IPC: 0.495818 (Simulation time: 0 hr 29 min 59 sec) 
Heartbeat CPU 0 instructions: 239000003 cycles: 480317327 heartbeat IPC: 0.550181 cumulative IPC: 0.496023 (Simulation time: 0 hr 30 min 6 sec) 
Heartbeat CPU 0 instructions: 240000001 cycles: 482194814 heartbeat IPC: 0.532626 cumulative IPC: 0.496166 (Simulation time: 0 hr 30 min 14 sec) 
Heartbeat CPU 0 instructions: 241000000 cycles: 484245426 heartbeat IPC: 0.487659 cumulative IPC: 0.49613 (Simulation time: 0 hr 30 min 21 sec) 
Heartbeat CPU 0 instructions: 242000000 cycles: 486473053 heartbeat IPC: 0.448908 cumulative IPC: 0.495914 (Simulation time: 0 hr 30 min 29 sec) 
Heartbeat CPU 0 instructions: 243000000 cycles: 488347524 heartbeat IPC: 0.533484 cumulative IPC: 0.496058 (Simulation time: 0 hr 30 min 36 sec) 
Heartbeat CPU 0 instructions: 244000000 cycles: 490148757 heartbeat IPC: 0.555175 cumulative IPC: 0.496275 (Simulation time: 0 hr 30 min 43 sec) 
Heartbeat CPU 0 instructions: 245000001 cycles: 491953605 heartbeat IPC: 0.554064 cumulative IPC: 0.496488 (Simulation time: 0 hr 30 min 50 sec) 
Heartbeat CPU 0 instructions: 246000000 cycles: 493769203 heartbeat IPC: 0.550782 cumulative IPC: 0.496688 (Simulation time: 0 hr 30 min 57 sec) 
Heartbeat CPU 0 instructions: 247000003 cycles: 495601883 heartbeat IPC: 0.545651 cumulative IPC: 0.496869 (Simulation time: 0 hr 31 min 4 sec) 
Heartbeat CPU 0 instructions: 248000002 cycles: 497437799 heartbeat IPC: 0.544687 cumulative IPC: 0.497045 (Simulation time: 0 hr 31 min 12 sec) 
Heartbeat CPU 0 instructions: 249000001 cycles: 499272480 heartbeat IPC: 0.545053 cumulative IPC: 0.497222 (Simulation time: 0 hr 31 min 19 sec) 
Heartbeat CPU 0 instructions: 250000003 cycles: 501079578 heartbeat IPC: 0.553375 cumulative IPC: 0.497425 (Simulation time: 0 hr 31 min 26 sec) 
Heartbeat CPU 0 instructions: 251000000 cycles: 502895291 heartbeat IPC: 0.550746 cumulative IPC: 0.497617 (Simulation time: 0 hr 31 min 33 sec) 
Heartbeat CPU 0 instructions: 252000001 cycles: 504721322 heartbeat IPC: 0.547636 cumulative IPC: 0.497799 (Simulation time: 0 hr 31 min 41 sec) 
Heartbeat CPU 0 instructions: 253000000 cycles: 506547719 heartbeat IPC: 0.547526 cumulative IPC: 0.497978 (Simulation time: 0 hr 31 min 48 sec) 
Heartbeat CPU 0 instructions: 254000000 cycles: 508347985 heartbeat IPC: 0.555473 cumulative IPC: 0.498182 (Simulation time: 0 hr 31 min 55 sec) 
Heartbeat CPU 0 instructions: 255000000 cycles: 510152818 heartbeat IPC: 0.554068 cumulative IPC: 0.49838 (Simulation time: 0 hr 32 min 2 sec) 
Heartbeat CPU 0 instructions: 256000000 cycles: 511953184 heartbeat IPC: 0.555443 cumulative IPC: 0.498581 (Simulation time: 0 hr 32 min 10 sec) 
Heartbeat CPU 0 instructions: 257000002 cycles: 513775430 heartbeat IPC: 0.548774 cumulative IPC: 0.498759 (Simulation time: 0 hr 32 min 17 sec) 
Heartbeat CPU 0 instructions: 258000000 cycles: 515606702 heartbeat IPC: 0.546067 cumulative IPC: 0.498927 (Simulation time: 0 hr 32 min 24 sec) 
Heartbeat CPU 0 instructions: 259000001 cycles: 517431939 heartbeat IPC: 0.547875 cumulative IPC: 0.4991 (Simulation time: 0 hr 32 min 32 sec) 
Heartbeat CPU 0 instructions: 260000000 cycles: 519258883 heartbeat IPC: 0.547362 cumulative IPC: 0.49927 (Simulation time: 0 hr 32 min 39 sec) 
Heartbeat CPU 0 instructions: 261000002 cycles: 521082643 heartbeat IPC: 0.548319 cumulative IPC: 0.499442 (Simulation time: 0 hr 32 min 46 sec) 
Heartbeat CPU 0 instructions: 262000001 cycles: 522907750 heartbeat IPC: 0.547913 cumulative IPC: 0.499611 (Simulation time: 0 hr 32 min 53 sec) 
Heartbeat CPU 0 instructions: 263000000 cycles: 524730186 heartbeat IPC: 0.548716 cumulative IPC: 0.499782 (Simulation time: 0 hr 33 min 0 sec) 
Heartbeat CPU 0 instructions: 264000000 cycles: 526538871 heartbeat IPC: 0.552888 cumulative IPC: 0.499964 (Simulation time: 0 hr 33 min 7 sec) 
Heartbeat CPU 0 instructions: 265000003 cycles: 528524171 heartbeat IPC: 0.503704 cumulative IPC: 0.499978 (Simulation time: 0 hr 33 min 13 sec) 
Heartbeat CPU 0 instructions: 266000000 cycles: 530502702 heartbeat IPC: 0.505424 cumulative IPC: 0.499999 (Simulation time: 0 hr 33 min 20 sec) 
Heartbeat CPU 0 instructions: 267000001 cycles: 532385297 heartbeat IPC: 0.531182 cumulative IPC: 0.500109 (Simulation time: 0 hr 33 min 27 sec) 
Heartbeat CPU 0 instructions: 268000001 cycles: 534195619 heartbeat IPC: 0.552388 cumulative IPC: 0.500286 (Simulation time: 0 hr 33 min 34 sec) 
Heartbeat CPU 0 instructions: 269000003 cycles: 536010443 heartbeat IPC: 0.551019 cumulative IPC: 0.500458 (Simulation time: 0 hr 33 min 41 sec) 
Heartbeat CPU 0 instructions: 270000000 cycles: 537833857 heartbeat IPC: 0.54842 cumulative IPC: 0.500621 (Simulation time: 0 hr 33 min 48 sec) 
Heartbeat CPU 0 instructions: 271000000 cycles: 539684510 heartbeat IPC: 0.54035 cumulative IPC: 0.500757 (Simulation time: 0 hr 33 min 56 sec) 
Heartbeat CPU 0 instructions: 272000000 cycles: 541543287 heartbeat IPC: 0.537988 cumulative IPC: 0.500885 (Simulation time: 0 hr 34 min 3 sec) 
Heartbeat CPU 0 instructions: 273000003 cycles: 543375811 heartbeat IPC: 0.545697 cumulative IPC: 0.501037 (Simulation time: 0 hr 34 min 9 sec) 
Heartbeat CPU 0 instructions: 274000000 cycles: 545204567 heartbeat IPC: 0.546818 cumulative IPC: 0.50119 (Simulation time: 0 hr 34 min 17 sec) 
Heartbeat CPU 0 instructions: 275000000 cycles: 547009452 heartbeat IPC: 0.554052 cumulative IPC: 0.501365 (Simulation time: 0 hr 34 min 23 sec) 
Heartbeat CPU 0 instructions: 276000001 cycles: 548821634 heartbeat IPC: 0.551822 cumulative IPC: 0.501532 (Simulation time: 0 hr 34 min 30 sec) 
Heartbeat CPU 0 instructions: 277000003 cycles: 550643212 heartbeat IPC: 0.548976 cumulative IPC: 0.501689 (Simulation time: 0 hr 34 min 37 sec) 
Heartbeat CPU 0 instructions: 278000000 cycles: 552458959 heartbeat IPC: 0.550736 cumulative IPC: 0.50185 (Simulation time: 0 hr 34 min 44 sec) 
Heartbeat CPU 0 instructions: 279000000 cycles: 554253318 heartbeat IPC: 0.557302 cumulative IPC: 0.50203 (Simulation time: 0 hr 34 min 51 sec) 
Heartbeat CPU 0 instructions: 280000001 cycles: 556054765 heartbeat IPC: 0.55511 cumulative IPC: 0.502202 (Simulation time: 0 hr 34 min 58 sec) 
Heartbeat CPU 0 instructions: 281000001 cycles: 557852438 heartbeat IPC: 0.556275 cumulative IPC: 0.502376 (Simulation time: 0 hr 35 min 5 sec) 
Heartbeat CPU 0 instructions: 282000001 cycles: 559673538 heartbeat IPC: 0.549119 cumulative IPC: 0.502529 (Simulation time: 0 hr 35 min 12 sec) 
Heartbeat CPU 0 instructions: 283000000 cycles: 561503372 heartbeat IPC: 0.546497 cumulative IPC: 0.502672 (Simulation time: 0 hr 35 min 19 sec) 
Heartbeat CPU 0 instructions: 284000003 cycles: 563326101 heartbeat IPC: 0.54863 cumulative IPC: 0.502821 (Simulation time: 0 hr 35 min 27 sec) 
Heartbeat CPU 0 instructions: 285000001 cycles: 565151511 heartbeat IPC: 0.547821 cumulative IPC: 0.502966 (Simulation time: 0 hr 35 min 34 sec) 
Heartbeat CPU 0 instructions: 286000000 cycles: 566965447 heartbeat IPC: 0.551287 cumulative IPC: 0.503121 (Simulation time: 0 hr 35 min 41 sec) 
Heartbeat CPU 0 instructions: 287000002 cycles: 568787728 heartbeat IPC: 0.548764 cumulative IPC: 0.503267 (Simulation time: 0 hr 35 min 48 sec) 
Heartbeat CPU 0 instructions: 288000001 cycles: 570610755 heartbeat IPC: 0.548538 cumulative IPC: 0.503412 (Simulation time: 0 hr 35 min 55 sec) 
Heartbeat CPU 0 instructions: 289000003 cycles: 572418690 heartbeat IPC: 0.553118 cumulative IPC: 0.503569 (Simulation time: 0 hr 36 min 3 sec) 
Heartbeat CPU 0 instructions: 290000002 cycles: 574264371 heartbeat IPC: 0.541805 cumulative IPC: 0.503692 (Simulation time: 0 hr 36 min 11 sec) 
Heartbeat CPU 0 instructions: 291000003 cycles: 576119050 heartbeat IPC: 0.539177 cumulative IPC: 0.503807 (Simulation time: 0 hr 36 min 18 sec) 
Heartbeat CPU 0 instructions: 292000000 cycles: 577946024 heartbeat IPC: 0.547352 cumulative IPC: 0.503944 (Simulation time: 0 hr 36 min 26 sec) 
Heartbeat CPU 0 instructions: 293000000 cycles: 579770840 heartbeat IPC: 0.548 cumulative IPC: 0.504083 (Simulation time: 0 hr 36 min 34 sec) 
Heartbeat CPU 0 instructions: 294000000 cycles: 581581712 heartbeat IPC: 0.55222 cumulative IPC: 0.504233 (Simulation time: 0 hr 36 min 42 sec) 
Heartbeat CPU 0 instructions: 295000001 cycles: 583450358 heartbeat IPC: 0.535147 cumulative IPC: 0.504332 (Simulation time: 0 hr 36 min 50 sec) 
Heartbeat CPU 0 instructions: 296000000 cycles: 585335450 heartbeat IPC: 0.530478 cumulative IPC: 0.504417 (Simulation time: 0 hr 36 min 57 sec) 
Heartbeat CPU 0 instructions: 297000000 cycles: 587288093 heartbeat IPC: 0.512126 cumulative IPC: 0.504442 (Simulation time: 0 hr 37 min 4 sec) 
Heartbeat CPU 0 instructions: 298000000 cycles: 589108566 heartbeat IPC: 0.549308 cumulative IPC: 0.504581 (Simulation time: 0 hr 37 min 12 sec) 
Heartbeat CPU 0 instructions: 299000001 cycles: 590924422 heartbeat IPC: 0.550705 cumulative IPC: 0.504723 (Simulation time: 0 hr 37 min 19 sec) 
Heartbeat CPU 0 instructions: 300000003 cycles: 592744640 heartbeat IPC: 0.549386 cumulative IPC: 0.50486 (Simulation time: 0 hr 37 min 26 sec) 
Heartbeat CPU 0 instructions: 301000001 cycles: 594572365 heartbeat IPC: 0.547127 cumulative IPC: 0.50499 (Simulation time: 0 hr 37 min 34 sec) 
Heartbeat CPU 0 instructions: 302000000 cycles: 596403518 heartbeat IPC: 0.546103 cumulative IPC: 0.505116 (Simulation time: 0 hr 37 min 41 sec) 
Heartbeat CPU 0 instructions: 303000002 cycles: 598231317 heartbeat IPC: 0.547107 cumulative IPC: 0.505245 (Simulation time: 0 hr 37 min 48 sec) 
Heartbeat CPU 0 instructions: 304000003 cycles: 600040143 heartbeat IPC: 0.552845 cumulative IPC: 0.505388 (Simulation time: 0 hr 37 min 56 sec) 
Heartbeat CPU 0 instructions: 305000000 cycles: 601857793 heartbeat IPC: 0.550159 cumulative IPC: 0.505524 (Simulation time: 0 hr 38 min 3 sec) 
Heartbeat CPU 0 instructions: 306000000 cycles: 603678136 heartbeat IPC: 0.549347 cumulative IPC: 0.505656 (Simulation time: 0 hr 38 min 10 sec) 
Heartbeat CPU 0 instructions: 307000002 cycles: 605503683 heartbeat IPC: 0.547782 cumulative IPC: 0.505783 (Simulation time: 0 hr 38 min 18 sec) 
Heartbeat CPU 0 instructions: 308000000 cycles: 607298730 heartbeat IPC: 0.557087 cumulative IPC: 0.505935 (Simulation time: 0 hr 38 min 26 sec) 
Heartbeat CPU 0 instructions: 309000001 cycles: 609107229 heartbeat IPC: 0.552945 cumulative IPC: 0.506075 (Simulation time: 0 hr 38 min 33 sec) 
Heartbeat CPU 0 instructions: 310000000 cycles: 610911671 heartbeat IPC: 0.554187 cumulative IPC: 0.506217 (Simulation time: 0 hr 38 min 40 sec) 
Heartbeat CPU 0 instructions: 311000001 cycles: 612724586 heartbeat IPC: 0.551598 cumulative IPC: 0.506351 (Simulation time: 0 hr 38 min 46 sec) 
Heartbeat CPU 0 instructions: 312000000 cycles: 614545060 heartbeat IPC: 0.549307 cumulative IPC: 0.506479 (Simulation time: 0 hr 38 min 53 sec) 
Heartbeat CPU 0 instructions: 313000000 cycles: 616386784 heartbeat IPC: 0.54297 cumulative IPC: 0.506588 (Simulation time: 0 hr 39 min 0 sec) 
Heartbeat CPU 0 instructions: 314000003 cycles: 618217080 heartbeat IPC: 0.546361 cumulative IPC: 0.506706 (Simulation time: 0 hr 39 min 8 sec) 
Heartbeat CPU 0 instructions: 315000001 cycles: 620037151 heartbeat IPC: 0.549428 cumulative IPC: 0.506831 (Simulation time: 0 hr 39 min 14 sec) 
Heartbeat CPU 0 instructions: 316000001 cycles: 621862266 heartbeat IPC: 0.547911 cumulative IPC: 0.506952 (Simulation time: 0 hr 39 min 21 sec) 
Heartbeat CPU 0 instructions: 317000000 cycles: 623692896 heartbeat IPC: 0.546259 cumulative IPC: 0.507067 (Simulation time: 0 hr 39 min 28 sec) 
Heartbeat CPU 0 instructions: 318000000 cycles: 625500610 heartbeat IPC: 0.553185 cumulative IPC: 0.507201 (Simulation time: 0 hr 39 min 35 sec) 
Heartbeat CPU 0 instructions: 319000000 cycles: 627370682 heartbeat IPC: 0.534739 cumulative IPC: 0.507283 (Simulation time: 0 hr 39 min 42 sec) 
Heartbeat CPU 0 instructions: 320000001 cycles: 629255730 heartbeat IPC: 0.530491 cumulative IPC: 0.507352 (Simulation time: 0 hr 39 min 49 sec) 
Heartbeat CPU 0 instructions: 321000000 cycles: 631122429 heartbeat IPC: 0.535704 cumulative IPC: 0.507436 (Simulation time: 0 hr 39 min 56 sec) 
Heartbeat CPU 0 instructions: 322000002 cycles: 632983743 heartbeat IPC: 0.537256 cumulative IPC: 0.507524 (Simulation time: 0 hr 40 min 3 sec) 
Heartbeat CPU 0 instructions: 323000000 cycles: 634900638 heartbeat IPC: 0.521676 cumulative IPC: 0.507567 (Simulation time: 0 hr 40 min 10 sec) 
Heartbeat CPU 0 instructions: 324000001 cycles: 636719808 heartbeat IPC: 0.549702 cumulative IPC: 0.507687 (Simulation time: 0 hr 40 min 17 sec) 
Heartbeat CPU 0 instructions: 325000001 cycles: 638529049 heartbeat IPC: 0.552718 cumulative IPC: 0.507815 (Simulation time: 0 hr 40 min 24 sec) 
Heartbeat CPU 0 instructions: 326000000 cycles: 640346047 heartbeat IPC: 0.550358 cumulative IPC: 0.507936 (Simulation time: 0 hr 40 min 31 sec) 
Heartbeat CPU 0 instructions: 327000000 cycles: 642321444 heartbeat IPC: 0.506227 cumulative IPC: 0.50793 (Simulation time: 0 hr 40 min 38 sec) 
Heartbeat CPU 0 instructions: 328000003 cycles: 644141713 heartbeat IPC: 0.549371 cumulative IPC: 0.508048 (Simulation time: 0 hr 40 min 45 sec) 
Heartbeat CPU 0 instructions: 329000003 cycles: 645953212 heartbeat IPC: 0.552029 cumulative IPC: 0.508171 (Simulation time: 0 hr 40 min 52 sec) 
Heartbeat CPU 0 instructions: 330000000 cycles: 647775925 heartbeat IPC: 0.548631 cumulative IPC: 0.508285 (Simulation time: 0 hr 40 min 59 sec) 
Heartbeat CPU 0 instructions: 331000000 cycles: 649611111 heartbeat IPC: 0.544904 cumulative IPC: 0.508389 (Simulation time: 0 hr 41 min 5 sec) 
Heartbeat CPU 0 instructions: 332000000 cycles: 651447952 heartbeat IPC: 0.544413 cumulative IPC: 0.50849 (Simulation time: 0 hr 41 min 12 sec) 
Heartbeat CPU 0 instructions: 333000000 cycles: 653282052 heartbeat IPC: 0.545227 cumulative IPC: 0.508593 (Simulation time: 0 hr 41 min 19 sec) 
Heartbeat CPU 0 instructions: 334000001 cycles: 655091205 heartbeat IPC: 0.552745 cumulative IPC: 0.508715 (Simulation time: 0 hr 41 min 26 sec) 
Heartbeat CPU 0 instructions: 335000002 cycles: 656909171 heartbeat IPC: 0.550066 cumulative IPC: 0.50883 (Simulation time: 0 hr 41 min 33 sec) 
Heartbeat CPU 0 instructions: 336000001 cycles: 658738822 heartbeat IPC: 0.546552 cumulative IPC: 0.508935 (Simulation time: 0 hr 41 min 39 sec) 
Heartbeat CPU 0 instructions: 337000000 cycles: 660564178 heartbeat IPC: 0.547838 cumulative IPC: 0.509042 (Simulation time: 0 hr 41 min 46 sec) 
Heartbeat CPU 0 instructions: 338000001 cycles: 662362831 heartbeat IPC: 0.555972 cumulative IPC: 0.50917 (Simulation time: 0 hr 41 min 53 sec) 
Heartbeat CPU 0 instructions: 339000002 cycles: 664167136 heartbeat IPC: 0.554231 cumulative IPC: 0.509292 (Simulation time: 0 hr 42 min 0 sec) 
Heartbeat CPU 0 instructions: 340000002 cycles: 665971597 heartbeat IPC: 0.554182 cumulative IPC: 0.509414 (Simulation time: 0 hr 42 min 7 sec) 
Heartbeat CPU 0 instructions: 341000000 cycles: 667799478 heartbeat IPC: 0.54708 cumulative IPC: 0.509517 (Simulation time: 0 hr 42 min 13 sec) 
Heartbeat CPU 0 instructions: 342000000 cycles: 669633733 heartbeat IPC: 0.54518 cumulative IPC: 0.509615 (Simulation time: 0 hr 42 min 20 sec) 
Heartbeat CPU 0 instructions: 343000000 cycles: 671459704 heartbeat IPC: 0.547654 cumulative IPC: 0.509719 (Simulation time: 0 hr 42 min 27 sec) 
Heartbeat CPU 0 instructions: 344000003 cycles: 673291697 heartbeat IPC: 0.545855 cumulative IPC: 0.509817 (Simulation time: 0 hr 42 min 34 sec) 
Heartbeat CPU 0 instructions: 345000003 cycles: 675110782 heartbeat IPC: 0.549727 cumulative IPC: 0.509925 (Simulation time: 0 hr 42 min 41 sec) 
Heartbeat CPU 0 instructions: 346000000 cycles: 676945207 heartbeat IPC: 0.545128 cumulative IPC: 0.51002 (Simulation time: 0 hr 42 min 48 sec) 
Heartbeat CPU 0 instructions: 347000000 cycles: 678767628 heartbeat IPC: 0.548721 cumulative IPC: 0.510124 (Simulation time: 0 hr 42 min 55 sec) 
Heartbeat CPU 0 instructions: 348000001 cycles: 680580780 heartbeat IPC: 0.551526 cumulative IPC: 0.510234 (Simulation time: 0 hr 43 min 2 sec) 
Heartbeat CPU 0 instructions: 349000000 cycles: 682460812 heartbeat IPC: 0.531905 cumulative IPC: 0.510294 (Simulation time: 0 hr 43 min 8 sec) 
Heartbeat CPU 0 instructions: 350000000 cycles: 684345624 heartbeat IPC: 0.530557 cumulative IPC: 0.51035 (Simulation time: 0 hr 43 min 15 sec) 
Heartbeat CPU 0 instructions: 351000000 cycles: 686199933 heartbeat IPC: 0.539284 cumulative IPC: 0.510428 (Simulation time: 0 hr 43 min 22 sec) 
Heartbeat CPU 0 instructions: 352000000 cycles: 688082242 heartbeat IPC: 0.531262 cumulative IPC: 0.510485 (Simulation time: 0 hr 43 min 29 sec) 
Heartbeat CPU 0 instructions: 353000001 cycles: 689978823 heartbeat IPC: 0.527265 cumulative IPC: 0.510531 (Simulation time: 0 hr 43 min 36 sec) 
Heartbeat CPU 0 instructions: 354000000 cycles: 691788246 heartbeat IPC: 0.552662 cumulative IPC: 0.510642 (Simulation time: 0 hr 43 min 43 sec) 
Heartbeat CPU 0 instructions: 355000001 cycles: 693603427 heartbeat IPC: 0.55091 cumulative IPC: 0.510747 (Simulation time: 0 hr 43 min 50 sec) 
Heartbeat CPU 0 instructions: 356000003 cycles: 695468508 heartbeat IPC: 0.536171 cumulative IPC: 0.510816 (Simulation time: 0 hr 43 min 57 sec) 
Heartbeat CPU 0 instructions: 357000002 cycles: 697454848 heartbeat IPC: 0.503438 cumulative IPC: 0.510794 (Simulation time: 0 hr 44 min 4 sec) 
Heartbeat CPU 0 instructions: 358000000 cycles: 699269611 heartbeat IPC: 0.551035 cumulative IPC: 0.510899 (Simulation time: 0 hr 44 min 11 sec) 
Heartbeat CPU 0 instructions: 359000000 cycles: 701083251 heartbeat IPC: 0.551377 cumulative IPC: 0.511004 (Simulation time: 0 hr 44 min 18 sec) 
Heartbeat CPU 0 instructions: 360000000 cycles: 702916121 heartbeat IPC: 0.545592 cumulative IPC: 0.511094 (Simulation time: 0 hr 44 min 25 sec) 
Heartbeat CPU 0 instructions: 361000001 cycles: 704752810 heartbeat IPC: 0.544459 cumulative IPC: 0.511181 (Simulation time: 0 hr 44 min 32 sec) 
Heartbeat CPU 0 instructions: 362000001 cycles: 706600149 heartbeat IPC: 0.541319 cumulative IPC: 0.51126 (Simulation time: 0 hr 44 min 39 sec) 
Heartbeat CPU 0 instructions: 363000000 cycles: 708440442 heartbeat IPC: 0.543391 cumulative IPC: 0.511343 (Simulation time: 0 hr 44 min 47 sec) 
Heartbeat CPU 0 instructions: 364000000 cycles: 710251026 heartbeat IPC: 0.552308 cumulative IPC: 0.511448 (Simulation time: 0 hr 44 min 54 sec) 
Heartbeat CPU 0 instructions: 365000003 cycles: 712068570 heartbeat IPC: 0.550195 cumulative IPC: 0.511547 (Simulation time: 0 hr 45 min 1 sec) 
Heartbeat CPU 0 instructions: 366000000 cycles: 713896909 heartbeat IPC: 0.546943 cumulative IPC: 0.511638 (Simulation time: 0 hr 45 min 8 sec) 
Heartbeat CPU 0 instructions: 367000003 cycles: 715723011 heartbeat IPC: 0.547616 cumulative IPC: 0.511729 (Simulation time: 0 hr 45 min 16 sec) 
Heartbeat CPU 0 instructions: 368000002 cycles: 717520471 heartbeat IPC: 0.55634 cumulative IPC: 0.511841 (Simulation time: 0 hr 45 min 23 sec) 
Heartbeat CPU 0 instructions: 369000002 cycles: 719330142 heartbeat IPC: 0.552587 cumulative IPC: 0.511944 (Simulation time: 0 hr 45 min 30 sec) 
Heartbeat CPU 0 instructions: 370000000 cycles: 721138573 heartbeat IPC: 0.552964 cumulative IPC: 0.512047 (Simulation time: 0 hr 45 min 37 sec) 
Heartbeat CPU 0 instructions: 371000000 cycles: 722961727 heartbeat IPC: 0.5485 cumulative IPC: 0.512139 (Simulation time: 0 hr 45 min 44 sec) 
Heartbeat CPU 0 instructions: 372000001 cycles: 724792079 heartbeat IPC: 0.546344 cumulative IPC: 0.512225 (Simulation time: 0 hr 45 min 51 sec) 
Heartbeat CPU 0 instructions: 373000000 cycles: 726617812 heartbeat IPC: 0.547725 cumulative IPC: 0.512314 (Simulation time: 0 hr 45 min 58 sec) 
Heartbeat CPU 0 instructions: 374000000 cycles: 728448560 heartbeat IPC: 0.546225 cumulative IPC: 0.5124 (Simulation time: 0 hr 46 min 5 sec) 
Heartbeat CPU 0 instructions: 375000001 cycles: 730269503 heartbeat IPC: 0.549167 cumulative IPC: 0.512492 (Simulation time: 0 hr 46 min 12 sec) 
Heartbeat CPU 0 instructions: 376000002 cycles: 732098213 heartbeat IPC: 0.546834 cumulative IPC: 0.512577 (Simulation time: 0 hr 46 min 19 sec) 
Heartbeat CPU 0 instructions: 377000002 cycles: 733926758 heartbeat IPC: 0.546883 cumulative IPC: 0.512663 (Simulation time: 0 hr 46 min 26 sec) 
Heartbeat CPU 0 instructions: 378000002 cycles: 735737432 heartbeat IPC: 0.552281 cumulative IPC: 0.51276 (Simulation time: 0 hr 46 min 33 sec) 
Heartbeat CPU 0 instructions: 379000000 cycles: 737621909 heartbeat IPC: 0.53065 cumulative IPC: 0.512806 (Simulation time: 0 hr 46 min 40 sec) 
Heartbeat CPU 0 instructions: 380000003 cycles: 739553236 heartbeat IPC: 0.51778 cumulative IPC: 0.512819 (Simulation time: 0 hr 46 min 47 sec) 
Heartbeat CPU 0 instructions: 381000001 cycles: 741445274 heartbeat IPC: 0.52853 cumulative IPC: 0.512859 (Simulation time: 0 hr 46 min 54 sec) 
Heartbeat CPU 0 instructions: 382000001 cycles: 743346423 heartbeat IPC: 0.525998 cumulative IPC: 0.512893 (Simulation time: 0 hr 47 min 0 sec) 
Heartbeat CPU 0 instructions: 383000000 cycles: 745185447 heartbeat IPC: 0.543766 cumulative IPC: 0.512969 (Simulation time: 0 hr 47 min 7 sec) 
Heartbeat CPU 0 instructions: 384000001 cycles: 747067682 heartbeat IPC: 0.531284 cumulative IPC: 0.513015 (Simulation time: 0 hr 47 min 15 sec) 
Heartbeat CPU 0 instructions: 385000000 cycles: 749083040 heartbeat IPC: 0.496189 cumulative IPC: 0.51297 (Simulation time: 0 hr 47 min 22 sec) 
Heartbeat CPU 0 instructions: 386000000 cycles: 750878153 heartbeat IPC: 0.557068 cumulative IPC: 0.513076 (Simulation time: 0 hr 47 min 29 sec) 
Heartbeat CPU 0 instructions: 387000000 cycles: 752619686 heartbeat IPC: 0.574207 cumulative IPC: 0.513217 (Simulation time: 0 hr 47 min 37 sec) 
Heartbeat CPU 0 instructions: 388000002 cycles: 754439088 heartbeat IPC: 0.549632 cumulative IPC: 0.513305 (Simulation time: 0 hr 47 min 44 sec) 
Heartbeat CPU 0 instructions: 389000002 cycles: 756288554 heartbeat IPC: 0.540697 cumulative IPC: 0.513372 (Simulation time: 0 hr 47 min 52 sec) 
Heartbeat CPU 0 instructions: 390000000 cycles: 758152287 heartbeat IPC: 0.536556 cumulative IPC: 0.513429 (Simulation time: 0 hr 48 min 0 sec) 
Heartbeat CPU 0 instructions: 391000001 cycles: 760009873 heartbeat IPC: 0.538334 cumulative IPC: 0.51349 (Simulation time: 0 hr 48 min 8 sec) 
Heartbeat CPU 0 instructions: 392000000 cycles: 761828539 heartbeat IPC: 0.549853 cumulative IPC: 0.513577 (Simulation time: 0 hr 48 min 16 sec) 
Heartbeat CPU 0 instructions: 393000001 cycles: 763657329 heartbeat IPC: 0.54681 cumulative IPC: 0.513656 (Simulation time: 0 hr 48 min 24 sec) 
Heartbeat CPU 0 instructions: 394000002 cycles: 765460974 heartbeat IPC: 0.554433 cumulative IPC: 0.513753 (Simulation time: 0 hr 48 min 32 sec) 
Heartbeat CPU 0 instructions: 395000002 cycles: 767272305 heartbeat IPC: 0.55208 cumulative IPC: 0.513843 (Simulation time: 0 hr 48 min 39 sec) 
Heartbeat CPU 0 instructions: 396000000 cycles: 769104704 heartbeat IPC: 0.545732 cumulative IPC: 0.513919 (Simulation time: 0 hr 48 min 47 sec) 
Heartbeat CPU 0 instructions: 397000000 cycles: 770914392 heartbeat IPC: 0.552581 cumulative IPC: 0.51401 (Simulation time: 0 hr 48 min 54 sec) 
Heartbeat CPU 0 instructions: 398000003 cycles: 772711467 heartbeat IPC: 0.556461 cumulative IPC: 0.514109 (Simulation time: 0 hr 49 min 1 sec) 
Heartbeat CPU 0 instructions: 399000002 cycles: 774515503 heartbeat IPC: 0.554312 cumulative IPC: 0.514202 (Simulation time: 0 hr 49 min 9 sec) 
Heartbeat CPU 0 instructions: 400000002 cycles: 776314881 heartbeat IPC: 0.555748 cumulative IPC: 0.514299 (Simulation time: 0 hr 49 min 16 sec) 
Heartbeat CPU 0 instructions: 401000001 cycles: 778138030 heartbeat IPC: 0.548501 cumulative IPC: 0.514379 (Simulation time: 0 hr 49 min 23 sec) 
Heartbeat CPU 0 instructions: 402000002 cycles: 779966842 heartbeat IPC: 0.546804 cumulative IPC: 0.514455 (Simulation time: 0 hr 49 min 31 sec) 
Heartbeat CPU 0 instructions: 403000001 cycles: 781789650 heartbeat IPC: 0.548604 cumulative IPC: 0.514535 (Simulation time: 0 hr 49 min 38 sec) 
Heartbeat CPU 0 instructions: 404000000 cycles: 783611119 heartbeat IPC: 0.549007 cumulative IPC: 0.514615 (Simulation time: 0 hr 49 min 45 sec) 
Heartbeat CPU 0 instructions: 405000000 cycles: 785423215 heartbeat IPC: 0.551847 cumulative IPC: 0.514701 (Simulation time: 0 hr 49 min 52 sec) 
Heartbeat CPU 0 instructions: 406000001 cycles: 787249647 heartbeat IPC: 0.547516 cumulative IPC: 0.514777 (Simulation time: 0 hr 50 min 0 sec) 
Heartbeat CPU 0 instructions: 407000000 cycles: 789069515 heartbeat IPC: 0.54949 cumulative IPC: 0.514857 (Simulation time: 0 hr 50 min 7 sec) 
Heartbeat CPU 0 instructions: 408000000 cycles: 790877528 heartbeat IPC: 0.553093 cumulative IPC: 0.514945 (Simulation time: 0 hr 50 min 14 sec) 
Heartbeat CPU 0 instructions: 409000001 cycles: 792721354 heartbeat IPC: 0.542351 cumulative IPC: 0.515008 (Simulation time: 0 hr 50 min 21 sec) 
Heartbeat CPU 0 instructions: 410000002 cycles: 794574811 heartbeat IPC: 0.539533 cumulative IPC: 0.515066 (Simulation time: 0 hr 50 min 29 sec) 
Heartbeat CPU 0 instructions: 411000000 cycles: 796404720 heartbeat IPC: 0.546474 cumulative IPC: 0.515138 (Simulation time: 0 hr 50 min 36 sec) 
Heartbeat CPU 0 instructions: 412000000 cycles: 798216701 heartbeat IPC: 0.551882 cumulative IPC: 0.515221 (Simulation time: 0 hr 50 min 43 sec) 
Heartbeat CPU 0 instructions: 413000000 cycles: 800030827 heartbeat IPC: 0.55123 cumulative IPC: 0.515303 (Simulation time: 0 hr 50 min 51 sec) 
Heartbeat CPU 0 instructions: 414000000 cycles: 801901159 heartbeat IPC: 0.534664 cumulative IPC: 0.515348 (Simulation time: 0 hr 50 min 58 sec) 
Heartbeat CPU 0 instructions: 415000000 cycles: 803785002 heartbeat IPC: 0.53083 cumulative IPC: 0.515385 (Simulation time: 0 hr 51 min 6 sec) 
Heartbeat CPU 0 instructions: 416000002 cycles: 807445894 heartbeat IPC: 0.273158 cumulative IPC: 0.514286 (Simulation time: 0 hr 51 min 13 sec) 
Heartbeat CPU 0 instructions: 417000002 cycles: 809338295 heartbeat IPC: 0.528429 cumulative IPC: 0.514319 (Simulation time: 0 hr 51 min 20 sec) 
Heartbeat CPU 0 instructions: 418000000 cycles: 811147796 heartbeat IPC: 0.552637 cumulative IPC: 0.514404 (Simulation time: 0 hr 51 min 27 sec) 
Heartbeat CPU 0 instructions: 419000000 cycles: 812958551 heartbeat IPC: 0.552256 cumulative IPC: 0.514489 (Simulation time: 0 hr 51 min 34 sec) 
Heartbeat CPU 0 instructions: 420000000 cycles: 814807967 heartbeat IPC: 0.540711 cumulative IPC: 0.514548 (Simulation time: 0 hr 51 min 41 sec) 
Heartbeat CPU 0 instructions: 421000000 cycles: 816652034 heartbeat IPC: 0.54228 cumulative IPC: 0.514611 (Simulation time: 0 hr 51 min 48 sec) 
Heartbeat CPU 0 instructions: 422000003 cycles: 818491797 heartbeat IPC: 0.54355 cumulative IPC: 0.514676 (Simulation time: 0 hr 51 min 55 sec) 
Heartbeat CPU 0 instructions: 423000000 cycles: 820323376 heartbeat IPC: 0.545975 cumulative IPC: 0.514746 (Simulation time: 0 hr 52 min 2 sec) 
Heartbeat CPU 0 instructions: 424000001 cycles: 822128680 heartbeat IPC: 0.553924 cumulative IPC: 0.514832 (Simulation time: 0 hr 52 min 9 sec) 
Heartbeat CPU 0 instructions: 425000002 cycles: 823946920 heartbeat IPC: 0.549983 cumulative IPC: 0.51491 (Simulation time: 0 hr 52 min 16 sec) 
Heartbeat CPU 0 instructions: 426000003 cycles: 825771283 heartbeat IPC: 0.548137 cumulative IPC: 0.514983 (Simulation time: 0 hr 52 min 23 sec) 
Heartbeat CPU 0 instructions: 427000002 cycles: 827597574 heartbeat IPC: 0.547557 cumulative IPC: 0.515055 (Simulation time: 0 hr 52 min 29 sec) 
Heartbeat CPU 0 instructions: 428000000 cycles: 829396670 heartbeat IPC: 0.555834 cumulative IPC: 0.515143 (Simulation time: 0 hr 52 min 37 sec) 
Heartbeat CPU 0 instructions: 429000000 cycles: 831204632 heartbeat IPC: 0.553109 cumulative IPC: 0.515226 (Simulation time: 0 hr 52 min 44 sec) 
Heartbeat CPU 0 instructions: 430000001 cycles: 833011179 heartbeat IPC: 0.553543 cumulative IPC: 0.515309 (Simulation time: 0 hr 52 min 51 sec) 
Heartbeat CPU 0 instructions: 431000003 cycles: 834830554 heartbeat IPC: 0.54964 cumulative IPC: 0.515384 (Simulation time: 0 hr 52 min 58 sec) 
Heartbeat CPU 0 instructions: 432000001 cycles: 836660814 heartbeat IPC: 0.546369 cumulative IPC: 0.515452 (Simulation time: 0 hr 53 min 6 sec) 
Heartbeat CPU 0 instructions: 433000003 cycles: 838491141 heartbeat IPC: 0.546352 cumulative IPC: 0.515519 (Simulation time: 0 hr 53 min 13 sec) 
Heartbeat CPU 0 instructions: 434000000 cycles: 840325832 heartbeat IPC: 0.545049 cumulative IPC: 0.515584 (Simulation time: 0 hr 53 min 20 sec) 
Heartbeat CPU 0 instructions: 435000000 cycles: 842140120 heartbeat IPC: 0.55118 cumulative IPC: 0.515661 (Simulation time: 0 hr 53 min 27 sec) 
Heartbeat CPU 0 instructions: 436000002 cycles: 843968911 heartbeat IPC: 0.54681 cumulative IPC: 0.515728 (Simulation time: 0 hr 53 min 34 sec) 
Heartbeat CPU 0 instructions: 437000000 cycles: 845795552 heartbeat IPC: 0.547452 cumulative IPC: 0.515797 (Simulation time: 0 hr 53 min 41 sec) 
Heartbeat CPU 0 instructions: 438000000 cycles: 847609194 heartbeat IPC: 0.551377 cumulative IPC: 0.515873 (Simulation time: 0 hr 53 min 49 sec) 
Heartbeat CPU 0 instructions: 439000000 cycles: 849482279 heartbeat IPC: 0.533879 cumulative IPC: 0.515913 (Simulation time: 0 hr 53 min 56 sec) 
Heartbeat CPU 0 instructions: 440000000 cycles: 851370432 heartbeat IPC: 0.529618 cumulative IPC: 0.515943 (Simulation time: 0 hr 54 min 3 sec) 
Heartbeat CPU 0 instructions: 441000000 cycles: 853230207 heartbeat IPC: 0.537699 cumulative IPC: 0.51599 (Simulation time: 0 hr 54 min 10 sec) 
Heartbeat CPU 0 instructions: 442000003 cycles: 855111308 heartbeat IPC: 0.531605 cumulative IPC: 0.516025 (Simulation time: 0 hr 54 min 17 sec) 
Heartbeat CPU 0 instructions: 443000003 cycles: 857009816 heartbeat IPC: 0.526729 cumulative IPC: 0.516049 (Simulation time: 0 hr 54 min 24 sec) 
Heartbeat CPU 0 instructions: 444000001 cycles: 858821548 heartbeat IPC: 0.551957 cumulative IPC: 0.516124 (Simulation time: 0 hr 54 min 32 sec) 
Heartbeat CPU 0 instructions: 445000002 cycles: 860635066 heartbeat IPC: 0.551415 cumulative IPC: 0.516199 (Simulation time: 0 hr 54 min 39 sec) 
Heartbeat CPU 0 instructions: 446000000 cycles: 862498404 heartbeat IPC: 0.53667 cumulative IPC: 0.516243 (Simulation time: 0 hr 54 min 46 sec) 
Heartbeat CPU 0 instructions: 447000002 cycles: 864477539 heartbeat IPC: 0.505272 cumulative IPC: 0.516218 (Simulation time: 0 hr 54 min 53 sec) 
Heartbeat CPU 0 instructions: 448000003 cycles: 866286896 heartbeat IPC: 0.552683 cumulative IPC: 0.516294 (Simulation time: 0 hr 55 min 0 sec) 
Heartbeat CPU 0 instructions: 449000002 cycles: 868095855 heartbeat IPC: 0.552804 cumulative IPC: 0.51637 (Simulation time: 0 hr 55 min 7 sec) 
Heartbeat CPU 0 instructions: 450000002 cycles: 869928864 heartbeat IPC: 0.545551 cumulative IPC: 0.516432 (Simulation time: 0 hr 55 min 14 sec) 

Warmup complete CPU 0 instructions: 450000002 cycles: 869928864 (Simulation time: 0 hr 55 min 14 sec) 

Heartbeat CPU 0 instructions: 451000000 cycles: 871752482 heartbeat IPC: 0.548359 cumulative IPC: 0.548359 (Simulation time: 0 hr 55 min 21 sec) 
Heartbeat CPU 0 instructions: 452000000 cycles: 873582189 heartbeat IPC: 0.546536 cumulative IPC: 0.547446 (Simulation time: 0 hr 55 min 28 sec) 
Heartbeat CPU 0 instructions: 453000001 cycles: 875418900 heartbeat IPC: 0.544452 cumulative IPC: 0.546444 (Simulation time: 0 hr 55 min 36 sec) 
Heartbeat CPU 0 instructions: 454000000 cycles: 877223896 heartbeat IPC: 0.554017 cumulative IPC: 0.548318 (Simulation time: 0 hr 55 min 43 sec) 
Heartbeat CPU 0 instructions: 455000002 cycles: 879037786 heartbeat IPC: 0.551302 cumulative IPC: 0.548912 (Simulation time: 0 hr 55 min 50 sec) 
Heartbeat CPU 0 instructions: 456000003 cycles: 880863723 heartbeat IPC: 0.547665 cumulative IPC: 0.548704 (Simulation time: 0 hr 55 min 57 sec) 
Heartbeat CPU 0 instructions: 457000000 cycles: 882684711 heartbeat IPC: 0.549151 cumulative IPC: 0.548768 (Simulation time: 0 hr 56 min 4 sec) 
Heartbeat CPU 0 instructions: 458000003 cycles: 884480613 heartbeat IPC: 0.556825 cumulative IPC: 0.549762 (Simulation time: 0 hr 56 min 11 sec) 
Heartbeat CPU 0 instructions: 459000001 cycles: 886286237 heartbeat IPC: 0.553824 cumulative IPC: 0.550211 (Simulation time: 0 hr 56 min 18 sec) 
Heartbeat CPU 0 instructions: 460000001 cycles: 888090102 heartbeat IPC: 0.554365 cumulative IPC: 0.550623 (Simulation time: 0 hr 56 min 25 sec) 
Heartbeat CPU 0 instructions: 461000000 cycles: 889913262 heartbeat IPC: 0.548498 cumulative IPC: 0.550429 (Simulation time: 0 hr 56 min 33 sec) 
Heartbeat CPU 0 instructions: 462000000 cycles: 891746773 heartbeat IPC: 0.545402 cumulative IPC: 0.550007 (Simulation time: 0 hr 56 min 40 sec) 
Heartbeat CPU 0 instructions: 463000000 cycles: 893571254 heartbeat IPC: 0.548101 cumulative IPC: 0.54986 (Simulation time: 0 hr 56 min 47 sec) 
Heartbeat CPU 0 instructions: 464000001 cycles: 895404469 heartbeat IPC: 0.54549 cumulative IPC: 0.549545 (Simulation time: 0 hr 56 min 54 sec) 
Heartbeat CPU 0 instructions: 465000000 cycles: 897220253 heartbeat IPC: 0.550726 cumulative IPC: 0.549624 (Simulation time: 0 hr 57 min 1 sec) 
Heartbeat CPU 0 instructions: 466000001 cycles: 899049444 heartbeat IPC: 0.54669 cumulative IPC: 0.54944 (Simulation time: 0 hr 57 min 8 sec) 
Heartbeat CPU 0 instructions: 467000000 cycles: 900871719 heartbeat IPC: 0.548764 cumulative IPC: 0.5494 (Simulation time: 0 hr 57 min 15 sec) 
Heartbeat CPU 0 instructions: 468000000 cycles: 902685169 heartbeat IPC: 0.551435 cumulative IPC: 0.549512 (Simulation time: 0 hr 57 min 22 sec) 
Heartbeat CPU 0 instructions: 469000003 cycles: 904689949 heartbeat IPC: 0.498809 cumulative IPC: 0.546588 (Simulation time: 0 hr 57 min 30 sec) 
Heartbeat CPU 0 instructions: 470000000 cycles: 906693948 heartbeat IPC: 0.499001 cumulative IPC: 0.543994 (Simulation time: 0 hr 57 min 37 sec) 
Heartbeat CPU 0 instructions: 471000003 cycles: 909622253 heartbeat IPC: 0.341496 cumulative IPC: 0.529055 (Simulation time: 0 hr 57 min 44 sec) 
Heartbeat CPU 0 instructions: 472000002 cycles: 911427111 heartbeat IPC: 0.55406 cumulative IPC: 0.530143 (Simulation time: 0 hr 57 min 51 sec) 
Heartbeat CPU 0 instructions: 473000000 cycles: 913233193 heartbeat IPC: 0.553684 cumulative IPC: 0.531125 (Simulation time: 0 hr 57 min 58 sec) 
Heartbeat CPU 0 instructions: 474000002 cycles: 915049718 heartbeat IPC: 0.550503 cumulative IPC: 0.531905 (Simulation time: 0 hr 58 min 5 sec) 
Heartbeat CPU 0 instructions: 475000000 cycles: 916897201 heartbeat IPC: 0.541276 cumulative IPC: 0.532273 (Simulation time: 0 hr 58 min 13 sec) 
Heartbeat CPU 0 instructions: 476000000 cycles: 918740939 heartbeat IPC: 0.542376 cumulative IPC: 0.532655 (Simulation time: 0 hr 58 min 20 sec) 
Heartbeat CPU 0 instructions: 477000000 cycles: 920565940 heartbeat IPC: 0.547945 cumulative IPC: 0.533206 (Simulation time: 0 hr 58 min 27 sec) 
Heartbeat CPU 0 instructions: 478000000 cycles: 922379913 heartbeat IPC: 0.551276 cumulative IPC: 0.533831 (Simulation time: 0 hr 58 min 34 sec) 
Heartbeat CPU 0 instructions: 479000002 cycles: 924199264 heartbeat IPC: 0.549648 cumulative IPC: 0.534361 (Simulation time: 0 hr 58 min 41 sec) 
Heartbeat CPU 0 instructions: 480000003 cycles: 926013651 heartbeat IPC: 0.551151 cumulative IPC: 0.534904 (Simulation time: 0 hr 58 min 48 sec) 
Heartbeat CPU 0 instructions: 481000000 cycles: 927851512 heartbeat IPC: 0.544109 cumulative IPC: 0.535196 (Simulation time: 0 hr 58 min 55 sec) 
Heartbeat CPU 0 instructions: 482000003 cycles: 929653302 heartbeat IPC: 0.555005 cumulative IPC: 0.535794 (Simulation time: 0 hr 59 min 2 sec) 
Heartbeat CPU 0 instructions: 483000000 cycles: 931457224 heartbeat IPC: 0.554346 cumulative IPC: 0.536338 (Simulation time: 0 hr 59 min 10 sec) 
Heartbeat CPU 0 instructions: 484000000 cycles: 933258388 heartbeat IPC: 0.555197 cumulative IPC: 0.536874 (Simulation time: 0 hr 59 min 17 sec) 
Heartbeat CPU 0 instructions: 485000003 cycles: 935067403 heartbeat IPC: 0.552789 cumulative IPC: 0.537316 (Simulation time: 0 hr 59 min 24 sec) 
Heartbeat CPU 0 instructions: 486000000 cycles: 936896621 heartbeat IPC: 0.54668 cumulative IPC: 0.537572 (Simulation time: 0 hr 59 min 31 sec) 
Heartbeat CPU 0 instructions: 487000003 cycles: 938732108 heartbeat IPC: 0.544816 cumulative IPC: 0.537765 (Simulation time: 0 hr 59 min 38 sec) 
Heartbeat CPU 0 instructions: 488000000 cycles: 940565697 heartbeat IPC: 0.545377 cumulative IPC: 0.537963 (Simulation time: 0 hr 59 min 45 sec) 
Heartbeat CPU 0 instructions: 489000003 cycles: 942387717 heartbeat IPC: 0.548843 cumulative IPC: 0.538236 (Simulation time: 0 hr 59 min 52 sec) 
Heartbeat CPU 0 instructions: 490000000 cycles: 944206399 heartbeat IPC: 0.549847 cumulative IPC: 0.538521 (Simulation time: 0 hr 59 min 59 sec) 
Heartbeat CPU 0 instructions: 491000002 cycles: 946035994 heartbeat IPC: 0.54657 cumulative IPC: 0.538714 (Simulation time: 1 hr 0 min 6 sec) 
Heartbeat CPU 0 instructions: 492000003 cycles: 947856015 heartbeat IPC: 0.549445 cumulative IPC: 0.538965 (Simulation time: 1 hr 0 min 14 sec) 
Heartbeat CPU 0 instructions: 493000002 cycles: 949730136 heartbeat IPC: 0.533583 cumulative IPC: 0.538839 (Simulation time: 1 hr 0 min 21 sec) 
Heartbeat CPU 0 instructions: 494000001 cycles: 951768592 heartbeat IPC: 0.490567 cumulative IPC: 0.537636 (Simulation time: 1 hr 0 min 28 sec) 
Heartbeat CPU 0 instructions: 495000000 cycles: 953780436 heartbeat IPC: 0.497056 cumulative IPC: 0.536663 (Simulation time: 1 hr 0 min 35 sec) 
Heartbeat CPU 0 instructions: 496000000 cycles: 955593774 heartbeat IPC: 0.551469 cumulative IPC: 0.536976 (Simulation time: 1 hr 0 min 42 sec) 
Heartbeat CPU 0 instructions: 497000001 cycles: 957414474 heartbeat IPC: 0.54924 cumulative IPC: 0.537231 (Simulation time: 1 hr 0 min 49 sec) 
Heartbeat CPU 0 instructions: 498000003 cycles: 959232125 heartbeat IPC: 0.550162 cumulative IPC: 0.537494 (Simulation time: 1 hr 0 min 56 sec) 
Heartbeat CPU 0 instructions: 499000003 cycles: 961079342 heartbeat IPC: 0.541355 cumulative IPC: 0.537573 (Simulation time: 1 hr 1 min 3 sec) 
Heartbeat CPU 0 instructions: 500000003 cycles: 962926207 heartbeat IPC: 0.541458 cumulative IPC: 0.53765 (Simulation time: 1 hr 1 min 10 sec) 
Heartbeat CPU 0 instructions: 501000003 cycles: 964746023 heartbeat IPC: 0.549506 cumulative IPC: 0.537877 (Simulation time: 1 hr 1 min 17 sec) 
Heartbeat CPU 0 instructions: 502000003 cycles: 966555953 heartbeat IPC: 0.552508 cumulative IPC: 0.538151 (Simulation time: 1 hr 1 min 24 sec) 
Heartbeat CPU 0 instructions: 503000000 cycles: 968376708 heartbeat IPC: 0.549221 cumulative IPC: 0.538356 (Simulation time: 1 hr 1 min 31 sec) 
Heartbeat CPU 0 instructions: 504000002 cycles: 970191764 heartbeat IPC: 0.550948 cumulative IPC: 0.538584 (Simulation time: 1 hr 1 min 38 sec) 
Heartbeat CPU 0 instructions: 505000002 cycles: 972019744 heartbeat IPC: 0.547052 cumulative IPC: 0.538736 (Simulation time: 1 hr 1 min 45 sec) 
Heartbeat CPU 0 instructions: 506000000 cycles: 973829403 heartbeat IPC: 0.552589 cumulative IPC: 0.538977 (Simulation time: 1 hr 1 min 52 sec) 
Heartbeat CPU 0 instructions: 507000001 cycles: 975633348 heartbeat IPC: 0.554341 cumulative IPC: 0.539239 (Simulation time: 1 hr 1 min 59 sec) 
Heartbeat CPU 0 instructions: 508000002 cycles: 977439997 heartbeat IPC: 0.553512 cumulative IPC: 0.539479 (Simulation time: 1 hr 2 min 6 sec) 
Heartbeat CPU 0 instructions: 509000001 cycles: 979246770 heartbeat IPC: 0.553472 cumulative IPC: 0.53971 (Simulation time: 1 hr 2 min 13 sec) 
Heartbeat CPU 0 instructions: 510000000 cycles: 981079430 heartbeat IPC: 0.545654 cumulative IPC: 0.539808 (Simulation time: 1 hr 2 min 20 sec) 
Heartbeat CPU 0 instructions: 511000002 cycles: 982912785 heartbeat IPC: 0.545449 cumulative IPC: 0.5399 (Simulation time: 1 hr 2 min 27 sec) 
Heartbeat CPU 0 instructions: 512000000 cycles: 984743130 heartbeat IPC: 0.546344 cumulative IPC: 0.540003 (Simulation time: 1 hr 2 min 34 sec) 
Heartbeat CPU 0 instructions: 513000002 cycles: 986563088 heartbeat IPC: 0.549464 cumulative IPC: 0.54015 (Simulation time: 1 hr 2 min 41 sec) 
Heartbeat CPU 0 instructions: 514000000 cycles: 988381899 heartbeat IPC: 0.549809 cumulative IPC: 0.540299 (Simulation time: 1 hr 2 min 48 sec) 
Heartbeat CPU 0 instructions: 515000001 cycles: 990212866 heartbeat IPC: 0.54616 cumulative IPC: 0.540388 (Simulation time: 1 hr 2 min 55 sec) 
Heartbeat CPU 0 instructions: 516000003 cycles: 992029469 heartbeat IPC: 0.550479 cumulative IPC: 0.540538 (Simulation time: 1 hr 3 min 2 sec) 
Heartbeat CPU 0 instructions: 517000000 cycles: 993886645 heartbeat IPC: 0.53845 cumulative IPC: 0.540507 (Simulation time: 1 hr 3 min 9 sec) 
Heartbeat CPU 0 instructions: 518000001 cycles: 995813008 heartbeat IPC: 0.519113 cumulative IPC: 0.540179 (Simulation time: 1 hr 3 min 16 sec) 
Heartbeat CPU 0 instructions: 519000002 cycles: 997666409 heartbeat IPC: 0.539549 cumulative IPC: 0.54017 (Simulation time: 1 hr 3 min 23 sec) 
Heartbeat CPU 0 instructions: 520000000 cycles: 999619893 heartbeat IPC: 0.511905 cumulative IPC: 0.539744 (Simulation time: 1 hr 3 min 30 sec) 
Heartbeat CPU 0 instructions: 521000001 cycles: 1001444950 heartbeat IPC: 0.547929 cumulative IPC: 0.539858 (Simulation time: 1 hr 3 min 37 sec) 
Heartbeat CPU 0 instructions: 522000001 cycles: 1003320443 heartbeat IPC: 0.533193 cumulative IPC: 0.539764 (Simulation time: 1 hr 3 min 45 sec) 
Heartbeat CPU 0 instructions: 523000000 cycles: 1005208236 heartbeat IPC: 0.529719 cumulative IPC: 0.539624 (Simulation time: 1 hr 3 min 52 sec) 
Heartbeat CPU 0 instructions: 524000001 cycles: 1007050455 heartbeat IPC: 0.542824 cumulative IPC: 0.539667 (Simulation time: 1 hr 3 min 59 sec) 
Heartbeat CPU 0 instructions: 525000001 cycles: 1008857851 heartbeat IPC: 0.553282 cumulative IPC: 0.539844 (Simulation time: 1 hr 4 min 6 sec) 
Heartbeat CPU 0 instructions: 526000002 cycles: 1010662366 heartbeat IPC: 0.554166 cumulative IPC: 0.540028 (Simulation time: 1 hr 4 min 13 sec) 
Heartbeat CPU 0 instructions: 527000002 cycles: 1012503396 heartbeat IPC: 0.543174 cumulative IPC: 0.540068 (Simulation time: 1 hr 4 min 20 sec) 
Heartbeat CPU 0 instructions: 528000000 cycles: 1014336713 heartbeat IPC: 0.545458 cumulative IPC: 0.540137 (Simulation time: 1 hr 4 min 27 sec) 
Heartbeat CPU 0 instructions: 529000001 cycles: 1016177069 heartbeat IPC: 0.543374 cumulative IPC: 0.540178 (Simulation time: 1 hr 4 min 34 sec) 
Heartbeat CPU 0 instructions: 530000000 cycles: 1018007655 heartbeat IPC: 0.546273 cumulative IPC: 0.540253 (Simulation time: 1 hr 4 min 41 sec) 
Heartbeat CPU 0 instructions: 531000000 cycles: 1019806648 heartbeat IPC: 0.555867 cumulative IPC: 0.54044 (Simulation time: 1 hr 4 min 48 sec) 
Heartbeat CPU 0 instructions: 532000003 cycles: 1021619821 heartbeat IPC: 0.551521 cumulative IPC: 0.540573 (Simulation time: 1 hr 4 min 56 sec) 
Heartbeat CPU 0 instructions: 533000000 cycles: 1023435324 heartbeat IPC: 0.55081 cumulative IPC: 0.540694 (Simulation time: 1 hr 5 min 3 sec) 
Heartbeat CPU 0 instructions: 534000000 cycles: 1025249797 heartbeat IPC: 0.551124 cumulative IPC: 0.540816 (Simulation time: 1 hr 5 min 10 sec) 
Heartbeat CPU 0 instructions: 535000000 cycles: 1027040236 heartbeat IPC: 0.558522 cumulative IPC: 0.541017 (Simulation time: 1 hr 5 min 17 sec) 
Heartbeat CPU 0 instructions: 536000000 cycles: 1028843061 heartbeat IPC: 0.554685 cumulative IPC: 0.541173 (Simulation time: 1 hr 5 min 24 sec) 
Heartbeat CPU 0 instructions: 537000002 cycles: 1030639800 heartbeat IPC: 0.556565 cumulative IPC: 0.541345 (Simulation time: 1 hr 5 min 31 sec) 
Heartbeat CPU 0 instructions: 538000000 cycles: 1032450859 heartbeat IPC: 0.552162 cumulative IPC: 0.541465 (Simulation time: 1 hr 5 min 39 sec) 
Heartbeat CPU 0 instructions: 539000000 cycles: 1034279591 heartbeat IPC: 0.546827 cumulative IPC: 0.541525 (Simulation time: 1 hr 5 min 46 sec) 
Heartbeat CPU 0 instructions: 540000002 cycles: 1036097905 heartbeat IPC: 0.549961 cumulative IPC: 0.541617 (Simulation time: 1 hr 5 min 54 sec) 
Heartbeat CPU 0 instructions: 541000000 cycles: 1037921905 heartbeat IPC: 0.548245 cumulative IPC: 0.541689 (Simulation time: 1 hr 6 min 1 sec) 
Heartbeat CPU 0 instructions: 542000003 cycles: 1039734425 heartbeat IPC: 0.55172 cumulative IPC: 0.541796 (Simulation time: 1 hr 6 min 8 sec) 
Heartbeat CPU 0 instructions: 543000003 cycles: 1041560066 heartbeat IPC: 0.547753 cumulative IPC: 0.54186 (Simulation time: 1 hr 6 min 15 sec) 
Heartbeat CPU 0 instructions: 544000001 cycles: 1043376348 heartbeat IPC: 0.550574 cumulative IPC: 0.541951 (Simulation time: 1 hr 6 min 23 sec) 
Heartbeat CPU 0 instructions: 545000000 cycles: 1045182143 heartbeat IPC: 0.553772 cumulative IPC: 0.542073 (Simulation time: 1 hr 6 min 30 sec) 
Heartbeat CPU 0 instructions: 546000002 cycles: 1047030649 heartbeat IPC: 0.540978 cumulative IPC: 0.542061 (Simulation time: 1 hr 6 min 37 sec) 
Heartbeat CPU 0 instructions: 547000000 cycles: 1048874286 heartbeat IPC: 0.542405 cumulative IPC: 0.542065 (Simulation time: 1 hr 6 min 44 sec) 
[...]
Heartbeat CPU 0 instructions: 835000000 cycles: 1600449827 heartbeat IPC: 0.535813 cumulative IPC: 0.527021 (Simulation time: 1 hr 41 min 14 sec) 
Heartbeat CPU 0 instructions: 836000000 cycles: 1602317629 heartbeat IPC: 0.535389 cumulative IPC: 0.527043 (Simulation time: 1 hr 41 min 22 sec) 
Heartbeat CPU 0 instructions: 837000002 cycles: 1604186136 heartbeat IPC: 0.535188 cumulative IPC: 0.527063 (Simulation time: 1 hr 41 min 29 sec) 
Heartbeat CPU 0 instructions: 838000000 cycles: 1606035304 heartbeat IPC: 0.540783 cumulative IPC: 0.527098 (Simulation time: 1 hr 41 min 36 sec) 
Heartbeat CPU 0 instructions: 839000000 cycles: 1607904520 heartbeat IPC: 0.534984 cumulative IPC: 0.527118 (Simulation time: 1 hr 41 min 43 sec) 
Heartbeat CPU 0 instructions: 840000003 cycles: 1609764516 heartbeat IPC: 0.537637 cumulative IPC: 0.527144 (Simulation time: 1 hr 41 min 50 sec) 
Heartbeat CPU 0 instructions: 841000001 cycles: 1611610857 heartbeat IPC: 0.541611 cumulative IPC: 0.52718 (Simulation time: 1 hr 41 min 58 sec) 
Heartbeat CPU 0 instructions: 842000001 cycles: 1613617642 heartbeat IPC: 0.498309 cumulative IPC: 0.527102 (Simulation time: 1 hr 42 min 5 sec) 
Heartbeat CPU 0 instructions: 843000003 cycles: 1615638340 heartbeat IPC: 0.494879 cumulative IPC: 0.527015 (Simulation time: 1 hr 42 min 13 sec) 
Heartbeat CPU 0 instructions: 844000002 cycles: 1617517781 heartbeat IPC: 0.532073 cumulative IPC: 0.527028 (Simulation time: 1 hr 42 min 20 sec) 
Heartbeat CPU 0 instructions: 845000000 cycles: 1619230655 heartbeat IPC: 0.583813 cumulative IPC: 0.527157 (Simulation time: 1 hr 42 min 27 sec) 
Heartbeat CPU 0 instructions: 846000002 cycles: 1621041362 heartbeat IPC: 0.552272 cumulative IPC: 0.527218 (Simulation time: 1 hr 42 min 34 sec) 
Heartbeat CPU 0 instructions: 847000000 cycles: 1622868304 heartbeat IPC: 0.547362 cumulative IPC: 0.527267 (Simulation time: 1 hr 42 min 42 sec) 
Heartbeat CPU 0 instructions: 848000002 cycles: 1624704757 heartbeat IPC: 0.544529 cumulative IPC: 0.527309 (Simulation time: 1 hr 42 min 49 sec) 
Heartbeat CPU 0 instructions: 849000002 cycles: 1626530301 heartbeat IPC: 0.547782 cumulative IPC: 0.527358 (Simulation time: 1 hr 42 min 56 sec) 
Heartbeat CPU 0 instructions: 850000003 cycles: 1628366410 heartbeat IPC: 0.544631 cumulative IPC: 0.5274 (Simulation time: 1 hr 43 min 3 sec) 
Heartbeat CPU 0 instructions: 851000000 cycles: 1630194787 heartbeat IPC: 0.546932 cumulative IPC: 0.527447 (Simulation time: 1 hr 43 min 10 sec) 
Heartbeat CPU 0 instructions: 852000000 cycles: 1631995919 heartbeat IPC: 0.555206 cumulative IPC: 0.527513 (Simulation time: 1 hr 43 min 17 sec) 
Heartbeat CPU 0 instructions: 853000000 cycles: 1633805623 heartbeat IPC: 0.552577 cumulative IPC: 0.527572 (Simulation time: 1 hr 43 min 24 sec) 
Heartbeat CPU 0 instructions: 854000003 cycles: 1635634406 heartbeat IPC: 0.546813 cumulative IPC: 0.527618 (Simulation time: 1 hr 43 min 31 sec) 
Heartbeat CPU 0 instructions: 855000001 cycles: 1637438754 heartbeat IPC: 0.554216 cumulative IPC: 0.527681 (Simulation time: 1 hr 43 min 38 sec) 
Heartbeat CPU 0 instructions: 856000000 cycles: 1639229813 heartbeat IPC: 0.558328 cumulative IPC: 0.527752 (Simulation time: 1 hr 43 min 45 sec) 
Heartbeat CPU 0 instructions: 857000002 cycles: 1641034051 heartbeat IPC: 0.554252 cumulative IPC: 0.527814 (Simulation time: 1 hr 43 min 53 sec) 
Heartbeat CPU 0 instructions: 858000000 cycles: 1642827994 heartbeat IPC: 0.55743 cumulative IPC: 0.527883 (Simulation time: 1 hr 44 min 0 sec) 
Heartbeat CPU 0 instructions: 859000000 cycles: 1644647643 heartbeat IPC: 0.549557 cumulative IPC: 0.527933 (Simulation time: 1 hr 44 min 7 sec) 
Heartbeat CPU 0 instructions: 860000002 cycles: 1646475706 heartbeat IPC: 0.547028 cumulative IPC: 0.527978 (Simulation time: 1 hr 44 min 15 sec) 
Heartbeat CPU 0 instructions: 861000000 cycles: 1648296393 heartbeat IPC: 0.549242 cumulative IPC: 0.528028 (Simulation time: 1 hr 44 min 22 sec) 
Heartbeat CPU 0 instructions: 862000000 cycles: 1650117451 heartbeat IPC: 0.549131 cumulative IPC: 0.528077 (Simulation time: 1 hr 44 min 30 sec) 
Heartbeat CPU 0 instructions: 863000000 cycles: 1651928759 heartbeat IPC: 0.552087 cumulative IPC: 0.528133 (Simulation time: 1 hr 44 min 37 sec) 
Heartbeat CPU 0 instructions: 864000000 cycles: 1653755001 heartbeat IPC: 0.547573 cumulative IPC: 0.528178 (Simulation time: 1 hr 44 min 44 sec) 
Heartbeat CPU 0 instructions: 865000000 cycles: 1655572312 heartbeat IPC: 0.550264 cumulative IPC: 0.528229 (Simulation time: 1 hr 44 min 51 sec) 
Heartbeat CPU 0 instructions: 866000003 cycles: 1657380568 heartbeat IPC: 0.553021 cumulative IPC: 0.528286 (Simulation time: 1 hr 44 min 59 sec) 
Heartbeat CPU 0 instructions: 867000002 cycles: 1659228239 heartbeat IPC: 0.541221 cumulative IPC: 0.528317 (Simulation time: 1 hr 45 min 6 sec) 
Heartbeat CPU 0 instructions: 868000000 cycles: 1661077227 heartbeat IPC: 0.540835 cumulative IPC: 0.528346 (Simulation time: 1 hr 45 min 14 sec) 
Heartbeat CPU 0 instructions: 869000000 cycles: 1662910525 heartbeat IPC: 0.545465 cumulative IPC: 0.528385 (Simulation time: 1 hr 45 min 21 sec) 
Heartbeat CPU 0 instructions: 870000000 cycles: 1664717220 heartbeat IPC: 0.553497 cumulative IPC: 0.528443 (Simulation time: 1 hr 45 min 28 sec) 
Heartbeat CPU 0 instructions: 871000002 cycles: 1666526783 heartbeat IPC: 0.552621 cumulative IPC: 0.528498 (Simulation time: 1 hr 45 min 35 sec) 
Heartbeat CPU 0 instructions: 872000000 cycles: 1668396053 heartbeat IPC: 0.534967 cumulative IPC: 0.528513 (Simulation time: 1 hr 45 min 43 sec) 
Heartbeat CPU 0 instructions: 873000002 cycles: 1670270377 heartbeat IPC: 0.533527 cumulative IPC: 0.528524 (Simulation time: 1 hr 45 min 50 sec) 
Heartbeat CPU 0 instructions: 874000003 cycles: 1672228517 heartbeat IPC: 0.510689 cumulative IPC: 0.528481 (Simulation time: 1 hr 45 min 58 sec) 
Heartbeat CPU 0 instructions: 875000001 cycles: 1674043534 heartbeat IPC: 0.550958 cumulative IPC: 0.528532 (Simulation time: 1 hr 46 min 5 sec) 
Heartbeat CPU 0 instructions: 876000000 cycles: 1675852736 heartbeat IPC: 0.552729 cumulative IPC: 0.528586 (Simulation time: 1 hr 46 min 12 sec) 
Heartbeat CPU 0 instructions: 877000001 cycles: 1677675278 heartbeat IPC: 0.548685 cumulative IPC: 0.528631 (Simulation time: 1 hr 46 min 20 sec) 
Heartbeat CPU 0 instructions: 878000001 cycles: 1679502977 heartbeat IPC: 0.547136 cumulative IPC: 0.528673 (Simulation time: 1 hr 46 min 27 sec) 
Heartbeat CPU 0 instructions: 879000000 cycles: 1681342225 heartbeat IPC: 0.5437 cumulative IPC: 0.528707 (Simulation time: 1 hr 46 min 34 sec) 
Heartbeat CPU 0 instructions: 880000000 cycles: 1683176161 heartbeat IPC: 0.545275 cumulative IPC: 0.528744 (Simulation time: 1 hr 46 min 41 sec) 
Heartbeat CPU 0 instructions: 881000000 cycles: 1684987354 heartbeat IPC: 0.552122 cumulative IPC: 0.528796 (Simulation time: 1 hr 46 min 49 sec) 
Heartbeat CPU 0 instructions: 882000000 cycles: 1686800055 heartbeat IPC: 0.551663 cumulative IPC: 0.528847 (Simulation time: 1 hr 46 min 56 sec) 
Heartbeat CPU 0 instructions: 883000000 cycles: 1688627130 heartbeat IPC: 0.547323 cumulative IPC: 0.528888 (Simulation time: 1 hr 47 min 3 sec) 
Heartbeat CPU 0 instructions: 884000001 cycles: 1690453182 heartbeat IPC: 0.54763 cumulative IPC: 0.52893 (Simulation time: 1 hr 47 min 10 sec) 
Heartbeat CPU 0 instructions: 885000002 cycles: 1692243818 heartbeat IPC: 0.558461 cumulative IPC: 0.528994 (Simulation time: 1 hr 47 min 18 sec) 
Heartbeat CPU 0 instructions: 886000003 cycles: 1694049414 heartbeat IPC: 0.553834 cumulative IPC: 0.529049 (Simulation time: 1 hr 47 min 25 sec) 
Heartbeat CPU 0 instructions: 887000000 cycles: 1695848771 heartbeat IPC: 0.555752 cumulative IPC: 0.529107 (Simulation time: 1 hr 47 min 32 sec) 
Heartbeat CPU 0 instructions: 888000001 cycles: 1697671193 heartbeat IPC: 0.548721 cumulative IPC: 0.52915 (Simulation time: 1 hr 47 min 40 sec) 
Heartbeat CPU 0 instructions: 889000002 cycles: 1699499468 heartbeat IPC: 0.546964 cumulative IPC: 0.529189 (Simulation time: 1 hr 47 min 47 sec) 
Heartbeat CPU 0 instructions: 890000001 cycles: 1701332755 heartbeat IPC: 0.545468 cumulative IPC: 0.529225 (Simulation time: 1 hr 47 min 54 sec) 
Heartbeat CPU 0 instructions: 891000000 cycles: 1703167366 heartbeat IPC: 0.545074 cumulative IPC: 0.52926 (Simulation time: 1 hr 48 min 2 sec) 
Heartbeat CPU 0 instructions: 892000000 cycles: 1704983406 heartbeat IPC: 0.550649 cumulative IPC: 0.529307 (Simulation time: 1 hr 48 min 9 sec) 
Heartbeat CPU 0 instructions: 893000000 cycles: 1706807844 heartbeat IPC: 0.548114 cumulative IPC: 0.529348 (Simulation time: 1 hr 48 min 16 sec) 
Heartbeat CPU 0 instructions: 894000000 cycles: 1708629621 heartbeat IPC: 0.548915 cumulative IPC: 0.52939 (Simulation time: 1 hr 48 min 24 sec) 
Heartbeat CPU 0 instructions: 895000003 cycles: 1710446203 heartbeat IPC: 0.550486 cumulative IPC: 0.529436 (Simulation time: 1 hr 48 min 31 sec) 
Heartbeat CPU 0 instructions: 896000002 cycles: 1712325286 heartbeat IPC: 0.532174 cumulative IPC: 0.529442 (Simulation time: 1 hr 48 min 38 sec) 
Heartbeat CPU 0 instructions: 897000003 cycles: 1714199365 heartbeat IPC: 0.533596 cumulative IPC: 0.529451 (Simulation time: 1 hr 48 min 46 sec) 
Heartbeat CPU 0 instructions: 898000001 cycles: 1716056034 heartbeat IPC: 0.538598 cumulative IPC: 0.529471 (Simulation time: 1 hr 48 min 53 sec) 
Heartbeat CPU 0 instructions: 899000000 cycles: 1717934187 heartbeat IPC: 0.532437 cumulative IPC: 0.529478 (Simulation time: 1 hr 49 min 0 sec) 
Heartbeat CPU 0 instructions: 900000003 cycles: 1719830775 heartbeat IPC: 0.527264 cumulative IPC: 0.529473 (Simulation time: 1 hr 49 min 7 sec) 
Heartbeat CPU 0 instructions: 901000000 cycles: 1721643040 heartbeat IPC: 0.551794 cumulative IPC: 0.52952 (Simulation time: 1 hr 49 min 14 sec) 
Heartbeat CPU 0 instructions: 902000000 cycles: 1723451449 heartbeat IPC: 0.552972 cumulative IPC: 0.52957 (Simulation time: 1 hr 49 min 22 sec) 
Heartbeat CPU 0 instructions: 903000001 cycles: 1725319164 heartbeat IPC: 0.535414 cumulative IPC: 0.529583 (Simulation time: 1 hr 49 min 29 sec) 
Heartbeat CPU 0 instructions: 904000000 cycles: 1727311830 heartbeat IPC: 0.50184 cumulative IPC: 0.529518 (Simulation time: 1 hr 49 min 36 sec) 
Heartbeat CPU 0 instructions: 905000002 cycles: 1729128285 heartbeat IPC: 0.550524 cumulative IPC: 0.529563 (Simulation time: 1 hr 49 min 44 sec) 
Heartbeat CPU 0 instructions: 906000002 cycles: 1730938948 heartbeat IPC: 0.552284 cumulative IPC: 0.529611 (Simulation time: 1 hr 49 min 51 sec) 
Heartbeat CPU 0 instructions: 907000003 cycles: 1732783254 heartbeat IPC: 0.54221 cumulative IPC: 0.529637 (Simulation time: 1 hr 49 min 58 sec) 
Heartbeat CPU 0 instructions: 908000000 cycles: 1734639942 heartbeat IPC: 0.538592 cumulative IPC: 0.529657 (Simulation time: 1 hr 50 min 6 sec) 
Heartbeat CPU 0 instructions: 909000000 cycles: 1736488227 heartbeat IPC: 0.541042 cumulative IPC: 0.529681 (Simulation time: 1 hr 50 min 13 sec) 
Heartbeat CPU 0 instructions: 910000000 cycles: 1738319297 heartbeat IPC: 0.546129 cumulative IPC: 0.529716 (Simulation time: 1 hr 50 min 20 sec) 
Heartbeat CPU 0 instructions: 911000003 cycles: 1740127101 heartbeat IPC: 0.553159 cumulative IPC: 0.529764 (Simulation time: 1 hr 50 min 27 sec) 
Heartbeat CPU 0 instructions: 912000003 cycles: 1741941543 heartbeat IPC: 0.551134 cumulative IPC: 0.529809 (Simulation time: 1 hr 50 min 34 sec) 
Heartbeat CPU 0 instructions: 913000000 cycles: 1743765314 heartbeat IPC: 0.548313 cumulative IPC: 0.529847 (Simulation time: 1 hr 50 min 41 sec) 
Heartbeat CPU 0 instructions: 914000002 cycles: 1745587560 heartbeat IPC: 0.548774 cumulative IPC: 0.529887 (Simulation time: 1 hr 50 min 48 sec) 
Heartbeat CPU 0 instructions: 915000001 cycles: 1747381455 heartbeat IPC: 0.557446 cumulative IPC: 0.529943 (Simulation time: 1 hr 50 min 55 sec) 
Heartbeat CPU 0 instructions: 916000000 cycles: 1749194488 heartbeat IPC: 0.551561 cumulative IPC: 0.529988 (Simulation time: 1 hr 51 min 2 sec) 
Heartbeat CPU 0 instructions: 917000001 cycles: 1751001862 heartbeat IPC: 0.553289 cumulative IPC: 0.530036 (Simulation time: 1 hr 51 min 9 sec) 
Heartbeat CPU 0 instructions: 918000003 cycles: 1752825186 heartbeat IPC: 0.54845 cumulative IPC: 0.530074 (Simulation time: 1 hr 51 min 16 sec) 
Heartbeat CPU 0 instructions: 919000001 cycles: 1754656453 heartbeat IPC: 0.546069 cumulative IPC: 0.530107 (Simulation time: 1 hr 51 min 24 sec) 
Heartbeat CPU 0 instructions: 920000000 cycles: 1756482422 heartbeat IPC: 0.547654 cumulative IPC: 0.530143 (Simulation time: 1 hr 51 min 31 sec) 
Heartbeat CPU 0 instructions: 921000001 cycles: 1758312877 heartbeat IPC: 0.546313 cumulative IPC: 0.530176 (Simulation time: 1 hr 51 min 38 sec) 
Heartbeat CPU 0 instructions: 922000000 cycles: 1760130864 heartbeat IPC: 0.550058 cumulative IPC: 0.530217 (Simulation time: 1 hr 51 min 45 sec) 
Heartbeat CPU 0 instructions: 923000002 cycles: 1761956676 heartbeat IPC: 0.547703 cumulative IPC: 0.530253 (Simulation time: 1 hr 51 min 52 sec) 
Heartbeat CPU 0 instructions: 924000000 cycles: 1763779743 heartbeat IPC: 0.548525 cumulative IPC: 0.53029 (Simulation time: 1 hr 52 min 0 sec) 
Heartbeat CPU 0 instructions: 925000002 cycles: 1765589353 heartbeat IPC: 0.552606 cumulative IPC: 0.530335 (Simulation time: 1 hr 52 min 7 sec) 
Heartbeat CPU 0 instructions: 926000000 cycles: 1767466241 heartbeat IPC: 0.532796 cumulative IPC: 0.53034 (Simulation time: 1 hr 52 min 14 sec) 
Heartbeat CPU 0 instructions: 927000001 cycles: 1769392445 heartbeat IPC: 0.519156 cumulative IPC: 0.530316 (Simulation time: 1 hr 52 min 21 sec) 
Heartbeat CPU 0 instructions: 928000003 cycles: 1771281677 heartbeat IPC: 0.529317 cumulative IPC: 0.530314 (Simulation time: 1 hr 52 min 29 sec) 
Heartbeat CPU 0 instructions: 929000000 cycles: 1773176251 heartbeat IPC: 0.527822 cumulative IPC: 0.530309 (Simulation time: 1 hr 52 min 36 sec) 
Heartbeat CPU 0 instructions: 930000003 cycles: 1775011246 heartbeat IPC: 0.544962 cumulative IPC: 0.530338 (Simulation time: 1 hr 52 min 43 sec) 
Heartbeat CPU 0 instructions: 931000000 cycles: 1776891924 heartbeat IPC: 0.531722 cumulative IPC: 0.530341 (Simulation time: 1 hr 52 min 50 sec) 
Heartbeat CPU 0 instructions: 932000000 cycles: 1778835397 heartbeat IPC: 0.514543 cumulative IPC: 0.530308 (Simulation time: 1 hr 52 min 57 sec) 
Heartbeat CPU 0 instructions: 933000003 cycles: 1780693371 heartbeat IPC: 0.538222 cumulative IPC: 0.530324 (Simulation time: 1 hr 53 min 4 sec) 
Heartbeat CPU 0 instructions: 934000000 cycles: 1782508186 heartbeat IPC: 0.551019 cumulative IPC: 0.530365 (Simulation time: 1 hr 53 min 11 sec) 
Heartbeat CPU 0 instructions: 935000000 cycles: 1784319698 heartbeat IPC: 0.552025 cumulative IPC: 0.530408 (Simulation time: 1 hr 53 min 18 sec) 
Heartbeat CPU 0 instructions: 936000002 cycles: 1786155717 heartbeat IPC: 0.544658 cumulative IPC: 0.530436 (Simulation time: 1 hr 53 min 25 sec) 
Heartbeat CPU 0 instructions: 937000001 cycles: 1788005486 heartbeat IPC: 0.540608 cumulative IPC: 0.530457 (Simulation time: 1 hr 53 min 33 sec) 
Heartbeat CPU 0 instructions: 938000000 cycles: 1789845818 heartbeat IPC: 0.54338 cumulative IPC: 0.530483 (Simulation time: 1 hr 53 min 40 sec) 
Heartbeat CPU 0 instructions: 939000002 cycles: 1791672160 heartbeat IPC: 0.547544 cumulative IPC: 0.530516 (Simulation time: 1 hr 53 min 47 sec) 
Heartbeat CPU 0 instructions: 940000001 cycles: 1793486134 heartbeat IPC: 0.551275 cumulative IPC: 0.530557 (Simulation time: 1 hr 53 min 55 sec) 
Heartbeat CPU 0 instructions: 941000002 cycles: 1795296154 heartbeat IPC: 0.552481 cumulative IPC: 0.5306 (Simulation time: 1 hr 54 min 2 sec) 
Heartbeat CPU 0 instructions: 942000001 cycles: 1797131605 heartbeat IPC: 0.544825 cumulative IPC: 0.530628 (Simulation time: 1 hr 54 min 9 sec) 
Heartbeat CPU 0 instructions: 943000001 cycles: 1798934791 heartbeat IPC: 0.554574 cumulative IPC: 0.530675 (Simulation time: 1 hr 54 min 17 sec) 
Heartbeat CPU 0 instructions: 944000000 cycles: 1800729490 heartbeat IPC: 0.557196 cumulative IPC: 0.530726 (Simulation time: 1 hr 54 min 24 sec) 
Heartbeat CPU 0 instructions: 945000003 cycles: 1802540053 heartbeat IPC: 0.552316 cumulative IPC: 0.530768 (Simulation time: 1 hr 54 min 31 sec) 
Heartbeat CPU 0 instructions: 946000000 cycles: 1804339909 heartbeat IPC: 0.555598 cumulative IPC: 0.530816 (Simulation time: 1 hr 54 min 38 sec) 
Heartbeat CPU 0 instructions: 947000001 cycles: 1806176424 heartbeat IPC: 0.54451 cumulative IPC: 0.530842 (Simulation time: 1 hr 54 min 45 sec) 
Heartbeat CPU 0 instructions: 948000002 cycles: 1808009596 heartbeat IPC: 0.545503 cumulative IPC: 0.530871 (Simulation time: 1 hr 54 min 53 sec) 
Heartbeat CPU 0 instructions: 949000002 cycles: 1809842587 heartbeat IPC: 0.545556 cumulative IPC: 0.5309 (Simulation time: 1 hr 55 min 0 sec) 
Heartbeat CPU 0 instructions: 950000000 cycles: 1811662028 heartbeat IPC: 0.549618 cumulative IPC: 0.530936 (Simulation time: 1 hr 55 min 7 sec) 
Finished CPU 0 instructions: 500000000 cycles: 941733165 cumulative IPC: 0.530936 (Simulation time: 1 hr 55 min 7 sec) 

ChampSim completed all CPUs

Region of Interest Statistics

CPU 0 cumulative IPC: 0.530936 instructions: 500000000 cycles: 941733165
L1D TOTAL     ACCESS:  147046306  HIT:  139630000  MISS:    7416306
L1D LOAD      ACCESS:   97133762  HIT:   89721850  MISS:    7411912
L1D RFO       ACCESS:   49912544  HIT:   49908150  MISS:       4394
L1D PREFETCH  ACCESS:          0  HIT:          0  MISS:          0
L1D WRITEBACK ACCESS:          0  HIT:          0  MISS:          0
L1D PREFETCH  REQUESTED:          0  ISSUED:          0  USEFUL:          0  USELESS:          0
L1D AVERAGE MISS LATENCY: 91.3649 cycles
L1I TOTAL     ACCESS:  110952422  HIT:  110952421  MISS:          1
L1I LOAD      ACCESS:  110952422  HIT:  110952421  MISS:          1
L1I RFO       ACCESS:          0  HIT:          0  MISS:          0
L1I PREFETCH  ACCESS:          0  HIT:          0  MISS:          0
L1I WRITEBACK ACCESS:          0  HIT:          0  MISS:          0
L1I PREFETCH  REQUESTED:          0  ISSUED:          0  USEFUL:          0  USELESS:          0
L1I AVERAGE MISS LATENCY: 306 cycles
L2C TOTAL     ACCESS:    7482660  HIT:    3292082  MISS:    4190578
L2C LOAD      ACCESS:    7411910  HIT:    3225567  MISS:    4186343
L2C RFO       ACCESS:       4394  HIT:        541  MISS:       3853
L2C PREFETCH  ACCESS:          0  HIT:          0  MISS:          0
L2C WRITEBACK ACCESS:      66356  HIT:      65974  MISS:        382
L2C PREFETCH  REQUESTED:          0  ISSUED:          0  USEFUL:          0  USELESS:          0
L2C AVERAGE MISS LATENCY: 136.794 cycles
LLC TOTAL     ACCESS:    4225703  HIT:      41346  MISS:    4184357
LLC LOAD      ACCESS:    4186341  HIT:      13624  MISS:    4172717
LLC RFO       ACCESS:       3853  HIT:         29  MISS:       3824
LLC PREFETCH  ACCESS:          0  HIT:          0  MISS:          0
LLC WRITEBACK ACCESS:      35509  HIT:      27693  MISS:       7816
LLC PREFETCH  REQUESTED:          0  ISSUED:          0  USEFUL:          0  USELESS:          0
LLC AVERAGE MISS LATENCY: 105.904 cycles
Major fault: 0 Minor fault: 11943

DRAM Statistics
 CHANNEL 0
 RQ ROW_BUFFER_HIT:    2022090  ROW_BUFFER_MISS:      65313
 DBUS_CONGESTED:      18301
 WQ ROW_BUFFER_HIT:       6754  ROW_BUFFER_MISS:      11092  FULL:          0

 CHANNEL 1
 RQ ROW_BUFFER_HIT:    2023299  ROW_BUFFER_MISS:      65839
 DBUS_CONGESTED:      18301
 WQ ROW_BUFFER_HIT:       6862  ROW_BUFFER_MISS:      11114  FULL:          0

 AVG_CONGESTED_CYCLE: 13

CPU 0 Branch Prediction Accuracy: 99.9495% MPKI: 0.120038 Average ROB Occupancy at Mispredict: 134.717

Branch types
NOT_BRANCH: 381115531 76.2231%
BRANCH_DIRECT_JUMP: 12417654 2.48353%
BRANCH_INDIRECT: 0 0%
BRANCH_CONDITIONAL: 93975704 18.7951%
BRANCH_DIRECT_CALL: 6245511 1.2491%
BRANCH_INDIRECT_CALL: 40 8e-06%
BRANCH_RETURN: 6245551 1.24911%
BRANCH_OTHER: 0 0%

