
*** ChampSim Multicore Out-of-Order Simulator ***

Warmup Instructions: 1000000
Prefetch Warmup Instructions: 450000000
Simulation Instructions: 500000000
Stat Printing Period: 1000000
Number of CPUs: 1
LLC sets: 2048
LLC ways: 16
Off-chip DRAM Size: 32768 MB Channels: 2 Width: 64-bit Data Rate: 1024 MT/s

CPU 0 runs /scratch/cluster/cmolder/ML-DPC/ChampSimTraces/spec17/602.gcc-s0.trace.xz
Read seed: 272
Heartbeat CPU 0 instructions: 1000001 cycles: 488234 heartbeat IPC: 2.0482 cumulative IPC: 2.0482 (Simulation time: 0 hr 0 min 6 sec) 

Warmup complete CPU 0 instructions: 1000001 cycles: 488234 (Simulation time: 0 hr 0 min 6 sec) 

Heartbeat CPU 0 instructions: 2000003 cycles: 3719245 heartbeat IPC: 0.309501 cumulative IPC: 0.309501 (Simulation time: 0 hr 0 min 15 sec) 
Heartbeat CPU 0 instructions: 3000000 cycles: 6969055 heartbeat IPC: 0.307709 cumulative IPC: 0.308603 (Simulation time: 0 hr 0 min 25 sec) 
Heartbeat CPU 0 instructions: 4000001 cycles: 10214330 heartbeat IPC: 0.308141 cumulative IPC: 0.308449 (Simulation time: 0 hr 0 min 34 sec) 
Heartbeat CPU 0 instructions: 5000001 cycles: 13469360 heartbeat IPC: 0.307217 cumulative IPC: 0.30814 (Simulation time: 0 hr 0 min 43 sec) 
Heartbeat CPU 0 instructions: 6000000 cycles: 16735893 heartbeat IPC: 0.306135 cumulative IPC: 0.307737 (Simulation time: 0 hr 0 min 52 sec) 
Heartbeat CPU 0 instructions: 7000003 cycles: 19977563 heartbeat IPC: 0.308484 cumulative IPC: 0.307861 (Simulation time: 0 hr 1 min 2 sec) 
Heartbeat CPU 0 instructions: 8000000 cycles: 23215154 heartbeat IPC: 0.308871 cumulative IPC: 0.308005 (Simulation time: 0 hr 1 min 10 sec) 
Heartbeat CPU 0 instructions: 9000000 cycles: 26435126 heartbeat IPC: 0.310562 cumulative IPC: 0.308322 (Simulation time: 0 hr 1 min 19 sec) 
Heartbeat CPU 0 instructions: 10000002 cycles: 29659570 heartbeat IPC: 0.310132 cumulative IPC: 0.308522 (Simulation time: 0 hr 1 min 28 sec) 
Heartbeat CPU 0 instructions: 11000000 cycles: 32872536 heartbeat IPC: 0.311238 cumulative IPC: 0.308792 (Simulation time: 0 hr 1 min 37 sec) 
Heartbeat CPU 0 instructions: 12000002 cycles: 36097792 heartbeat IPC: 0.310054 cumulative IPC: 0.308906 (Simulation time: 0 hr 1 min 46 sec) 
Heartbeat CPU 0 instructions: 13000000 cycles: 39341140 heartbeat IPC: 0.308323 cumulative IPC: 0.308857 (Simulation time: 0 hr 1 min 55 sec) 
Heartbeat CPU 0 instructions: 14000001 cycles: 42567307 heartbeat IPC: 0.309966 cumulative IPC: 0.308942 (Simulation time: 0 hr 2 min 4 sec) 
Heartbeat CPU 0 instructions: 15000001 cycles: 45806144 heartbeat IPC: 0.308753 cumulative IPC: 0.308929 (Simulation time: 0 hr 2 min 13 sec) 
Heartbeat CPU 0 instructions: 16000003 cycles: 49054247 heartbeat IPC: 0.307873 cumulative IPC: 0.308858 (Simulation time: 0 hr 2 min 23 sec) 
Heartbeat CPU 0 instructions: 17000001 cycles: 52302011 heartbeat IPC: 0.307904 cumulative IPC: 0.308798 (Simulation time: 0 hr 2 min 32 sec) 
Heartbeat CPU 0 instructions: 18000000 cycles: 55531945 heartbeat IPC: 0.309604 cumulative IPC: 0.308845 (Simulation time: 0 hr 2 min 41 sec) 
Heartbeat CPU 0 instructions: 19000001 cycles: 58759019 heartbeat IPC: 0.309879 cumulative IPC: 0.308903 (Simulation time: 0 hr 2 min 50 sec) 
Heartbeat CPU 0 instructions: 20000000 cycles: 61967883 heartbeat IPC: 0.311636 cumulative IPC: 0.309045 (Simulation time: 0 hr 2 min 59 sec) 
Heartbeat CPU 0 instructions: 21000000 cycles: 65194797 heartbeat IPC: 0.309894 cumulative IPC: 0.309088 (Simulation time: 0 hr 3 min 8 sec) 
Heartbeat CPU 0 instructions: 22000000 cycles: 68419574 heartbeat IPC: 0.310099 cumulative IPC: 0.309136 (Simulation time: 0 hr 3 min 17 sec) 
Heartbeat CPU 0 instructions: 23000000 cycles: 71628771 heartbeat IPC: 0.311604 cumulative IPC: 0.309247 (Simulation time: 0 hr 3 min 26 sec) 
Heartbeat CPU 0 instructions: 24000002 cycles: 74848046 heartbeat IPC: 0.31063 cumulative IPC: 0.309307 (Simulation time: 0 hr 3 min 35 sec) 
Heartbeat CPU 0 instructions: 25000003 cycles: 78097820 heartbeat IPC: 0.307714 cumulative IPC: 0.30924 (Simulation time: 0 hr 3 min 45 sec) 
Heartbeat CPU 0 instructions: 26000003 cycles: 81355566 heartbeat IPC: 0.306961 cumulative IPC: 0.309148 (Simulation time: 0 hr 3 min 54 sec) 
Heartbeat CPU 0 instructions: 27000000 cycles: 84608824 heartbeat IPC: 0.307383 cumulative IPC: 0.30908 (Simulation time: 0 hr 4 min 3 sec) 
Heartbeat CPU 0 instructions: 28000003 cycles: 87848724 heartbeat IPC: 0.308652 cumulative IPC: 0.309064 (Simulation time: 0 hr 4 min 12 sec) 
Heartbeat CPU 0 instructions: 29000000 cycles: 91100826 heartbeat IPC: 0.307492 cumulative IPC: 0.309008 (Simulation time: 0 hr 4 min 21 sec) 
Heartbeat CPU 0 instructions: 30000000 cycles: 94352038 heartbeat IPC: 0.307578 cumulative IPC: 0.308958 (Simulation time: 0 hr 4 min 30 sec) 
Heartbeat CPU 0 instructions: 31000000 cycles: 97598620 heartbeat IPC: 0.308016 cumulative IPC: 0.308927 (Simulation time: 0 hr 4 min 40 sec) 
Heartbeat CPU 0 instructions: 32000001 cycles: 100839231 heartbeat IPC: 0.308584 cumulative IPC: 0.308916 (Simulation time: 0 hr 4 min 49 sec) 
Heartbeat CPU 0 instructions: 33000000 cycles: 104081750 heartbeat IPC: 0.308402 cumulative IPC: 0.3089 (Simulation time: 0 hr 4 min 58 sec) 
Heartbeat CPU 0 instructions: 34000000 cycles: 107307533 heartbeat IPC: 0.310002 cumulative IPC: 0.308933 (Simulation time: 0 hr 5 min 7 sec) 
Heartbeat CPU 0 instructions: 35000000 cycles: 110542950 heartbeat IPC: 0.309079 cumulative IPC: 0.308937 (Simulation time: 0 hr 5 min 15 sec) 
Heartbeat CPU 0 instructions: 36000002 cycles: 113755755 heartbeat IPC: 0.311255 cumulative IPC: 0.309003 (Simulation time: 0 hr 5 min 24 sec) 
Heartbeat CPU 0 instructions: 37000000 cycles: 117008947 heartbeat IPC: 0.30739 cumulative IPC: 0.308958 (Simulation time: 0 hr 5 min 33 sec) 
Heartbeat CPU 0 instructions: 38000000 cycles: 120240943 heartbeat IPC: 0.309406 cumulative IPC: 0.30897 (Simulation time: 0 hr 5 min 43 sec) 
Heartbeat CPU 0 instructions: 39000000 cycles: 123470558 heartbeat IPC: 0.309634 cumulative IPC: 0.308987 (Simulation time: 0 hr 5 min 52 sec) 
Heartbeat CPU 0 instructions: 40000000 cycles: 126716664 heartbeat IPC: 0.308061 cumulative IPC: 0.308964 (Simulation time: 0 hr 6 min 1 sec) 
Heartbeat CPU 0 instructions: 41000002 cycles: 129942314 heartbeat IPC: 0.310016 cumulative IPC: 0.30899 (Simulation time: 0 hr 6 min 10 sec) 
Heartbeat CPU 0 instructions: 42000000 cycles: 133164601 heartbeat IPC: 0.310338 cumulative IPC: 0.309023 (Simulation time: 0 hr 6 min 19 sec) 
Heartbeat CPU 0 instructions: 43000000 cycles: 136418131 heartbeat IPC: 0.307358 cumulative IPC: 0.308983 (Simulation time: 0 hr 6 min 29 sec) 
Heartbeat CPU 0 instructions: 44000000 cycles: 139659443 heartbeat IPC: 0.308517 cumulative IPC: 0.308972 (Simulation time: 0 hr 6 min 38 sec) 
Heartbeat CPU 0 instructions: 45000001 cycles: 142879714 heartbeat IPC: 0.310533 cumulative IPC: 0.309007 (Simulation time: 0 hr 6 min 48 sec) 
Heartbeat CPU 0 instructions: 46000003 cycles: 146110093 heartbeat IPC: 0.309562 cumulative IPC: 0.30902 (Simulation time: 0 hr 6 min 57 sec) 
Heartbeat CPU 0 instructions: 47000002 cycles: 149363944 heartbeat IPC: 0.307328 cumulative IPC: 0.308983 (Simulation time: 0 hr 7 min 6 sec) 
Heartbeat CPU 0 instructions: 48000001 cycles: 152597703 heartbeat IPC: 0.309237 cumulative IPC: 0.308988 (Simulation time: 0 hr 7 min 16 sec) 
Heartbeat CPU 0 instructions: 49000002 cycles: 155832310 heartbeat IPC: 0.309157 cumulative IPC: 0.308992 (Simulation time: 0 hr 7 min 25 sec) 
Heartbeat CPU 0 instructions: 50000000 cycles: 159050946 heartbeat IPC: 0.31069 cumulative IPC: 0.309026 (Simulation time: 0 hr 7 min 35 sec) 
Heartbeat CPU 0 instructions: 51000003 cycles: 162288205 heartbeat IPC: 0.308904 cumulative IPC: 0.309024 (Simulation time: 0 hr 7 min 44 sec) 
Heartbeat CPU 0 instructions: 52000001 cycles: 165508549 heartbeat IPC: 0.310525 cumulative IPC: 0.309053 (Simulation time: 0 hr 7 min 53 sec) 
Heartbeat CPU 0 instructions: 53000003 cycles: 168733105 heartbeat IPC: 0.310121 cumulative IPC: 0.309073 (Simulation time: 0 hr 8 min 3 sec) 
Heartbeat CPU 0 instructions: 54000000 cycles: 171962484 heartbeat IPC: 0.309656 cumulative IPC: 0.309084 (Simulation time: 0 hr 8 min 12 sec) 
Heartbeat CPU 0 instructions: 55000000 cycles: 175220099 heartbeat IPC: 0.306973 cumulative IPC: 0.309045 (Simulation time: 0 hr 8 min 21 sec) 
Heartbeat CPU 0 instructions: 56000000 cycles: 178455172 heartbeat IPC: 0.309112 cumulative IPC: 0.309046 (Simulation time: 0 hr 8 min 31 sec) 
Heartbeat CPU 0 instructions: 57000002 cycles: 181697463 heartbeat IPC: 0.308425 cumulative IPC: 0.309035 (Simulation time: 0 hr 8 min 40 sec) 
Heartbeat CPU 0 instructions: 58000000 cycles: 184968794 heartbeat IPC: 0.305685 cumulative IPC: 0.308976 (Simulation time: 0 hr 8 min 50 sec) 
Heartbeat CPU 0 instructions: 59000001 cycles: 188209051 heartbeat IPC: 0.308618 cumulative IPC: 0.308969 (Simulation time: 0 hr 8 min 59 sec) 
Heartbeat CPU 0 instructions: 60000003 cycles: 191418290 heartbeat IPC: 0.311601 cumulative IPC: 0.309014 (Simulation time: 0 hr 9 min 8 sec) 
Heartbeat CPU 0 instructions: 61000000 cycles: 194635729 heartbeat IPC: 0.310805 cumulative IPC: 0.309043 (Simulation time: 0 hr 9 min 18 sec) 
Heartbeat CPU 0 instructions: 62000000 cycles: 197905212 heartbeat IPC: 0.305859 cumulative IPC: 0.308991 (Simulation time: 0 hr 9 min 27 sec) 
Heartbeat CPU 0 instructions: 63000000 cycles: 201163630 heartbeat IPC: 0.306897 cumulative IPC: 0.308957 (Simulation time: 0 hr 9 min 37 sec) 
Heartbeat CPU 0 instructions: 64000001 cycles: 204386198 heartbeat IPC: 0.310312 cumulative IPC: 0.308978 (Simulation time: 0 hr 9 min 46 sec) 
Heartbeat CPU 0 instructions: 65000001 cycles: 207593950 heartbeat IPC: 0.311745 cumulative IPC: 0.309021 (Simulation time: 0 hr 9 min 56 sec) 
Heartbeat CPU 0 instructions: 66000000 cycles: 210819596 heartbeat IPC: 0.310015 cumulative IPC: 0.309036 (Simulation time: 0 hr 10 min 5 sec) 
Heartbeat CPU 0 instructions: 67000002 cycles: 214035678 heartbeat IPC: 0.310938 cumulative IPC: 0.309065 (Simulation time: 0 hr 10 min 15 sec) 
Heartbeat CPU 0 instructions: 68000000 cycles: 217282422 heartbeat IPC: 0.308 cumulative IPC: 0.309049 (Simulation time: 0 hr 10 min 24 sec) 
Heartbeat CPU 0 instructions: 69000003 cycles: 220480702 heartbeat IPC: 0.312669 cumulative IPC: 0.309101 (Simulation time: 0 hr 10 min 33 sec) 
Heartbeat CPU 0 instructions: 70000002 cycles: 223698785 heartbeat IPC: 0.310744 cumulative IPC: 0.309125 (Simulation time: 0 hr 10 min 42 sec) 
Heartbeat CPU 0 instructions: 71000000 cycles: 226963534 heartbeat IPC: 0.306302 cumulative IPC: 0.309084 (Simulation time: 0 hr 10 min 51 sec) 
Heartbeat CPU 0 instructions: 72000002 cycles: 230203330 heartbeat IPC: 0.308662 cumulative IPC: 0.309079 (Simulation time: 0 hr 11 min 0 sec) 
Heartbeat CPU 0 instructions: 73000000 cycles: 233418867 heartbeat IPC: 0.310989 cumulative IPC: 0.309105 (Simulation time: 0 hr 11 min 9 sec) 
Heartbeat CPU 0 instructions: 74000002 cycles: 236646277 heartbeat IPC: 0.309847 cumulative IPC: 0.309115 (Simulation time: 0 hr 11 min 18 sec) 
Heartbeat CPU 0 instructions: 75000003 cycles: 239908241 heartbeat IPC: 0.306564 cumulative IPC: 0.30908 (Simulation time: 0 hr 11 min 28 sec) 
Heartbeat CPU 0 instructions: 76000000 cycles: 243127347 heartbeat IPC: 0.310644 cumulative IPC: 0.309101 (Simulation time: 0 hr 11 min 37 sec) 
Heartbeat CPU 0 instructions: 77000000 cycles: 246333345 heartbeat IPC: 0.311915 cumulative IPC: 0.309138 (Simulation time: 0 hr 11 min 46 sec) 
Heartbeat CPU 0 instructions: 78000000 cycles: 249566391 heartbeat IPC: 0.309306 cumulative IPC: 0.30914 (Simulation time: 0 hr 11 min 55 sec) 
Heartbeat CPU 0 instructions: 79000001 cycles: 252791572 heartbeat IPC: 0.31006 cumulative IPC: 0.309152 (Simulation time: 0 hr 12 min 4 sec) 
Heartbeat CPU 0 instructions: 80000003 cycles: 256044456 heartbeat IPC: 0.30742 cumulative IPC: 0.30913 (Simulation time: 0 hr 12 min 13 sec) 
Heartbeat CPU 0 instructions: 81000001 cycles: 259261524 heartbeat IPC: 0.310841 cumulative IPC: 0.309151 (Simulation time: 0 hr 12 min 23 sec) 
Heartbeat CPU 0 instructions: 82000001 cycles: 262501336 heartbeat IPC: 0.30866 cumulative IPC: 0.309145 (Simulation time: 0 hr 12 min 32 sec) 
Heartbeat CPU 0 instructions: 83000000 cycles: 265750175 heartbeat IPC: 0.307802 cumulative IPC: 0.309128 (Simulation time: 0 hr 12 min 41 sec) 
Heartbeat CPU 0 instructions: 84000000 cycles: 268980854 heartbeat IPC: 0.309532 cumulative IPC: 0.309133 (Simulation time: 0 hr 12 min 50 sec) 
Heartbeat CPU 0 instructions: 85000001 cycles: 272194652 heartbeat IPC: 0.311159 cumulative IPC: 0.309157 (Simulation time: 0 hr 12 min 59 sec) 
Heartbeat CPU 0 instructions: 86000001 cycles: 275463067 heartbeat IPC: 0.305959 cumulative IPC: 0.309119 (Simulation time: 0 hr 13 min 8 sec) 
Heartbeat CPU 0 instructions: 87000003 cycles: 278686524 heartbeat IPC: 0.310227 cumulative IPC: 0.309132 (Simulation time: 0 hr 13 min 17 sec) 
Heartbeat CPU 0 instructions: 88000000 cycles: 281919658 heartbeat IPC: 0.309296 cumulative IPC: 0.309134 (Simulation time: 0 hr 13 min 26 sec) 
Heartbeat CPU 0 instructions: 89000000 cycles: 285153569 heartbeat IPC: 0.309223 cumulative IPC: 0.309135 (Simulation time: 0 hr 13 min 36 sec) 
Heartbeat CPU 0 instructions: 90000001 cycles: 288374116 heartbeat IPC: 0.310507 cumulative IPC: 0.30915 (Simulation time: 0 hr 13 min 45 sec) 
Heartbeat CPU 0 instructions: 91000003 cycles: 291637352 heartbeat IPC: 0.306445 cumulative IPC: 0.30912 (Simulation time: 0 hr 13 min 54 sec) 
Heartbeat CPU 0 instructions: 92000003 cycles: 294870077 heartbeat IPC: 0.309337 cumulative IPC: 0.309122 (Simulation time: 0 hr 14 min 3 sec) 
Heartbeat CPU 0 instructions: 93000003 cycles: 298083451 heartbeat IPC: 0.311199 cumulative IPC: 0.309145 (Simulation time: 0 hr 14 min 12 sec) 
Heartbeat CPU 0 instructions: 94000000 cycles: 301318025 heartbeat IPC: 0.309159 cumulative IPC: 0.309145 (Simulation time: 0 hr 14 min 21 sec) 
Heartbeat CPU 0 instructions: 95000000 cycles: 304557672 heartbeat IPC: 0.308676 cumulative IPC: 0.30914 (Simulation time: 0 hr 14 min 30 sec) 
Heartbeat CPU 0 instructions: 96000000 cycles: 307797697 heartbeat IPC: 0.30864 cumulative IPC: 0.309135 (Simulation time: 0 hr 14 min 40 sec) 
Heartbeat CPU 0 instructions: 97000002 cycles: 311065475 heartbeat IPC: 0.306019 cumulative IPC: 0.309102 (Simulation time: 0 hr 14 min 49 sec) 
Heartbeat CPU 0 instructions: 98000001 cycles: 314293263 heartbeat IPC: 0.309809 cumulative IPC: 0.309109 (Simulation time: 0 hr 14 min 58 sec) 
Heartbeat CPU 0 instructions: 99000000 cycles: 317534893 heartbeat IPC: 0.308486 cumulative IPC: 0.309103 (Simulation time: 0 hr 15 min 7 sec) 
Heartbeat CPU 0 instructions: 100000002 cycles: 320772662 heartbeat IPC: 0.308855 cumulative IPC: 0.3091 (Simulation time: 0 hr 15 min 16 sec) 
Heartbeat CPU 0 instructions: 101000001 cycles: 324005464 heartbeat IPC: 0.309329 cumulative IPC: 0.309103 (Simulation time: 0 hr 15 min 25 sec) 
Heartbeat CPU 0 instructions: 102000000 cycles: 327272163 heartbeat IPC: 0.306119 cumulative IPC: 0.309073 (Simulation time: 0 hr 15 min 34 sec) 
Heartbeat CPU 0 instructions: 103000003 cycles: 330510077 heartbeat IPC: 0.308842 cumulative IPC: 0.30907 (Simulation time: 0 hr 15 min 43 sec) 
Heartbeat CPU 0 instructions: 104000003 cycles: 333748689 heartbeat IPC: 0.308774 cumulative IPC: 0.309068 (Simulation time: 0 hr 15 min 52 sec) 
Heartbeat CPU 0 instructions: 105000002 cycles: 336986866 heartbeat IPC: 0.308815 cumulative IPC: 0.309065 (Simulation time: 0 hr 16 min 2 sec) 
Heartbeat CPU 0 instructions: 106000002 cycles: 340199661 heartbeat IPC: 0.311255 cumulative IPC: 0.309086 (Simulation time: 0 hr 16 min 10 sec) 
Heartbeat CPU 0 instructions: 107000003 cycles: 343446598 heartbeat IPC: 0.307983 cumulative IPC: 0.309075 (Simulation time: 0 hr 16 min 19 sec) 
Heartbeat CPU 0 instructions: 108000002 cycles: 346695742 heartbeat IPC: 0.307773 cumulative IPC: 0.309063 (Simulation time: 0 hr 16 min 29 sec) 
Heartbeat CPU 0 instructions: 109000000 cycles: 349941995 heartbeat IPC: 0.308047 cumulative IPC: 0.309054 (Simulation time: 0 hr 16 min 38 sec) 
Heartbeat CPU 0 instructions: 110000000 cycles: 353155564 heartbeat IPC: 0.311181 cumulative IPC: 0.309073 (Simulation time: 0 hr 16 min 47 sec) 
Heartbeat CPU 0 instructions: 111000001 cycles: 356372593 heartbeat IPC: 0.310846 cumulative IPC: 0.309089 (Simulation time: 0 hr 16 min 56 sec) 
Heartbeat CPU 0 instructions: 112000003 cycles: 359605711 heartbeat IPC: 0.3093 cumulative IPC: 0.309091 (Simulation time: 0 hr 17 min 5 sec) 
Heartbeat CPU 0 instructions: 113000000 cycles: 362824387 heartbeat IPC: 0.310686 cumulative IPC: 0.309105 (Simulation time: 0 hr 17 min 14 sec) 
Heartbeat CPU 0 instructions: 114000000 cycles: 366047059 heartbeat IPC: 0.310302 cumulative IPC: 0.309116 (Simulation time: 0 hr 17 min 23 sec) 
Heartbeat CPU 0 instructions: 115000003 cycles: 369280940 heartbeat IPC: 0.309227 cumulative IPC: 0.309117 (Simulation time: 0 hr 17 min 32 sec) 
Heartbeat CPU 0 instructions: 116000000 cycles: 372539306 heartbeat IPC: 0.306901 cumulative IPC: 0.309097 (Simulation time: 0 hr 17 min 41 sec) 
Heartbeat CPU 0 instructions: 117000000 cycles: 375793707 heartbeat IPC: 0.307276 cumulative IPC: 0.309082 (Simulation time: 0 hr 17 min 50 sec) 
Heartbeat CPU 0 instructions: 118000000 cycles: 379066522 heartbeat IPC: 0.305547 cumulative IPC: 0.309051 (Simulation time: 0 hr 17 min 59 sec) 
Heartbeat CPU 0 instructions: 119000003 cycles: 382299498 heartbeat IPC: 0.309313 cumulative IPC: 0.309053 (Simulation time: 0 hr 18 min 8 sec) 
Heartbeat CPU 0 instructions: 120000003 cycles: 385545716 heartbeat IPC: 0.308051 cumulative IPC: 0.309045 (Simulation time: 0 hr 18 min 18 sec) 
Heartbeat CPU 0 instructions: 121000000 cycles: 388776478 heartbeat IPC: 0.309524 cumulative IPC: 0.309049 (Simulation time: 0 hr 18 min 27 sec) 
Heartbeat CPU 0 instructions: 122000000 cycles: 392006877 heartbeat IPC: 0.309559 cumulative IPC: 0.309053 (Simulation time: 0 hr 18 min 36 sec) 
Heartbeat CPU 0 instructions: 123000001 cycles: 395239496 heartbeat IPC: 0.309347 cumulative IPC: 0.309055 (Simulation time: 0 hr 18 min 45 sec) 
Heartbeat CPU 0 instructions: 124000002 cycles: 398466542 heartbeat IPC: 0.309881 cumulative IPC: 0.309062 (Simulation time: 0 hr 18 min 54 sec) 
Heartbeat CPU 0 instructions: 125000001 cycles: 401699519 heartbeat IPC: 0.309312 cumulative IPC: 0.309064 (Simulation time: 0 hr 19 min 3 sec) 
Heartbeat CPU 0 instructions: 126000001 cycles: 404935411 heartbeat IPC: 0.309034 cumulative IPC: 0.309064 (Simulation time: 0 hr 19 min 12 sec) 
Heartbeat CPU 0 instructions: 127000002 cycles: 408163846 heartbeat IPC: 0.309748 cumulative IPC: 0.309069 (Simulation time: 0 hr 19 min 21 sec) 
Heartbeat CPU 0 instructions: 128000001 cycles: 411412591 heartbeat IPC: 0.307811 cumulative IPC: 0.309059 (Simulation time: 0 hr 19 min 30 sec) 
Heartbeat CPU 0 instructions: 129000000 cycles: 414658892 heartbeat IPC: 0.308043 cumulative IPC: 0.309051 (Simulation time: 0 hr 19 min 39 sec) 
Heartbeat CPU 0 instructions: 130000003 cycles: 417883319 heartbeat IPC: 0.310134 cumulative IPC: 0.30906 (Simulation time: 0 hr 19 min 48 sec) 
Heartbeat CPU 0 instructions: 131000000 cycles: 421095388 heartbeat IPC: 0.311325 cumulative IPC: 0.309077 (Simulation time: 0 hr 19 min 57 sec) 
Heartbeat CPU 0 instructions: 132000000 cycles: 424314563 heartbeat IPC: 0.310639 cumulative IPC: 0.309089 (Simulation time: 0 hr 20 min 6 sec) 
Heartbeat CPU 0 instructions: 133000000 cycles: 427575472 heartbeat IPC: 0.306663 cumulative IPC: 0.30907 (Simulation time: 0 hr 20 min 15 sec) 
Heartbeat CPU 0 instructions: 134000003 cycles: 430782570 heartbeat IPC: 0.311809 cumulative IPC: 0.309091 (Simulation time: 0 hr 20 min 24 sec) 
Heartbeat CPU 0 instructions: 135000001 cycles: 434003009 heartbeat IPC: 0.310516 cumulative IPC: 0.309101 (Simulation time: 0 hr 20 min 33 sec) 
Heartbeat CPU 0 instructions: 136000000 cycles: 437294825 heartbeat IPC: 0.303783 cumulative IPC: 0.309061 (Simulation time: 0 hr 20 min 42 sec) 
Heartbeat CPU 0 instructions: 137000002 cycles: 440532579 heartbeat IPC: 0.308857 cumulative IPC: 0.30906 (Simulation time: 0 hr 20 min 51 sec) 
Heartbeat CPU 0 instructions: 138000003 cycles: 443767925 heartbeat IPC: 0.309086 cumulative IPC: 0.30906 (Simulation time: 0 hr 21 min 0 sec) 
Heartbeat CPU 0 instructions: 139000000 cycles: 446993250 heartbeat IPC: 0.310045 cumulative IPC: 0.309067 (Simulation time: 0 hr 21 min 9 sec) 
Heartbeat CPU 0 instructions: 140000000 cycles: 450213946 heartbeat IPC: 0.310492 cumulative IPC: 0.309077 (Simulation time: 0 hr 21 min 18 sec) 
Heartbeat CPU 0 instructions: 141000002 cycles: 453450556 heartbeat IPC: 0.308966 cumulative IPC: 0.309076 (Simulation time: 0 hr 21 min 28 sec) 
Heartbeat CPU 0 instructions: 142000001 cycles: 456665161 heartbeat IPC: 0.31108 cumulative IPC: 0.309091 (Simulation time: 0 hr 21 min 37 sec) 
Heartbeat CPU 0 instructions: 143000000 cycles: 459923772 heartbeat IPC: 0.306879 cumulative IPC: 0.309075 (Simulation time: 0 hr 21 min 46 sec) 
Heartbeat CPU 0 instructions: 144000001 cycles: 463179337 heartbeat IPC: 0.307167 cumulative IPC: 0.309061 (Simulation time: 0 hr 21 min 55 sec) 
Heartbeat CPU 0 instructions: 145000000 cycles: 466401350 heartbeat IPC: 0.310365 cumulative IPC: 0.30907 (Simulation time: 0 hr 22 min 4 sec) 
Heartbeat CPU 0 instructions: 146000002 cycles: 469623591 heartbeat IPC: 0.310344 cumulative IPC: 0.309079 (Simulation time: 0 hr 22 min 13 sec) 
Heartbeat CPU 0 instructions: 147000000 cycles: 472828617 heartbeat IPC: 0.312009 cumulative IPC: 0.309099 (Simulation time: 0 hr 22 min 22 sec) 
Heartbeat CPU 0 instructions: 148000000 cycles: 476043816 heartbeat IPC: 0.311023 cumulative IPC: 0.309112 (Simulation time: 0 hr 22 min 31 sec) 
Heartbeat CPU 0 instructions: 149000001 cycles: 479265503 heartbeat IPC: 0.310397 cumulative IPC: 0.309121 (Simulation time: 0 hr 22 min 40 sec) 
Heartbeat CPU 0 instructions: 150000000 cycles: 482482067 heartbeat IPC: 0.31089 cumulative IPC: 0.309133 (Simulation time: 0 hr 22 min 49 sec) 
Heartbeat CPU 0 instructions: 151000002 cycles: 485746629 heartbeat IPC: 0.30632 cumulative IPC: 0.309114 (Simulation time: 0 hr 22 min 58 sec) 
Heartbeat CPU 0 instructions: 152000001 cycles: 488978133 heartbeat IPC: 0.309453 cumulative IPC: 0.309116 (Simulation time: 0 hr 23 min 7 sec) 
Heartbeat CPU 0 instructions: 153000001 cycles: 492249825 heartbeat IPC: 0.305652 cumulative IPC: 0.309093 (Simulation time: 0 hr 23 min 16 sec) 
Heartbeat CPU 0 instructions: 154000000 cycles: 495474257 heartbeat IPC: 0.310132 cumulative IPC: 0.3091 (Simulation time: 0 hr 23 min 25 sec) 
Heartbeat CPU 0 instructions: 155000002 cycles: 498710722 heartbeat IPC: 0.30898 cumulative IPC: 0.309099 (Simulation time: 0 hr 23 min 34 sec) 
Heartbeat CPU 0 instructions: 156000000 cycles: 501924353 heartbeat IPC: 0.311174 cumulative IPC: 0.309112 (Simulation time: 0 hr 23 min 43 sec) 
Heartbeat CPU 0 instructions: 157000003 cycles: 505150888 heartbeat IPC: 0.309931 cumulative IPC: 0.309117 (Simulation time: 0 hr 23 min 53 sec) 
Heartbeat CPU 0 instructions: 158000002 cycles: 508403344 heartbeat IPC: 0.30746 cumulative IPC: 0.309107 (Simulation time: 0 hr 24 min 2 sec) 
Heartbeat CPU 0 instructions: 159000001 cycles: 511625106 heartbeat IPC: 0.310389 cumulative IPC: 0.309115 (Simulation time: 0 hr 24 min 11 sec) 
Heartbeat CPU 0 instructions: 160000000 cycles: 514845824 heartbeat IPC: 0.310489 cumulative IPC: 0.309123 (Simulation time: 0 hr 24 min 20 sec) 
Heartbeat CPU 0 instructions: 161000000 cycles: 518074351 heartbeat IPC: 0.309739 cumulative IPC: 0.309127 (Simulation time: 0 hr 24 min 29 sec) 
Heartbeat CPU 0 instructions: 162000000 cycles: 521307573 heartbeat IPC: 0.309289 cumulative IPC: 0.309128 (Simulation time: 0 hr 24 min 38 sec) 
Heartbeat CPU 0 instructions: 163000002 cycles: 524546213 heartbeat IPC: 0.308772 cumulative IPC: 0.309126 (Simulation time: 0 hr 24 min 47 sec) 
Heartbeat CPU 0 instructions: 164000003 cycles: 527799204 heartbeat IPC: 0.30741 cumulative IPC: 0.309116 (Simulation time: 0 hr 24 min 56 sec) 
Heartbeat CPU 0 instructions: 165000000 cycles: 531045547 heartbeat IPC: 0.308038 cumulative IPC: 0.309109 (Simulation time: 0 hr 25 min 5 sec) 
Heartbeat CPU 0 instructions: 166000003 cycles: 534289579 heartbeat IPC: 0.308259 cumulative IPC: 0.309104 (Simulation time: 0 hr 25 min 14 sec) 
Heartbeat CPU 0 instructions: 167000000 cycles: 537509315 heartbeat IPC: 0.310584 cumulative IPC: 0.309113 (Simulation time: 0 hr 25 min 23 sec) 
Heartbeat CPU 0 instructions: 168000000 cycles: 540746589 heartbeat IPC: 0.308902 cumulative IPC: 0.309111 (Simulation time: 0 hr 25 min 32 sec) 
Heartbeat CPU 0 instructions: 169000000 cycles: 543991080 heartbeat IPC: 0.308215 cumulative IPC: 0.309106 (Simulation time: 0 hr 25 min 41 sec) 
Heartbeat CPU 0 instructions: 170000003 cycles: 547242710 heartbeat IPC: 0.307539 cumulative IPC: 0.309097 (Simulation time: 0 hr 25 min 50 sec) 
Heartbeat CPU 0 instructions: 171000003 cycles: 550462590 heartbeat IPC: 0.310571 cumulative IPC: 0.309105 (Simulation time: 0 hr 25 min 59 sec) 
Heartbeat CPU 0 instructions: 172000003 cycles: 553701964 heartbeat IPC: 0.308702 cumulative IPC: 0.309103 (Simulation time: 0 hr 26 min 8 sec) 
Heartbeat CPU 0 instructions: 173000001 cycles: 556972023 heartbeat IPC: 0.305804 cumulative IPC: 0.309084 (Simulation time: 0 hr 26 min 18 sec) 
Heartbeat CPU 0 instructions: 174000001 cycles: 560231715 heartbeat IPC: 0.306777 cumulative IPC: 0.30907 (Simulation time: 0 hr 26 min 27 sec) 
Heartbeat CPU 0 instructions: 175000000 cycles: 563461881 heartbeat IPC: 0.309581 cumulative IPC: 0.309073 (Simulation time: 0 hr 26 min 36 sec) 
Heartbeat CPU 0 instructions: 176000000 cycles: 566681523 heartbeat IPC: 0.310594 cumulative IPC: 0.309082 (Simulation time: 0 hr 26 min 45 sec) 
Heartbeat CPU 0 instructions: 177000000 cycles: 569908643 heartbeat IPC: 0.309874 cumulative IPC: 0.309086 (Simulation time: 0 hr 26 min 54 sec) 
Heartbeat CPU 0 instructions: 178000003 cycles: 573137328 heartbeat IPC: 0.309725 cumulative IPC: 0.30909 (Simulation time: 0 hr 27 min 3 sec) 
Heartbeat CPU 0 instructions: 179000000 cycles: 576349573 heartbeat IPC: 0.311308 cumulative IPC: 0.309102 (Simulation time: 0 hr 27 min 12 sec) 
Heartbeat CPU 0 instructions: 180000000 cycles: 579583496 heartbeat IPC: 0.309222 cumulative IPC: 0.309103 (Simulation time: 0 hr 27 min 21 sec) 
Heartbeat CPU 0 instructions: 181000000 cycles: 582830209 heartbeat IPC: 0.308004 cumulative IPC: 0.309097 (Simulation time: 0 hr 27 min 31 sec) 
Heartbeat CPU 0 instructions: 182000002 cycles: 586083237 heartbeat IPC: 0.307407 cumulative IPC: 0.309087 (Simulation time: 0 hr 27 min 40 sec) 
Heartbeat CPU 0 instructions: 183000003 cycles: 589291032 heartbeat IPC: 0.311741 cumulative IPC: 0.309102 (Simulation time: 0 hr 27 min 49 sec) 
Heartbeat CPU 0 instructions: 184000001 cycles: 592519409 heartbeat IPC: 0.309753 cumulative IPC: 0.309105 (Simulation time: 0 hr 27 min 58 sec) 
Heartbeat CPU 0 instructions: 185000002 cycles: 595764164 heartbeat IPC: 0.30819 cumulative IPC: 0.3091 (Simulation time: 0 hr 28 min 7 sec) 
Heartbeat CPU 0 instructions: 186000001 cycles: 599005923 heartbeat IPC: 0.308474 cumulative IPC: 0.309097 (Simulation time: 0 hr 28 min 16 sec) 
Heartbeat CPU 0 instructions: 187000000 cycles: 602254492 heartbeat IPC: 0.307828 cumulative IPC: 0.30909 (Simulation time: 0 hr 28 min 25 sec) 
Heartbeat CPU 0 instructions: 188000000 cycles: 605525075 heartbeat IPC: 0.305756 cumulative IPC: 0.309072 (Simulation time: 0 hr 28 min 34 sec) 
Heartbeat CPU 0 instructions: 189000001 cycles: 608865700 heartbeat IPC: 0.299345 cumulative IPC: 0.309019 (Simulation time: 0 hr 28 min 44 sec) 
Heartbeat CPU 0 instructions: 190000002 cycles: 612122590 heartbeat IPC: 0.307042 cumulative IPC: 0.309008 (Simulation time: 0 hr 28 min 53 sec) 
Heartbeat CPU 0 instructions: 191000000 cycles: 615349512 heartbeat IPC: 0.309892 cumulative IPC: 0.309013 (Simulation time: 0 hr 29 min 2 sec) 
Heartbeat CPU 0 instructions: 192000000 cycles: 618569780 heartbeat IPC: 0.310533 cumulative IPC: 0.309021 (Simulation time: 0 hr 29 min 11 sec) 
Heartbeat CPU 0 instructions: 193000002 cycles: 621793934 heartbeat IPC: 0.31016 cumulative IPC: 0.309027 (Simulation time: 0 hr 29 min 20 sec) 
Heartbeat CPU 0 instructions: 194000000 cycles: 625038965 heartbeat IPC: 0.308163 cumulative IPC: 0.309022 (Simulation time: 0 hr 29 min 29 sec) 
Heartbeat CPU 0 instructions: 195000000 cycles: 628266444 heartbeat IPC: 0.309839 cumulative IPC: 0.309026 (Simulation time: 0 hr 29 min 38 sec) 
Heartbeat CPU 0 instructions: 196000002 cycles: 631478200 heartbeat IPC: 0.311357 cumulative IPC: 0.309038 (Simulation time: 0 hr 29 min 47 sec) 
Heartbeat CPU 0 instructions: 197000001 cycles: 634724346 heartbeat IPC: 0.308057 cumulative IPC: 0.309033 (Simulation time: 0 hr 29 min 57 sec) 
Heartbeat CPU 0 instructions: 198000000 cycles: 637948125 heartbeat IPC: 0.310195 cumulative IPC: 0.309039 (Simulation time: 0 hr 30 min 6 sec) 
Heartbeat CPU 0 instructions: 199000003 cycles: 641187969 heartbeat IPC: 0.308658 cumulative IPC: 0.309037 (Simulation time: 0 hr 30 min 15 sec) 
Heartbeat CPU 0 instructions: 200000000 cycles: 644408491 heartbeat IPC: 0.310508 cumulative IPC: 0.309044 (Simulation time: 0 hr 30 min 25 sec) 
Heartbeat CPU 0 instructions: 201000000 cycles: 647640399 heartbeat IPC: 0.309415 cumulative IPC: 0.309046 (Simulation time: 0 hr 30 min 34 sec) 
Heartbeat CPU 0 instructions: 202000000 cycles: 650884956 heartbeat IPC: 0.308208 cumulative IPC: 0.309042 (Simulation time: 0 hr 30 min 43 sec) 
Heartbeat CPU 0 instructions: 203000000 cycles: 654129477 heartbeat IPC: 0.308212 cumulative IPC: 0.309038 (Simulation time: 0 hr 30 min 52 sec) 
Heartbeat CPU 0 instructions: 204000001 cycles: 657340431 heartbeat IPC: 0.311434 cumulative IPC: 0.30905 (Simulation time: 0 hr 31 min 1 sec) 
Heartbeat CPU 0 instructions: 205000001 cycles: 660560832 heartbeat IPC: 0.31052 cumulative IPC: 0.309057 (Simulation time: 0 hr 31 min 10 sec) 
Heartbeat CPU 0 instructions: 206000000 cycles: 663802556 heartbeat IPC: 0.308478 cumulative IPC: 0.309054 (Simulation time: 0 hr 31 min 20 sec) 
Heartbeat CPU 0 instructions: 207000000 cycles: 667054776 heartbeat IPC: 0.307482 cumulative IPC: 0.309046 (Simulation time: 0 hr 31 min 29 sec) 
Heartbeat CPU 0 instructions: 208000003 cycles: 670280786 heartbeat IPC: 0.309981 cumulative IPC: 0.309051 (Simulation time: 0 hr 31 min 38 sec) 
Heartbeat CPU 0 instructions: 209000000 cycles: 673522705 heartbeat IPC: 0.308458 cumulative IPC: 0.309048 (Simulation time: 0 hr 31 min 47 sec) 
Heartbeat CPU 0 instructions: 210000002 cycles: 676751067 heartbeat IPC: 0.309755 cumulative IPC: 0.309051 (Simulation time: 0 hr 31 min 57 sec) 
Heartbeat CPU 0 instructions: 211000002 cycles: 679989300 heartbeat IPC: 0.30881 cumulative IPC: 0.30905 (Simulation time: 0 hr 32 min 6 sec) 
Heartbeat CPU 0 instructions: 212000002 cycles: 683228880 heartbeat IPC: 0.308682 cumulative IPC: 0.309049 (Simulation time: 0 hr 32 min 16 sec) 
Heartbeat CPU 0 instructions: 213000000 cycles: 686455188 heartbeat IPC: 0.309951 cumulative IPC: 0.309053 (Simulation time: 0 hr 32 min 24 sec) 
Heartbeat CPU 0 instructions: 214000003 cycles: 689672599 heartbeat IPC: 0.31081 cumulative IPC: 0.309061 (Simulation time: 0 hr 32 min 33 sec) 
Heartbeat CPU 0 instructions: 215000000 cycles: 692928612 heartbeat IPC: 0.307123 cumulative IPC: 0.309052 (Simulation time: 0 hr 32 min 42 sec) 
Heartbeat CPU 0 instructions: 216000002 cycles: 696230127 heartbeat IPC: 0.302892 cumulative IPC: 0.309023 (Simulation time: 0 hr 32 min 51 sec) 
Heartbeat CPU 0 instructions: 217000002 cycles: 699485326 heartbeat IPC: 0.307201 cumulative IPC: 0.309014 (Simulation time: 0 hr 33 min 0 sec) 
Heartbeat CPU 0 instructions: 218000000 cycles: 702736426 heartbeat IPC: 0.307588 cumulative IPC: 0.309008 (Simulation time: 0 hr 33 min 9 sec) 
Heartbeat CPU 0 instructions: 219000003 cycles: 705974144 heartbeat IPC: 0.30886 cumulative IPC: 0.309007 (Simulation time: 0 hr 33 min 18 sec) 
Heartbeat CPU 0 instructions: 220000000 cycles: 709227274 heartbeat IPC: 0.307395 cumulative IPC: 0.308999 (Simulation time: 0 hr 33 min 26 sec) 
Heartbeat CPU 0 instructions: 221000003 cycles: 712484462 heartbeat IPC: 0.307014 cumulative IPC: 0.30899 (Simulation time: 0 hr 33 min 35 sec) 
Heartbeat CPU 0 instructions: 222000000 cycles: 715776503 heartbeat IPC: 0.303762 cumulative IPC: 0.308966 (Simulation time: 0 hr 33 min 44 sec) 
Heartbeat CPU 0 instructions: 223000001 cycles: 719026559 heartbeat IPC: 0.307687 cumulative IPC: 0.308961 (Simulation time: 0 hr 33 min 53 sec) 
Heartbeat CPU 0 instructions: 224000001 cycles: 722269272 heartbeat IPC: 0.308384 cumulative IPC: 0.308958 (Simulation time: 0 hr 34 min 2 sec) 
Heartbeat CPU 0 instructions: 225000000 cycles: 725495095 heartbeat IPC: 0.309998 cumulative IPC: 0.308963 (Simulation time: 0 hr 34 min 12 sec) 
Heartbeat CPU 0 instructions: 226000001 cycles: 728730624 heartbeat IPC: 0.309069 cumulative IPC: 0.308963 (Simulation time: 0 hr 34 min 22 sec) 
Heartbeat CPU 0 instructions: 227000001 cycles: 731967513 heartbeat IPC: 0.308939 cumulative IPC: 0.308963 (Simulation time: 0 hr 34 min 31 sec) 
Heartbeat CPU 0 instructions: 228000002 cycles: 735216582 heartbeat IPC: 0.307781 cumulative IPC: 0.308958 (Simulation time: 0 hr 34 min 41 sec) 
Heartbeat CPU 0 instructions: 229000003 cycles: 738445079 heartbeat IPC: 0.309742 cumulative IPC: 0.308961 (Simulation time: 0 hr 34 min 50 sec) 
Heartbeat CPU 0 instructions: 230000003 cycles: 741674650 heartbeat IPC: 0.309639 cumulative IPC: 0.308964 (Simulation time: 0 hr 35 min 0 sec) 
Heartbeat CPU 0 instructions: 231000000 cycles: 744903061 heartbeat IPC: 0.309749 cumulative IPC: 0.308968 (Simulation time: 0 hr 35 min 9 sec) 
Heartbeat CPU 0 instructions: 232000003 cycles: 748144669 heartbeat IPC: 0.30849 cumulative IPC: 0.308965 (Simulation time: 0 hr 35 min 19 sec) 
Heartbeat CPU 0 instructions: 233000000 cycles: 751400628 heartbeat IPC: 0.307128 cumulative IPC: 0.308957 (Simulation time: 0 hr 35 min 28 sec) 
Heartbeat CPU 0 instructions: 234000003 cycles: 754670102 heartbeat IPC: 0.305861 cumulative IPC: 0.308944 (Simulation time: 0 hr 35 min 38 sec) 
Heartbeat CPU 0 instructions: 235000001 cycles: 757902915 heartbeat IPC: 0.309328 cumulative IPC: 0.308946 (Simulation time: 0 hr 35 min 47 sec) 
Heartbeat CPU 0 instructions: 236000000 cycles: 761176441 heartbeat IPC: 0.305481 cumulative IPC: 0.308931 (Simulation time: 0 hr 35 min 57 sec) 
Heartbeat CPU 0 instructions: 237000003 cycles: 764407992 heartbeat IPC: 0.30945 cumulative IPC: 0.308933 (Simulation time: 0 hr 36 min 6 sec) 
Heartbeat CPU 0 instructions: 238000001 cycles: 767680951 heartbeat IPC: 0.305533 cumulative IPC: 0.308918 (Simulation time: 0 hr 36 min 15 sec) 
Heartbeat CPU 0 instructions: 239000002 cycles: 770912905 heartbeat IPC: 0.309411 cumulative IPC: 0.308921 (Simulation time: 0 hr 36 min 25 sec) 
Heartbeat CPU 0 instructions: 240000000 cycles: 774166088 heartbeat IPC: 0.307391 cumulative IPC: 0.308914 (Simulation time: 0 hr 36 min 34 sec) 
Heartbeat CPU 0 instructions: 241000003 cycles: 777384511 heartbeat IPC: 0.310712 cumulative IPC: 0.308922 (Simulation time: 0 hr 36 min 44 sec) 
Heartbeat CPU 0 instructions: 242000000 cycles: 780649860 heartbeat IPC: 0.306245 cumulative IPC: 0.30891 (Simulation time: 0 hr 36 min 53 sec) 
Heartbeat CPU 0 instructions: 243000000 cycles: 783895849 heartbeat IPC: 0.308073 cumulative IPC: 0.308907 (Simulation time: 0 hr 37 min 3 sec) 
Heartbeat CPU 0 instructions: 244000000 cycles: 787130086 heartbeat IPC: 0.309192 cumulative IPC: 0.308908 (Simulation time: 0 hr 37 min 13 sec) 
Heartbeat CPU 0 instructions: 245000001 cycles: 790368355 heartbeat IPC: 0.308807 cumulative IPC: 0.308908 (Simulation time: 0 hr 37 min 22 sec) 
Heartbeat CPU 0 instructions: 246000000 cycles: 793638960 heartbeat IPC: 0.305754 cumulative IPC: 0.308895 (Simulation time: 0 hr 37 min 32 sec) 
Heartbeat CPU 0 instructions: 247000001 cycles: 796887701 heartbeat IPC: 0.307812 cumulative IPC: 0.30889 (Simulation time: 0 hr 37 min 41 sec) 
Heartbeat CPU 0 instructions: 248000001 cycles: 800131955 heartbeat IPC: 0.308237 cumulative IPC: 0.308888 (Simulation time: 0 hr 37 min 50 sec) 
Heartbeat CPU 0 instructions: 249000000 cycles: 803360839 heartbeat IPC: 0.309704 cumulative IPC: 0.308891 (Simulation time: 0 hr 37 min 59 sec) 
Heartbeat CPU 0 instructions: 250000000 cycles: 806600563 heartbeat IPC: 0.308668 cumulative IPC: 0.30889 (Simulation time: 0 hr 38 min 9 sec) 
Heartbeat CPU 0 instructions: 251000001 cycles: 809840252 heartbeat IPC: 0.308672 cumulative IPC: 0.308889 (Simulation time: 0 hr 38 min 18 sec) 
Heartbeat CPU 0 instructions: 252000000 cycles: 813067884 heartbeat IPC: 0.309824 cumulative IPC: 0.308893 (Simulation time: 0 hr 38 min 28 sec) 
Heartbeat CPU 0 instructions: 253000000 cycles: 816334296 heartbeat IPC: 0.306146 cumulative IPC: 0.308882 (Simulation time: 0 hr 38 min 37 sec) 
Heartbeat CPU 0 instructions: 254000001 cycles: 819555996 heartbeat IPC: 0.310395 cumulative IPC: 0.308888 (Simulation time: 0 hr 38 min 47 sec) 
Heartbeat CPU 0 instructions: 255000002 cycles: 822812397 heartbeat IPC: 0.307088 cumulative IPC: 0.308881 (Simulation time: 0 hr 38 min 56 sec) 
Heartbeat CPU 0 instructions: 256000003 cycles: 826048003 heartbeat IPC: 0.309061 cumulative IPC: 0.308881 (Simulation time: 0 hr 39 min 6 sec) 
Heartbeat CPU 0 instructions: 257000003 cycles: 829262580 heartbeat IPC: 0.311083 cumulative IPC: 0.30889 (Simulation time: 0 hr 39 min 15 sec) 
Heartbeat CPU 0 instructions: 258000003 cycles: 832508846 heartbeat IPC: 0.308046 cumulative IPC: 0.308887 (Simulation time: 0 hr 39 min 24 sec) 
Heartbeat CPU 0 instructions: 259000000 cycles: 835738749 heartbeat IPC: 0.309606 cumulative IPC: 0.308889 (Simulation time: 0 hr 39 min 34 sec) 
Heartbeat CPU 0 instructions: 260000000 cycles: 839028719 heartbeat IPC: 0.303954 cumulative IPC: 0.30887 (Simulation time: 0 hr 39 min 43 sec) 
Heartbeat CPU 0 instructions: 261000003 cycles: 842282569 heartbeat IPC: 0.307329 cumulative IPC: 0.308864 (Simulation time: 0 hr 39 min 53 sec) 
Heartbeat CPU 0 instructions: 262000003 cycles: 845550043 heartbeat IPC: 0.306047 cumulative IPC: 0.308853 (Simulation time: 0 hr 40 min 2 sec) 
Heartbeat CPU 0 instructions: 263000001 cycles: 848826568 heartbeat IPC: 0.305201 cumulative IPC: 0.308839 (Simulation time: 0 hr 40 min 12 sec) 
Heartbeat CPU 0 instructions: 264000000 cycles: 852079678 heartbeat IPC: 0.307398 cumulative IPC: 0.308834 (Simulation time: 0 hr 40 min 21 sec) 
Heartbeat CPU 0 instructions: 265000003 cycles: 855299136 heartbeat IPC: 0.310612 cumulative IPC: 0.30884 (Simulation time: 0 hr 40 min 30 sec) 
Heartbeat CPU 0 instructions: 266000000 cycles: 858539984 heartbeat IPC: 0.30856 cumulative IPC: 0.308839 (Simulation time: 0 hr 40 min 40 sec) 
Heartbeat CPU 0 instructions: 267000000 cycles: 861817437 heartbeat IPC: 0.305115 cumulative IPC: 0.308825 (Simulation time: 0 hr 40 min 49 sec) 
Heartbeat CPU 0 instructions: 268000002 cycles: 865058395 heartbeat IPC: 0.308551 cumulative IPC: 0.308824 (Simulation time: 0 hr 40 min 59 sec) 
Heartbeat CPU 0 instructions: 269000001 cycles: 868282766 heartbeat IPC: 0.310138 cumulative IPC: 0.308829 (Simulation time: 0 hr 41 min 8 sec) 
Heartbeat CPU 0 instructions: 270000002 cycles: 871523147 heartbeat IPC: 0.308606 cumulative IPC: 0.308828 (Simulation time: 0 hr 41 min 18 sec) 
Heartbeat CPU 0 instructions: 271000001 cycles: 874758592 heartbeat IPC: 0.309076 cumulative IPC: 0.308829 (Simulation time: 0 hr 41 min 27 sec) 
Heartbeat CPU 0 instructions: 272000002 cycles: 877985357 heartbeat IPC: 0.309908 cumulative IPC: 0.308833 (Simulation time: 0 hr 41 min 36 sec) 
Heartbeat CPU 0 instructions: 273000000 cycles: 881222504 heartbeat IPC: 0.308913 cumulative IPC: 0.308833 (Simulation time: 0 hr 41 min 45 sec) 
Heartbeat CPU 0 instructions: 274000000 cycles: 884448278 heartbeat IPC: 0.310003 cumulative IPC: 0.308837 (Simulation time: 0 hr 41 min 54 sec) 
Heartbeat CPU 0 instructions: 275000000 cycles: 887694832 heartbeat IPC: 0.308019 cumulative IPC: 0.308834 (Simulation time: 0 hr 42 min 3 sec) 
Heartbeat CPU 0 instructions: 276000000 cycles: 890935928 heartbeat IPC: 0.308538 cumulative IPC: 0.308833 (Simulation time: 0 hr 42 min 12 sec) 
Heartbeat CPU 0 instructions: 277000002 cycles: 894160490 heartbeat IPC: 0.31012 cumulative IPC: 0.308838 (Simulation time: 0 hr 42 min 21 sec) 
Heartbeat CPU 0 instructions: 278000003 cycles: 897398126 heartbeat IPC: 0.308868 cumulative IPC: 0.308838 (Simulation time: 0 hr 42 min 30 sec) 
Heartbeat CPU 0 instructions: 279000000 cycles: 900649156 heartbeat IPC: 0.307594 cumulative IPC: 0.308834 (Simulation time: 0 hr 42 min 39 sec) 
Heartbeat CPU 0 instructions: 280000001 cycles: 903912488 heartbeat IPC: 0.306436 cumulative IPC: 0.308825 (Simulation time: 0 hr 42 min 49 sec) 
Heartbeat CPU 0 instructions: 281000001 cycles: 907161268 heartbeat IPC: 0.307808 cumulative IPC: 0.308821 (Simulation time: 0 hr 42 min 58 sec) 
Heartbeat CPU 0 instructions: 282000002 cycles: 910370503 heartbeat IPC: 0.311601 cumulative IPC: 0.308831 (Simulation time: 0 hr 43 min 7 sec) 
Heartbeat CPU 0 instructions: 283000000 cycles: 913640157 heartbeat IPC: 0.305842 cumulative IPC: 0.30882 (Simulation time: 0 hr 43 min 16 sec) 
Heartbeat CPU 0 instructions: 284000001 cycles: 916908106 heartbeat IPC: 0.306003 cumulative IPC: 0.30881 (Simulation time: 0 hr 43 min 25 sec) 
Heartbeat CPU 0 instructions: 285000001 cycles: 920122711 heartbeat IPC: 0.31108 cumulative IPC: 0.308818 (Simulation time: 0 hr 43 min 34 sec) 
Heartbeat CPU 0 instructions: 286000000 cycles: 923348646 heartbeat IPC: 0.309987 cumulative IPC: 0.308822 (Simulation time: 0 hr 43 min 43 sec) 
Heartbeat CPU 0 instructions: 287000002 cycles: 926573549 heartbeat IPC: 0.310087 cumulative IPC: 0.308827 (Simulation time: 0 hr 43 min 53 sec) 
Heartbeat CPU 0 instructions: 288000000 cycles: 929817459 heartbeat IPC: 0.308269 cumulative IPC: 0.308825 (Simulation time: 0 hr 44 min 2 sec) 
Heartbeat CPU 0 instructions: 289000001 cycles: 933039043 heartbeat IPC: 0.310407 cumulative IPC: 0.30883 (Simulation time: 0 hr 44 min 11 sec) 
Heartbeat CPU 0 instructions: 290000002 cycles: 936247435 heartbeat IPC: 0.311683 cumulative IPC: 0.30884 (Simulation time: 0 hr 44 min 20 sec) 
Heartbeat CPU 0 instructions: 291000003 cycles: 939482854 heartbeat IPC: 0.309079 cumulative IPC: 0.308841 (Simulation time: 0 hr 44 min 29 sec) 
Heartbeat CPU 0 instructions: 292000003 cycles: 942734610 heartbeat IPC: 0.307526 cumulative IPC: 0.308836 (Simulation time: 0 hr 44 min 39 sec) 
Heartbeat CPU 0 instructions: 293000002 cycles: 945950265 heartbeat IPC: 0.310978 cumulative IPC: 0.308844 (Simulation time: 0 hr 44 min 48 sec) 
Heartbeat CPU 0 instructions: 294000000 cycles: 949168161 heartbeat IPC: 0.310761 cumulative IPC: 0.30885 (Simulation time: 0 hr 44 min 57 sec) 
Heartbeat CPU 0 instructions: 295000003 cycles: 952384244 heartbeat IPC: 0.310938 cumulative IPC: 0.308857 (Simulation time: 0 hr 45 min 6 sec) 
Heartbeat CPU 0 instructions: 296000000 cycles: 955641621 heartbeat IPC: 0.306995 cumulative IPC: 0.308851 (Simulation time: 0 hr 45 min 15 sec) 
Heartbeat CPU 0 instructions: 297000000 cycles: 958855958 heartbeat IPC: 0.311106 cumulative IPC: 0.308858 (Simulation time: 0 hr 45 min 25 sec) 
Heartbeat CPU 0 instructions: 298000001 cycles: 962083347 heartbeat IPC: 0.309848 cumulative IPC: 0.308862 (Simulation time: 0 hr 45 min 34 sec) 
Heartbeat CPU 0 instructions: 299000000 cycles: 965318291 heartbeat IPC: 0.309124 cumulative IPC: 0.308863 (Simulation time: 0 hr 45 min 43 sec) 
Heartbeat CPU 0 instructions: 300000000 cycles: 968544692 heartbeat IPC: 0.309943 cumulative IPC: 0.308866 (Simulation time: 0 hr 45 min 52 sec) 
Heartbeat CPU 0 instructions: 301000003 cycles: 971772731 heartbeat IPC: 0.309787 cumulative IPC: 0.308869 (Simulation time: 0 hr 46 min 1 sec) 
Heartbeat CPU 0 instructions: 302000000 cycles: 974998235 heartbeat IPC: 0.310028 cumulative IPC: 0.308873 (Simulation time: 0 hr 46 min 11 sec) 
Heartbeat CPU 0 instructions: 303000003 cycles: 978253931 heartbeat IPC: 0.307155 cumulative IPC: 0.308867 (Simulation time: 0 hr 46 min 20 sec) 
Heartbeat CPU 0 instructions: 304000001 cycles: 981536077 heartbeat IPC: 0.304678 cumulative IPC: 0.308853 (Simulation time: 0 hr 46 min 29 sec) 
Heartbeat CPU 0 instructions: 305000001 cycles: 984770983 heartbeat IPC: 0.309128 cumulative IPC: 0.308854 (Simulation time: 0 hr 46 min 38 sec) 
Heartbeat CPU 0 instructions: 306000000 cycles: 987989824 heartbeat IPC: 0.310671 cumulative IPC: 0.30886 (Simulation time: 0 hr 46 min 48 sec) 
Heartbeat CPU 0 instructions: 307000001 cycles: 991235749 heartbeat IPC: 0.308079 cumulative IPC: 0.308858 (Simulation time: 0 hr 46 min 57 sec) 
Heartbeat CPU 0 instructions: 308000000 cycles: 994465334 heartbeat IPC: 0.309637 cumulative IPC: 0.30886 (Simulation time: 0 hr 47 min 6 sec) 
Heartbeat CPU 0 instructions: 309000000 cycles: 997718157 heartbeat IPC: 0.307425 cumulative IPC: 0.308856 (Simulation time: 0 hr 47 min 15 sec) 
Heartbeat CPU 0 instructions: 310000000 cycles: 1000949053 heartbeat IPC: 0.309512 cumulative IPC: 0.308858 (Simulation time: 0 hr 47 min 24 sec) 
Heartbeat CPU 0 instructions: 311000003 cycles: 1004180868 heartbeat IPC: 0.309425 cumulative IPC: 0.308859 (Simulation time: 0 hr 47 min 34 sec) 
Heartbeat CPU 0 instructions: 312000001 cycles: 1007415699 heartbeat IPC: 0.309135 cumulative IPC: 0.30886 (Simulation time: 0 hr 47 min 43 sec) 
Heartbeat CPU 0 instructions: 313000003 cycles: 1010654336 heartbeat IPC: 0.308772 cumulative IPC: 0.30886 (Simulation time: 0 hr 47 min 52 sec) 
Heartbeat CPU 0 instructions: 314000002 cycles: 1013876796 heartbeat IPC: 0.310322 cumulative IPC: 0.308865 (Simulation time: 0 hr 48 min 1 sec) 
Heartbeat CPU 0 instructions: 315000000 cycles: 1017103729 heartbeat IPC: 0.309891 cumulative IPC: 0.308868 (Simulation time: 0 hr 48 min 10 sec) 
Heartbeat CPU 0 instructions: 316000000 cycles: 1020367452 heartbeat IPC: 0.306399 cumulative IPC: 0.30886 (Simulation time: 0 hr 48 min 20 sec) 
Heartbeat CPU 0 instructions: 317000000 cycles: 1023601572 heartbeat IPC: 0.309203 cumulative IPC: 0.308861 (Simulation time: 0 hr 48 min 29 sec) 
Heartbeat CPU 0 instructions: 318000003 cycles: 1026844457 heartbeat IPC: 0.308368 cumulative IPC: 0.30886 (Simulation time: 0 hr 48 min 38 sec) 
Heartbeat CPU 0 instructions: 319000000 cycles: 1030067746 heartbeat IPC: 0.310241 cumulative IPC: 0.308864 (Simulation time: 0 hr 48 min 47 sec) 
Heartbeat CPU 0 instructions: 320000001 cycles: 1033304836 heartbeat IPC: 0.30892 cumulative IPC: 0.308864 (Simulation time: 0 hr 48 min 57 sec) 
Heartbeat CPU 0 instructions: 321000000 cycles: 1036559385 heartbeat IPC: 0.307262 cumulative IPC: 0.308859 (Simulation time: 0 hr 49 min 6 sec) 
Heartbeat CPU 0 instructions: 322000001 cycles: 1039806381 heartbeat IPC: 0.307977 cumulative IPC: 0.308856 (Simulation time: 0 hr 49 min 15 sec) 
Heartbeat CPU 0 instructions: 323000002 cycles: 1043023874 heartbeat IPC: 0.310801 cumulative IPC: 0.308862 (Simulation time: 0 hr 49 min 24 sec) 
Heartbeat CPU 0 instructions: 324000000 cycles: 1046245342 heartbeat IPC: 0.310417 cumulative IPC: 0.308867 (Simulation time: 0 hr 49 min 33 sec) 
Heartbeat CPU 0 instructions: 325000000 cycles: 1049503083 heartbeat IPC: 0.306961 cumulative IPC: 0.308861 (Simulation time: 0 hr 49 min 43 sec) 
Heartbeat CPU 0 instructions: 326000002 cycles: 1052732115 heartbeat IPC: 0.309691 cumulative IPC: 0.308864 (Simulation time: 0 hr 49 min 52 sec) 
Heartbeat CPU 0 instructions: 327000001 cycles: 1055947558 heartbeat IPC: 0.310999 cumulative IPC: 0.30887 (Simulation time: 0 hr 50 min 1 sec) 
Heartbeat CPU 0 instructions: 328000003 cycles: 1059181442 heartbeat IPC: 0.309226 cumulative IPC: 0.308871 (Simulation time: 0 hr 50 min 10 sec) 
Heartbeat CPU 0 instructions: 329000000 cycles: 1062428904 heartbeat IPC: 0.307932 cumulative IPC: 0.308868 (Simulation time: 0 hr 50 min 20 sec) 
Heartbeat CPU 0 instructions: 330000000 cycles: 1065663329 heartbeat IPC: 0.309174 cumulative IPC: 0.308869 (Simulation time: 0 hr 50 min 29 sec) 
Heartbeat CPU 0 instructions: 331000000 cycles: 1068883628 heartbeat IPC: 0.31053 cumulative IPC: 0.308874 (Simulation time: 0 hr 50 min 38 sec) 
Heartbeat CPU 0 instructions: 332000000 cycles: 1072122847 heartbeat IPC: 0.308716 cumulative IPC: 0.308874 (Simulation time: 0 hr 50 min 47 sec) 
Heartbeat CPU 0 instructions: 333000001 cycles: 1075353390 heartbeat IPC: 0.309546 cumulative IPC: 0.308876 (Simulation time: 0 hr 50 min 57 sec) 
Heartbeat CPU 0 instructions: 334000003 cycles: 1078580459 heartbeat IPC: 0.309879 cumulative IPC: 0.308879 (Simulation time: 0 hr 51 min 6 sec) 
Heartbeat CPU 0 instructions: 335000000 cycles: 1081809221 heartbeat IPC: 0.309715 cumulative IPC: 0.308881 (Simulation time: 0 hr 51 min 15 sec) 
Heartbeat CPU 0 instructions: 336000002 cycles: 1085057805 heartbeat IPC: 0.307827 cumulative IPC: 0.308878 (Simulation time: 0 hr 51 min 24 sec) 
Heartbeat CPU 0 instructions: 337000000 cycles: 1088291365 heartbeat IPC: 0.309256 cumulative IPC: 0.308879 (Simulation time: 0 hr 51 min 33 sec) 
Heartbeat CPU 0 instructions: 338000003 cycles: 1091524323 heartbeat IPC: 0.309315 cumulative IPC: 0.308881 (Simulation time: 0 hr 51 min 42 sec) 
Heartbeat CPU 0 instructions: 339000000 cycles: 1094744594 heartbeat IPC: 0.310532 cumulative IPC: 0.308886 (Simulation time: 0 hr 51 min 51 sec) 
Heartbeat CPU 0 instructions: 340000000 cycles: 1097975650 heartbeat IPC: 0.309496 cumulative IPC: 0.308887 (Simulation time: 0 hr 52 min 0 sec) 
Heartbeat CPU 0 instructions: 341000000 cycles: 1101204954 heartbeat IPC: 0.309664 cumulative IPC: 0.30889 (Simulation time: 0 hr 52 min 9 sec) 
Heartbeat CPU 0 instructions: 342000003 cycles: 1104446551 heartbeat IPC: 0.308491 cumulative IPC: 0.308888 (Simulation time: 0 hr 52 min 18 sec) 
Heartbeat CPU 0 instructions: 343000001 cycles: 1107687515 heartbeat IPC: 0.30855 cumulative IPC: 0.308887 (Simulation time: 0 hr 52 min 27 sec) 
Heartbeat CPU 0 instructions: 344000000 cycles: 1110920177 heartbeat IPC: 0.309342 cumulative IPC: 0.308889 (Simulation time: 0 hr 52 min 36 sec) 
Heartbeat CPU 0 instructions: 345000000 cycles: 1114163435 heartbeat IPC: 0.308332 cumulative IPC: 0.308887 (Simulation time: 0 hr 52 min 45 sec) 
Heartbeat CPU 0 instructions: 346000002 cycles: 1117393061 heartbeat IPC: 0.309634 cumulative IPC: 0.308889 (Simulation time: 0 hr 52 min 54 sec) 
Heartbeat CPU 0 instructions: 347000000 cycles: 1120599000 heartbeat IPC: 0.31192 cumulative IPC: 0.308898 (Simulation time: 0 hr 53 min 3 sec) 
Heartbeat CPU 0 instructions: 348000000 cycles: 1123818565 heartbeat IPC: 0.310601 cumulative IPC: 0.308903 (Simulation time: 0 hr 53 min 12 sec) 
Heartbeat CPU 0 instructions: 349000003 cycles: 1127056812 heartbeat IPC: 0.30881 cumulative IPC: 0.308903 (Simulation time: 0 hr 53 min 22 sec) 
Heartbeat CPU 0 instructions: 350000000 cycles: 1130290598 heartbeat IPC: 0.309234 cumulative IPC: 0.308904 (Simulation time: 0 hr 53 min 31 sec) 
Heartbeat CPU 0 instructions: 351000002 cycles: 1133528589 heartbeat IPC: 0.308834 cumulative IPC: 0.308903 (Simulation time: 0 hr 53 min 40 sec) 
Heartbeat CPU 0 instructions: 352000000 cycles: 1136782058 heartbeat IPC: 0.307364 cumulative IPC: 0.308899 (Simulation time: 0 hr 53 min 49 sec) 
Heartbeat CPU 0 instructions: 353000003 cycles: 1140011054 heartbeat IPC: 0.309695 cumulative IPC: 0.308901 (Simulation time: 0 hr 53 min 59 sec) 
Heartbeat CPU 0 instructions: 354000001 cycles: 1143241256 heartbeat IPC: 0.309578 cumulative IPC: 0.308903 (Simulation time: 0 hr 54 min 9 sec) 
Heartbeat CPU 0 instructions: 355000003 cycles: 1146459002 heartbeat IPC: 0.310777 cumulative IPC: 0.308908 (Simulation time: 0 hr 54 min 18 sec) 
Heartbeat CPU 0 instructions: 356000003 cycles: 1149707217 heartbeat IPC: 0.307861 cumulative IPC: 0.308905 (Simulation time: 0 hr 54 min 27 sec) 
Heartbeat CPU 0 instructions: 357000003 cycles: 1152948180 heartbeat IPC: 0.30855 cumulative IPC: 0.308904 (Simulation time: 0 hr 54 min 36 sec) 
Heartbeat CPU 0 instructions: 358000002 cycles: 1156193730 heartbeat IPC: 0.308114 cumulative IPC: 0.308902 (Simulation time: 0 hr 54 min 45 sec) 
Heartbeat CPU 0 instructions: 359000002 cycles: 1159416248 heartbeat IPC: 0.310316 cumulative IPC: 0.308906 (Simulation time: 0 hr 54 min 54 sec) 
Heartbeat CPU 0 instructions: 360000000 cycles: 1162641262 heartbeat IPC: 0.310076 cumulative IPC: 0.308909 (Simulation time: 0 hr 55 min 2 sec) 
Heartbeat CPU 0 instructions: 361000001 cycles: 1165873785 heartbeat IPC: 0.309356 cumulative IPC: 0.308911 (Simulation time: 0 hr 55 min 11 sec) 
Heartbeat CPU 0 instructions: 362000002 cycles: 1169110881 heartbeat IPC: 0.308919 cumulative IPC: 0.308911 (Simulation time: 0 hr 55 min 20 sec) 
Heartbeat CPU 0 instructions: 363000000 cycles: 1172339333 heartbeat IPC: 0.309745 cumulative IPC: 0.308913 (Simulation time: 0 hr 55 min 29 sec) 
Heartbeat CPU 0 instructions: 364000003 cycles: 1175589926 heartbeat IPC: 0.307637 cumulative IPC: 0.308909 (Simulation time: 0 hr 55 min 38 sec) 
Heartbeat CPU 0 instructions: 365000000 cycles: 1178819122 heartbeat IPC: 0.309674 cumulative IPC: 0.308912 (Simulation time: 0 hr 55 min 47 sec) 
Heartbeat CPU 0 instructions: 366000002 cycles: 1182041013 heartbeat IPC: 0.310377 cumulative IPC: 0.308916 (Simulation time: 0 hr 55 min 55 sec) 
Heartbeat CPU 0 instructions: 367000003 cycles: 1185283442 heartbeat IPC: 0.308411 cumulative IPC: 0.308914 (Simulation time: 0 hr 56 min 4 sec) 
Heartbeat CPU 0 instructions: 368000000 cycles: 1188509252 heartbeat IPC: 0.309999 cumulative IPC: 0.308917 (Simulation time: 0 hr 56 min 13 sec) 
Heartbeat CPU 0 instructions: 369000003 cycles: 1191743094 heartbeat IPC: 0.309231 cumulative IPC: 0.308918 (Simulation time: 0 hr 56 min 22 sec) 
Heartbeat CPU 0 instructions: 370000002 cycles: 1195003070 heartbeat IPC: 0.30675 cumulative IPC: 0.308912 (Simulation time: 0 hr 56 min 31 sec) 
Heartbeat CPU 0 instructions: 371000000 cycles: 1198243967 heartbeat IPC: 0.308556 cumulative IPC: 0.308911 (Simulation time: 0 hr 56 min 40 sec) 
Heartbeat CPU 0 instructions: 372000003 cycles: 1201461365 heartbeat IPC: 0.310811 cumulative IPC: 0.308916 (Simulation time: 0 hr 56 min 48 sec) 
Heartbeat CPU 0 instructions: 373000003 cycles: 1204707071 heartbeat IPC: 0.308099 cumulative IPC: 0.308914 (Simulation time: 0 hr 56 min 57 sec) 
Heartbeat CPU 0 instructions: 374000000 cycles: 1207979686 heartbeat IPC: 0.305565 cumulative IPC: 0.308905 (Simulation time: 0 hr 57 min 6 sec) 
Heartbeat CPU 0 instructions: 375000000 cycles: 1211194929 heartbeat IPC: 0.311018 cumulative IPC: 0.30891 (Simulation time: 0 hr 57 min 15 sec) 
Heartbeat CPU 0 instructions: 376000002 cycles: 1214431083 heartbeat IPC: 0.309009 cumulative IPC: 0.308911 (Simulation time: 0 hr 57 min 24 sec) 
Heartbeat CPU 0 instructions: 377000002 cycles: 1217685895 heartbeat IPC: 0.307237 cumulative IPC: 0.308906 (Simulation time: 0 hr 57 min 33 sec) 
Heartbeat CPU 0 instructions: 378000000 cycles: 1220947743 heartbeat IPC: 0.306574 cumulative IPC: 0.3089 (Simulation time: 0 hr 57 min 42 sec) 
Heartbeat CPU 0 instructions: 379000002 cycles: 1224201032 heartbeat IPC: 0.307382 cumulative IPC: 0.308896 (Simulation time: 0 hr 57 min 50 sec) 
Heartbeat CPU 0 instructions: 380000003 cycles: 1227477819 heartbeat IPC: 0.305177 cumulative IPC: 0.308886 (Simulation time: 0 hr 57 min 59 sec) 
Heartbeat CPU 0 instructions: 381000003 cycles: 1230723081 heartbeat IPC: 0.308142 cumulative IPC: 0.308884 (Simulation time: 0 hr 58 min 8 sec) 
Heartbeat CPU 0 instructions: 382000000 cycles: 1233959026 heartbeat IPC: 0.309028 cumulative IPC: 0.308885 (Simulation time: 0 hr 58 min 17 sec) 
Heartbeat CPU 0 instructions: 383000000 cycles: 1237197731 heartbeat IPC: 0.308765 cumulative IPC: 0.308884 (Simulation time: 0 hr 58 min 26 sec) 
Heartbeat CPU 0 instructions: 384000001 cycles: 1240434985 heartbeat IPC: 0.308904 cumulative IPC: 0.308884 (Simulation time: 0 hr 58 min 35 sec) 
Heartbeat CPU 0 instructions: 385000000 cycles: 1243658152 heartbeat IPC: 0.310254 cumulative IPC: 0.308888 (Simulation time: 0 hr 58 min 44 sec) 
Heartbeat CPU 0 instructions: 386000000 cycles: 1246898183 heartbeat IPC: 0.308639 cumulative IPC: 0.308887 (Simulation time: 0 hr 58 min 53 sec) 
Heartbeat CPU 0 instructions: 387000003 cycles: 1250126553 heartbeat IPC: 0.309755 cumulative IPC: 0.308889 (Simulation time: 0 hr 59 min 2 sec) 
Heartbeat CPU 0 instructions: 388000000 cycles: 1253358582 heartbeat IPC: 0.309402 cumulative IPC: 0.308891 (Simulation time: 0 hr 59 min 11 sec) 
Heartbeat CPU 0 instructions: 389000000 cycles: 1256597820 heartbeat IPC: 0.308715 cumulative IPC: 0.30889 (Simulation time: 0 hr 59 min 20 sec) 
Heartbeat CPU 0 instructions: 390000002 cycles: 1259884895 heartbeat IPC: 0.304222 cumulative IPC: 0.308878 (Simulation time: 0 hr 59 min 29 sec) 
Heartbeat CPU 0 instructions: 391000001 cycles: 1263112416 heartbeat IPC: 0.309835 cumulative IPC: 0.308881 (Simulation time: 0 hr 59 min 38 sec) 
Heartbeat CPU 0 instructions: 392000002 cycles: 1266343221 heartbeat IPC: 0.309521 cumulative IPC: 0.308882 (Simulation time: 0 hr 59 min 47 sec) 
Heartbeat CPU 0 instructions: 393000003 cycles: 1269619255 heartbeat IPC: 0.305247 cumulative IPC: 0.308873 (Simulation time: 0 hr 59 min 56 sec) 
Heartbeat CPU 0 instructions: 394000000 cycles: 1272850079 heartbeat IPC: 0.309518 cumulative IPC: 0.308874 (Simulation time: 1 hr 0 min 5 sec) 
Heartbeat CPU 0 instructions: 395000003 cycles: 1276120629 heartbeat IPC: 0.30576 cumulative IPC: 0.308866 (Simulation time: 1 hr 0 min 14 sec) 
Heartbeat CPU 0 instructions: 396000000 cycles: 1279340759 heartbeat IPC: 0.310546 cumulative IPC: 0.308871 (Simulation time: 1 hr 0 min 24 sec) 
Heartbeat CPU 0 instructions: 397000000 cycles: 1282588046 heartbeat IPC: 0.307949 cumulative IPC: 0.308868 (Simulation time: 1 hr 0 min 33 sec) 
Heartbeat CPU 0 instructions: 398000002 cycles: 1285825681 heartbeat IPC: 0.308868 cumulative IPC: 0.308868 (Simulation time: 1 hr 0 min 42 sec) 
Heartbeat CPU 0 instructions: 399000003 cycles: 1289083311 heartbeat IPC: 0.306972 cumulative IPC: 0.308864 (Simulation time: 1 hr 0 min 51 sec) 
Heartbeat CPU 0 instructions: 400000000 cycles: 1292317565 heartbeat IPC: 0.309189 cumulative IPC: 0.308864 (Simulation time: 1 hr 1 min 0 sec) 
Heartbeat CPU 0 instructions: 401000000 cycles: 1295576412 heartbeat IPC: 0.306857 cumulative IPC: 0.308859 (Simulation time: 1 hr 1 min 9 sec) 
Heartbeat CPU 0 instructions: 402000001 cycles: 1298809177 heartbeat IPC: 0.309333 cumulative IPC: 0.30886 (Simulation time: 1 hr 1 min 18 sec) 
Heartbeat CPU 0 instructions: 403000001 cycles: 1302072105 heartbeat IPC: 0.306473 cumulative IPC: 0.308854 (Simulation time: 1 hr 1 min 27 sec) 
Heartbeat CPU 0 instructions: 404000003 cycles: 1305302319 heartbeat IPC: 0.309578 cumulative IPC: 0.308856 (Simulation time: 1 hr 1 min 36 sec) 
Heartbeat CPU 0 instructions: 405000002 cycles: 1308527242 heartbeat IPC: 0.310085 cumulative IPC: 0.308859 (Simulation time: 1 hr 1 min 45 sec) 
Heartbeat CPU 0 instructions: 406000003 cycles: 1311767959 heartbeat IPC: 0.308574 cumulative IPC: 0.308859 (Simulation time: 1 hr 1 min 54 sec) 
Heartbeat CPU 0 instructions: 407000000 cycles: 1315007077 heartbeat IPC: 0.308725 cumulative IPC: 0.308858 (Simulation time: 1 hr 2 min 3 sec) 
Heartbeat CPU 0 instructions: 408000000 cycles: 1318240736 heartbeat IPC: 0.309247 cumulative IPC: 0.308859 (Simulation time: 1 hr 2 min 12 sec) 
Heartbeat CPU 0 instructions: 409000001 cycles: 1321458944 heartbeat IPC: 0.310732 cumulative IPC: 0.308864 (Simulation time: 1 hr 2 min 21 sec) 
Heartbeat CPU 0 instructions: 410000003 cycles: 1324716942 heartbeat IPC: 0.306938 cumulative IPC: 0.308859 (Simulation time: 1 hr 2 min 30 sec) 
Heartbeat CPU 0 instructions: 411000003 cycles: 1327966071 heartbeat IPC: 0.307775 cumulative IPC: 0.308856 (Simulation time: 1 hr 2 min 39 sec) 
Heartbeat CPU 0 instructions: 412000000 cycles: 1331226847 heartbeat IPC: 0.306675 cumulative IPC: 0.308851 (Simulation time: 1 hr 2 min 48 sec) 
Heartbeat CPU 0 instructions: 413000000 cycles: 1334444311 heartbeat IPC: 0.310804 cumulative IPC: 0.308856 (Simulation time: 1 hr 2 min 57 sec) 
Heartbeat CPU 0 instructions: 414000002 cycles: 1337706582 heartbeat IPC: 0.306536 cumulative IPC: 0.30885 (Simulation time: 1 hr 3 min 6 sec) 
Heartbeat CPU 0 instructions: 415000002 cycles: 1340961204 heartbeat IPC: 0.307255 cumulative IPC: 0.308846 (Simulation time: 1 hr 3 min 15 sec) 
Heartbeat CPU 0 instructions: 416000001 cycles: 1344201737 heartbeat IPC: 0.308591 cumulative IPC: 0.308846 (Simulation time: 1 hr 3 min 24 sec) 
Heartbeat CPU 0 instructions: 417000001 cycles: 1347424978 heartbeat IPC: 0.310247 cumulative IPC: 0.308849 (Simulation time: 1 hr 3 min 33 sec) 
Heartbeat CPU 0 instructions: 418000000 cycles: 1350691110 heartbeat IPC: 0.306172 cumulative IPC: 0.308842 (Simulation time: 1 hr 3 min 42 sec) 
Heartbeat CPU 0 instructions: 419000001 cycles: 1353924715 heartbeat IPC: 0.309253 cumulative IPC: 0.308843 (Simulation time: 1 hr 3 min 51 sec) 
Heartbeat CPU 0 instructions: 420000000 cycles: 1357165954 heartbeat IPC: 0.308524 cumulative IPC: 0.308843 (Simulation time: 1 hr 4 min 0 sec) 
Heartbeat CPU 0 instructions: 421000001 cycles: 1360417397 heartbeat IPC: 0.307556 cumulative IPC: 0.30884 (Simulation time: 1 hr 4 min 9 sec) 
Heartbeat CPU 0 instructions: 422000000 cycles: 1363658847 heartbeat IPC: 0.308504 cumulative IPC: 0.308839 (Simulation time: 1 hr 4 min 18 sec) 
Heartbeat CPU 0 instructions: 423000000 cycles: 1366912820 heartbeat IPC: 0.307317 cumulative IPC: 0.308835 (Simulation time: 1 hr 4 min 27 sec) 
Heartbeat CPU 0 instructions: 424000001 cycles: 1370167500 heartbeat IPC: 0.30725 cumulative IPC: 0.308831 (Simulation time: 1 hr 4 min 36 sec) 
Heartbeat CPU 0 instructions: 425000000 cycles: 1373401255 heartbeat IPC: 0.309238 cumulative IPC: 0.308832 (Simulation time: 1 hr 4 min 45 sec) 
Heartbeat CPU 0 instructions: 426000001 cycles: 1376655060 heartbeat IPC: 0.307333 cumulative IPC: 0.308829 (Simulation time: 1 hr 4 min 55 sec) 
Heartbeat CPU 0 instructions: 427000003 cycles: 1379917737 heartbeat IPC: 0.306497 cumulative IPC: 0.308823 (Simulation time: 1 hr 5 min 4 sec) 
Heartbeat CPU 0 instructions: 428000001 cycles: 1383179473 heartbeat IPC: 0.306585 cumulative IPC: 0.308818 (Simulation time: 1 hr 5 min 13 sec) 
Heartbeat CPU 0 instructions: 429000000 cycles: 1386401740 heartbeat IPC: 0.31034 cumulative IPC: 0.308822 (Simulation time: 1 hr 5 min 23 sec) 
Heartbeat CPU 0 instructions: 430000002 cycles: 1389633606 heartbeat IPC: 0.309419 cumulative IPC: 0.308823 (Simulation time: 1 hr 5 min 32 sec) 
Heartbeat CPU 0 instructions: 431000002 cycles: 1392886554 heartbeat IPC: 0.307413 cumulative IPC: 0.30882 (Simulation time: 1 hr 5 min 41 sec) 
Heartbeat CPU 0 instructions: 432000003 cycles: 1396136052 heartbeat IPC: 0.30774 cumulative IPC: 0.308817 (Simulation time: 1 hr 5 min 50 sec) 
Heartbeat CPU 0 instructions: 433000002 cycles: 1399360317 heartbeat IPC: 0.310148 cumulative IPC: 0.30882 (Simulation time: 1 hr 6 min 0 sec) 
Heartbeat CPU 0 instructions: 434000001 cycles: 1402600296 heartbeat IPC: 0.308644 cumulative IPC: 0.30882 (Simulation time: 1 hr 6 min 9 sec) 
Heartbeat CPU 0 instructions: 435000003 cycles: 1405820152 heartbeat IPC: 0.310574 cumulative IPC: 0.308824 (Simulation time: 1 hr 6 min 18 sec) 
Heartbeat CPU 0 instructions: 436000001 cycles: 1409043299 heartbeat IPC: 0.310255 cumulative IPC: 0.308827 (Simulation time: 1 hr 6 min 26 sec) 
Heartbeat CPU 0 instructions: 437000002 cycles: 1412284832 heartbeat IPC: 0.308496 cumulative IPC: 0.308826 (Simulation time: 1 hr 6 min 36 sec) 
Heartbeat CPU 0 instructions: 438000001 cycles: 1415520831 heartbeat IPC: 0.309023 cumulative IPC: 0.308827 (Simulation time: 1 hr 6 min 45 sec) 
Heartbeat CPU 0 instructions: 439000002 cycles: 1418751772 heartbeat IPC: 0.309508 cumulative IPC: 0.308828 (Simulation time: 1 hr 6 min 54 sec) 
Heartbeat CPU 0 instructions: 440000000 cycles: 1422032905 heartbeat IPC: 0.304772 cumulative IPC: 0.308819 (Simulation time: 1 hr 7 min 3 sec) 
Heartbeat CPU 0 instructions: 441000000 cycles: 1425267228 heartbeat IPC: 0.309184 cumulative IPC: 0.30882 (Simulation time: 1 hr 7 min 12 sec) 
Heartbeat CPU 0 instructions: 442000000 cycles: 1428490799 heartbeat IPC: 0.310215 cumulative IPC: 0.308823 (Simulation time: 1 hr 7 min 21 sec) 
Heartbeat CPU 0 instructions: 443000001 cycles: 1431719139 heartbeat IPC: 0.309757 cumulative IPC: 0.308825 (Simulation time: 1 hr 7 min 31 sec) 
Heartbeat CPU 0 instructions: 444000002 cycles: 1434949166 heartbeat IPC: 0.309595 cumulative IPC: 0.308827 (Simulation time: 1 hr 7 min 40 sec) 
Heartbeat CPU 0 instructions: 445000003 cycles: 1438170398 heartbeat IPC: 0.310441 cumulative IPC: 0.30883 (Simulation time: 1 hr 7 min 50 sec) 
Heartbeat CPU 0 instructions: 446000001 cycles: 1441396790 heartbeat IPC: 0.309943 cumulative IPC: 0.308833 (Simulation time: 1 hr 8 min 0 sec) 
Heartbeat CPU 0 instructions: 447000001 cycles: 1444633239 heartbeat IPC: 0.308981 cumulative IPC: 0.308833 (Simulation time: 1 hr 8 min 9 sec) 
Heartbeat CPU 0 instructions: 448000001 cycles: 1447868336 heartbeat IPC: 0.30911 cumulative IPC: 0.308834 (Simulation time: 1 hr 8 min 19 sec) 
Heartbeat CPU 0 instructions: 449000001 cycles: 1451105919 heartbeat IPC: 0.308872 cumulative IPC: 0.308834 (Simulation time: 1 hr 8 min 28 sec) 
Heartbeat CPU 0 instructions: 450000000 cycles: 1454335553 heartbeat IPC: 0.309632 cumulative IPC: 0.308836 (Simulation time: 1 hr 8 min 37 sec) 

Warmup complete CPU 0 instructions: 450000001 cycles: 1454335554 (Simulation time: 1 hr 8 min 37 sec) 

Heartbeat CPU 0 instructions: 451000000 cycles: 1457578933 heartbeat IPC: 0.30832 cumulative IPC: 0.30832 (Simulation time: 1 hr 8 min 46 sec) 
Heartbeat CPU 0 instructions: 452000000 cycles: 1460801338 heartbeat IPC: 0.310327 cumulative IPC: 0.30932 (Simulation time: 1 hr 8 min 55 sec) 
Heartbeat CPU 0 instructions: 453000000 cycles: 1464023948 heartbeat IPC: 0.310307 cumulative IPC: 0.309649 (Simulation time: 1 hr 9 min 4 sec) 
Heartbeat CPU 0 instructions: 454000002 cycles: 1467236589 heartbeat IPC: 0.311271 cumulative IPC: 0.310053 (Simulation time: 1 hr 9 min 13 sec) 
Heartbeat CPU 0 instructions: 455000000 cycles: 1470453095 heartbeat IPC: 0.310896 cumulative IPC: 0.310221 (Simulation time: 1 hr 9 min 22 sec) 
Heartbeat CPU 0 instructions: 456000000 cycles: 1473663381 heartbeat IPC: 0.311499 cumulative IPC: 0.310433 (Simulation time: 1 hr 9 min 31 sec) 
Heartbeat CPU 0 instructions: 457000000 cycles: 1476917755 heartbeat IPC: 0.307279 cumulative IPC: 0.309979 (Simulation time: 1 hr 9 min 40 sec) 
Heartbeat CPU 0 instructions: 458000003 cycles: 1480128740 heartbeat IPC: 0.311432 cumulative IPC: 0.31016 (Simulation time: 1 hr 9 min 49 sec) 
Heartbeat CPU 0 instructions: 459000002 cycles: 1483344210 heartbeat IPC: 0.310996 cumulative IPC: 0.310252 (Simulation time: 1 hr 9 min 58 sec) 
Heartbeat CPU 0 instructions: 460000003 cycles: 1486570210 heartbeat IPC: 0.309982 cumulative IPC: 0.310225 (Simulation time: 1 hr 10 min 6 sec) 
Heartbeat CPU 0 instructions: 461000001 cycles: 1489799433 heartbeat IPC: 0.309671 cumulative IPC: 0.310175 (Simulation time: 1 hr 10 min 16 sec) 
Heartbeat CPU 0 instructions: 462000000 cycles: 1493021212 heartbeat IPC: 0.310387 cumulative IPC: 0.310192 (Simulation time: 1 hr 10 min 25 sec) 
Heartbeat CPU 0 instructions: 463000000 cycles: 1496239949 heartbeat IPC: 0.310681 cumulative IPC: 0.31023 (Simulation time: 1 hr 10 min 34 sec) 
Heartbeat CPU 0 instructions: 464000001 cycles: 1499483642 heartbeat IPC: 0.308291 cumulative IPC: 0.310091 (Simulation time: 1 hr 10 min 43 sec) 
Heartbeat CPU 0 instructions: 465000000 cycles: 1502692364 heartbeat IPC: 0.31165 cumulative IPC: 0.310194 (Simulation time: 1 hr 10 min 52 sec) 
Heartbeat CPU 0 instructions: 466000003 cycles: 1505906765 heartbeat IPC: 0.311101 cumulative IPC: 0.310251 (Simulation time: 1 hr 11 min 1 sec) 
Heartbeat CPU 0 instructions: 467000000 cycles: 1509131070 heartbeat IPC: 0.310143 cumulative IPC: 0.310244 (Simulation time: 1 hr 11 min 10 sec) 
Heartbeat CPU 0 instructions: 468000002 cycles: 1512373777 heartbeat IPC: 0.308385 cumulative IPC: 0.31014 (Simulation time: 1 hr 11 min 19 sec) 
Heartbeat CPU 0 instructions: 469000000 cycles: 1515594466 heartbeat IPC: 0.310492 cumulative IPC: 0.310159 (Simulation time: 1 hr 11 min 27 sec) 
Heartbeat CPU 0 instructions: 470000002 cycles: 1518819551 heartbeat IPC: 0.31007 cumulative IPC: 0.310154 (Simulation time: 1 hr 11 min 36 sec) 
Heartbeat CPU 0 instructions: 471000000 cycles: 1522058589 heartbeat IPC: 0.308733 cumulative IPC: 0.310086 (Simulation time: 1 hr 11 min 45 sec) 
Heartbeat CPU 0 instructions: 472000000 cycles: 1525279612 heartbeat IPC: 0.31046 cumulative IPC: 0.310103 (Simulation time: 1 hr 11 min 54 sec) 
Heartbeat CPU 0 instructions: 473000000 cycles: 1528499968 heartbeat IPC: 0.310525 cumulative IPC: 0.310122 (Simulation time: 1 hr 12 min 3 sec) 
Heartbeat CPU 0 instructions: 474000001 cycles: 1531710938 heartbeat IPC: 0.311433 cumulative IPC: 0.310176 (Simulation time: 1 hr 12 min 12 sec) 
Heartbeat CPU 0 instructions: 475000000 cycles: 1534947279 heartbeat IPC: 0.308991 cumulative IPC: 0.310129 (Simulation time: 1 hr 12 min 22 sec) 
Heartbeat CPU 0 instructions: 476000003 cycles: 1538185257 heartbeat IPC: 0.308836 cumulative IPC: 0.310079 (Simulation time: 1 hr 12 min 31 sec) 
Heartbeat CPU 0 instructions: 477000002 cycles: 1541432957 heartbeat IPC: 0.30791 cumulative IPC: 0.309998 (Simulation time: 1 hr 12 min 39 sec) 
Heartbeat CPU 0 instructions: 478000002 cycles: 1544641270 heartbeat IPC: 0.31169 cumulative IPC: 0.310058 (Simulation time: 1 hr 12 min 48 sec) 
Heartbeat CPU 0 instructions: 479000003 cycles: 1547880382 heartbeat IPC: 0.308727 cumulative IPC: 0.310012 (Simulation time: 1 hr 12 min 57 sec) 
Heartbeat CPU 0 instructions: 480000000 cycles: 1551113220 heartbeat IPC: 0.309325 cumulative IPC: 0.309989 (Simulation time: 1 hr 13 min 6 sec) 
Heartbeat CPU 0 instructions: 481000002 cycles: 1554337885 heartbeat IPC: 0.31011 cumulative IPC: 0.309993 (Simulation time: 1 hr 13 min 15 sec) 
Heartbeat CPU 0 instructions: 482000003 cycles: 1557544073 heartbeat IPC: 0.311897 cumulative IPC: 0.310052 (Simulation time: 1 hr 13 min 24 sec) 
Heartbeat CPU 0 instructions: 483000000 cycles: 1560756688 heartbeat IPC: 0.311272 cumulative IPC: 0.310089 (Simulation time: 1 hr 13 min 33 sec) 
Heartbeat CPU 0 instructions: 484000000 cycles: 1563977765 heartbeat IPC: 0.310455 cumulative IPC: 0.3101 (Simulation time: 1 hr 13 min 43 sec) 
Heartbeat CPU 0 instructions: 485000002 cycles: 1567201204 heartbeat IPC: 0.310228 cumulative IPC: 0.310103 (Simulation time: 1 hr 13 min 52 sec) 
Heartbeat CPU 0 instructions: 486000002 cycles: 1570406588 heartbeat IPC: 0.311975 cumulative IPC: 0.310155 (Simulation time: 1 hr 14 min 1 sec) 
Heartbeat CPU 0 instructions: 487000002 cycles: 1573619217 heartbeat IPC: 0.311272 cumulative IPC: 0.310185 (Simulation time: 1 hr 14 min 10 sec) 
Heartbeat CPU 0 instructions: 488000003 cycles: 1576840852 heartbeat IPC: 0.310402 cumulative IPC: 0.310191 (Simulation time: 1 hr 14 min 18 sec) 
Heartbeat CPU 0 instructions: 489000000 cycles: 1580086774 heartbeat IPC: 0.308078 cumulative IPC: 0.310136 (Simulation time: 1 hr 14 min 27 sec) 
Heartbeat CPU 0 instructions: 490000000 cycles: 1583299686 heartbeat IPC: 0.311244 cumulative IPC: 0.310164 (Simulation time: 1 hr 14 min 36 sec) 
Heartbeat CPU 0 instructions: 491000000 cycles: 1586512284 heartbeat IPC: 0.311275 cumulative IPC: 0.310191 (Simulation time: 1 hr 14 min 45 sec) 
Heartbeat CPU 0 instructions: 492000000 cycles: 1589744611 heartbeat IPC: 0.309375 cumulative IPC: 0.310171 (Simulation time: 1 hr 14 min 55 sec) 
Heartbeat CPU 0 instructions: 493000003 cycles: 1592994264 heartbeat IPC: 0.307726 cumulative IPC: 0.310114 (Simulation time: 1 hr 15 min 4 sec) 
Heartbeat CPU 0 instructions: 494000000 cycles: 1596219036 heartbeat IPC: 0.310098 cumulative IPC: 0.310114 (Simulation time: 1 hr 15 min 13 sec) 
Heartbeat CPU 0 instructions: 495000000 cycles: 1599437226 heartbeat IPC: 0.310734 cumulative IPC: 0.310127 (Simulation time: 1 hr 15 min 22 sec) 
Heartbeat CPU 0 instructions: 496000002 cycles: 1602678706 heartbeat IPC: 0.308502 cumulative IPC: 0.310092 (Simulation time: 1 hr 15 min 31 sec) 
Heartbeat CPU 0 instructions: 497000000 cycles: 1605910526 heartbeat IPC: 0.309423 cumulative IPC: 0.310078 (Simulation time: 1 hr 15 min 40 sec) 
Heartbeat CPU 0 instructions: 498000001 cycles: 1609139030 heartbeat IPC: 0.309741 cumulative IPC: 0.310071 (Simulation time: 1 hr 15 min 49 sec) 
Heartbeat CPU 0 instructions: 499000003 cycles: 1612363516 heartbeat IPC: 0.310128 cumulative IPC: 0.310072 (Simulation time: 1 hr 15 min 58 sec) 
Heartbeat CPU 0 instructions: 500000000 cycles: 1615605819 heartbeat IPC: 0.308422 cumulative IPC: 0.310039 (Simulation time: 1 hr 16 min 8 sec) 
Heartbeat CPU 0 instructions: 501000000 cycles: 1618838221 heartbeat IPC: 0.309367 cumulative IPC: 0.310025 (Simulation time: 1 hr 16 min 17 sec) 
Heartbeat CPU 0 instructions: 502000002 cycles: 1622082259 heartbeat IPC: 0.308258 cumulative IPC: 0.309991 (Simulation time: 1 hr 16 min 26 sec) 
Heartbeat CPU 0 instructions: 503000001 cycles: 1625296594 heartbeat IPC: 0.311106 cumulative IPC: 0.310012 (Simulation time: 1 hr 16 min 35 sec) 
Heartbeat CPU 0 instructions: 504000001 cycles: 1628570463 heartbeat IPC: 0.305449 cumulative IPC: 0.309926 (Simulation time: 1 hr 16 min 45 sec) 
Heartbeat CPU 0 instructions: 505000003 cycles: 1631802553 heartbeat IPC: 0.309398 cumulative IPC: 0.309917 (Simulation time: 1 hr 16 min 54 sec) 
Heartbeat CPU 0 instructions: 506000000 cycles: 1635024521 heartbeat IPC: 0.310368 cumulative IPC: 0.309925 (Simulation time: 1 hr 17 min 3 sec) 
Heartbeat CPU 0 instructions: 507000003 cycles: 1638239506 heartbeat IPC: 0.311044 cumulative IPC: 0.309944 (Simulation time: 1 hr 17 min 12 sec) 
Heartbeat CPU 0 instructions: 508000003 cycles: 1641479553 heartbeat IPC: 0.308637 cumulative IPC: 0.309922 (Simulation time: 1 hr 17 min 20 sec) 
Heartbeat CPU 0 instructions: 509000000 cycles: 1644692716 heartbeat IPC: 0.311219 cumulative IPC: 0.309944 (Simulation time: 1 hr 17 min 27 sec) 
Heartbeat CPU 0 instructions: 510000003 cycles: 1647921067 heartbeat IPC: 0.309757 cumulative IPC: 0.309941 (Simulation time: 1 hr 17 min 35 sec) 
Heartbeat CPU 0 instructions: 511000001 cycles: 1651139173 heartbeat IPC: 0.310741 cumulative IPC: 0.309954 (Simulation time: 1 hr 17 min 43 sec) 
Heartbeat CPU 0 instructions: 512000000 cycles: 1654370664 heartbeat IPC: 0.309454 cumulative IPC: 0.309946 (Simulation time: 1 hr 17 min 51 sec) 
Heartbeat CPU 0 instructions: 513000000 cycles: 1657603673 heartbeat IPC: 0.309309 cumulative IPC: 0.309935 (Simulation time: 1 hr 17 min 59 sec) 
Heartbeat CPU 0 instructions: 514000000 cycles: 1660833144 heartbeat IPC: 0.309648 cumulative IPC: 0.309931 (Simulation time: 1 hr 18 min 6 sec) 
Heartbeat CPU 0 instructions: 515000002 cycles: 1664061429 heartbeat IPC: 0.309763 cumulative IPC: 0.309928 (Simulation time: 1 hr 18 min 14 sec) 
Heartbeat CPU 0 instructions: 516000002 cycles: 1667277486 heartbeat IPC: 0.31094 cumulative IPC: 0.309944 (Simulation time: 1 hr 18 min 22 sec) 
Heartbeat CPU 0 instructions: 517000000 cycles: 1670496814 heartbeat IPC: 0.310623 cumulative IPC: 0.309954 (Simulation time: 1 hr 18 min 30 sec) 
Heartbeat CPU 0 instructions: 518000000 cycles: 1673730086 heartbeat IPC: 0.309284 cumulative IPC: 0.309944 (Simulation time: 1 hr 18 min 38 sec) 
Heartbeat CPU 0 instructions: 519000000 cycles: 1676938309 heartbeat IPC: 0.311699 cumulative IPC: 0.309969 (Simulation time: 1 hr 18 min 46 sec) 
Heartbeat CPU 0 instructions: 520000002 cycles: 1680171077 heartbeat IPC: 0.309333 cumulative IPC: 0.30996 (Simulation time: 1 hr 18 min 54 sec) 
Heartbeat CPU 0 instructions: 521000000 cycles: 1683381124 heartbeat IPC: 0.311521 cumulative IPC: 0.309982 (Simulation time: 1 hr 19 min 2 sec) 
Heartbeat CPU 0 instructions: 522000003 cycles: 1686612841 heartbeat IPC: 0.309434 cumulative IPC: 0.309974 (Simulation time: 1 hr 19 min 10 sec) 
Heartbeat CPU 0 instructions: 523000003 cycles: 1689824780 heartbeat IPC: 0.311338 cumulative IPC: 0.309993 (Simulation time: 1 hr 19 min 18 sec) 
Heartbeat CPU 0 instructions: 524000000 cycles: 1693065987 heartbeat IPC: 0.308526 cumulative IPC: 0.309973 (Simulation time: 1 hr 19 min 25 sec) 
Heartbeat CPU 0 instructions: 525000000 cycles: 1696309684 heartbeat IPC: 0.30829 cumulative IPC: 0.30995 (Simulation time: 1 hr 19 min 33 sec) 
Heartbeat CPU 0 instructions: 526000000 cycles: 1699542330 heartbeat IPC: 0.309344 cumulative IPC: 0.309942 (Simulation time: 1 hr 19 min 41 sec) 
Heartbeat CPU 0 instructions: 527000003 cycles: 1702749263 heartbeat IPC: 0.311825 cumulative IPC: 0.309967 (Simulation time: 1 hr 19 min 49 sec) 
Heartbeat CPU 0 instructions: 528000000 cycles: 1706016293 heartbeat IPC: 0.306087 cumulative IPC: 0.309916 (Simulation time: 1 hr 19 min 57 sec) 
Heartbeat CPU 0 instructions: 529000001 cycles: 1709237876 heartbeat IPC: 0.310407 cumulative IPC: 0.309923 (Simulation time: 1 hr 20 min 4 sec) 
Heartbeat CPU 0 instructions: 530000001 cycles: 1712456153 heartbeat IPC: 0.310725 cumulative IPC: 0.309933 (Simulation time: 1 hr 20 min 12 sec) 
Heartbeat CPU 0 instructions: 531000003 cycles: 1715700124 heartbeat IPC: 0.308265 cumulative IPC: 0.309912 (Simulation time: 1 hr 20 min 20 sec) 
Heartbeat CPU 0 instructions: 532000000 cycles: 1718924507 heartbeat IPC: 0.310136 cumulative IPC: 0.309915 (Simulation time: 1 hr 20 min 28 sec) 
Heartbeat CPU 0 instructions: 533000000 cycles: 1722197240 heartbeat IPC: 0.305555 cumulative IPC: 0.309861 (Simulation time: 1 hr 20 min 36 sec) 
Heartbeat CPU 0 instructions: 534000000 cycles: 1725438155 heartbeat IPC: 0.308555 cumulative IPC: 0.309846 (Simulation time: 1 hr 20 min 44 sec) 
Heartbeat CPU 0 instructions: 535000001 cycles: 1728653870 heartbeat IPC: 0.310973 cumulative IPC: 0.309859 (Simulation time: 1 hr 20 min 51 sec) 
Heartbeat CPU 0 instructions: 536000002 cycles: 1731880989 heartbeat IPC: 0.309874 cumulative IPC: 0.309859 (Simulation time: 1 hr 20 min 59 sec) 
Heartbeat CPU 0 instructions: 537000001 cycles: 1735112426 heartbeat IPC: 0.30946 cumulative IPC: 0.309855 (Simulation time: 1 hr 21 min 7 sec) 
Heartbeat CPU 0 instructions: 538000002 cycles: 1738348199 heartbeat IPC: 0.309045 cumulative IPC: 0.309845 (Simulation time: 1 hr 21 min 15 sec) 
Heartbeat CPU 0 instructions: 539000000 cycles: 1741577539 heartbeat IPC: 0.30966 cumulative IPC: 0.309843 (Simulation time: 1 hr 21 min 23 sec) 
Heartbeat CPU 0 instructions: 540000000 cycles: 1744794103 heartbeat IPC: 0.310891 cumulative IPC: 0.309855 (Simulation time: 1 hr 21 min 31 sec) 
Heartbeat CPU 0 instructions: 541000003 cycles: 1748038026 heartbeat IPC: 0.30827 cumulative IPC: 0.309837 (Simulation time: 1 hr 21 min 38 sec) 
Heartbeat CPU 0 instructions: 542000000 cycles: 1751271006 heartbeat IPC: 0.309311 cumulative IPC: 0.309832 (Simulation time: 1 hr 21 min 46 sec) 
Heartbeat CPU 0 instructions: 543000000 cycles: 1754511404 heartbeat IPC: 0.308604 cumulative IPC: 0.309818 (Simulation time: 1 hr 21 min 54 sec) 
Heartbeat CPU 0 instructions: 544000000 cycles: 1757731327 heartbeat IPC: 0.310566 cumulative IPC: 0.309826 (Simulation time: 1 hr 22 min 2 sec) 
Heartbeat CPU 0 instructions: 545000000 cycles: 1761007215 heartbeat IPC: 0.305261 cumulative IPC: 0.309778 (Simulation time: 1 hr 22 min 9 sec) 
[...]
Heartbeat CPU 0 instructions: 835000000 cycles: 2711617939 heartbeat IPC: 0.310455 cumulative IPC: 0.306216 (Simulation time: 1 hr 59 min 5 sec) 
Heartbeat CPU 0 instructions: 836000000 cycles: 2714860509 heartbeat IPC: 0.308397 cumulative IPC: 0.306222 (Simulation time: 1 hr 59 min 12 sec) 
Heartbeat CPU 0 instructions: 837000003 cycles: 2718081627 heartbeat IPC: 0.310452 cumulative IPC: 0.306232 (Simulation time: 1 hr 59 min 19 sec) 
Heartbeat CPU 0 instructions: 838000003 cycles: 2721345722 heartbeat IPC: 0.306364 cumulative IPC: 0.306233 (Simulation time: 1 hr 59 min 26 sec) 
Heartbeat CPU 0 instructions: 839000000 cycles: 2724574973 heartbeat IPC: 0.309668 cumulative IPC: 0.306241 (Simulation time: 1 hr 59 min 34 sec) 
Heartbeat CPU 0 instructions: 840000002 cycles: 2727812988 heartbeat IPC: 0.308832 cumulative IPC: 0.306248 (Simulation time: 1 hr 59 min 41 sec) 
Heartbeat CPU 0 instructions: 841000002 cycles: 2731053813 heartbeat IPC: 0.308563 cumulative IPC: 0.306254 (Simulation time: 1 hr 59 min 49 sec) 
Heartbeat CPU 0 instructions: 842000000 cycles: 2734287613 heartbeat IPC: 0.309233 cumulative IPC: 0.306261 (Simulation time: 1 hr 59 min 56 sec) 
Heartbeat CPU 0 instructions: 843000002 cycles: 2737516460 heartbeat IPC: 0.309709 cumulative IPC: 0.30627 (Simulation time: 2 hr 0 min 4 sec) 
Heartbeat CPU 0 instructions: 844000000 cycles: 2740756457 heartbeat IPC: 0.308642 cumulative IPC: 0.306276 (Simulation time: 2 hr 0 min 11 sec) 
Heartbeat CPU 0 instructions: 845000003 cycles: 2743978227 heartbeat IPC: 0.310389 cumulative IPC: 0.306286 (Simulation time: 2 hr 0 min 18 sec) 
Heartbeat CPU 0 instructions: 846000000 cycles: 2747212623 heartbeat IPC: 0.309176 cumulative IPC: 0.306294 (Simulation time: 2 hr 0 min 25 sec) 
Heartbeat CPU 0 instructions: 847000000 cycles: 2750442184 heartbeat IPC: 0.30964 cumulative IPC: 0.306302 (Simulation time: 2 hr 0 min 33 sec) 
Heartbeat CPU 0 instructions: 848000003 cycles: 2753664397 heartbeat IPC: 0.310347 cumulative IPC: 0.306312 (Simulation time: 2 hr 0 min 40 sec) 
Heartbeat CPU 0 instructions: 849000003 cycles: 2756901654 heartbeat IPC: 0.308903 cumulative IPC: 0.306318 (Simulation time: 2 hr 0 min 47 sec) 
Heartbeat CPU 0 instructions: 850000000 cycles: 2760132353 heartbeat IPC: 0.30953 cumulative IPC: 0.306326 (Simulation time: 2 hr 0 min 55 sec) 
Heartbeat CPU 0 instructions: 851000002 cycles: 2763363594 heartbeat IPC: 0.309479 cumulative IPC: 0.306334 (Simulation time: 2 hr 1 min 2 sec) 
Heartbeat CPU 0 instructions: 852000000 cycles: 2766578260 heartbeat IPC: 0.311074 cumulative IPC: 0.306346 (Simulation time: 2 hr 1 min 9 sec) 
Heartbeat CPU 0 instructions: 853000000 cycles: 2769794806 heartbeat IPC: 0.310892 cumulative IPC: 0.306357 (Simulation time: 2 hr 1 min 16 sec) 
Heartbeat CPU 0 instructions: 854000001 cycles: 2773029916 heartbeat IPC: 0.309109 cumulative IPC: 0.306364 (Simulation time: 2 hr 1 min 24 sec) 
Heartbeat CPU 0 instructions: 855000001 cycles: 2776240946 heartbeat IPC: 0.311427 cumulative IPC: 0.306376 (Simulation time: 2 hr 1 min 31 sec) 
Heartbeat CPU 0 instructions: 856000000 cycles: 2779448293 heartbeat IPC: 0.311784 cumulative IPC: 0.306389 (Simulation time: 2 hr 1 min 38 sec) 
Heartbeat CPU 0 instructions: 857000000 cycles: 2782668087 heartbeat IPC: 0.310579 cumulative IPC: 0.306399 (Simulation time: 2 hr 1 min 45 sec) 
Heartbeat CPU 0 instructions: 858000000 cycles: 2785911345 heartbeat IPC: 0.308332 cumulative IPC: 0.306404 (Simulation time: 2 hr 1 min 53 sec) 
Heartbeat CPU 0 instructions: 859000000 cycles: 2789143260 heartbeat IPC: 0.309414 cumulative IPC: 0.306411 (Simulation time: 2 hr 2 min 0 sec) 
Heartbeat CPU 0 instructions: 860000000 cycles: 2792374265 heartbeat IPC: 0.309501 cumulative IPC: 0.306419 (Simulation time: 2 hr 2 min 7 sec) 
Heartbeat CPU 0 instructions: 861000000 cycles: 2795583966 heartbeat IPC: 0.311556 cumulative IPC: 0.306431 (Simulation time: 2 hr 2 min 14 sec) 
Heartbeat CPU 0 instructions: 862000002 cycles: 2798808392 heartbeat IPC: 0.310133 cumulative IPC: 0.30644 (Simulation time: 2 hr 2 min 21 sec) 
Heartbeat CPU 0 instructions: 863000000 cycles: 2802005908 heartbeat IPC: 0.312742 cumulative IPC: 0.306455 (Simulation time: 2 hr 2 min 28 sec) 
Heartbeat CPU 0 instructions: 864000003 cycles: 2805222098 heartbeat IPC: 0.310928 cumulative IPC: 0.306465 (Simulation time: 2 hr 2 min 36 sec) 
Heartbeat CPU 0 instructions: 865000000 cycles: 2808445605 heartbeat IPC: 0.31022 cumulative IPC: 0.306474 (Simulation time: 2 hr 2 min 43 sec) 
Heartbeat CPU 0 instructions: 866000001 cycles: 2811684981 heartbeat IPC: 0.308702 cumulative IPC: 0.30648 (Simulation time: 2 hr 2 min 51 sec) 
Heartbeat CPU 0 instructions: 867000000 cycles: 2814887722 heartbeat IPC: 0.312232 cumulative IPC: 0.306493 (Simulation time: 2 hr 2 min 58 sec) 
Heartbeat CPU 0 instructions: 868000003 cycles: 2818110256 heartbeat IPC: 0.310316 cumulative IPC: 0.306502 (Simulation time: 2 hr 3 min 5 sec) 
Heartbeat CPU 0 instructions: 869000000 cycles: 2821335560 heartbeat IPC: 0.310047 cumulative IPC: 0.306511 (Simulation time: 2 hr 3 min 12 sec) 
Heartbeat CPU 0 instructions: 870000003 cycles: 2824590589 heartbeat IPC: 0.307218 cumulative IPC: 0.306512 (Simulation time: 2 hr 3 min 20 sec) 
Heartbeat CPU 0 instructions: 871000001 cycles: 2827798641 heartbeat IPC: 0.311715 cumulative IPC: 0.306524 (Simulation time: 2 hr 3 min 27 sec) 
Heartbeat CPU 0 instructions: 872000000 cycles: 2831051835 heartbeat IPC: 0.30739 cumulative IPC: 0.306526 (Simulation time: 2 hr 3 min 34 sec) 
Heartbeat CPU 0 instructions: 873000001 cycles: 2834271734 heartbeat IPC: 0.310569 cumulative IPC: 0.306536 (Simulation time: 2 hr 3 min 42 sec) 
Heartbeat CPU 0 instructions: 874000002 cycles: 2837503329 heartbeat IPC: 0.309445 cumulative IPC: 0.306543 (Simulation time: 2 hr 3 min 49 sec) 
Heartbeat CPU 0 instructions: 875000000 cycles: 2840703020 heartbeat IPC: 0.31253 cumulative IPC: 0.306557 (Simulation time: 2 hr 3 min 56 sec) 
Heartbeat CPU 0 instructions: 876000003 cycles: 2843906832 heartbeat IPC: 0.312129 cumulative IPC: 0.306569 (Simulation time: 2 hr 4 min 3 sec) 
Heartbeat CPU 0 instructions: 877000001 cycles: 2847125658 heartbeat IPC: 0.310672 cumulative IPC: 0.306579 (Simulation time: 2 hr 4 min 10 sec) 
Heartbeat CPU 0 instructions: 878000002 cycles: 2850346071 heartbeat IPC: 0.310519 cumulative IPC: 0.306588 (Simulation time: 2 hr 4 min 18 sec) 
Heartbeat CPU 0 instructions: 879000003 cycles: 2853560681 heartbeat IPC: 0.31108 cumulative IPC: 0.306598 (Simulation time: 2 hr 4 min 25 sec) 
Heartbeat CPU 0 instructions: 880000000 cycles: 2856788473 heartbeat IPC: 0.309808 cumulative IPC: 0.306606 (Simulation time: 2 hr 4 min 32 sec) 
Heartbeat CPU 0 instructions: 881000002 cycles: 2860030567 heartbeat IPC: 0.308443 cumulative IPC: 0.30661 (Simulation time: 2 hr 4 min 39 sec) 
Heartbeat CPU 0 instructions: 882000001 cycles: 2863254810 heartbeat IPC: 0.31015 cumulative IPC: 0.306618 (Simulation time: 2 hr 4 min 47 sec) 
Heartbeat CPU 0 instructions: 883000003 cycles: 2866461581 heartbeat IPC: 0.311841 cumulative IPC: 0.30663 (Simulation time: 2 hr 4 min 54 sec) 
Heartbeat CPU 0 instructions: 884000000 cycles: 2869695887 heartbeat IPC: 0.309184 cumulative IPC: 0.306636 (Simulation time: 2 hr 5 min 1 sec) 
Heartbeat CPU 0 instructions: 885000001 cycles: 2872917668 heartbeat IPC: 0.310388 cumulative IPC: 0.306644 (Simulation time: 2 hr 5 min 8 sec) 
Heartbeat CPU 0 instructions: 886000003 cycles: 2876151166 heartbeat IPC: 0.309263 cumulative IPC: 0.30665 (Simulation time: 2 hr 5 min 16 sec) 
Heartbeat CPU 0 instructions: 887000003 cycles: 2879363386 heartbeat IPC: 0.311311 cumulative IPC: 0.306661 (Simulation time: 2 hr 5 min 23 sec) 
Heartbeat CPU 0 instructions: 888000001 cycles: 2882607036 heartbeat IPC: 0.308294 cumulative IPC: 0.306664 (Simulation time: 2 hr 5 min 30 sec) 
Heartbeat CPU 0 instructions: 889000002 cycles: 2885849234 heartbeat IPC: 0.308433 cumulative IPC: 0.306668 (Simulation time: 2 hr 5 min 38 sec) 
Heartbeat CPU 0 instructions: 890000001 cycles: 2889059482 heartbeat IPC: 0.311502 cumulative IPC: 0.306679 (Simulation time: 2 hr 5 min 45 sec) 
Heartbeat CPU 0 instructions: 891000000 cycles: 2892276043 heartbeat IPC: 0.310891 cumulative IPC: 0.306689 (Simulation time: 2 hr 5 min 52 sec) 
Heartbeat CPU 0 instructions: 892000000 cycles: 2895498481 heartbeat IPC: 0.310324 cumulative IPC: 0.306697 (Simulation time: 2 hr 6 min 0 sec) 
Heartbeat CPU 0 instructions: 893000001 cycles: 2898745774 heartbeat IPC: 0.307949 cumulative IPC: 0.3067 (Simulation time: 2 hr 6 min 6 sec) 
Heartbeat CPU 0 instructions: 894000001 cycles: 2902008274 heartbeat IPC: 0.306513 cumulative IPC: 0.306699 (Simulation time: 2 hr 6 min 14 sec) 
Heartbeat CPU 0 instructions: 895000001 cycles: 2905242340 heartbeat IPC: 0.309208 cumulative IPC: 0.306705 (Simulation time: 2 hr 6 min 21 sec) 
Heartbeat CPU 0 instructions: 896000000 cycles: 2908464120 heartbeat IPC: 0.310387 cumulative IPC: 0.306713 (Simulation time: 2 hr 6 min 28 sec) 
Heartbeat CPU 0 instructions: 897000003 cycles: 2911697507 heartbeat IPC: 0.309274 cumulative IPC: 0.306719 (Simulation time: 2 hr 6 min 36 sec) 
Heartbeat CPU 0 instructions: 898000000 cycles: 2914939442 heartbeat IPC: 0.308457 cumulative IPC: 0.306722 (Simulation time: 2 hr 6 min 43 sec) 
Heartbeat CPU 0 instructions: 899000000 cycles: 2918161061 heartbeat IPC: 0.310403 cumulative IPC: 0.306731 (Simulation time: 2 hr 6 min 51 sec) 
Heartbeat CPU 0 instructions: 900000002 cycles: 2921408039 heartbeat IPC: 0.307979 cumulative IPC: 0.306733 (Simulation time: 2 hr 6 min 58 sec) 
Heartbeat CPU 0 instructions: 901000003 cycles: 2924668957 heartbeat IPC: 0.306662 cumulative IPC: 0.306733 (Simulation time: 2 hr 7 min 5 sec) 
Heartbeat CPU 0 instructions: 902000000 cycles: 2927895862 heartbeat IPC: 0.309894 cumulative IPC: 0.30674 (Simulation time: 2 hr 7 min 13 sec) 
Heartbeat CPU 0 instructions: 903000000 cycles: 2931104542 heartbeat IPC: 0.311655 cumulative IPC: 0.306751 (Simulation time: 2 hr 7 min 19 sec) 
Heartbeat CPU 0 instructions: 904000000 cycles: 2934349619 heartbeat IPC: 0.308159 cumulative IPC: 0.306754 (Simulation time: 2 hr 7 min 27 sec) 
Heartbeat CPU 0 instructions: 905000001 cycles: 2937579481 heartbeat IPC: 0.309611 cumulative IPC: 0.30676 (Simulation time: 2 hr 7 min 34 sec) 
Heartbeat CPU 0 instructions: 906000000 cycles: 2940808012 heartbeat IPC: 0.309738 cumulative IPC: 0.306767 (Simulation time: 2 hr 7 min 41 sec) 
Heartbeat CPU 0 instructions: 907000002 cycles: 2944008004 heartbeat IPC: 0.312501 cumulative IPC: 0.306779 (Simulation time: 2 hr 7 min 48 sec) 
Heartbeat CPU 0 instructions: 908000003 cycles: 2947243457 heartbeat IPC: 0.309076 cumulative IPC: 0.306784 (Simulation time: 2 hr 7 min 56 sec) 
Heartbeat CPU 0 instructions: 909000000 cycles: 2950469175 heartbeat IPC: 0.310008 cumulative IPC: 0.306791 (Simulation time: 2 hr 8 min 3 sec) 
Heartbeat CPU 0 instructions: 910000001 cycles: 2953689513 heartbeat IPC: 0.310527 cumulative IPC: 0.306799 (Simulation time: 2 hr 8 min 10 sec) 
Heartbeat CPU 0 instructions: 911000003 cycles: 2956919030 heartbeat IPC: 0.309644 cumulative IPC: 0.306805 (Simulation time: 2 hr 8 min 17 sec) 
Heartbeat CPU 0 instructions: 912000001 cycles: 2960160724 heartbeat IPC: 0.30848 cumulative IPC: 0.306809 (Simulation time: 2 hr 8 min 25 sec) 
Heartbeat CPU 0 instructions: 913000000 cycles: 2963386169 heartbeat IPC: 0.310034 cumulative IPC: 0.306815 (Simulation time: 2 hr 8 min 29 sec) 
Heartbeat CPU 0 instructions: 914000000 cycles: 2966622457 heartbeat IPC: 0.308996 cumulative IPC: 0.30682 (Simulation time: 2 hr 8 min 34 sec) 
Heartbeat CPU 0 instructions: 915000001 cycles: 2969845295 heartbeat IPC: 0.310286 cumulative IPC: 0.306827 (Simulation time: 2 hr 8 min 39 sec) 
Heartbeat CPU 0 instructions: 916000001 cycles: 2973077368 heartbeat IPC: 0.309399 cumulative IPC: 0.306833 (Simulation time: 2 hr 8 min 44 sec) 
Heartbeat CPU 0 instructions: 917000003 cycles: 2976312109 heartbeat IPC: 0.309144 cumulative IPC: 0.306838 (Simulation time: 2 hr 8 min 49 sec) 
Heartbeat CPU 0 instructions: 918000000 cycles: 2979521048 heartbeat IPC: 0.311629 cumulative IPC: 0.306848 (Simulation time: 2 hr 8 min 54 sec) 
Heartbeat CPU 0 instructions: 919000000 cycles: 2982734133 heartbeat IPC: 0.311227 cumulative IPC: 0.306857 (Simulation time: 2 hr 8 min 59 sec) 
Heartbeat CPU 0 instructions: 920000002 cycles: 2985951267 heartbeat IPC: 0.310836 cumulative IPC: 0.306865 (Simulation time: 2 hr 9 min 4 sec) 
Heartbeat CPU 0 instructions: 921000003 cycles: 2989177722 heartbeat IPC: 0.309938 cumulative IPC: 0.306872 (Simulation time: 2 hr 9 min 9 sec) 
Heartbeat CPU 0 instructions: 922000003 cycles: 2992399802 heartbeat IPC: 0.310359 cumulative IPC: 0.306879 (Simulation time: 2 hr 9 min 14 sec) 
Heartbeat CPU 0 instructions: 923000002 cycles: 2995611909 heartbeat IPC: 0.311322 cumulative IPC: 0.306889 (Simulation time: 2 hr 9 min 18 sec) 
Heartbeat CPU 0 instructions: 924000000 cycles: 2998826844 heartbeat IPC: 0.311048 cumulative IPC: 0.306897 (Simulation time: 2 hr 9 min 23 sec) 
Heartbeat CPU 0 instructions: 925000000 cycles: 3002073293 heartbeat IPC: 0.308029 cumulative IPC: 0.3069 (Simulation time: 2 hr 9 min 28 sec) 
Heartbeat CPU 0 instructions: 926000000 cycles: 3005287262 heartbeat IPC: 0.311142 cumulative IPC: 0.306908 (Simulation time: 2 hr 9 min 32 sec) 
Heartbeat CPU 0 instructions: 927000002 cycles: 3008501226 heartbeat IPC: 0.311143 cumulative IPC: 0.306917 (Simulation time: 2 hr 9 min 37 sec) 
Heartbeat CPU 0 instructions: 928000001 cycles: 3011729081 heartbeat IPC: 0.309803 cumulative IPC: 0.306923 (Simulation time: 2 hr 9 min 42 sec) 
Heartbeat CPU 0 instructions: 929000000 cycles: 3014952110 heartbeat IPC: 0.310267 cumulative IPC: 0.30693 (Simulation time: 2 hr 9 min 46 sec) 
Heartbeat CPU 0 instructions: 930000001 cycles: 3018164049 heartbeat IPC: 0.311339 cumulative IPC: 0.306939 (Simulation time: 2 hr 9 min 51 sec) 
Heartbeat CPU 0 instructions: 931000001 cycles: 3021387686 heartbeat IPC: 0.310209 cumulative IPC: 0.306946 (Simulation time: 2 hr 9 min 56 sec) 
Heartbeat CPU 0 instructions: 932000000 cycles: 3024638093 heartbeat IPC: 0.307653 cumulative IPC: 0.306947 (Simulation time: 2 hr 10 min 1 sec) 
Heartbeat CPU 0 instructions: 933000000 cycles: 3027877872 heartbeat IPC: 0.308663 cumulative IPC: 0.306951 (Simulation time: 2 hr 10 min 6 sec) 
Heartbeat CPU 0 instructions: 934000003 cycles: 3031120065 heartbeat IPC: 0.308434 cumulative IPC: 0.306954 (Simulation time: 2 hr 10 min 10 sec) 
Heartbeat CPU 0 instructions: 935000000 cycles: 3034333409 heartbeat IPC: 0.311201 cumulative IPC: 0.306962 (Simulation time: 2 hr 10 min 15 sec) 
Heartbeat CPU 0 instructions: 936000001 cycles: 3037566057 heartbeat IPC: 0.309344 cumulative IPC: 0.306967 (Simulation time: 2 hr 10 min 20 sec) 
Heartbeat CPU 0 instructions: 937000003 cycles: 3040806140 heartbeat IPC: 0.308635 cumulative IPC: 0.306971 (Simulation time: 2 hr 10 min 24 sec) 
Heartbeat CPU 0 instructions: 938000000 cycles: 3044016845 heartbeat IPC: 0.311457 cumulative IPC: 0.30698 (Simulation time: 2 hr 10 min 29 sec) 
Heartbeat CPU 0 instructions: 939000003 cycles: 3047228813 heartbeat IPC: 0.311337 cumulative IPC: 0.306989 (Simulation time: 2 hr 10 min 34 sec) 
Heartbeat CPU 0 instructions: 940000001 cycles: 3050449763 heartbeat IPC: 0.310467 cumulative IPC: 0.306996 (Simulation time: 2 hr 10 min 38 sec) 
Heartbeat CPU 0 instructions: 941000000 cycles: 3053689977 heartbeat IPC: 0.308621 cumulative IPC: 0.306999 (Simulation time: 2 hr 10 min 43 sec) 
Heartbeat CPU 0 instructions: 942000000 cycles: 3056917147 heartbeat IPC: 0.309869 cumulative IPC: 0.307005 (Simulation time: 2 hr 10 min 48 sec) 
Heartbeat CPU 0 instructions: 943000001 cycles: 3060126906 heartbeat IPC: 0.31155 cumulative IPC: 0.307014 (Simulation time: 2 hr 10 min 53 sec) 
Heartbeat CPU 0 instructions: 944000000 cycles: 3063348028 heartbeat IPC: 0.310451 cumulative IPC: 0.307021 (Simulation time: 2 hr 10 min 57 sec) 
Heartbeat CPU 0 instructions: 945000002 cycles: 3066594462 heartbeat IPC: 0.308031 cumulative IPC: 0.307023 (Simulation time: 2 hr 11 min 2 sec) 
Heartbeat CPU 0 instructions: 946000000 cycles: 3069805653 heartbeat IPC: 0.31141 cumulative IPC: 0.307031 (Simulation time: 2 hr 11 min 7 sec) 
Heartbeat CPU 0 instructions: 947000003 cycles: 3073019828 heartbeat IPC: 0.311123 cumulative IPC: 0.307039 (Simulation time: 2 hr 11 min 11 sec) 
Heartbeat CPU 0 instructions: 948000000 cycles: 3076275928 heartbeat IPC: 0.307115 cumulative IPC: 0.30704 (Simulation time: 2 hr 11 min 16 sec) 
Heartbeat CPU 0 instructions: 949000002 cycles: 3079530891 heartbeat IPC: 0.307224 cumulative IPC: 0.30704 (Simulation time: 2 hr 11 min 21 sec) 
Heartbeat CPU 0 instructions: 950000000 cycles: 3082772172 heartbeat IPC: 0.308519 cumulative IPC: 0.307043 (Simulation time: 2 hr 11 min 25 sec) 
Finished CPU 0 instructions: 500000001 cycles: 1628436624 cumulative IPC: 0.307043 (Simulation time: 2 hr 11 min 25 sec) 

ChampSim completed all CPUs

Region of Interest Statistics

CPU 0 cumulative IPC: 0.307043 instructions: 500000001 cycles: 1628436624
L1D TOTAL     ACCESS:  135717575  HIT:  126002669  MISS:    9714906
L1D LOAD      ACCESS:   92556955  HIT:   82846273  MISS:    9710682
L1D RFO       ACCESS:   43160620  HIT:   43156396  MISS:       4224
L1D PREFETCH  ACCESS:          0  HIT:          0  MISS:          0
L1D WRITEBACK ACCESS:          0  HIT:          0  MISS:          0
L1D PREFETCH  REQUESTED:          0  ISSUED:          0  USEFUL:          0  USELESS:          0
L1D AVERAGE MISS LATENCY: 138.696 cycles
L1I TOTAL     ACCESS:  116325686  HIT:  116325686  MISS:          0
L1I LOAD      ACCESS:  116325686  HIT:  116325686  MISS:          0
L1I RFO       ACCESS:          0  HIT:          0  MISS:          0
L1I PREFETCH  ACCESS:          0  HIT:          0  MISS:          0
L1I WRITEBACK ACCESS:          0  HIT:          0  MISS:          0
L1I PREFETCH  REQUESTED:          0  ISSUED:          0  USEFUL:          0  USELESS:          0
L1I AVERAGE MISS LATENCY: -nan cycles
L2C TOTAL     ACCESS:    9731438  HIT:     769307  MISS:    8962131
L2C LOAD      ACCESS:    9710682  HIT:     752820  MISS:    8957862
L2C RFO       ACCESS:       4224  HIT:          0  MISS:       4224
L2C PREFETCH  ACCESS:          0  HIT:          0  MISS:          0
L2C WRITEBACK ACCESS:      16532  HIT:      16487  MISS:         45
L2C PREFETCH  REQUESTED:          0  ISSUED:          0  USEFUL:          0  USELESS:          0
L2C AVERAGE MISS LATENCY: 135.127 cycles
LLC TOTAL     ACCESS:    9045197  HIT:     123508  MISS:    8921689
LLC LOAD      ACCESS:    8957862  HIT:      55896  MISS:    8901966
LLC RFO       ACCESS:       4224  HIT:          0  MISS:       4224
LLC PREFETCH  ACCESS:      71176  HIT:      55715  MISS:      15461
LLC WRITEBACK ACCESS:      11935  HIT:      11897  MISS:         38
LLC PREFETCH  REQUESTED:      73194  ISSUED:      73194  USEFUL:       7701  USELESS:       7739
LLC AVERAGE MISS LATENCY: 104.958 cycles
Major fault: 0 Minor fault: 286692
performance stats:
mapping cache size: 16875834
divergence: 92856

DRAM Statistics
 CHANNEL 0
 RQ ROW_BUFFER_HIT:    4351784  ROW_BUFFER_MISS:     109192
 DBUS_CONGESTED:      31591
 WQ ROW_BUFFER_HIT:       2632  ROW_BUFFER_MISS:       3324  FULL:          0

 CHANNEL 1
 RQ ROW_BUFFER_HIT:    4351138  ROW_BUFFER_MISS:     109537
 DBUS_CONGESTED:      31591
 WQ ROW_BUFFER_HIT:       2645  ROW_BUFFER_MISS:       3333  FULL:          0

 AVG_CONGESTED_CYCLE: 14

CPU 0 Branch Prediction Accuracy: 99.9637% MPKI: 0.093066 Average ROB Occupancy at Mispredict: 316.772

Branch types
NOT_BRANCH: 371796903 74.3594%
BRANCH_DIRECT_JUMP: 10794891 2.15898%
BRANCH_INDIRECT: 0 0%
BRANCH_CONDITIONAL: 106605962 21.3212%
BRANCH_DIRECT_CALL: 5401122 1.08022%
BRANCH_INDIRECT_CALL: 0 0%
BRANCH_RETURN: 5401122 1.08022%
BRANCH_OTHER: 0 0%

