
*** ChampSim Multicore Out-of-Order Simulator ***

Warmup Instructions: 1000000
Prefetch Warmup Instructions: 450000000
Simulation Instructions: 500000000
Stat Printing Period: 1000000
Number of CPUs: 1
LLC sets: 2048
LLC ways: 16
Off-chip DRAM Size: 32768 MB Channels: 2 Width: 64-bit Data Rate: 1024 MT/s

CPU 0 runs /scratch/cluster/cmolder/ML-DPC/ChampSimTraces/spec17/605.mcf-s1.trace.xz
Read seed: 273
Heartbeat CPU 0 instructions: 1000001 cycles: 328000 heartbeat IPC: 3.04878 cumulative IPC: 3.04878 (Simulation time: 0 hr 0 min 2 sec) 

Warmup complete CPU 0 instructions: 1000001 cycles: 328000 (Simulation time: 0 hr 0 min 2 sec) 

Heartbeat CPU 0 instructions: 2000000 cycles: 7178957 heartbeat IPC: 0.145965 cumulative IPC: 0.145965 (Simulation time: 0 hr 0 min 7 sec) 
Heartbeat CPU 0 instructions: 3000001 cycles: 14219197 heartbeat IPC: 0.142041 cumulative IPC: 0.143976 (Simulation time: 0 hr 0 min 13 sec) 
Heartbeat CPU 0 instructions: 4000001 cycles: 21352643 heartbeat IPC: 0.140185 cumulative IPC: 0.14269 (Simulation time: 0 hr 0 min 19 sec) 
Heartbeat CPU 0 instructions: 5000000 cycles: 28499451 heartbeat IPC: 0.139922 cumulative IPC: 0.141988 (Simulation time: 0 hr 0 min 24 sec) 
Heartbeat CPU 0 instructions: 6000000 cycles: 35794735 heartbeat IPC: 0.137075 cumulative IPC: 0.140977 (Simulation time: 0 hr 0 min 30 sec) 
Heartbeat CPU 0 instructions: 7000003 cycles: 42965272 heartbeat IPC: 0.13946 cumulative IPC: 0.140722 (Simulation time: 0 hr 0 min 36 sec) 
Heartbeat CPU 0 instructions: 8000003 cycles: 49961685 heartbeat IPC: 0.14293 cumulative IPC: 0.141033 (Simulation time: 0 hr 0 min 41 sec) 
Heartbeat CPU 0 instructions: 9000000 cycles: 57327261 heartbeat IPC: 0.135766 cumulative IPC: 0.140353 (Simulation time: 0 hr 0 min 47 sec) 
Heartbeat CPU 0 instructions: 10000003 cycles: 64543733 heartbeat IPC: 0.138572 cumulative IPC: 0.140153 (Simulation time: 0 hr 0 min 53 sec) 
Heartbeat CPU 0 instructions: 11000000 cycles: 71845560 heartbeat IPC: 0.136952 cumulative IPC: 0.139826 (Simulation time: 0 hr 0 min 59 sec) 
Heartbeat CPU 0 instructions: 12000000 cycles: 79021802 heartbeat IPC: 0.139349 cumulative IPC: 0.139782 (Simulation time: 0 hr 1 min 4 sec) 
Heartbeat CPU 0 instructions: 13000000 cycles: 86005316 heartbeat IPC: 0.143194 cumulative IPC: 0.14006 (Simulation time: 0 hr 1 min 10 sec) 
Heartbeat CPU 0 instructions: 14000001 cycles: 92975772 heartbeat IPC: 0.143463 cumulative IPC: 0.140316 (Simulation time: 0 hr 1 min 15 sec) 
Heartbeat CPU 0 instructions: 15000002 cycles: 99956681 heartbeat IPC: 0.143248 cumulative IPC: 0.140522 (Simulation time: 0 hr 1 min 21 sec) 
Heartbeat CPU 0 instructions: 16000000 cycles: 106952177 heartbeat IPC: 0.142949 cumulative IPC: 0.140681 (Simulation time: 0 hr 1 min 26 sec) 
Heartbeat CPU 0 instructions: 17000000 cycles: 113966085 heartbeat IPC: 0.142574 cumulative IPC: 0.140798 (Simulation time: 0 hr 1 min 32 sec) 
Heartbeat CPU 0 instructions: 18000000 cycles: 121029470 heartbeat IPC: 0.141575 cumulative IPC: 0.140843 (Simulation time: 0 hr 1 min 38 sec) 
Heartbeat CPU 0 instructions: 19000002 cycles: 128052789 heartbeat IPC: 0.142383 cumulative IPC: 0.140928 (Simulation time: 0 hr 1 min 44 sec) 
Heartbeat CPU 0 instructions: 20000001 cycles: 135025769 heartbeat IPC: 0.143411 cumulative IPC: 0.141057 (Simulation time: 0 hr 1 min 49 sec) 
Heartbeat CPU 0 instructions: 21000000 cycles: 142025558 heartbeat IPC: 0.142861 cumulative IPC: 0.141146 (Simulation time: 0 hr 1 min 55 sec) 
Heartbeat CPU 0 instructions: 22000000 cycles: 149114773 heartbeat IPC: 0.141059 cumulative IPC: 0.141142 (Simulation time: 0 hr 2 min 0 sec) 
Heartbeat CPU 0 instructions: 23000001 cycles: 156162939 heartbeat IPC: 0.141881 cumulative IPC: 0.141175 (Simulation time: 0 hr 2 min 6 sec) 
Heartbeat CPU 0 instructions: 24000000 cycles: 163214618 heartbeat IPC: 0.14181 cumulative IPC: 0.141203 (Simulation time: 0 hr 2 min 11 sec) 
Heartbeat CPU 0 instructions: 25000003 cycles: 170276611 heartbeat IPC: 0.141604 cumulative IPC: 0.141219 (Simulation time: 0 hr 2 min 17 sec) 
Heartbeat CPU 0 instructions: 26000002 cycles: 177291246 heartbeat IPC: 0.142559 cumulative IPC: 0.141272 (Simulation time: 0 hr 2 min 22 sec) 
Heartbeat CPU 0 instructions: 27000001 cycles: 184259861 heartbeat IPC: 0.1435 cumulative IPC: 0.141357 (Simulation time: 0 hr 2 min 28 sec) 
Heartbeat CPU 0 instructions: 28000000 cycles: 191213240 heartbeat IPC: 0.143815 cumulative IPC: 0.141446 (Simulation time: 0 hr 2 min 33 sec) 
Heartbeat CPU 0 instructions: 29000000 cycles: 198174902 heartbeat IPC: 0.143644 cumulative IPC: 0.141524 (Simulation time: 0 hr 2 min 39 sec) 
Heartbeat CPU 0 instructions: 30000002 cycles: 205193004 heartbeat IPC: 0.142489 cumulative IPC: 0.141557 (Simulation time: 0 hr 2 min 44 sec) 
Heartbeat CPU 0 instructions: 31000002 cycles: 212275551 heartbeat IPC: 0.141192 cumulative IPC: 0.141544 (Simulation time: 0 hr 2 min 50 sec) 
Heartbeat CPU 0 instructions: 32000001 cycles: 219462212 heartbeat IPC: 0.139147 cumulative IPC: 0.141466 (Simulation time: 0 hr 2 min 55 sec) 
Heartbeat CPU 0 instructions: 33000000 cycles: 226898111 heartbeat IPC: 0.134483 cumulative IPC: 0.141237 (Simulation time: 0 hr 3 min 1 sec) 
Heartbeat CPU 0 instructions: 34000002 cycles: 234144711 heartbeat IPC: 0.137996 cumulative IPC: 0.141136 (Simulation time: 0 hr 3 min 7 sec) 
Heartbeat CPU 0 instructions: 35000000 cycles: 241443793 heartbeat IPC: 0.137003 cumulative IPC: 0.141011 (Simulation time: 0 hr 3 min 13 sec) 
Heartbeat CPU 0 instructions: 36000003 cycles: 248896969 heartbeat IPC: 0.134171 cumulative IPC: 0.140806 (Simulation time: 0 hr 3 min 19 sec) 
Heartbeat CPU 0 instructions: 37000000 cycles: 256721300 heartbeat IPC: 0.127806 cumulative IPC: 0.140409 (Simulation time: 0 hr 3 min 25 sec) 
Heartbeat CPU 0 instructions: 38000002 cycles: 263931893 heartbeat IPC: 0.138685 cumulative IPC: 0.140362 (Simulation time: 0 hr 3 min 30 sec) 
Heartbeat CPU 0 instructions: 39000001 cycles: 271202152 heartbeat IPC: 0.137547 cumulative IPC: 0.140287 (Simulation time: 0 hr 3 min 36 sec) 
Heartbeat CPU 0 instructions: 40000000 cycles: 278549121 heartbeat IPC: 0.13611 cumulative IPC: 0.140176 (Simulation time: 0 hr 3 min 41 sec) 
Heartbeat CPU 0 instructions: 41000002 cycles: 285882907 heartbeat IPC: 0.136355 cumulative IPC: 0.140078 (Simulation time: 0 hr 3 min 47 sec) 
Heartbeat CPU 0 instructions: 42000003 cycles: 293213978 heartbeat IPC: 0.136406 cumulative IPC: 0.139986 (Simulation time: 0 hr 3 min 53 sec) 
Heartbeat CPU 0 instructions: 43000002 cycles: 300325393 heartbeat IPC: 0.140619 cumulative IPC: 0.140001 (Simulation time: 0 hr 3 min 58 sec) 
Heartbeat CPU 0 instructions: 44000000 cycles: 307467780 heartbeat IPC: 0.140009 cumulative IPC: 0.140001 (Simulation time: 0 hr 4 min 4 sec) 
Heartbeat CPU 0 instructions: 45000000 cycles: 314618845 heartbeat IPC: 0.139839 cumulative IPC: 0.139998 (Simulation time: 0 hr 4 min 10 sec) 
Heartbeat CPU 0 instructions: 46000000 cycles: 321754186 heartbeat IPC: 0.140147 cumulative IPC: 0.140001 (Simulation time: 0 hr 4 min 15 sec) 
Heartbeat CPU 0 instructions: 47000003 cycles: 328937922 heartbeat IPC: 0.139204 cumulative IPC: 0.139984 (Simulation time: 0 hr 4 min 21 sec) 
Heartbeat CPU 0 instructions: 48000002 cycles: 336025418 heartbeat IPC: 0.141093 cumulative IPC: 0.140007 (Simulation time: 0 hr 4 min 26 sec) 
Heartbeat CPU 0 instructions: 49000001 cycles: 343079100 heartbeat IPC: 0.14177 cumulative IPC: 0.140043 (Simulation time: 0 hr 4 min 32 sec) 
Heartbeat CPU 0 instructions: 50000002 cycles: 350128648 heartbeat IPC: 0.141853 cumulative IPC: 0.14008 (Simulation time: 0 hr 4 min 37 sec) 
Heartbeat CPU 0 instructions: 51000002 cycles: 357169693 heartbeat IPC: 0.142024 cumulative IPC: 0.140118 (Simulation time: 0 hr 4 min 43 sec) 
Heartbeat CPU 0 instructions: 52000001 cycles: 364232557 heartbeat IPC: 0.141585 cumulative IPC: 0.140147 (Simulation time: 0 hr 4 min 48 sec) 
Heartbeat CPU 0 instructions: 53000001 cycles: 371268364 heartbeat IPC: 0.14213 cumulative IPC: 0.140184 (Simulation time: 0 hr 4 min 54 sec) 
Heartbeat CPU 0 instructions: 54000003 cycles: 378413002 heartbeat IPC: 0.139965 cumulative IPC: 0.14018 (Simulation time: 0 hr 5 min 0 sec) 
Heartbeat CPU 0 instructions: 55000000 cycles: 385565345 heartbeat IPC: 0.139814 cumulative IPC: 0.140173 (Simulation time: 0 hr 5 min 5 sec) 
Heartbeat CPU 0 instructions: 56000000 cycles: 392839940 heartbeat IPC: 0.137465 cumulative IPC: 0.140123 (Simulation time: 0 hr 5 min 11 sec) 
Heartbeat CPU 0 instructions: 57000000 cycles: 400073234 heartbeat IPC: 0.13825 cumulative IPC: 0.140089 (Simulation time: 0 hr 5 min 17 sec) 
Heartbeat CPU 0 instructions: 58000001 cycles: 407377371 heartbeat IPC: 0.136909 cumulative IPC: 0.140032 (Simulation time: 0 hr 5 min 22 sec) 
Heartbeat CPU 0 instructions: 59000002 cycles: 414746253 heartbeat IPC: 0.135706 cumulative IPC: 0.139955 (Simulation time: 0 hr 5 min 28 sec) 
Heartbeat CPU 0 instructions: 60000002 cycles: 422067280 heartbeat IPC: 0.136593 cumulative IPC: 0.139897 (Simulation time: 0 hr 5 min 34 sec) 
Heartbeat CPU 0 instructions: 61000001 cycles: 429378157 heartbeat IPC: 0.136782 cumulative IPC: 0.139844 (Simulation time: 0 hr 5 min 39 sec) 
Heartbeat CPU 0 instructions: 62000000 cycles: 436621741 heartbeat IPC: 0.138053 cumulative IPC: 0.139814 (Simulation time: 0 hr 5 min 45 sec) 
Heartbeat CPU 0 instructions: 63000000 cycles: 443810684 heartbeat IPC: 0.139103 cumulative IPC: 0.139803 (Simulation time: 0 hr 5 min 51 sec) 
Heartbeat CPU 0 instructions: 64000001 cycles: 451017623 heartbeat IPC: 0.138755 cumulative IPC: 0.139786 (Simulation time: 0 hr 5 min 56 sec) 
Heartbeat CPU 0 instructions: 65000002 cycles: 458204232 heartbeat IPC: 0.139148 cumulative IPC: 0.139776 (Simulation time: 0 hr 6 min 2 sec) 
Heartbeat CPU 0 instructions: 66000000 cycles: 465330110 heartbeat IPC: 0.140333 cumulative IPC: 0.139784 (Simulation time: 0 hr 6 min 7 sec) 
Heartbeat CPU 0 instructions: 67000000 cycles: 472448885 heartbeat IPC: 0.140474 cumulative IPC: 0.139795 (Simulation time: 0 hr 6 min 13 sec) 
Heartbeat CPU 0 instructions: 68000003 cycles: 479702125 heartbeat IPC: 0.13787 cumulative IPC: 0.139766 (Simulation time: 0 hr 6 min 19 sec) 
Heartbeat CPU 0 instructions: 69000000 cycles: 486924722 heartbeat IPC: 0.138454 cumulative IPC: 0.139746 (Simulation time: 0 hr 6 min 24 sec) 
Heartbeat CPU 0 instructions: 70000003 cycles: 494127490 heartbeat IPC: 0.138836 cumulative IPC: 0.139733 (Simulation time: 0 hr 6 min 30 sec) 
Heartbeat CPU 0 instructions: 71000002 cycles: 501280546 heartbeat IPC: 0.1398 cumulative IPC: 0.139734 (Simulation time: 0 hr 6 min 36 sec) 
Heartbeat CPU 0 instructions: 72000000 cycles: 508477244 heartbeat IPC: 0.138952 cumulative IPC: 0.139723 (Simulation time: 0 hr 6 min 41 sec) 
Heartbeat CPU 0 instructions: 73000003 cycles: 515793920 heartbeat IPC: 0.136674 cumulative IPC: 0.139679 (Simulation time: 0 hr 6 min 47 sec) 
Heartbeat CPU 0 instructions: 74000002 cycles: 522999467 heartbeat IPC: 0.138782 cumulative IPC: 0.139667 (Simulation time: 0 hr 6 min 53 sec) 
Heartbeat CPU 0 instructions: 75000002 cycles: 530222176 heartbeat IPC: 0.138452 cumulative IPC: 0.139651 (Simulation time: 0 hr 6 min 59 sec) 
Heartbeat CPU 0 instructions: 76000003 cycles: 537379151 heartbeat IPC: 0.139724 cumulative IPC: 0.139652 (Simulation time: 0 hr 7 min 4 sec) 
Heartbeat CPU 0 instructions: 77000000 cycles: 544568526 heartbeat IPC: 0.139094 cumulative IPC: 0.139644 (Simulation time: 0 hr 7 min 10 sec) 
Heartbeat CPU 0 instructions: 78000000 cycles: 551632918 heartbeat IPC: 0.141555 cumulative IPC: 0.139669 (Simulation time: 0 hr 7 min 16 sec) 
Heartbeat CPU 0 instructions: 79000000 cycles: 558586681 heartbeat IPC: 0.143807 cumulative IPC: 0.13972 (Simulation time: 0 hr 7 min 21 sec) 
Heartbeat CPU 0 instructions: 80000001 cycles: 565625184 heartbeat IPC: 0.142076 cumulative IPC: 0.139749 (Simulation time: 0 hr 7 min 27 sec) 
Heartbeat CPU 0 instructions: 81000002 cycles: 572660854 heartbeat IPC: 0.142133 cumulative IPC: 0.139779 (Simulation time: 0 hr 7 min 32 sec) 
Heartbeat CPU 0 instructions: 82000002 cycles: 579946253 heartbeat IPC: 0.137261 cumulative IPC: 0.139747 (Simulation time: 0 hr 7 min 38 sec) 
Heartbeat CPU 0 instructions: 83000001 cycles: 587041676 heartbeat IPC: 0.140936 cumulative IPC: 0.139762 (Simulation time: 0 hr 7 min 43 sec) 
Heartbeat CPU 0 instructions: 84000003 cycles: 594141385 heartbeat IPC: 0.140851 cumulative IPC: 0.139775 (Simulation time: 0 hr 7 min 49 sec) 
Heartbeat CPU 0 instructions: 85000003 cycles: 601280058 heartbeat IPC: 0.140082 cumulative IPC: 0.139778 (Simulation time: 0 hr 7 min 54 sec) 
Heartbeat CPU 0 instructions: 86000002 cycles: 608363955 heartbeat IPC: 0.141165 cumulative IPC: 0.139794 (Simulation time: 0 hr 8 min 0 sec) 
Heartbeat CPU 0 instructions: 87000001 cycles: 615447908 heartbeat IPC: 0.141164 cumulative IPC: 0.13981 (Simulation time: 0 hr 8 min 5 sec) 
Heartbeat CPU 0 instructions: 88000000 cycles: 622470132 heartbeat IPC: 0.142405 cumulative IPC: 0.139839 (Simulation time: 0 hr 8 min 11 sec) 
Heartbeat CPU 0 instructions: 89000002 cycles: 629756880 heartbeat IPC: 0.137236 cumulative IPC: 0.139809 (Simulation time: 0 hr 8 min 17 sec) 
Heartbeat CPU 0 instructions: 90000000 cycles: 636837749 heartbeat IPC: 0.141225 cumulative IPC: 0.139825 (Simulation time: 0 hr 8 min 22 sec) 
Heartbeat CPU 0 instructions: 91000003 cycles: 643879476 heartbeat IPC: 0.142011 cumulative IPC: 0.139849 (Simulation time: 0 hr 8 min 28 sec) 
Heartbeat CPU 0 instructions: 92000002 cycles: 650912345 heartbeat IPC: 0.142189 cumulative IPC: 0.139874 (Simulation time: 0 hr 8 min 33 sec) 
Heartbeat CPU 0 instructions: 93000001 cycles: 657965596 heartbeat IPC: 0.141778 cumulative IPC: 0.139895 (Simulation time: 0 hr 8 min 39 sec) 
Heartbeat CPU 0 instructions: 94000002 cycles: 665012381 heartbeat IPC: 0.141909 cumulative IPC: 0.139916 (Simulation time: 0 hr 8 min 44 sec) 
Heartbeat CPU 0 instructions: 95000001 cycles: 672290574 heartbeat IPC: 0.137397 cumulative IPC: 0.139889 (Simulation time: 0 hr 8 min 50 sec) 
Heartbeat CPU 0 instructions: 96000001 cycles: 679309076 heartbeat IPC: 0.142481 cumulative IPC: 0.139916 (Simulation time: 0 hr 8 min 55 sec) 
Heartbeat CPU 0 instructions: 97000001 cycles: 686373871 heartbeat IPC: 0.141547 cumulative IPC: 0.139932 (Simulation time: 0 hr 9 min 1 sec) 
Heartbeat CPU 0 instructions: 98000000 cycles: 693492009 heartbeat IPC: 0.140486 cumulative IPC: 0.139938 (Simulation time: 0 hr 9 min 6 sec) 
Heartbeat CPU 0 instructions: 99000000 cycles: 700667803 heartbeat IPC: 0.139357 cumulative IPC: 0.139932 (Simulation time: 0 hr 9 min 12 sec) 
Heartbeat CPU 0 instructions: 100000002 cycles: 708121728 heartbeat IPC: 0.134158 cumulative IPC: 0.139871 (Simulation time: 0 hr 9 min 18 sec) 
Heartbeat CPU 0 instructions: 101000001 cycles: 715421229 heartbeat IPC: 0.136996 cumulative IPC: 0.139842 (Simulation time: 0 hr 9 min 24 sec) 
Heartbeat CPU 0 instructions: 102000000 cycles: 722703639 heartbeat IPC: 0.137317 cumulative IPC: 0.139816 (Simulation time: 0 hr 9 min 29 sec) 
Heartbeat CPU 0 instructions: 103000000 cycles: 729959369 heartbeat IPC: 0.137822 cumulative IPC: 0.139797 (Simulation time: 0 hr 9 min 35 sec) 
Heartbeat CPU 0 instructions: 104000003 cycles: 737170044 heartbeat IPC: 0.138684 cumulative IPC: 0.139786 (Simulation time: 0 hr 9 min 41 sec) 
Heartbeat CPU 0 instructions: 105000002 cycles: 744444590 heartbeat IPC: 0.137465 cumulative IPC: 0.139763 (Simulation time: 0 hr 9 min 46 sec) 
Heartbeat CPU 0 instructions: 106000003 cycles: 751677408 heartbeat IPC: 0.138259 cumulative IPC: 0.139749 (Simulation time: 0 hr 9 min 52 sec) 
Heartbeat CPU 0 instructions: 107000001 cycles: 758879986 heartbeat IPC: 0.138839 cumulative IPC: 0.13974 (Simulation time: 0 hr 9 min 58 sec) 
Heartbeat CPU 0 instructions: 108000001 cycles: 766062216 heartbeat IPC: 0.139233 cumulative IPC: 0.139735 (Simulation time: 0 hr 10 min 3 sec) 
Heartbeat CPU 0 instructions: 109000000 cycles: 773274025 heartbeat IPC: 0.138661 cumulative IPC: 0.139725 (Simulation time: 0 hr 10 min 9 sec) 
Heartbeat CPU 0 instructions: 110000000 cycles: 780461869 heartbeat IPC: 0.139124 cumulative IPC: 0.13972 (Simulation time: 0 hr 10 min 15 sec) 
Heartbeat CPU 0 instructions: 111000001 cycles: 787560369 heartbeat IPC: 0.140875 cumulative IPC: 0.13973 (Simulation time: 0 hr 10 min 20 sec) 
Heartbeat CPU 0 instructions: 112000000 cycles: 794651484 heartbeat IPC: 0.141021 cumulative IPC: 0.139742 (Simulation time: 0 hr 10 min 26 sec) 
Heartbeat CPU 0 instructions: 113000003 cycles: 801970241 heartbeat IPC: 0.136636 cumulative IPC: 0.139713 (Simulation time: 0 hr 10 min 31 sec) 
Heartbeat CPU 0 instructions: 114000002 cycles: 808982116 heartbeat IPC: 0.142615 cumulative IPC: 0.139738 (Simulation time: 0 hr 10 min 37 sec) 
Heartbeat CPU 0 instructions: 115000001 cycles: 816343887 heartbeat IPC: 0.135837 cumulative IPC: 0.139703 (Simulation time: 0 hr 10 min 43 sec) 
Heartbeat CPU 0 instructions: 116000000 cycles: 823395840 heartbeat IPC: 0.141805 cumulative IPC: 0.139721 (Simulation time: 0 hr 10 min 48 sec) 
Heartbeat CPU 0 instructions: 117000002 cycles: 830433095 heartbeat IPC: 0.142101 cumulative IPC: 0.139741 (Simulation time: 0 hr 10 min 54 sec) 
Heartbeat CPU 0 instructions: 118000003 cycles: 837817382 heartbeat IPC: 0.135423 cumulative IPC: 0.139703 (Simulation time: 0 hr 10 min 59 sec) 
Heartbeat CPU 0 instructions: 119000002 cycles: 845014239 heartbeat IPC: 0.138949 cumulative IPC: 0.139697 (Simulation time: 0 hr 11 min 5 sec) 
Heartbeat CPU 0 instructions: 120000000 cycles: 852272812 heartbeat IPC: 0.137768 cumulative IPC: 0.13968 (Simulation time: 0 hr 11 min 11 sec) 
Heartbeat CPU 0 instructions: 121000000 cycles: 859441191 heartbeat IPC: 0.139502 cumulative IPC: 0.139679 (Simulation time: 0 hr 11 min 16 sec) 
Heartbeat CPU 0 instructions: 122000002 cycles: 866648413 heartbeat IPC: 0.13875 cumulative IPC: 0.139671 (Simulation time: 0 hr 11 min 22 sec) 
Heartbeat CPU 0 instructions: 123000000 cycles: 873841935 heartbeat IPC: 0.139014 cumulative IPC: 0.139666 (Simulation time: 0 hr 11 min 28 sec) 
Heartbeat CPU 0 instructions: 124000001 cycles: 880913265 heartbeat IPC: 0.141416 cumulative IPC: 0.13968 (Simulation time: 0 hr 11 min 33 sec) 
Heartbeat CPU 0 instructions: 125000002 cycles: 888029745 heartbeat IPC: 0.140519 cumulative IPC: 0.139687 (Simulation time: 0 hr 11 min 39 sec) 
Heartbeat CPU 0 instructions: 126000001 cycles: 895205787 heartbeat IPC: 0.139352 cumulative IPC: 0.139684 (Simulation time: 0 hr 11 min 45 sec) 
Heartbeat CPU 0 instructions: 127000003 cycles: 902401263 heartbeat IPC: 0.138976 cumulative IPC: 0.139678 (Simulation time: 0 hr 11 min 51 sec) 
Heartbeat CPU 0 instructions: 128000002 cycles: 909574575 heartbeat IPC: 0.139405 cumulative IPC: 0.139676 (Simulation time: 0 hr 11 min 57 sec) 
Heartbeat CPU 0 instructions: 129000001 cycles: 916792299 heartbeat IPC: 0.138548 cumulative IPC: 0.139667 (Simulation time: 0 hr 12 min 3 sec) 
Heartbeat CPU 0 instructions: 130000003 cycles: 924301952 heartbeat IPC: 0.133162 cumulative IPC: 0.139614 (Simulation time: 0 hr 12 min 9 sec) 
Heartbeat CPU 0 instructions: 131000002 cycles: 931382409 heartbeat IPC: 0.141234 cumulative IPC: 0.139627 (Simulation time: 0 hr 12 min 15 sec) 
Heartbeat CPU 0 instructions: 132000000 cycles: 938460160 heartbeat IPC: 0.141288 cumulative IPC: 0.139639 (Simulation time: 0 hr 12 min 21 sec) 
Heartbeat CPU 0 instructions: 133000000 cycles: 945598574 heartbeat IPC: 0.140087 cumulative IPC: 0.139643 (Simulation time: 0 hr 12 min 27 sec) 
Heartbeat CPU 0 instructions: 134000003 cycles: 952806856 heartbeat IPC: 0.13873 cumulative IPC: 0.139636 (Simulation time: 0 hr 12 min 33 sec) 
Heartbeat CPU 0 instructions: 135000002 cycles: 959935716 heartbeat IPC: 0.140275 cumulative IPC: 0.13964 (Simulation time: 0 hr 12 min 39 sec) 
Heartbeat CPU 0 instructions: 136000001 cycles: 967421607 heartbeat IPC: 0.133584 cumulative IPC: 0.139594 (Simulation time: 0 hr 12 min 45 sec) 
Heartbeat CPU 0 instructions: 137000001 cycles: 974575107 heartbeat IPC: 0.139792 cumulative IPC: 0.139595 (Simulation time: 0 hr 12 min 51 sec) 
Heartbeat CPU 0 instructions: 138000003 cycles: 982063725 heartbeat IPC: 0.133536 cumulative IPC: 0.139549 (Simulation time: 0 hr 12 min 57 sec) 
Heartbeat CPU 0 instructions: 139000001 cycles: 989171097 heartbeat IPC: 0.140699 cumulative IPC: 0.139557 (Simulation time: 0 hr 13 min 3 sec) 
Heartbeat CPU 0 instructions: 140000000 cycles: 996684473 heartbeat IPC: 0.133096 cumulative IPC: 0.139508 (Simulation time: 0 hr 13 min 10 sec) 
Heartbeat CPU 0 instructions: 141000003 cycles: 1003700860 heartbeat IPC: 0.142524 cumulative IPC: 0.139529 (Simulation time: 0 hr 13 min 16 sec) 
Heartbeat CPU 0 instructions: 142000000 cycles: 1010718873 heartbeat IPC: 0.14249 cumulative IPC: 0.13955 (Simulation time: 0 hr 13 min 22 sec) 
Heartbeat CPU 0 instructions: 143000000 cycles: 1018125109 heartbeat IPC: 0.135021 cumulative IPC: 0.139517 (Simulation time: 0 hr 13 min 28 sec) 
Heartbeat CPU 0 instructions: 144000003 cycles: 1025121681 heartbeat IPC: 0.142928 cumulative IPC: 0.13954 (Simulation time: 0 hr 13 min 34 sec) 
Heartbeat CPU 0 instructions: 145000002 cycles: 1032170764 heartbeat IPC: 0.141862 cumulative IPC: 0.139556 (Simulation time: 0 hr 13 min 39 sec) 
Heartbeat CPU 0 instructions: 146000001 cycles: 1039342268 heartbeat IPC: 0.139441 cumulative IPC: 0.139555 (Simulation time: 0 hr 13 min 45 sec) 
Heartbeat CPU 0 instructions: 147000000 cycles: 1046955740 heartbeat IPC: 0.131346 cumulative IPC: 0.139496 (Simulation time: 0 hr 13 min 52 sec) 
Heartbeat CPU 0 instructions: 148000003 cycles: 1054110106 heartbeat IPC: 0.139775 cumulative IPC: 0.139498 (Simulation time: 0 hr 13 min 57 sec) 
Heartbeat CPU 0 instructions: 149000000 cycles: 1061203297 heartbeat IPC: 0.14098 cumulative IPC: 0.139507 (Simulation time: 0 hr 14 min 4 sec) 
Heartbeat CPU 0 instructions: 150000000 cycles: 1068285677 heartbeat IPC: 0.141195 cumulative IPC: 0.139519 (Simulation time: 0 hr 14 min 9 sec) 
Heartbeat CPU 0 instructions: 151000003 cycles: 1075383033 heartbeat IPC: 0.140898 cumulative IPC: 0.139528 (Simulation time: 0 hr 14 min 15 sec) 
Heartbeat CPU 0 instructions: 152000003 cycles: 1082435688 heartbeat IPC: 0.141791 cumulative IPC: 0.139542 (Simulation time: 0 hr 14 min 21 sec) 
Heartbeat CPU 0 instructions: 153000002 cycles: 1089534377 heartbeat IPC: 0.140871 cumulative IPC: 0.139551 (Simulation time: 0 hr 14 min 27 sec) 
Heartbeat CPU 0 instructions: 154000000 cycles: 1096591693 heartbeat IPC: 0.141697 cumulative IPC: 0.139565 (Simulation time: 0 hr 14 min 32 sec) 
Heartbeat CPU 0 instructions: 155000002 cycles: 1103724466 heartbeat IPC: 0.140198 cumulative IPC: 0.139569 (Simulation time: 0 hr 14 min 38 sec) 
Heartbeat CPU 0 instructions: 156000001 cycles: 1110847538 heartbeat IPC: 0.140389 cumulative IPC: 0.139574 (Simulation time: 0 hr 14 min 44 sec) 
Heartbeat CPU 0 instructions: 157000003 cycles: 1117985831 heartbeat IPC: 0.14009 cumulative IPC: 0.139578 (Simulation time: 0 hr 14 min 49 sec) 
Heartbeat CPU 0 instructions: 158000002 cycles: 1125127862 heartbeat IPC: 0.140016 cumulative IPC: 0.13958 (Simulation time: 0 hr 14 min 55 sec) 
Heartbeat CPU 0 instructions: 159000001 cycles: 1132360744 heartbeat IPC: 0.138257 cumulative IPC: 0.139572 (Simulation time: 0 hr 15 min 0 sec) 
Heartbeat CPU 0 instructions: 160000000 cycles: 1139589214 heartbeat IPC: 0.138342 cumulative IPC: 0.139564 (Simulation time: 0 hr 15 min 6 sec) 
Heartbeat CPU 0 instructions: 161000003 cycles: 1146877795 heartbeat IPC: 0.137201 cumulative IPC: 0.139549 (Simulation time: 0 hr 15 min 12 sec) 
Heartbeat CPU 0 instructions: 162000002 cycles: 1154190538 heartbeat IPC: 0.136747 cumulative IPC: 0.139531 (Simulation time: 0 hr 15 min 17 sec) 
Heartbeat CPU 0 instructions: 163000001 cycles: 1161472887 heartbeat IPC: 0.137318 cumulative IPC: 0.139517 (Simulation time: 0 hr 15 min 24 sec) 
Heartbeat CPU 0 instructions: 164000000 cycles: 1168707917 heartbeat IPC: 0.138216 cumulative IPC: 0.139509 (Simulation time: 0 hr 15 min 30 sec) 
Heartbeat CPU 0 instructions: 165000000 cycles: 1175902485 heartbeat IPC: 0.138994 cumulative IPC: 0.139506 (Simulation time: 0 hr 15 min 36 sec) 
Heartbeat CPU 0 instructions: 166000001 cycles: 1183004957 heartbeat IPC: 0.140796 cumulative IPC: 0.139514 (Simulation time: 0 hr 15 min 43 sec) 
Heartbeat CPU 0 instructions: 167000000 cycles: 1190120718 heartbeat IPC: 0.140533 cumulative IPC: 0.13952 (Simulation time: 0 hr 15 min 49 sec) 
Heartbeat CPU 0 instructions: 168000002 cycles: 1197394400 heartbeat IPC: 0.137482 cumulative IPC: 0.139508 (Simulation time: 0 hr 15 min 55 sec) 
Heartbeat CPU 0 instructions: 169000003 cycles: 1205123614 heartbeat IPC: 0.129379 cumulative IPC: 0.139443 (Simulation time: 0 hr 16 min 2 sec) 
Heartbeat CPU 0 instructions: 170000002 cycles: 1212312316 heartbeat IPC: 0.139107 cumulative IPC: 0.139441 (Simulation time: 0 hr 16 min 7 sec) 
Heartbeat CPU 0 instructions: 171000003 cycles: 1219549845 heartbeat IPC: 0.138169 cumulative IPC: 0.139433 (Simulation time: 0 hr 16 min 13 sec) 
Heartbeat CPU 0 instructions: 172000000 cycles: 1226771910 heartbeat IPC: 0.138464 cumulative IPC: 0.139427 (Simulation time: 0 hr 16 min 19 sec) 
Heartbeat CPU 0 instructions: 173000002 cycles: 1234120047 heartbeat IPC: 0.136089 cumulative IPC: 0.139408 (Simulation time: 0 hr 16 min 25 sec) 
Heartbeat CPU 0 instructions: 174000001 cycles: 1241550102 heartbeat IPC: 0.134588 cumulative IPC: 0.139379 (Simulation time: 0 hr 16 min 31 sec) 
Heartbeat CPU 0 instructions: 175000000 cycles: 1248843116 heartbeat IPC: 0.137117 cumulative IPC: 0.139366 (Simulation time: 0 hr 16 min 36 sec) 
Heartbeat CPU 0 instructions: 176000000 cycles: 1256095042 heartbeat IPC: 0.137894 cumulative IPC: 0.139357 (Simulation time: 0 hr 16 min 42 sec) 
Heartbeat CPU 0 instructions: 177000001 cycles: 1263358131 heartbeat IPC: 0.137683 cumulative IPC: 0.139347 (Simulation time: 0 hr 16 min 48 sec) 
Heartbeat CPU 0 instructions: 178000000 cycles: 1270639299 heartbeat IPC: 0.13734 cumulative IPC: 0.139336 (Simulation time: 0 hr 16 min 54 sec) 
Heartbeat CPU 0 instructions: 179000003 cycles: 1277901090 heartbeat IPC: 0.137707 cumulative IPC: 0.139327 (Simulation time: 0 hr 16 min 59 sec) 
Heartbeat CPU 0 instructions: 180000002 cycles: 1285141487 heartbeat IPC: 0.138114 cumulative IPC: 0.13932 (Simulation time: 0 hr 17 min 5 sec) 
Heartbeat CPU 0 instructions: 181000001 cycles: 1292359346 heartbeat IPC: 0.138545 cumulative IPC: 0.139316 (Simulation time: 0 hr 17 min 11 sec) 
Heartbeat CPU 0 instructions: 182000000 cycles: 1299601976 heartbeat IPC: 0.138071 cumulative IPC: 0.139309 (Simulation time: 0 hr 17 min 17 sec) 
Heartbeat CPU 0 instructions: 183000001 cycles: 1306787685 heartbeat IPC: 0.139165 cumulative IPC: 0.139308 (Simulation time: 0 hr 17 min 22 sec) 
Heartbeat CPU 0 instructions: 184000001 cycles: 1313844398 heartbeat IPC: 0.141709 cumulative IPC: 0.139321 (Simulation time: 0 hr 17 min 29 sec) 
Heartbeat CPU 0 instructions: 185000001 cycles: 1320992054 heartbeat IPC: 0.139906 cumulative IPC: 0.139324 (Simulation time: 0 hr 17 min 35 sec) 
Heartbeat CPU 0 instructions: 186000000 cycles: 1328204444 heartbeat IPC: 0.13865 cumulative IPC: 0.13932 (Simulation time: 0 hr 17 min 40 sec) 
Heartbeat CPU 0 instructions: 187000000 cycles: 1335347618 heartbeat IPC: 0.139994 cumulative IPC: 0.139324 (Simulation time: 0 hr 17 min 46 sec) 
Heartbeat CPU 0 instructions: 188000002 cycles: 1342632060 heartbeat IPC: 0.137279 cumulative IPC: 0.139313 (Simulation time: 0 hr 17 min 52 sec) 
Heartbeat CPU 0 instructions: 189000001 cycles: 1349945730 heartbeat IPC: 0.13673 cumulative IPC: 0.139299 (Simulation time: 0 hr 17 min 57 sec) 
Heartbeat CPU 0 instructions: 190000000 cycles: 1357177760 heartbeat IPC: 0.138274 cumulative IPC: 0.139293 (Simulation time: 0 hr 18 min 3 sec) 
Heartbeat CPU 0 instructions: 191000000 cycles: 1364507583 heartbeat IPC: 0.136429 cumulative IPC: 0.139278 (Simulation time: 0 hr 18 min 10 sec) 
Heartbeat CPU 0 instructions: 192000001 cycles: 1371843026 heartbeat IPC: 0.136325 cumulative IPC: 0.139262 (Simulation time: 0 hr 18 min 15 sec) 
Heartbeat CPU 0 instructions: 193000000 cycles: 1379150264 heartbeat IPC: 0.13685 cumulative IPC: 0.139249 (Simulation time: 0 hr 18 min 21 sec) 
Heartbeat CPU 0 instructions: 194000001 cycles: 1386875213 heartbeat IPC: 0.129451 cumulative IPC: 0.139195 (Simulation time: 0 hr 18 min 27 sec) 
Heartbeat CPU 0 instructions: 195000001 cycles: 1394051537 heartbeat IPC: 0.139347 cumulative IPC: 0.139195 (Simulation time: 0 hr 18 min 33 sec) 
Heartbeat CPU 0 instructions: 196000003 cycles: 1401374391 heartbeat IPC: 0.136559 cumulative IPC: 0.139182 (Simulation time: 0 hr 18 min 38 sec) 
Heartbeat CPU 0 instructions: 197000002 cycles: 1408671387 heartbeat IPC: 0.137043 cumulative IPC: 0.139171 (Simulation time: 0 hr 18 min 44 sec) 
Heartbeat CPU 0 instructions: 198000000 cycles: 1416045229 heartbeat IPC: 0.135614 cumulative IPC: 0.139152 (Simulation time: 0 hr 18 min 50 sec) 
Heartbeat CPU 0 instructions: 199000000 cycles: 1423348793 heartbeat IPC: 0.136919 cumulative IPC: 0.139141 (Simulation time: 0 hr 18 min 56 sec) 
Heartbeat CPU 0 instructions: 200000002 cycles: 1430661547 heartbeat IPC: 0.136748 cumulative IPC: 0.139128 (Simulation time: 0 hr 19 min 2 sec) 
Heartbeat CPU 0 instructions: 201000000 cycles: 1438024705 heartbeat IPC: 0.135811 cumulative IPC: 0.139111 (Simulation time: 0 hr 19 min 7 sec) 
Heartbeat CPU 0 instructions: 202000001 cycles: 1445275157 heartbeat IPC: 0.137923 cumulative IPC: 0.139105 (Simulation time: 0 hr 19 min 13 sec) 
Heartbeat CPU 0 instructions: 203000000 cycles: 1452450464 heartbeat IPC: 0.139367 cumulative IPC: 0.139107 (Simulation time: 0 hr 19 min 19 sec) 
Heartbeat CPU 0 instructions: 204000000 cycles: 1459681626 heartbeat IPC: 0.13829 cumulative IPC: 0.139103 (Simulation time: 0 hr 19 min 25 sec) 
Heartbeat CPU 0 instructions: 205000002 cycles: 1466893730 heartbeat IPC: 0.138656 cumulative IPC: 0.1391 (Simulation time: 0 hr 19 min 30 sec) 
Heartbeat CPU 0 instructions: 206000002 cycles: 1474125368 heartbeat IPC: 0.138281 cumulative IPC: 0.139096 (Simulation time: 0 hr 19 min 36 sec) 
Heartbeat CPU 0 instructions: 207000002 cycles: 1481421710 heartbeat IPC: 0.137055 cumulative IPC: 0.139086 (Simulation time: 0 hr 19 min 42 sec) 
Heartbeat CPU 0 instructions: 208000002 cycles: 1488739244 heartbeat IPC: 0.136658 cumulative IPC: 0.139074 (Simulation time: 0 hr 19 min 48 sec) 
Heartbeat CPU 0 instructions: 209000000 cycles: 1496106072 heartbeat IPC: 0.135743 cumulative IPC: 0.139058 (Simulation time: 0 hr 19 min 54 sec) 
Heartbeat CPU 0 instructions: 210000000 cycles: 1503429953 heartbeat IPC: 0.13654 cumulative IPC: 0.139046 (Simulation time: 0 hr 19 min 59 sec) 
Heartbeat CPU 0 instructions: 211000002 cycles: 1510748308 heartbeat IPC: 0.136643 cumulative IPC: 0.139034 (Simulation time: 0 hr 20 min 5 sec) 
Heartbeat CPU 0 instructions: 212000001 cycles: 1518122901 heartbeat IPC: 0.135601 cumulative IPC: 0.139017 (Simulation time: 0 hr 20 min 11 sec) 
Heartbeat CPU 0 instructions: 213000000 cycles: 1525409662 heartbeat IPC: 0.137235 cumulative IPC: 0.139009 (Simulation time: 0 hr 20 min 17 sec) 
Heartbeat CPU 0 instructions: 214000003 cycles: 1532708175 heartbeat IPC: 0.137015 cumulative IPC: 0.138999 (Simulation time: 0 hr 20 min 23 sec) 
Heartbeat CPU 0 instructions: 215000002 cycles: 1540008065 heartbeat IPC: 0.136988 cumulative IPC: 0.13899 (Simulation time: 0 hr 20 min 29 sec) 
Heartbeat CPU 0 instructions: 216000001 cycles: 1547303212 heartbeat IPC: 0.137077 cumulative IPC: 0.138981 (Simulation time: 0 hr 20 min 34 sec) 
Heartbeat CPU 0 instructions: 217000000 cycles: 1554556580 heartbeat IPC: 0.137867 cumulative IPC: 0.138976 (Simulation time: 0 hr 20 min 40 sec) 
Heartbeat CPU 0 instructions: 218000000 cycles: 1561808613 heartbeat IPC: 0.137892 cumulative IPC: 0.138971 (Simulation time: 0 hr 20 min 46 sec) 
Heartbeat CPU 0 instructions: 219000002 cycles: 1569119122 heartbeat IPC: 0.13679 cumulative IPC: 0.13896 (Simulation time: 0 hr 20 min 52 sec) 
Heartbeat CPU 0 instructions: 220000000 cycles: 1576461765 heartbeat IPC: 0.13619 cumulative IPC: 0.138948 (Simulation time: 0 hr 20 min 57 sec) 
Heartbeat CPU 0 instructions: 221000000 cycles: 1583838523 heartbeat IPC: 0.135561 cumulative IPC: 0.138932 (Simulation time: 0 hr 21 min 3 sec) 
Heartbeat CPU 0 instructions: 222000001 cycles: 1591263764 heartbeat IPC: 0.134676 cumulative IPC: 0.138912 (Simulation time: 0 hr 21 min 9 sec) 
Heartbeat CPU 0 instructions: 223000002 cycles: 1598627857 heartbeat IPC: 0.135794 cumulative IPC: 0.138898 (Simulation time: 0 hr 21 min 15 sec) 
Heartbeat CPU 0 instructions: 224000000 cycles: 1606004830 heartbeat IPC: 0.135557 cumulative IPC: 0.138882 (Simulation time: 0 hr 21 min 21 sec) 
Heartbeat CPU 0 instructions: 225000001 cycles: 1613307578 heartbeat IPC: 0.136935 cumulative IPC: 0.138873 (Simulation time: 0 hr 21 min 27 sec) 
Heartbeat CPU 0 instructions: 226000000 cycles: 1620659228 heartbeat IPC: 0.136024 cumulative IPC: 0.13886 (Simulation time: 0 hr 21 min 33 sec) 
Heartbeat CPU 0 instructions: 227000002 cycles: 1628088182 heartbeat IPC: 0.134609 cumulative IPC: 0.138841 (Simulation time: 0 hr 21 min 38 sec) 
Heartbeat CPU 0 instructions: 228000002 cycles: 1635573117 heartbeat IPC: 0.133602 cumulative IPC: 0.138817 (Simulation time: 0 hr 21 min 44 sec) 
Heartbeat CPU 0 instructions: 229000001 cycles: 1642987165 heartbeat IPC: 0.134879 cumulative IPC: 0.138799 (Simulation time: 0 hr 21 min 50 sec) 
Heartbeat CPU 0 instructions: 230000000 cycles: 1650362074 heartbeat IPC: 0.135595 cumulative IPC: 0.138785 (Simulation time: 0 hr 21 min 56 sec) 
Heartbeat CPU 0 instructions: 231000000 cycles: 1657766068 heartbeat IPC: 0.135062 cumulative IPC: 0.138768 (Simulation time: 0 hr 22 min 2 sec) 
Heartbeat CPU 0 instructions: 232000001 cycles: 1665139450 heartbeat IPC: 0.135623 cumulative IPC: 0.138754 (Simulation time: 0 hr 22 min 8 sec) 
Heartbeat CPU 0 instructions: 233000000 cycles: 1672377686 heartbeat IPC: 0.138155 cumulative IPC: 0.138752 (Simulation time: 0 hr 22 min 13 sec) 
Heartbeat CPU 0 instructions: 234000003 cycles: 1679693632 heartbeat IPC: 0.136688 cumulative IPC: 0.138743 (Simulation time: 0 hr 22 min 19 sec) 
Heartbeat CPU 0 instructions: 235000002 cycles: 1687079866 heartbeat IPC: 0.135387 cumulative IPC: 0.138728 (Simulation time: 0 hr 22 min 25 sec) 
Heartbeat CPU 0 instructions: 236000001 cycles: 1694528031 heartbeat IPC: 0.134261 cumulative IPC: 0.138709 (Simulation time: 0 hr 22 min 30 sec) 
Heartbeat CPU 0 instructions: 237000000 cycles: 1701982014 heartbeat IPC: 0.134156 cumulative IPC: 0.138689 (Simulation time: 0 hr 22 min 36 sec) 
Heartbeat CPU 0 instructions: 238000000 cycles: 1709415378 heartbeat IPC: 0.134529 cumulative IPC: 0.138671 (Simulation time: 0 hr 22 min 42 sec) 
Heartbeat CPU 0 instructions: 239000002 cycles: 1716785569 heartbeat IPC: 0.135682 cumulative IPC: 0.138658 (Simulation time: 0 hr 22 min 48 sec) 
Heartbeat CPU 0 instructions: 240000001 cycles: 1724116931 heartbeat IPC: 0.1364 cumulative IPC: 0.138648 (Simulation time: 0 hr 22 min 54 sec) 
Heartbeat CPU 0 instructions: 241000000 cycles: 1731483352 heartbeat IPC: 0.135751 cumulative IPC: 0.138636 (Simulation time: 0 hr 23 min 0 sec) 
Heartbeat CPU 0 instructions: 242000000 cycles: 1739355552 heartbeat IPC: 0.127029 cumulative IPC: 0.138583 (Simulation time: 0 hr 23 min 6 sec) 
Heartbeat CPU 0 instructions: 243000000 cycles: 1746687882 heartbeat IPC: 0.136382 cumulative IPC: 0.138574 (Simulation time: 0 hr 23 min 12 sec) 
Heartbeat CPU 0 instructions: 244000003 cycles: 1753954970 heartbeat IPC: 0.137607 cumulative IPC: 0.13857 (Simulation time: 0 hr 23 min 18 sec) 
Heartbeat CPU 0 instructions: 245000002 cycles: 1761280508 heartbeat IPC: 0.136509 cumulative IPC: 0.138561 (Simulation time: 0 hr 23 min 24 sec) 
Heartbeat CPU 0 instructions: 246000003 cycles: 1768582526 heartbeat IPC: 0.136949 cumulative IPC: 0.138555 (Simulation time: 0 hr 23 min 30 sec) 
Heartbeat CPU 0 instructions: 247000000 cycles: 1775926667 heartbeat IPC: 0.136163 cumulative IPC: 0.138545 (Simulation time: 0 hr 23 min 37 sec) 
Heartbeat CPU 0 instructions: 248000003 cycles: 1783356954 heartbeat IPC: 0.134585 cumulative IPC: 0.138528 (Simulation time: 0 hr 23 min 43 sec) 
Heartbeat CPU 0 instructions: 249000001 cycles: 1790761023 heartbeat IPC: 0.135061 cumulative IPC: 0.138514 (Simulation time: 0 hr 23 min 49 sec) 
Heartbeat CPU 0 instructions: 250000000 cycles: 1798167200 heartbeat IPC: 0.135022 cumulative IPC: 0.1385 (Simulation time: 0 hr 23 min 55 sec) 
Heartbeat CPU 0 instructions: 251000000 cycles: 1805588480 heartbeat IPC: 0.134748 cumulative IPC: 0.138484 (Simulation time: 0 hr 24 min 1 sec) 
Heartbeat CPU 0 instructions: 252000003 cycles: 1813085019 heartbeat IPC: 0.133395 cumulative IPC: 0.138463 (Simulation time: 0 hr 24 min 8 sec) 
Heartbeat CPU 0 instructions: 253000000 cycles: 1821027714 heartbeat IPC: 0.125901 cumulative IPC: 0.138408 (Simulation time: 0 hr 24 min 14 sec) 
Heartbeat CPU 0 instructions: 254000001 cycles: 1828366194 heartbeat IPC: 0.136268 cumulative IPC: 0.1384 (Simulation time: 0 hr 24 min 20 sec) 
Heartbeat CPU 0 instructions: 255000000 cycles: 1835786757 heartbeat IPC: 0.134761 cumulative IPC: 0.138385 (Simulation time: 0 hr 24 min 26 sec) 
Heartbeat CPU 0 instructions: 256000003 cycles: 1843184013 heartbeat IPC: 0.135186 cumulative IPC: 0.138372 (Simulation time: 0 hr 24 min 31 sec) 
Heartbeat CPU 0 instructions: 257000002 cycles: 1850527845 heartbeat IPC: 0.136169 cumulative IPC: 0.138363 (Simulation time: 0 hr 24 min 37 sec) 
Heartbeat CPU 0 instructions: 258000001 cycles: 1857767850 heartbeat IPC: 0.138121 cumulative IPC: 0.138362 (Simulation time: 0 hr 24 min 43 sec) 
Heartbeat CPU 0 instructions: 259000003 cycles: 1865399095 heartbeat IPC: 0.13104 cumulative IPC: 0.138333 (Simulation time: 0 hr 24 min 49 sec) 
Heartbeat CPU 0 instructions: 260000002 cycles: 1872772545 heartbeat IPC: 0.135622 cumulative IPC: 0.138322 (Simulation time: 0 hr 24 min 55 sec) 
Heartbeat CPU 0 instructions: 261000003 cycles: 1880093611 heartbeat IPC: 0.136592 cumulative IPC: 0.138315 (Simulation time: 0 hr 25 min 1 sec) 
Heartbeat CPU 0 instructions: 262000002 cycles: 1887606831 heartbeat IPC: 0.133099 cumulative IPC: 0.138294 (Simulation time: 0 hr 25 min 6 sec) 
Heartbeat CPU 0 instructions: 263000002 cycles: 1895123044 heartbeat IPC: 0.133046 cumulative IPC: 0.138274 (Simulation time: 0 hr 25 min 12 sec) 
Heartbeat CPU 0 instructions: 264000000 cycles: 1902658164 heartbeat IPC: 0.132712 cumulative IPC: 0.138251 (Simulation time: 0 hr 25 min 18 sec) 
Heartbeat CPU 0 instructions: 265000000 cycles: 1910180065 heartbeat IPC: 0.132945 cumulative IPC: 0.138231 (Simulation time: 0 hr 25 min 24 sec) 
Heartbeat CPU 0 instructions: 266000003 cycles: 1917639533 heartbeat IPC: 0.134058 cumulative IPC: 0.138214 (Simulation time: 0 hr 25 min 30 sec) 
Heartbeat CPU 0 instructions: 267000002 cycles: 1925162077 heartbeat IPC: 0.132934 cumulative IPC: 0.138194 (Simulation time: 0 hr 25 min 36 sec) 
Heartbeat CPU 0 instructions: 268000002 cycles: 1933125538 heartbeat IPC: 0.125574 cumulative IPC: 0.138142 (Simulation time: 0 hr 25 min 42 sec) 
Heartbeat CPU 0 instructions: 269000001 cycles: 1940523325 heartbeat IPC: 0.135175 cumulative IPC: 0.13813 (Simulation time: 0 hr 25 min 48 sec) 
Heartbeat CPU 0 instructions: 270000003 cycles: 1947983986 heartbeat IPC: 0.134037 cumulative IPC: 0.138115 (Simulation time: 0 hr 25 min 54 sec) 
Heartbeat CPU 0 instructions: 271000003 cycles: 1955362061 heartbeat IPC: 0.135537 cumulative IPC: 0.138105 (Simulation time: 0 hr 26 min 0 sec) 
Heartbeat CPU 0 instructions: 272000000 cycles: 1963157376 heartbeat IPC: 0.128282 cumulative IPC: 0.138066 (Simulation time: 0 hr 26 min 6 sec) 
Heartbeat CPU 0 instructions: 273000000 cycles: 1970377996 heartbeat IPC: 0.138492 cumulative IPC: 0.138068 (Simulation time: 0 hr 26 min 12 sec) 
Heartbeat CPU 0 instructions: 274000002 cycles: 1977584986 heartbeat IPC: 0.138754 cumulative IPC: 0.13807 (Simulation time: 0 hr 26 min 18 sec) 
Heartbeat CPU 0 instructions: 275000000 cycles: 1984829308 heartbeat IPC: 0.138039 cumulative IPC: 0.13807 (Simulation time: 0 hr 26 min 25 sec) 
Heartbeat CPU 0 instructions: 276000000 cycles: 1992132796 heartbeat IPC: 0.136921 cumulative IPC: 0.138066 (Simulation time: 0 hr 26 min 30 sec) 
Heartbeat CPU 0 instructions: 277000003 cycles: 1999485935 heartbeat IPC: 0.135997 cumulative IPC: 0.138058 (Simulation time: 0 hr 26 min 36 sec) 
Heartbeat CPU 0 instructions: 278000001 cycles: 2006899993 heartbeat IPC: 0.134879 cumulative IPC: 0.138046 (Simulation time: 0 hr 26 min 42 sec) 
Heartbeat CPU 0 instructions: 279000000 cycles: 2014384510 heartbeat IPC: 0.133609 cumulative IPC: 0.13803 (Simulation time: 0 hr 26 min 48 sec) 
Heartbeat CPU 0 instructions: 280000001 cycles: 2021886816 heartbeat IPC: 0.133292 cumulative IPC: 0.138012 (Simulation time: 0 hr 26 min 54 sec) 
Heartbeat CPU 0 instructions: 281000000 cycles: 2029363722 heartbeat IPC: 0.133745 cumulative IPC: 0.137997 (Simulation time: 0 hr 27 min 0 sec) 
Heartbeat CPU 0 instructions: 282000003 cycles: 2036930162 heartbeat IPC: 0.132163 cumulative IPC: 0.137975 (Simulation time: 0 hr 27 min 6 sec) 
Heartbeat CPU 0 instructions: 283000003 cycles: 2044540148 heartbeat IPC: 0.131406 cumulative IPC: 0.13795 (Simulation time: 0 hr 27 min 12 sec) 
Heartbeat CPU 0 instructions: 284000002 cycles: 2052152677 heartbeat IPC: 0.131362 cumulative IPC: 0.137926 (Simulation time: 0 hr 27 min 17 sec) 
Heartbeat CPU 0 instructions: 285000001 cycles: 2059693545 heartbeat IPC: 0.132611 cumulative IPC: 0.137907 (Simulation time: 0 hr 27 min 23 sec) 
Heartbeat CPU 0 instructions: 286000000 cycles: 2067121799 heartbeat IPC: 0.134621 cumulative IPC: 0.137895 (Simulation time: 0 hr 27 min 29 sec) 
Heartbeat CPU 0 instructions: 287000001 cycles: 2074560361 heartbeat IPC: 0.134435 cumulative IPC: 0.137882 (Simulation time: 0 hr 27 min 35 sec) 
Heartbeat CPU 0 instructions: 288000000 cycles: 2082064009 heartbeat IPC: 0.133268 cumulative IPC: 0.137866 (Simulation time: 0 hr 27 min 41 sec) 
Heartbeat CPU 0 instructions: 289000002 cycles: 2089606226 heartbeat IPC: 0.132587 cumulative IPC: 0.137847 (Simulation time: 0 hr 27 min 47 sec) 
Heartbeat CPU 0 instructions: 290000001 cycles: 2097210202 heartbeat IPC: 0.13151 cumulative IPC: 0.137824 (Simulation time: 0 hr 27 min 53 sec) 
Heartbeat CPU 0 instructions: 291000001 cycles: 2104812298 heartbeat IPC: 0.131543 cumulative IPC: 0.137801 (Simulation time: 0 hr 27 min 58 sec) 
Heartbeat CPU 0 instructions: 292000003 cycles: 2112460096 heartbeat IPC: 0.130757 cumulative IPC: 0.137775 (Simulation time: 0 hr 28 min 4 sec) 
Heartbeat CPU 0 instructions: 293000002 cycles: 2120083746 heartbeat IPC: 0.131171 cumulative IPC: 0.137752 (Simulation time: 0 hr 28 min 10 sec) 
Heartbeat CPU 0 instructions: 294000000 cycles: 2127811133 heartbeat IPC: 0.12941 cumulative IPC: 0.137721 (Simulation time: 0 hr 28 min 16 sec) 
Heartbeat CPU 0 instructions: 295000000 cycles: 2135342263 heartbeat IPC: 0.132782 cumulative IPC: 0.137704 (Simulation time: 0 hr 28 min 22 sec) 
Heartbeat CPU 0 instructions: 296000003 cycles: 2142785222 heartbeat IPC: 0.134356 cumulative IPC: 0.137692 (Simulation time: 0 hr 28 min 28 sec) 
Heartbeat CPU 0 instructions: 297000000 cycles: 2150284477 heartbeat IPC: 0.133346 cumulative IPC: 0.137677 (Simulation time: 0 hr 28 min 34 sec) 
Heartbeat CPU 0 instructions: 298000003 cycles: 2157829256 heartbeat IPC: 0.132542 cumulative IPC: 0.137659 (Simulation time: 0 hr 28 min 40 sec) 
Heartbeat CPU 0 instructions: 299000002 cycles: 2165401389 heartbeat IPC: 0.132063 cumulative IPC: 0.13764 (Simulation time: 0 hr 28 min 46 sec) 
Heartbeat CPU 0 instructions: 300000003 cycles: 2173032824 heartbeat IPC: 0.131037 cumulative IPC: 0.137616 (Simulation time: 0 hr 28 min 52 sec) 
Heartbeat CPU 0 instructions: 301000003 cycles: 2180623172 heartbeat IPC: 0.131746 cumulative IPC: 0.137596 (Simulation time: 0 hr 28 min 58 sec) 
Heartbeat CPU 0 instructions: 302000002 cycles: 2188227457 heartbeat IPC: 0.131505 cumulative IPC: 0.137575 (Simulation time: 0 hr 29 min 4 sec) 
Heartbeat CPU 0 instructions: 303000002 cycles: 2195757659 heartbeat IPC: 0.132799 cumulative IPC: 0.137558 (Simulation time: 0 hr 29 min 11 sec) 
Heartbeat CPU 0 instructions: 304000001 cycles: 2203302326 heartbeat IPC: 0.132544 cumulative IPC: 0.137541 (Simulation time: 0 hr 29 min 17 sec) 
Heartbeat CPU 0 instructions: 305000001 cycles: 2210856400 heartbeat IPC: 0.132379 cumulative IPC: 0.137524 (Simulation time: 0 hr 29 min 23 sec) 
Heartbeat CPU 0 instructions: 306000000 cycles: 2218438417 heartbeat IPC: 0.131891 cumulative IPC: 0.137504 (Simulation time: 0 hr 29 min 29 sec) 
Heartbeat CPU 0 instructions: 307000003 cycles: 2225983479 heartbeat IPC: 0.132537 cumulative IPC: 0.137488 (Simulation time: 0 hr 29 min 35 sec) 
Heartbeat CPU 0 instructions: 308000000 cycles: 2233530930 heartbeat IPC: 0.132495 cumulative IPC: 0.137471 (Simulation time: 0 hr 29 min 41 sec) 
Heartbeat CPU 0 instructions: 309000000 cycles: 2241038579 heartbeat IPC: 0.133197 cumulative IPC: 0.137456 (Simulation time: 0 hr 29 min 47 sec) 
Heartbeat CPU 0 instructions: 310000001 cycles: 2248556017 heartbeat IPC: 0.133024 cumulative IPC: 0.137442 (Simulation time: 0 hr 29 min 53 sec) 
Heartbeat CPU 0 instructions: 311000000 cycles: 2256102930 heartbeat IPC: 0.132504 cumulative IPC: 0.137425 (Simulation time: 0 hr 29 min 59 sec) 
Heartbeat CPU 0 instructions: 312000002 cycles: 2263722086 heartbeat IPC: 0.131248 cumulative IPC: 0.137404 (Simulation time: 0 hr 30 min 5 sec) 
Heartbeat CPU 0 instructions: 313000001 cycles: 2271300803 heartbeat IPC: 0.131948 cumulative IPC: 0.137386 (Simulation time: 0 hr 30 min 11 sec) 
Heartbeat CPU 0 instructions: 314000000 cycles: 2278822895 heartbeat IPC: 0.132942 cumulative IPC: 0.137371 (Simulation time: 0 hr 30 min 17 sec) 
Heartbeat CPU 0 instructions: 315000000 cycles: 2286313869 heartbeat IPC: 0.133494 cumulative IPC: 0.137359 (Simulation time: 0 hr 30 min 22 sec) 
Heartbeat CPU 0 instructions: 316000001 cycles: 2293837883 heartbeat IPC: 0.132908 cumulative IPC: 0.137344 (Simulation time: 0 hr 30 min 28 sec) 
Heartbeat CPU 0 instructions: 317000000 cycles: 2301405584 heartbeat IPC: 0.13214 cumulative IPC: 0.137327 (Simulation time: 0 hr 30 min 35 sec) 
Heartbeat CPU 0 instructions: 318000002 cycles: 2308920115 heartbeat IPC: 0.133076 cumulative IPC: 0.137313 (Simulation time: 0 hr 30 min 41 sec) 
Heartbeat CPU 0 instructions: 319000000 cycles: 2316408755 heartbeat IPC: 0.133535 cumulative IPC: 0.137301 (Simulation time: 0 hr 30 min 47 sec) 
Heartbeat CPU 0 instructions: 320000001 cycles: 2323947740 heartbeat IPC: 0.132644 cumulative IPC: 0.137286 (Simulation time: 0 hr 30 min 53 sec) 
Heartbeat CPU 0 instructions: 321000001 cycles: 2331519923 heartbeat IPC: 0.132062 cumulative IPC: 0.137269 (Simulation time: 0 hr 30 min 59 sec) 
Heartbeat CPU 0 instructions: 322000002 cycles: 2339096554 heartbeat IPC: 0.131985 cumulative IPC: 0.137252 (Simulation time: 0 hr 31 min 5 sec) 
Heartbeat CPU 0 instructions: 323000003 cycles: 2346637968 heartbeat IPC: 0.132601 cumulative IPC: 0.137237 (Simulation time: 0 hr 31 min 11 sec) 
Heartbeat CPU 0 instructions: 324000002 cycles: 2354145208 heartbeat IPC: 0.133205 cumulative IPC: 0.137224 (Simulation time: 0 hr 31 min 17 sec) 
Heartbeat CPU 0 instructions: 325000001 cycles: 2361627928 heartbeat IPC: 0.133641 cumulative IPC: 0.137213 (Simulation time: 0 hr 31 min 23 sec) 
Heartbeat CPU 0 instructions: 326000000 cycles: 2369089894 heartbeat IPC: 0.134013 cumulative IPC: 0.137202 (Simulation time: 0 hr 31 min 28 sec) 
Heartbeat CPU 0 instructions: 327000002 cycles: 2376632017 heartbeat IPC: 0.132589 cumulative IPC: 0.137188 (Simulation time: 0 hr 31 min 34 sec) 
Heartbeat CPU 0 instructions: 328000000 cycles: 2384299666 heartbeat IPC: 0.130418 cumulative IPC: 0.137166 (Simulation time: 0 hr 31 min 40 sec) 
Heartbeat CPU 0 instructions: 329000003 cycles: 2391935867 heartbeat IPC: 0.130956 cumulative IPC: 0.137146 (Simulation time: 0 hr 31 min 47 sec) 
Heartbeat CPU 0 instructions: 330000000 cycles: 2399446397 heartbeat IPC: 0.133146 cumulative IPC: 0.137134 (Simulation time: 0 hr 31 min 52 sec) 
Heartbeat CPU 0 instructions: 331000001 cycles: 2406889089 heartbeat IPC: 0.13436 cumulative IPC: 0.137125 (Simulation time: 0 hr 31 min 58 sec) 
Heartbeat CPU 0 instructions: 332000000 cycles: 2414405574 heartbeat IPC: 0.133041 cumulative IPC: 0.137112 (Simulation time: 0 hr 32 min 4 sec) 
Heartbeat CPU 0 instructions: 333000001 cycles: 2422012950 heartbeat IPC: 0.131452 cumulative IPC: 0.137095 (Simulation time: 0 hr 32 min 10 sec) 
Heartbeat CPU 0 instructions: 334000001 cycles: 2429674585 heartbeat IPC: 0.13052 cumulative IPC: 0.137074 (Simulation time: 0 hr 32 min 16 sec) 
Heartbeat CPU 0 instructions: 335000002 cycles: 2437317372 heartbeat IPC: 0.130842 cumulative IPC: 0.137054 (Simulation time: 0 hr 32 min 22 sec) 
Heartbeat CPU 0 instructions: 336000001 cycles: 2444966931 heartbeat IPC: 0.130726 cumulative IPC: 0.137035 (Simulation time: 0 hr 32 min 28 sec) 
Heartbeat CPU 0 instructions: 337000000 cycles: 2452560906 heartbeat IPC: 0.131683 cumulative IPC: 0.137018 (Simulation time: 0 hr 32 min 34 sec) 
Heartbeat CPU 0 instructions: 338000000 cycles: 2460130622 heartbeat IPC: 0.132105 cumulative IPC: 0.137003 (Simulation time: 0 hr 32 min 40 sec) 
Heartbeat CPU 0 instructions: 339000000 cycles: 2467710819 heartbeat IPC: 0.131923 cumulative IPC: 0.136987 (Simulation time: 0 hr 32 min 46 sec) 
Heartbeat CPU 0 instructions: 340000001 cycles: 2475296113 heartbeat IPC: 0.131834 cumulative IPC: 0.136971 (Simulation time: 0 hr 32 min 52 sec) 
Heartbeat CPU 0 instructions: 341000000 cycles: 2482846322 heartbeat IPC: 0.132447 cumulative IPC: 0.136958 (Simulation time: 0 hr 32 min 58 sec) 
Heartbeat CPU 0 instructions: 342000002 cycles: 2490439053 heartbeat IPC: 0.131705 cumulative IPC: 0.136942 (Simulation time: 0 hr 33 min 4 sec) 
Heartbeat CPU 0 instructions: 343000003 cycles: 2498043935 heartbeat IPC: 0.131495 cumulative IPC: 0.136925 (Simulation time: 0 hr 33 min 10 sec) 
Heartbeat CPU 0 instructions: 344000002 cycles: 2505679647 heartbeat IPC: 0.130963 cumulative IPC: 0.136907 (Simulation time: 0 hr 33 min 16 sec) 
Heartbeat CPU 0 instructions: 345000000 cycles: 2513378299 heartbeat IPC: 0.129893 cumulative IPC: 0.136885 (Simulation time: 0 hr 33 min 22 sec) 
Heartbeat CPU 0 instructions: 346000003 cycles: 2520999793 heartbeat IPC: 0.131208 cumulative IPC: 0.136868 (Simulation time: 0 hr 33 min 28 sec) 
Heartbeat CPU 0 instructions: 347000002 cycles: 2528566736 heartbeat IPC: 0.132154 cumulative IPC: 0.136854 (Simulation time: 0 hr 33 min 35 sec) 
Heartbeat CPU 0 instructions: 348000000 cycles: 2536451872 heartbeat IPC: 0.126821 cumulative IPC: 0.136823 (Simulation time: 0 hr 33 min 41 sec) 
Heartbeat CPU 0 instructions: 349000000 cycles: 2543838604 heartbeat IPC: 0.135378 cumulative IPC: 0.136819 (Simulation time: 0 hr 33 min 47 sec) 
Heartbeat CPU 0 instructions: 350000001 cycles: 2551369175 heartbeat IPC: 0.132792 cumulative IPC: 0.136807 (Simulation time: 0 hr 33 min 54 sec) 
Heartbeat CPU 0 instructions: 351000001 cycles: 2558888391 heartbeat IPC: 0.132993 cumulative IPC: 0.136796 (Simulation time: 0 hr 34 min 0 sec) 
Heartbeat CPU 0 instructions: 352000000 cycles: 2566407893 heartbeat IPC: 0.132987 cumulative IPC: 0.136785 (Simulation time: 0 hr 34 min 7 sec) 
Heartbeat CPU 0 instructions: 353000003 cycles: 2573963403 heartbeat IPC: 0.132354 cumulative IPC: 0.136772 (Simulation time: 0 hr 34 min 13 sec) 
Heartbeat CPU 0 instructions: 354000002 cycles: 2581533072 heartbeat IPC: 0.132106 cumulative IPC: 0.136758 (Simulation time: 0 hr 34 min 19 sec) 
Heartbeat CPU 0 instructions: 355000001 cycles: 2589083783 heartbeat IPC: 0.132438 cumulative IPC: 0.136745 (Simulation time: 0 hr 34 min 25 sec) 
Heartbeat CPU 0 instructions: 356000000 cycles: 2596638895 heartbeat IPC: 0.132361 cumulative IPC: 0.136732 (Simulation time: 0 hr 34 min 31 sec) 
Heartbeat CPU 0 instructions: 357000002 cycles: 2604170545 heartbeat IPC: 0.132773 cumulative IPC: 0.136721 (Simulation time: 0 hr 34 min 37 sec) 
Heartbeat CPU 0 instructions: 358000002 cycles: 2611710700 heartbeat IPC: 0.132623 cumulative IPC: 0.136709 (Simulation time: 0 hr 34 min 43 sec) 
Heartbeat CPU 0 instructions: 359000000 cycles: 2619285874 heartbeat IPC: 0.13201 cumulative IPC: 0.136696 (Simulation time: 0 hr 34 min 49 sec) 
Heartbeat CPU 0 instructions: 360000000 cycles: 2626868001 heartbeat IPC: 0.131889 cumulative IPC: 0.136682 (Simulation time: 0 hr 34 min 55 sec) 
Heartbeat CPU 0 instructions: 361000002 cycles: 2634485015 heartbeat IPC: 0.131285 cumulative IPC: 0.136666 (Simulation time: 0 hr 35 min 1 sec) 
Heartbeat CPU 0 instructions: 362000000 cycles: 2642041593 heartbeat IPC: 0.132335 cumulative IPC: 0.136654 (Simulation time: 0 hr 35 min 8 sec) 
Heartbeat CPU 0 instructions: 363000000 cycles: 2649658450 heartbeat IPC: 0.131288 cumulative IPC: 0.136638 (Simulation time: 0 hr 35 min 15 sec) 
Heartbeat CPU 0 instructions: 364000000 cycles: 2657330810 heartbeat IPC: 0.130338 cumulative IPC: 0.13662 (Simulation time: 0 hr 35 min 21 sec) 
Heartbeat CPU 0 instructions: 365000002 cycles: 2664922719 heartbeat IPC: 0.131719 cumulative IPC: 0.136606 (Simulation time: 0 hr 35 min 27 sec) 
Heartbeat CPU 0 instructions: 366000001 cycles: 2672532711 heartbeat IPC: 0.131406 cumulative IPC: 0.136591 (Simulation time: 0 hr 35 min 33 sec) 
Heartbeat CPU 0 instructions: 367000000 cycles: 2680107063 heartbeat IPC: 0.132024 cumulative IPC: 0.136578 (Simulation time: 0 hr 35 min 40 sec) 
Heartbeat CPU 0 instructions: 368000000 cycles: 2687733103 heartbeat IPC: 0.13113 cumulative IPC: 0.136563 (Simulation time: 0 hr 35 min 46 sec) 
Heartbeat CPU 0 instructions: 369000000 cycles: 2695364818 heartbeat IPC: 0.131032 cumulative IPC: 0.136547 (Simulation time: 0 hr 35 min 52 sec) 
Heartbeat CPU 0 instructions: 370000000 cycles: 2703040582 heartbeat IPC: 0.13028 cumulative IPC: 0.13653 (Simulation time: 0 hr 35 min 59 sec) 
Heartbeat CPU 0 instructions: 371000002 cycles: 2710691607 heartbeat IPC: 0.130702 cumulative IPC: 0.136513 (Simulation time: 0 hr 36 min 5 sec) 
Heartbeat CPU 0 instructions: 372000000 cycles: 2718482590 heartbeat IPC: 0.128353 cumulative IPC: 0.13649 (Simulation time: 0 hr 36 min 11 sec) 
Heartbeat CPU 0 instructions: 373000000 cycles: 2726284698 heartbeat IPC: 0.12817 cumulative IPC: 0.136466 (Simulation time: 0 hr 36 min 17 sec) 
Heartbeat CPU 0 instructions: 374000000 cycles: 2734006221 heartbeat IPC: 0.129508 cumulative IPC: 0.136446 (Simulation time: 0 hr 36 min 23 sec) 
Heartbeat CPU 0 instructions: 375000002 cycles: 2741579489 heartbeat IPC: 0.132044 cumulative IPC: 0.136434 (Simulation time: 0 hr 36 min 29 sec) 
Heartbeat CPU 0 instructions: 376000001 cycles: 2749185431 heartbeat IPC: 0.131476 cumulative IPC: 0.13642 (Simulation time: 0 hr 36 min 35 sec) 
Heartbeat CPU 0 instructions: 377000000 cycles: 2756770148 heartbeat IPC: 0.131844 cumulative IPC: 0.136408 (Simulation time: 0 hr 36 min 41 sec) 
Heartbeat CPU 0 instructions: 378000001 cycles: 2764260809 heartbeat IPC: 0.1335 cumulative IPC: 0.1364 (Simulation time: 0 hr 36 min 47 sec) 
Heartbeat CPU 0 instructions: 379000000 cycles: 2771756553 heartbeat IPC: 0.133409 cumulative IPC: 0.136392 (Simulation time: 0 hr 36 min 53 sec) 
Heartbeat CPU 0 instructions: 380000001 cycles: 2779190039 heartbeat IPC: 0.134527 cumulative IPC: 0.136387 (Simulation time: 0 hr 36 min 59 sec) 
Heartbeat CPU 0 instructions: 381000001 cycles: 2786606749 heartbeat IPC: 0.134831 cumulative IPC: 0.136383 (Simulation time: 0 hr 37 min 5 sec) 
Heartbeat CPU 0 instructions: 382000002 cycles: 2794020474 heartbeat IPC: 0.134885 cumulative IPC: 0.136379 (Simulation time: 0 hr 37 min 11 sec) 
Heartbeat CPU 0 instructions: 383000001 cycles: 2801488135 heartbeat IPC: 0.133911 cumulative IPC: 0.136372 (Simulation time: 0 hr 37 min 17 sec) 
Heartbeat CPU 0 instructions: 384000000 cycles: 2808899775 heartbeat IPC: 0.134923 cumulative IPC: 0.136368 (Simulation time: 0 hr 37 min 23 sec) 
Heartbeat CPU 0 instructions: 385000000 cycles: 2816357473 heartbeat IPC: 0.13409 cumulative IPC: 0.136362 (Simulation time: 0 hr 37 min 29 sec) 
Heartbeat CPU 0 instructions: 386000002 cycles: 2823921188 heartbeat IPC: 0.13221 cumulative IPC: 0.136351 (Simulation time: 0 hr 37 min 35 sec) 
Heartbeat CPU 0 instructions: 387000001 cycles: 2831486512 heartbeat IPC: 0.132182 cumulative IPC: 0.13634 (Simulation time: 0 hr 37 min 41 sec) 
Heartbeat CPU 0 instructions: 388000000 cycles: 2839093694 heartbeat IPC: 0.131455 cumulative IPC: 0.136327 (Simulation time: 0 hr 37 min 48 sec) 
Heartbeat CPU 0 instructions: 389000003 cycles: 2846653887 heartbeat IPC: 0.132272 cumulative IPC: 0.136316 (Simulation time: 0 hr 37 min 54 sec) 
Heartbeat CPU 0 instructions: 390000001 cycles: 2854192693 heartbeat IPC: 0.132647 cumulative IPC: 0.136306 (Simulation time: 0 hr 37 min 59 sec) 
Heartbeat CPU 0 instructions: 391000002 cycles: 2861767493 heartbeat IPC: 0.132017 cumulative IPC: 0.136295 (Simulation time: 0 hr 38 min 5 sec) 
Heartbeat CPU 0 instructions: 392000000 cycles: 2869251056 heartbeat IPC: 0.133626 cumulative IPC: 0.136288 (Simulation time: 0 hr 38 min 11 sec) 
Heartbeat CPU 0 instructions: 393000001 cycles: 2876768210 heartbeat IPC: 0.133029 cumulative IPC: 0.13628 (Simulation time: 0 hr 38 min 17 sec) 
Heartbeat CPU 0 instructions: 394000000 cycles: 2884266609 heartbeat IPC: 0.133362 cumulative IPC: 0.136272 (Simulation time: 0 hr 38 min 23 sec) 
Heartbeat CPU 0 instructions: 395000002 cycles: 2891785958 heartbeat IPC: 0.132991 cumulative IPC: 0.136263 (Simulation time: 0 hr 38 min 29 sec) 
Heartbeat CPU 0 instructions: 396000000 cycles: 2899344890 heartbeat IPC: 0.132294 cumulative IPC: 0.136253 (Simulation time: 0 hr 38 min 35 sec) 
Heartbeat CPU 0 instructions: 397000000 cycles: 2906776003 heartbeat IPC: 0.134569 cumulative IPC: 0.136249 (Simulation time: 0 hr 38 min 41 sec) 
Heartbeat CPU 0 instructions: 398000000 cycles: 2914228591 heartbeat IPC: 0.134182 cumulative IPC: 0.136243 (Simulation time: 0 hr 38 min 46 sec) 
Heartbeat CPU 0 instructions: 399000001 cycles: 2921784830 heartbeat IPC: 0.132341 cumulative IPC: 0.136233 (Simulation time: 0 hr 38 min 52 sec) 
Heartbeat CPU 0 instructions: 400000001 cycles: 2929309971 heartbeat IPC: 0.132888 cumulative IPC: 0.136225 (Simulation time: 0 hr 38 min 58 sec) 
Heartbeat CPU 0 instructions: 401000000 cycles: 2936840894 heartbeat IPC: 0.132786 cumulative IPC: 0.136216 (Simulation time: 0 hr 39 min 4 sec) 
Heartbeat CPU 0 instructions: 402000003 cycles: 2944332865 heartbeat IPC: 0.133477 cumulative IPC: 0.136209 (Simulation time: 0 hr 39 min 10 sec) 
Heartbeat CPU 0 instructions: 403000003 cycles: 2951852196 heartbeat IPC: 0.132991 cumulative IPC: 0.136201 (Simulation time: 0 hr 39 min 16 sec) 
Heartbeat CPU 0 instructions: 404000000 cycles: 2959349261 heartbeat IPC: 0.133385 cumulative IPC: 0.136194 (Simulation time: 0 hr 39 min 22 sec) 
Heartbeat CPU 0 instructions: 405000003 cycles: 2966783373 heartbeat IPC: 0.134515 cumulative IPC: 0.136189 (Simulation time: 0 hr 39 min 28 sec) 
Heartbeat CPU 0 instructions: 406000002 cycles: 2974314408 heartbeat IPC: 0.132784 cumulative IPC: 0.136181 (Simulation time: 0 hr 39 min 34 sec) 
Heartbeat CPU 0 instructions: 407000000 cycles: 2981890096 heartbeat IPC: 0.132001 cumulative IPC: 0.13617 (Simulation time: 0 hr 39 min 39 sec) 
Heartbeat CPU 0 instructions: 408000000 cycles: 2989452036 heartbeat IPC: 0.132241 cumulative IPC: 0.13616 (Simulation time: 0 hr 39 min 45 sec) 
Heartbeat CPU 0 instructions: 409000000 cycles: 2996936189 heartbeat IPC: 0.133616 cumulative IPC: 0.136154 (Simulation time: 0 hr 39 min 51 sec) 
Heartbeat CPU 0 instructions: 410000001 cycles: 3004427300 heartbeat IPC: 0.133492 cumulative IPC: 0.136147 (Simulation time: 0 hr 39 min 57 sec) 
Heartbeat CPU 0 instructions: 411000000 cycles: 3011970976 heartbeat IPC: 0.132561 cumulative IPC: 0.136138 (Simulation time: 0 hr 40 min 3 sec) 
Heartbeat CPU 0 instructions: 412000003 cycles: 3019519738 heartbeat IPC: 0.132472 cumulative IPC: 0.136129 (Simulation time: 0 hr 40 min 9 sec) 
Heartbeat CPU 0 instructions: 413000001 cycles: 3027048004 heartbeat IPC: 0.132832 cumulative IPC: 0.136121 (Simulation time: 0 hr 40 min 15 sec) 
Heartbeat CPU 0 instructions: 414000003 cycles: 3034557386 heartbeat IPC: 0.133167 cumulative IPC: 0.136114 (Simulation time: 0 hr 40 min 21 sec) 
Heartbeat CPU 0 instructions: 415000000 cycles: 3042030137 heartbeat IPC: 0.133819 cumulative IPC: 0.136108 (Simulation time: 0 hr 40 min 26 sec) 
Heartbeat CPU 0 instructions: 416000003 cycles: 3049529255 heartbeat IPC: 0.133349 cumulative IPC: 0.136101 (Simulation time: 0 hr 40 min 32 sec) 
Heartbeat CPU 0 instructions: 417000002 cycles: 3057491410 heartbeat IPC: 0.125594 cumulative IPC: 0.136074 (Simulation time: 0 hr 40 min 38 sec) 
Heartbeat CPU 0 instructions: 418000000 cycles: 3064985714 heartbeat IPC: 0.133434 cumulative IPC: 0.136067 (Simulation time: 0 hr 40 min 44 sec) 
Heartbeat CPU 0 instructions: 419000000 cycles: 3072539034 heartbeat IPC: 0.132392 cumulative IPC: 0.136058 (Simulation time: 0 hr 40 min 50 sec) 
Heartbeat CPU 0 instructions: 420000003 cycles: 3080119258 heartbeat IPC: 0.131923 cumulative IPC: 0.136048 (Simulation time: 0 hr 40 min 56 sec) 
Heartbeat CPU 0 instructions: 421000002 cycles: 3087746143 heartbeat IPC: 0.131115 cumulative IPC: 0.136036 (Simulation time: 0 hr 41 min 2 sec) 
Heartbeat CPU 0 instructions: 422000001 cycles: 3095318616 heartbeat IPC: 0.132057 cumulative IPC: 0.136026 (Simulation time: 0 hr 41 min 8 sec) 
Heartbeat CPU 0 instructions: 423000000 cycles: 3102845852 heartbeat IPC: 0.132851 cumulative IPC: 0.136019 (Simulation time: 0 hr 41 min 14 sec) 
Heartbeat CPU 0 instructions: 424000003 cycles: 3110435409 heartbeat IPC: 0.13176 cumulative IPC: 0.136008 (Simulation time: 0 hr 41 min 20 sec) 
Heartbeat CPU 0 instructions: 425000000 cycles: 3118000723 heartbeat IPC: 0.132182 cumulative IPC: 0.135999 (Simulation time: 0 hr 41 min 26 sec) 
Heartbeat CPU 0 instructions: 426000002 cycles: 3125564078 heartbeat IPC: 0.132217 cumulative IPC: 0.13599 (Simulation time: 0 hr 41 min 31 sec) 
Heartbeat CPU 0 instructions: 427000002 cycles: 3133142868 heartbeat IPC: 0.131947 cumulative IPC: 0.13598 (Simulation time: 0 hr 41 min 37 sec) 
Heartbeat CPU 0 instructions: 428000001 cycles: 3140715163 heartbeat IPC: 0.13206 cumulative IPC: 0.135971 (Simulation time: 0 hr 41 min 43 sec) 
Heartbeat CPU 0 instructions: 429000000 cycles: 3148328485 heartbeat IPC: 0.131349 cumulative IPC: 0.135959 (Simulation time: 0 hr 41 min 49 sec) 
Heartbeat CPU 0 instructions: 430000001 cycles: 3155871802 heartbeat IPC: 0.132568 cumulative IPC: 0.135951 (Simulation time: 0 hr 41 min 55 sec) 
Heartbeat CPU 0 instructions: 431000000 cycles: 3163381821 heartbeat IPC: 0.133155 cumulative IPC: 0.135945 (Simulation time: 0 hr 42 min 1 sec) 
Heartbeat CPU 0 instructions: 432000003 cycles: 3170994817 heartbeat IPC: 0.131355 cumulative IPC: 0.135934 (Simulation time: 0 hr 42 min 7 sec) 
Heartbeat CPU 0 instructions: 433000000 cycles: 3178622461 heartbeat IPC: 0.131102 cumulative IPC: 0.135922 (Simulation time: 0 hr 42 min 13 sec) 
Heartbeat CPU 0 instructions: 434000003 cycles: 3186243772 heartbeat IPC: 0.131211 cumulative IPC: 0.135911 (Simulation time: 0 hr 42 min 19 sec) 
Heartbeat CPU 0 instructions: 435000002 cycles: 3193885201 heartbeat IPC: 0.130865 cumulative IPC: 0.135899 (Simulation time: 0 hr 42 min 25 sec) 
Heartbeat CPU 0 instructions: 436000003 cycles: 3201534770 heartbeat IPC: 0.130726 cumulative IPC: 0.135886 (Simulation time: 0 hr 42 min 31 sec) 
Heartbeat CPU 0 instructions: 437000001 cycles: 3209486351 heartbeat IPC: 0.125761 cumulative IPC: 0.135861 (Simulation time: 0 hr 42 min 37 sec) 
Heartbeat CPU 0 instructions: 438000001 cycles: 3217285943 heartbeat IPC: 0.128212 cumulative IPC: 0.135843 (Simulation time: 0 hr 42 min 43 sec) 
Heartbeat CPU 0 instructions: 439000001 cycles: 3225293311 heartbeat IPC: 0.124885 cumulative IPC: 0.135815 (Simulation time: 0 hr 42 min 49 sec) 
Heartbeat CPU 0 instructions: 440000000 cycles: 3233413670 heartbeat IPC: 0.123147 cumulative IPC: 0.135784 (Simulation time: 0 hr 42 min 55 sec) 
Heartbeat CPU 0 instructions: 441000000 cycles: 3241517341 heartbeat IPC: 0.123401 cumulative IPC: 0.135753 (Simulation time: 0 hr 43 min 1 sec) 
Heartbeat CPU 0 instructions: 442000003 cycles: 3249680128 heartbeat IPC: 0.122508 cumulative IPC: 0.135719 (Simulation time: 0 hr 43 min 7 sec) 
Heartbeat CPU 0 instructions: 443000003 cycles: 3257938516 heartbeat IPC: 0.121089 cumulative IPC: 0.135682 (Simulation time: 0 hr 43 min 14 sec) 
Heartbeat CPU 0 instructions: 444000001 cycles: 3266242919 heartbeat IPC: 0.120418 cumulative IPC: 0.135643 (Simulation time: 0 hr 43 min 20 sec) 
Heartbeat CPU 0 instructions: 445000002 cycles: 3274604595 heartbeat IPC: 0.119593 cumulative IPC: 0.135602 (Simulation time: 0 hr 43 min 26 sec) 
Heartbeat CPU 0 instructions: 446000002 cycles: 3282989725 heartbeat IPC: 0.119259 cumulative IPC: 0.135561 (Simulation time: 0 hr 43 min 33 sec) 
Heartbeat CPU 0 instructions: 447000001 cycles: 3291377240 heartbeat IPC: 0.119225 cumulative IPC: 0.135519 (Simulation time: 0 hr 43 min 39 sec) 
Heartbeat CPU 0 instructions: 448000003 cycles: 3299787433 heartbeat IPC: 0.118904 cumulative IPC: 0.135477 (Simulation time: 0 hr 43 min 46 sec) 
Heartbeat CPU 0 instructions: 449000000 cycles: 3308152052 heartbeat IPC: 0.119551 cumulative IPC: 0.135436 (Simulation time: 0 hr 43 min 52 sec) 
Heartbeat CPU 0 instructions: 450000001 cycles: 3316498672 heartbeat IPC: 0.119809 cumulative IPC: 0.135397 (Simulation time: 0 hr 43 min 58 sec) 

Warmup complete CPU 0 instructions: 450000001 cycles: 3316498672 (Simulation time: 0 hr 43 min 58 sec) 

Heartbeat CPU 0 instructions: 451000000 cycles: 3324327312 heartbeat IPC: 0.127736 cumulative IPC: 0.127736 (Simulation time: 0 hr 44 min 5 sec) 
Heartbeat CPU 0 instructions: 452000000 cycles: 3332185463 heartbeat IPC: 0.127256 cumulative IPC: 0.127496 (Simulation time: 0 hr 44 min 11 sec) 
Heartbeat CPU 0 instructions: 453000002 cycles: 3340055310 heartbeat IPC: 0.127068 cumulative IPC: 0.127353 (Simulation time: 0 hr 44 min 17 sec) 
Heartbeat CPU 0 instructions: 454000001 cycles: 3347895487 heartbeat IPC: 0.127548 cumulative IPC: 0.127401 (Simulation time: 0 hr 44 min 23 sec) 
Heartbeat CPU 0 instructions: 455000001 cycles: 3355735332 heartbeat IPC: 0.127554 cumulative IPC: 0.127432 (Simulation time: 0 hr 44 min 29 sec) 
Heartbeat CPU 0 instructions: 456000000 cycles: 3363703921 heartbeat IPC: 0.125493 cumulative IPC: 0.127104 (Simulation time: 0 hr 44 min 36 sec) 
Heartbeat CPU 0 instructions: 457000000 cycles: 3373143559 heartbeat IPC: 0.105936 cumulative IPC: 0.123577 (Simulation time: 0 hr 44 min 42 sec) 
Heartbeat CPU 0 instructions: 458000002 cycles: 3381934321 heartbeat IPC: 0.113756 cumulative IPC: 0.122258 (Simulation time: 0 hr 44 min 48 sec) 
Heartbeat CPU 0 instructions: 459000002 cycles: 3388593601 heartbeat IPC: 0.150166 cumulative IPC: 0.124835 (Simulation time: 0 hr 44 min 54 sec) 
Heartbeat CPU 0 instructions: 460000000 cycles: 3392046677 heartbeat IPC: 0.289596 cumulative IPC: 0.132366 (Simulation time: 0 hr 45 min 1 sec) 
Heartbeat CPU 0 instructions: 461000000 cycles: 3395493037 heartbeat IPC: 0.290161 cumulative IPC: 0.13925 (Simulation time: 0 hr 45 min 8 sec) 
Heartbeat CPU 0 instructions: 462000000 cycles: 3398942896 heartbeat IPC: 0.289867 cumulative IPC: 0.145553 (Simulation time: 0 hr 45 min 14 sec) 
Heartbeat CPU 0 instructions: 463000001 cycles: 3402398233 heartbeat IPC: 0.289408 cumulative IPC: 0.15134 (Simulation time: 0 hr 45 min 21 sec) 
Heartbeat CPU 0 instructions: 464000000 cycles: 3405851619 heartbeat IPC: 0.289571 cumulative IPC: 0.156682 (Simulation time: 0 hr 45 min 28 sec) 
Heartbeat CPU 0 instructions: 465000001 cycles: 3409301109 heartbeat IPC: 0.289898 cumulative IPC: 0.161634 (Simulation time: 0 hr 45 min 34 sec) 
Heartbeat CPU 0 instructions: 466000001 cycles: 3412751861 heartbeat IPC: 0.289792 cumulative IPC: 0.166228 (Simulation time: 0 hr 45 min 41 sec) 
Heartbeat CPU 0 instructions: 467000002 cycles: 3416181453 heartbeat IPC: 0.29158 cumulative IPC: 0.170541 (Simulation time: 0 hr 45 min 47 sec) 
Heartbeat CPU 0 instructions: 468000000 cycles: 3419632378 heartbeat IPC: 0.289777 cumulative IPC: 0.174531 (Simulation time: 0 hr 45 min 54 sec) 
Heartbeat CPU 0 instructions: 469000000 cycles: 3423087871 heartbeat IPC: 0.289394 cumulative IPC: 0.178254 (Simulation time: 0 hr 46 min 1 sec) 
Heartbeat CPU 0 instructions: 470000000 cycles: 3426535612 heartbeat IPC: 0.290045 cumulative IPC: 0.181757 (Simulation time: 0 hr 46 min 7 sec) 
Heartbeat CPU 0 instructions: 471000000 cycles: 3429995880 heartbeat IPC: 0.288995 cumulative IPC: 0.185027 (Simulation time: 0 hr 46 min 14 sec) 
Heartbeat CPU 0 instructions: 472000000 cycles: 3433455243 heartbeat IPC: 0.289071 cumulative IPC: 0.188104 (Simulation time: 0 hr 46 min 21 sec) 
Heartbeat CPU 0 instructions: 473000000 cycles: 3436897206 heartbeat IPC: 0.290532 cumulative IPC: 0.191032 (Simulation time: 0 hr 46 min 27 sec) 
Heartbeat CPU 0 instructions: 474000002 cycles: 3440341457 heartbeat IPC: 0.290339 cumulative IPC: 0.193794 (Simulation time: 0 hr 46 min 34 sec) 
Heartbeat CPU 0 instructions: 475000000 cycles: 3443792695 heartbeat IPC: 0.289751 cumulative IPC: 0.196396 (Simulation time: 0 hr 46 min 41 sec) 
Heartbeat CPU 0 instructions: 476000002 cycles: 3447248631 heartbeat IPC: 0.289358 cumulative IPC: 0.198853 (Simulation time: 0 hr 46 min 47 sec) 
Heartbeat CPU 0 instructions: 477000001 cycles: 3450682217 heartbeat IPC: 0.29124 cumulative IPC: 0.201217 (Simulation time: 0 hr 46 min 54 sec) 
Heartbeat CPU 0 instructions: 478000001 cycles: 3454117520 heartbeat IPC: 0.291095 cumulative IPC: 0.20346 (Simulation time: 0 hr 47 min 0 sec) 
Heartbeat CPU 0 instructions: 479000000 cycles: 3457556400 heartbeat IPC: 0.290792 cumulative IPC: 0.20559 (Simulation time: 0 hr 47 min 7 sec) 
Heartbeat CPU 0 instructions: 480000002 cycles: 3461011821 heartbeat IPC: 0.289401 cumulative IPC: 0.207594 (Simulation time: 0 hr 47 min 14 sec) 
Heartbeat CPU 0 instructions: 481000002 cycles: 3464481125 heartbeat IPC: 0.288242 cumulative IPC: 0.209484 (Simulation time: 0 hr 47 min 20 sec) 
Heartbeat CPU 0 instructions: 482000001 cycles: 3467913362 heartbeat IPC: 0.291355 cumulative IPC: 0.21134 (Simulation time: 0 hr 47 min 27 sec) 
Heartbeat CPU 0 instructions: 483000001 cycles: 3471360789 heartbeat IPC: 0.290071 cumulative IPC: 0.213093 (Simulation time: 0 hr 47 min 34 sec) 
Heartbeat CPU 0 instructions: 484000000 cycles: 3474812773 heartbeat IPC: 0.289688 cumulative IPC: 0.214763 (Simulation time: 0 hr 47 min 40 sec) 
Heartbeat CPU 0 instructions: 485000002 cycles: 3478249549 heartbeat IPC: 0.290971 cumulative IPC: 0.216382 (Simulation time: 0 hr 47 min 47 sec) 
Heartbeat CPU 0 instructions: 486000002 cycles: 3481712174 heartbeat IPC: 0.288798 cumulative IPC: 0.2179 (Simulation time: 0 hr 47 min 53 sec) 
Heartbeat CPU 0 instructions: 487000000 cycles: 3485154377 heartbeat IPC: 0.290511 cumulative IPC: 0.219382 (Simulation time: 0 hr 48 min 0 sec) 
Heartbeat CPU 0 instructions: 488000000 cycles: 3488600479 heartbeat IPC: 0.290183 cumulative IPC: 0.2208 (Simulation time: 0 hr 48 min 7 sec) 
Heartbeat CPU 0 instructions: 489000001 cycles: 3492058736 heartbeat IPC: 0.289163 cumulative IPC: 0.222146 (Simulation time: 0 hr 48 min 13 sec) 
Heartbeat CPU 0 instructions: 490000000 cycles: 3495502333 heartbeat IPC: 0.290394 cumulative IPC: 0.223459 (Simulation time: 0 hr 48 min 20 sec) 
Heartbeat CPU 0 instructions: 491000001 cycles: 3498942663 heartbeat IPC: 0.29067 cumulative IPC: 0.224726 (Simulation time: 0 hr 48 min 27 sec) 
Heartbeat CPU 0 instructions: 492000001 cycles: 3502391946 heartbeat IPC: 0.289915 cumulative IPC: 0.225936 (Simulation time: 0 hr 48 min 33 sec) 
Heartbeat CPU 0 instructions: 493000002 cycles: 3505840219 heartbeat IPC: 0.290001 cumulative IPC: 0.227103 (Simulation time: 0 hr 48 min 40 sec) 
Heartbeat CPU 0 instructions: 494000000 cycles: 3509301209 heartbeat IPC: 0.288934 cumulative IPC: 0.228213 (Simulation time: 0 hr 48 min 47 sec) 
Heartbeat CPU 0 instructions: 495000000 cycles: 3512746498 heartbeat IPC: 0.290251 cumulative IPC: 0.229302 (Simulation time: 0 hr 48 min 53 sec) 
Heartbeat CPU 0 instructions: 496000000 cycles: 3516201994 heartbeat IPC: 0.289394 cumulative IPC: 0.230342 (Simulation time: 0 hr 49 min 0 sec) 
Heartbeat CPU 0 instructions: 497000002 cycles: 3519643953 heartbeat IPC: 0.290533 cumulative IPC: 0.231362 (Simulation time: 0 hr 49 min 6 sec) 
Heartbeat CPU 0 instructions: 498000000 cycles: 3523090731 heartbeat IPC: 0.290125 cumulative IPC: 0.232342 (Simulation time: 0 hr 49 min 13 sec) 
Heartbeat CPU 0 instructions: 499000000 cycles: 3526535128 heartbeat IPC: 0.290327 cumulative IPC: 0.233293 (Simulation time: 0 hr 49 min 20 sec) 
Heartbeat CPU 0 instructions: 500000001 cycles: 3529997331 heartbeat IPC: 0.288834 cumulative IPC: 0.234194 (Simulation time: 0 hr 49 min 26 sec) 
Heartbeat CPU 0 instructions: 501000000 cycles: 3533432237 heartbeat IPC: 0.291128 cumulative IPC: 0.235095 (Simulation time: 0 hr 49 min 33 sec) 
Heartbeat CPU 0 instructions: 502000002 cycles: 3536884583 heartbeat IPC: 0.289659 cumulative IPC: 0.23595 (Simulation time: 0 hr 49 min 39 sec) 
Heartbeat CPU 0 instructions: 503000001 cycles: 3540329324 heartbeat IPC: 0.290297 cumulative IPC: 0.236786 (Simulation time: 0 hr 49 min 46 sec) 
Heartbeat CPU 0 instructions: 504000002 cycles: 3543772003 heartbeat IPC: 0.290472 cumulative IPC: 0.237599 (Simulation time: 0 hr 49 min 53 sec) 
Heartbeat CPU 0 instructions: 505000002 cycles: 3547202029 heartbeat IPC: 0.291543 cumulative IPC: 0.238401 (Simulation time: 0 hr 49 min 59 sec) 
Heartbeat CPU 0 instructions: 506000000 cycles: 3550634227 heartbeat IPC: 0.291358 cumulative IPC: 0.239178 (Simulation time: 0 hr 50 min 6 sec) 
Heartbeat CPU 0 instructions: 507000002 cycles: 3554077632 heartbeat IPC: 0.290411 cumulative IPC: 0.23992 (Simulation time: 0 hr 50 min 13 sec) 
Heartbeat CPU 0 instructions: 508000001 cycles: 3557516243 heartbeat IPC: 0.290815 cumulative IPC: 0.240646 (Simulation time: 0 hr 50 min 19 sec) 
Heartbeat CPU 0 instructions: 509000002 cycles: 3560947043 heartbeat IPC: 0.291478 cumulative IPC: 0.24136 (Simulation time: 0 hr 50 min 26 sec) 
Heartbeat CPU 0 instructions: 510000002 cycles: 3564386935 heartbeat IPC: 0.290707 cumulative IPC: 0.242045 (Simulation time: 0 hr 50 min 33 sec) 
Heartbeat CPU 0 instructions: 511000000 cycles: 3567802403 heartbeat IPC: 0.292785 cumulative IPC: 0.242734 (Simulation time: 0 hr 50 min 39 sec) 
Heartbeat CPU 0 instructions: 512000000 cycles: 3571244026 heartbeat IPC: 0.290561 cumulative IPC: 0.24338 (Simulation time: 0 hr 50 min 46 sec) 
Heartbeat CPU 0 instructions: 513000000 cycles: 3574688691 heartbeat IPC: 0.290304 cumulative IPC: 0.244006 (Simulation time: 0 hr 50 min 52 sec) 
Heartbeat CPU 0 instructions: 514000002 cycles: 3578138731 heartbeat IPC: 0.289852 cumulative IPC: 0.244611 (Simulation time: 0 hr 50 min 59 sec) 
Heartbeat CPU 0 instructions: 515000000 cycles: 3581580050 heartbeat IPC: 0.290586 cumulative IPC: 0.245208 (Simulation time: 0 hr 51 min 6 sec) 
Heartbeat CPU 0 instructions: 516000002 cycles: 3585013505 heartbeat IPC: 0.291252 cumulative IPC: 0.245796 (Simulation time: 0 hr 51 min 12 sec) 
Heartbeat CPU 0 instructions: 517000000 cycles: 3588450429 heartbeat IPC: 0.290957 cumulative IPC: 0.246367 (Simulation time: 0 hr 51 min 19 sec) 
Heartbeat CPU 0 instructions: 518000002 cycles: 3591894020 heartbeat IPC: 0.290395 cumulative IPC: 0.246918 (Simulation time: 0 hr 51 min 26 sec) 
Heartbeat CPU 0 instructions: 519000001 cycles: 3595341997 heartbeat IPC: 0.290025 cumulative IPC: 0.247451 (Simulation time: 0 hr 51 min 32 sec) 
Heartbeat CPU 0 instructions: 520000000 cycles: 3598782596 heartbeat IPC: 0.290647 cumulative IPC: 0.247977 (Simulation time: 0 hr 51 min 39 sec) 
Heartbeat CPU 0 instructions: 521000000 cycles: 3602217261 heartbeat IPC: 0.291149 cumulative IPC: 0.248496 (Simulation time: 0 hr 51 min 45 sec) 
Heartbeat CPU 0 instructions: 522000002 cycles: 3605647148 heartbeat IPC: 0.291555 cumulative IPC: 0.249007 (Simulation time: 0 hr 51 min 52 sec) 
Heartbeat CPU 0 instructions: 523000000 cycles: 3609097402 heartbeat IPC: 0.289833 cumulative IPC: 0.249488 (Simulation time: 0 hr 51 min 59 sec) 
Heartbeat CPU 0 instructions: 524000000 cycles: 3612534783 heartbeat IPC: 0.290919 cumulative IPC: 0.249969 (Simulation time: 0 hr 52 min 5 sec) 
Heartbeat CPU 0 instructions: 525000000 cycles: 3615975586 heartbeat IPC: 0.29063 cumulative IPC: 0.250437 (Simulation time: 0 hr 52 min 12 sec) 
Heartbeat CPU 0 instructions: 526000001 cycles: 3619414378 heartbeat IPC: 0.2908 cumulative IPC: 0.250895 (Simulation time: 0 hr 52 min 18 sec) 
Heartbeat CPU 0 instructions: 527000001 cycles: 3622856362 heartbeat IPC: 0.29053 cumulative IPC: 0.25134 (Simulation time: 0 hr 52 min 25 sec) 
Heartbeat CPU 0 instructions: 528000000 cycles: 3626295976 heartbeat IPC: 0.29073 cumulative IPC: 0.251778 (Simulation time: 0 hr 52 min 32 sec) 
Heartbeat CPU 0 instructions: 529000000 cycles: 3629641014 heartbeat IPC: 0.29895 cumulative IPC: 0.252281 (Simulation time: 0 hr 52 min 38 sec) 
Heartbeat CPU 0 instructions: 530000000 cycles: 3632885277 heartbeat IPC: 0.308236 cumulative IPC: 0.252855 (Simulation time: 0 hr 52 min 45 sec) 
Heartbeat CPU 0 instructions: 531000002 cycles: 3637223574 heartbeat IPC: 0.230506 cumulative IPC: 0.252553 (Simulation time: 0 hr 52 min 53 sec) 
Heartbeat CPU 0 instructions: 532000003 cycles: 3641696314 heartbeat IPC: 0.223577 cumulative IPC: 0.252154 (Simulation time: 0 hr 53 min 1 sec) 
Heartbeat CPU 0 instructions: 533000002 cycles: 3645923983 heartbeat IPC: 0.236537 cumulative IPC: 0.251954 (Simulation time: 0 hr 53 min 10 sec) 
Heartbeat CPU 0 instructions: 534000000 cycles: 3649724640 heartbeat IPC: 0.263112 cumulative IPC: 0.252081 (Simulation time: 0 hr 53 min 18 sec) 
Heartbeat CPU 0 instructions: 535000001 cycles: 3653633096 heartbeat IPC: 0.255856 cumulative IPC: 0.252125 (Simulation time: 0 hr 53 min 25 sec) 
Heartbeat CPU 0 instructions: 536000001 cycles: 3658784082 heartbeat IPC: 0.194138 cumulative IPC: 0.251252 (Simulation time: 0 hr 53 min 35 sec) 
Heartbeat CPU 0 instructions: 537000000 cycles: 3661883280 heartbeat IPC: 0.322664 cumulative IPC: 0.251893 (Simulation time: 0 hr 53 min 41 sec) 
Heartbeat CPU 0 instructions: 538000002 cycles: 3662990531 heartbeat IPC: 0.903139 cumulative IPC: 0.253974 (Simulation time: 0 hr 53 min 44 sec) 
Heartbeat CPU 0 instructions: 539000000 cycles: 3664169404 heartbeat IPC: 0.848266 cumulative IPC: 0.255989 (Simulation time: 0 hr 53 min 47 sec) 
Heartbeat CPU 0 instructions: 540000000 cycles: 3665345972 heartbeat IPC: 0.84993 cumulative IPC: 0.257993 (Simulation time: 0 hr 53 min 50 sec) 
Heartbeat CPU 0 instructions: 541000002 cycles: 3666621051 heartbeat IPC: 0.784267 cumulative IPC: 0.259909 (Simulation time: 0 hr 53 min 53 sec) 
Heartbeat CPU 0 instructions: 542000002 cycles: 3667763622 heartbeat IPC: 0.875219 cumulative IPC: 0.261911 (Simulation time: 0 hr 53 min 56 sec) 
Heartbeat CPU 0 instructions: 543000002 cycles: 3668999273 heartbeat IPC: 0.80929 cumulative IPC: 0.263829 (Simulation time: 0 hr 53 min 59 sec) 
[...]
Heartbeat CPU 0 instructions: 836000000 cycles: 4166797760 heartbeat IPC: 0.420093 cumulative IPC: 0.453958 (Simulation time: 1 hr 13 min 3 sec) 
Heartbeat CPU 0 instructions: 837000000 cycles: 4169016612 heartbeat IPC: 0.450684 cumulative IPC: 0.453949 (Simulation time: 1 hr 13 min 7 sec) 
Heartbeat CPU 0 instructions: 838000000 cycles: 4171347609 heartbeat IPC: 0.429001 cumulative IPC: 0.453881 (Simulation time: 1 hr 13 min 12 sec) 
Heartbeat CPU 0 instructions: 839000000 cycles: 4173572275 heartbeat IPC: 0.449506 cumulative IPC: 0.45387 (Simulation time: 1 hr 13 min 17 sec) 
Heartbeat CPU 0 instructions: 840000002 cycles: 4175934540 heartbeat IPC: 0.423323 cumulative IPC: 0.453786 (Simulation time: 1 hr 13 min 21 sec) 
Heartbeat CPU 0 instructions: 841000003 cycles: 4178106398 heartbeat IPC: 0.460436 cumulative IPC: 0.453803 (Simulation time: 1 hr 13 min 26 sec) 
Heartbeat CPU 0 instructions: 842000000 cycles: 4180321792 heartbeat IPC: 0.451386 cumulative IPC: 0.453797 (Simulation time: 1 hr 13 min 30 sec) 
Heartbeat CPU 0 instructions: 843000003 cycles: 4182707694 heartbeat IPC: 0.41913 cumulative IPC: 0.453701 (Simulation time: 1 hr 13 min 35 sec) 
Heartbeat CPU 0 instructions: 844000000 cycles: 4184970500 heartbeat IPC: 0.441928 cumulative IPC: 0.45367 (Simulation time: 1 hr 13 min 39 sec) 
Heartbeat CPU 0 instructions: 845000001 cycles: 4187386551 heartbeat IPC: 0.413899 cumulative IPC: 0.45356 (Simulation time: 1 hr 13 min 44 sec) 
Heartbeat CPU 0 instructions: 846000003 cycles: 4189671253 heartbeat IPC: 0.437695 cumulative IPC: 0.453519 (Simulation time: 1 hr 13 min 48 sec) 
Heartbeat CPU 0 instructions: 847000000 cycles: 4192070974 heartbeat IPC: 0.416714 cumulative IPC: 0.453418 (Simulation time: 1 hr 13 min 53 sec) 
Heartbeat CPU 0 instructions: 848000003 cycles: 4194248631 heartbeat IPC: 0.459211 cumulative IPC: 0.453432 (Simulation time: 1 hr 13 min 57 sec) 
Heartbeat CPU 0 instructions: 849000000 cycles: 4196585519 heartbeat IPC: 0.427918 cumulative IPC: 0.453364 (Simulation time: 1 hr 14 min 2 sec) 
Heartbeat CPU 0 instructions: 850000003 cycles: 4198825935 heartbeat IPC: 0.446347 cumulative IPC: 0.453347 (Simulation time: 1 hr 14 min 6 sec) 
Heartbeat CPU 0 instructions: 851000000 cycles: 4201160796 heartbeat IPC: 0.42829 cumulative IPC: 0.45328 (Simulation time: 1 hr 14 min 11 sec) 
Heartbeat CPU 0 instructions: 852000000 cycles: 4203400981 heartbeat IPC: 0.446392 cumulative IPC: 0.453263 (Simulation time: 1 hr 14 min 15 sec) 
Heartbeat CPU 0 instructions: 853000001 cycles: 4205517296 heartbeat IPC: 0.47252 cumulative IPC: 0.453309 (Simulation time: 1 hr 14 min 20 sec) 
Heartbeat CPU 0 instructions: 854000003 cycles: 4207778799 heartbeat IPC: 0.442185 cumulative IPC: 0.453281 (Simulation time: 1 hr 14 min 25 sec) 
Heartbeat CPU 0 instructions: 855000000 cycles: 4209952595 heartbeat IPC: 0.460023 cumulative IPC: 0.453297 (Simulation time: 1 hr 14 min 29 sec) 
Heartbeat CPU 0 instructions: 856000002 cycles: 4212157179 heartbeat IPC: 0.453601 cumulative IPC: 0.453298 (Simulation time: 1 hr 14 min 34 sec) 
Heartbeat CPU 0 instructions: 857000003 cycles: 4214461963 heartbeat IPC: 0.433881 cumulative IPC: 0.453248 (Simulation time: 1 hr 14 min 39 sec) 
Heartbeat CPU 0 instructions: 858000000 cycles: 4216679980 heartbeat IPC: 0.450852 cumulative IPC: 0.453242 (Simulation time: 1 hr 14 min 43 sec) 
Heartbeat CPU 0 instructions: 859000003 cycles: 4219013047 heartbeat IPC: 0.428622 cumulative IPC: 0.453178 (Simulation time: 1 hr 14 min 48 sec) 
Heartbeat CPU 0 instructions: 860000003 cycles: 4221288969 heartbeat IPC: 0.439382 cumulative IPC: 0.453144 (Simulation time: 1 hr 14 min 53 sec) 
Heartbeat CPU 0 instructions: 861000001 cycles: 4223506285 heartbeat IPC: 0.450995 cumulative IPC: 0.453138 (Simulation time: 1 hr 14 min 57 sec) 
Heartbeat CPU 0 instructions: 862000003 cycles: 4225799502 heartbeat IPC: 0.43607 cumulative IPC: 0.453095 (Simulation time: 1 hr 15 min 2 sec) 
Heartbeat CPU 0 instructions: 863000001 cycles: 4228028861 heartbeat IPC: 0.448559 cumulative IPC: 0.453084 (Simulation time: 1 hr 15 min 6 sec) 
Heartbeat CPU 0 instructions: 864000000 cycles: 4230392423 heartbeat IPC: 0.42309 cumulative IPC: 0.453007 (Simulation time: 1 hr 15 min 11 sec) 
Heartbeat CPU 0 instructions: 865000001 cycles: 4232806051 heartbeat IPC: 0.414314 cumulative IPC: 0.452905 (Simulation time: 1 hr 15 min 15 sec) 
Heartbeat CPU 0 instructions: 866000002 cycles: 4235129055 heartbeat IPC: 0.430478 cumulative IPC: 0.452848 (Simulation time: 1 hr 15 min 20 sec) 
Heartbeat CPU 0 instructions: 867000002 cycles: 4237345255 heartbeat IPC: 0.451223 cumulative IPC: 0.452844 (Simulation time: 1 hr 15 min 25 sec) 
Heartbeat CPU 0 instructions: 868000000 cycles: 4239543487 heartbeat IPC: 0.45491 cumulative IPC: 0.452849 (Simulation time: 1 hr 15 min 29 sec) 
Heartbeat CPU 0 instructions: 869000000 cycles: 4241868598 heartbeat IPC: 0.430087 cumulative IPC: 0.452792 (Simulation time: 1 hr 15 min 34 sec) 
Heartbeat CPU 0 instructions: 870000003 cycles: 4243975352 heartbeat IPC: 0.474665 cumulative IPC: 0.452842 (Simulation time: 1 hr 15 min 39 sec) 
Heartbeat CPU 0 instructions: 871000003 cycles: 4246345721 heartbeat IPC: 0.421875 cumulative IPC: 0.452763 (Simulation time: 1 hr 15 min 43 sec) 
Heartbeat CPU 0 instructions: 872000003 cycles: 4248609994 heartbeat IPC: 0.441643 cumulative IPC: 0.452736 (Simulation time: 1 hr 15 min 48 sec) 
Heartbeat CPU 0 instructions: 873000003 cycles: 4250743402 heartbeat IPC: 0.468734 cumulative IPC: 0.452772 (Simulation time: 1 hr 15 min 52 sec) 
Heartbeat CPU 0 instructions: 874000000 cycles: 4253071180 heartbeat IPC: 0.429593 cumulative IPC: 0.452715 (Simulation time: 1 hr 15 min 57 sec) 
Heartbeat CPU 0 instructions: 875000000 cycles: 4255251628 heartbeat IPC: 0.458621 cumulative IPC: 0.452728 (Simulation time: 1 hr 16 min 2 sec) 
Heartbeat CPU 0 instructions: 876000001 cycles: 4257556042 heartbeat IPC: 0.43395 cumulative IPC: 0.452682 (Simulation time: 1 hr 16 min 6 sec) 
Heartbeat CPU 0 instructions: 877000002 cycles: 4259743539 heartbeat IPC: 0.457144 cumulative IPC: 0.452693 (Simulation time: 1 hr 16 min 11 sec) 
Heartbeat CPU 0 instructions: 878000001 cycles: 4261962846 heartbeat IPC: 0.450591 cumulative IPC: 0.452688 (Simulation time: 1 hr 16 min 16 sec) 
Heartbeat CPU 0 instructions: 879000001 cycles: 4264294325 heartbeat IPC: 0.428912 cumulative IPC: 0.452629 (Simulation time: 1 hr 16 min 20 sec) 
Heartbeat CPU 0 instructions: 880000000 cycles: 4266512063 heartbeat IPC: 0.450909 cumulative IPC: 0.452625 (Simulation time: 1 hr 16 min 25 sec) 
Heartbeat CPU 0 instructions: 881000001 cycles: 4268797624 heartbeat IPC: 0.43753 cumulative IPC: 0.452589 (Simulation time: 1 hr 16 min 29 sec) 
Heartbeat CPU 0 instructions: 882000000 cycles: 4271080813 heartbeat IPC: 0.437983 cumulative IPC: 0.452554 (Simulation time: 1 hr 16 min 34 sec) 
Heartbeat CPU 0 instructions: 883000002 cycles: 4273307421 heartbeat IPC: 0.449115 cumulative IPC: 0.452546 (Simulation time: 1 hr 16 min 39 sec) 
Heartbeat CPU 0 instructions: 884000002 cycles: 4275659547 heartbeat IPC: 0.425147 cumulative IPC: 0.452479 (Simulation time: 1 hr 16 min 43 sec) 
Heartbeat CPU 0 instructions: 885000000 cycles: 4277922121 heartbeat IPC: 0.441974 cumulative IPC: 0.452454 (Simulation time: 1 hr 16 min 48 sec) 
Heartbeat CPU 0 instructions: 886000001 cycles: 4280248438 heartbeat IPC: 0.429864 cumulative IPC: 0.4524 (Simulation time: 1 hr 16 min 52 sec) 
Heartbeat CPU 0 instructions: 887000003 cycles: 4282462348 heartbeat IPC: 0.45169 cumulative IPC: 0.452398 (Simulation time: 1 hr 16 min 57 sec) 
Heartbeat CPU 0 instructions: 888000002 cycles: 4284789536 heartbeat IPC: 0.429703 cumulative IPC: 0.452343 (Simulation time: 1 hr 17 min 1 sec) 
Heartbeat CPU 0 instructions: 889000003 cycles: 4287301747 heartbeat IPC: 0.398056 cumulative IPC: 0.452203 (Simulation time: 1 hr 17 min 6 sec) 
Heartbeat CPU 0 instructions: 890000003 cycles: 4289479347 heartbeat IPC: 0.459221 cumulative IPC: 0.452219 (Simulation time: 1 hr 17 min 10 sec) 
Heartbeat CPU 0 instructions: 891000000 cycles: 4291837428 heartbeat IPC: 0.424072 cumulative IPC: 0.452151 (Simulation time: 1 hr 17 min 15 sec) 
Heartbeat CPU 0 instructions: 892000002 cycles: 4294105133 heartbeat IPC: 0.440975 cumulative IPC: 0.452125 (Simulation time: 1 hr 17 min 19 sec) 
Heartbeat CPU 0 instructions: 893000001 cycles: 4296389239 heartbeat IPC: 0.437808 cumulative IPC: 0.452091 (Simulation time: 1 hr 17 min 24 sec) 
Heartbeat CPU 0 instructions: 894000002 cycles: 4298658570 heartbeat IPC: 0.440659 cumulative IPC: 0.452065 (Simulation time: 1 hr 17 min 28 sec) 
Heartbeat CPU 0 instructions: 895000000 cycles: 4301064471 heartbeat IPC: 0.415644 cumulative IPC: 0.451976 (Simulation time: 1 hr 17 min 33 sec) 
Heartbeat CPU 0 instructions: 896000002 cycles: 4303565763 heartbeat IPC: 0.399794 cumulative IPC: 0.451844 (Simulation time: 1 hr 17 min 37 sec) 
Heartbeat CPU 0 instructions: 897000000 cycles: 4305957760 heartbeat IPC: 0.41806 cumulative IPC: 0.451762 (Simulation time: 1 hr 17 min 42 sec) 
Heartbeat CPU 0 instructions: 898000000 cycles: 4308400277 heartbeat IPC: 0.409414 cumulative IPC: 0.451658 (Simulation time: 1 hr 17 min 46 sec) 
Heartbeat CPU 0 instructions: 899000003 cycles: 4310826339 heartbeat IPC: 0.412192 cumulative IPC: 0.451561 (Simulation time: 1 hr 17 min 51 sec) 
Heartbeat CPU 0 instructions: 900000000 cycles: 4313527276 heartbeat IPC: 0.370241 cumulative IPC: 0.451341 (Simulation time: 1 hr 17 min 55 sec) 
Heartbeat CPU 0 instructions: 901000000 cycles: 4315871763 heartbeat IPC: 0.426533 cumulative IPC: 0.451283 (Simulation time: 1 hr 18 min 0 sec) 
Heartbeat CPU 0 instructions: 902000000 cycles: 4318207007 heartbeat IPC: 0.428221 cumulative IPC: 0.451229 (Simulation time: 1 hr 18 min 4 sec) 
Heartbeat CPU 0 instructions: 903000000 cycles: 4320582207 heartbeat IPC: 0.421017 cumulative IPC: 0.451158 (Simulation time: 1 hr 18 min 9 sec) 
Heartbeat CPU 0 instructions: 904000001 cycles: 4322960237 heartbeat IPC: 0.420517 cumulative IPC: 0.451085 (Simulation time: 1 hr 18 min 13 sec) 
Heartbeat CPU 0 instructions: 905000003 cycles: 4325261540 heartbeat IPC: 0.434537 cumulative IPC: 0.451048 (Simulation time: 1 hr 18 min 18 sec) 
Heartbeat CPU 0 instructions: 906000001 cycles: 4327806982 heartbeat IPC: 0.392858 cumulative IPC: 0.450901 (Simulation time: 1 hr 18 min 22 sec) 
Heartbeat CPU 0 instructions: 907000002 cycles: 4330294109 heartbeat IPC: 0.402071 cumulative IPC: 0.450781 (Simulation time: 1 hr 18 min 27 sec) 
Heartbeat CPU 0 instructions: 908000001 cycles: 4332838680 heartbeat IPC: 0.392993 cumulative IPC: 0.450637 (Simulation time: 1 hr 18 min 31 sec) 
Heartbeat CPU 0 instructions: 909000002 cycles: 4335155961 heartbeat IPC: 0.431541 cumulative IPC: 0.450593 (Simulation time: 1 hr 18 min 36 sec) 
Heartbeat CPU 0 instructions: 910000003 cycles: 4337479476 heartbeat IPC: 0.430383 cumulative IPC: 0.450547 (Simulation time: 1 hr 18 min 40 sec) 
Heartbeat CPU 0 instructions: 911000001 cycles: 4339859337 heartbeat IPC: 0.420192 cumulative IPC: 0.450477 (Simulation time: 1 hr 18 min 45 sec) 
Heartbeat CPU 0 instructions: 912000000 cycles: 4342243909 heartbeat IPC: 0.419362 cumulative IPC: 0.450404 (Simulation time: 1 hr 18 min 50 sec) 
Heartbeat CPU 0 instructions: 913000000 cycles: 4344771269 heartbeat IPC: 0.39567 cumulative IPC: 0.45027 (Simulation time: 1 hr 18 min 54 sec) 
Heartbeat CPU 0 instructions: 914000002 cycles: 4347074516 heartbeat IPC: 0.434171 cumulative IPC: 0.450234 (Simulation time: 1 hr 18 min 59 sec) 
Heartbeat CPU 0 instructions: 915000001 cycles: 4349677376 heartbeat IPC: 0.384192 cumulative IPC: 0.450067 (Simulation time: 1 hr 19 min 3 sec) 
Heartbeat CPU 0 instructions: 916000001 cycles: 4352154506 heartbeat IPC: 0.403693 cumulative IPC: 0.449956 (Simulation time: 1 hr 19 min 8 sec) 
Heartbeat CPU 0 instructions: 917000000 cycles: 4354598461 heartbeat IPC: 0.409172 cumulative IPC: 0.44986 (Simulation time: 1 hr 19 min 13 sec) 
Heartbeat CPU 0 instructions: 918000002 cycles: 4356800182 heartbeat IPC: 0.454191 cumulative IPC: 0.44987 (Simulation time: 1 hr 19 min 17 sec) 
Heartbeat CPU 0 instructions: 919000000 cycles: 4359228811 heartbeat IPC: 0.411754 cumulative IPC: 0.449781 (Simulation time: 1 hr 19 min 22 sec) 
Heartbeat CPU 0 instructions: 920000001 cycles: 4361526695 heartbeat IPC: 0.435183 cumulative IPC: 0.449749 (Simulation time: 1 hr 19 min 27 sec) 
Heartbeat CPU 0 instructions: 921000003 cycles: 4363933883 heartbeat IPC: 0.415423 cumulative IPC: 0.44967 (Simulation time: 1 hr 19 min 31 sec) 
Heartbeat CPU 0 instructions: 922000002 cycles: 4366235440 heartbeat IPC: 0.434488 cumulative IPC: 0.449637 (Simulation time: 1 hr 19 min 36 sec) 
Heartbeat CPU 0 instructions: 923000000 cycles: 4368585561 heartbeat IPC: 0.425509 cumulative IPC: 0.449583 (Simulation time: 1 hr 19 min 40 sec) 
Heartbeat CPU 0 instructions: 924000000 cycles: 4370963270 heartbeat IPC: 0.420573 cumulative IPC: 0.449517 (Simulation time: 1 hr 19 min 45 sec) 
Heartbeat CPU 0 instructions: 925000002 cycles: 4373295451 heartbeat IPC: 0.428784 cumulative IPC: 0.449471 (Simulation time: 1 hr 19 min 50 sec) 
Heartbeat CPU 0 instructions: 926000000 cycles: 4375355162 heartbeat IPC: 0.485504 cumulative IPC: 0.449542 (Simulation time: 1 hr 19 min 54 sec) 
Heartbeat CPU 0 instructions: 927000001 cycles: 4377578125 heartbeat IPC: 0.44985 cumulative IPC: 0.449542 (Simulation time: 1 hr 19 min 59 sec) 
Heartbeat CPU 0 instructions: 928000003 cycles: 4379854981 heartbeat IPC: 0.439203 cumulative IPC: 0.44952 (Simulation time: 1 hr 20 min 4 sec) 
Heartbeat CPU 0 instructions: 929000001 cycles: 4382060012 heartbeat IPC: 0.453507 cumulative IPC: 0.449528 (Simulation time: 1 hr 20 min 8 sec) 
Heartbeat CPU 0 instructions: 930000003 cycles: 4384200859 heartbeat IPC: 0.467106 cumulative IPC: 0.449564 (Simulation time: 1 hr 20 min 13 sec) 
Heartbeat CPU 0 instructions: 931000003 cycles: 4386375712 heartbeat IPC: 0.459801 cumulative IPC: 0.449584 (Simulation time: 1 hr 20 min 18 sec) 
Heartbeat CPU 0 instructions: 932000002 cycles: 4388755487 heartbeat IPC: 0.420207 cumulative IPC: 0.449519 (Simulation time: 1 hr 20 min 22 sec) 
Heartbeat CPU 0 instructions: 933000000 cycles: 4391248797 heartbeat IPC: 0.401072 cumulative IPC: 0.449407 (Simulation time: 1 hr 20 min 27 sec) 
Heartbeat CPU 0 instructions: 934000003 cycles: 4393562913 heartbeat IPC: 0.432132 cumulative IPC: 0.44937 (Simulation time: 1 hr 20 min 32 sec) 
Heartbeat CPU 0 instructions: 935000000 cycles: 4395845718 heartbeat IPC: 0.438056 cumulative IPC: 0.449346 (Simulation time: 1 hr 20 min 36 sec) 
Heartbeat CPU 0 instructions: 936000000 cycles: 4398244703 heartbeat IPC: 0.416843 cumulative IPC: 0.449274 (Simulation time: 1 hr 20 min 41 sec) 
Heartbeat CPU 0 instructions: 937000000 cycles: 4400467721 heartbeat IPC: 0.449839 cumulative IPC: 0.449275 (Simulation time: 1 hr 20 min 46 sec) 
Heartbeat CPU 0 instructions: 938000002 cycles: 4402699631 heartbeat IPC: 0.448048 cumulative IPC: 0.449272 (Simulation time: 1 hr 20 min 50 sec) 
Heartbeat CPU 0 instructions: 939000003 cycles: 4405177973 heartbeat IPC: 0.403496 cumulative IPC: 0.449168 (Simulation time: 1 hr 20 min 55 sec) 
Heartbeat CPU 0 instructions: 940000000 cycles: 4407476836 heartbeat IPC: 0.434996 cumulative IPC: 0.449138 (Simulation time: 1 hr 20 min 59 sec) 
Heartbeat CPU 0 instructions: 941000001 cycles: 4409932608 heartbeat IPC: 0.407204 cumulative IPC: 0.449044 (Simulation time: 1 hr 21 min 4 sec) 
Heartbeat CPU 0 instructions: 942000002 cycles: 4412161404 heartbeat IPC: 0.448673 cumulative IPC: 0.449043 (Simulation time: 1 hr 21 min 9 sec) 
Heartbeat CPU 0 instructions: 943000000 cycles: 4414276587 heartbeat IPC: 0.472771 cumulative IPC: 0.449089 (Simulation time: 1 hr 21 min 13 sec) 
Heartbeat CPU 0 instructions: 944000003 cycles: 4416579756 heartbeat IPC: 0.434186 cumulative IPC: 0.449058 (Simulation time: 1 hr 21 min 18 sec) 
Heartbeat CPU 0 instructions: 945000003 cycles: 4418848555 heartbeat IPC: 0.440762 cumulative IPC: 0.449041 (Simulation time: 1 hr 21 min 23 sec) 
Heartbeat CPU 0 instructions: 946000000 cycles: 4421066955 heartbeat IPC: 0.450774 cumulative IPC: 0.449044 (Simulation time: 1 hr 21 min 27 sec) 
Heartbeat CPU 0 instructions: 947000000 cycles: 4423499919 heartbeat IPC: 0.411021 cumulative IPC: 0.448961 (Simulation time: 1 hr 21 min 32 sec) 
Heartbeat CPU 0 instructions: 948000001 cycles: 4425657759 heartbeat IPC: 0.463427 cumulative IPC: 0.448989 (Simulation time: 1 hr 21 min 36 sec) 
Heartbeat CPU 0 instructions: 949000003 cycles: 4428055259 heartbeat IPC: 0.417102 cumulative IPC: 0.44892 (Simulation time: 1 hr 21 min 41 sec) 
Heartbeat CPU 0 instructions: 950000001 cycles: 4430351084 heartbeat IPC: 0.435572 cumulative IPC: 0.448893 (Simulation time: 1 hr 21 min 46 sec) 
Finished CPU 0 instructions: 500000000 cycles: 1113852412 cumulative IPC: 0.448893 (Simulation time: 1 hr 21 min 46 sec) 

ChampSim completed all CPUs

Region of Interest Statistics

CPU 0 cumulative IPC: 0.448893 instructions: 500000000 cycles: 1113852412
L1D TOTAL     ACCESS:  133239469  HIT:   61225158  MISS:   72014311
L1D LOAD      ACCESS:  112669955  HIT:   45096400  MISS:   67573555
L1D RFO       ACCESS:   20569514  HIT:   16128758  MISS:    4440756
L1D PREFETCH  ACCESS:          0  HIT:          0  MISS:          0
L1D WRITEBACK ACCESS:          0  HIT:          0  MISS:          0
L1D PREFETCH  REQUESTED:          0  ISSUED:          0  USEFUL:          0  USELESS:          0
L1D AVERAGE MISS LATENCY: 84.6511 cycles
L1I TOTAL     ACCESS:  125969787  HIT:  125969639  MISS:        148
L1I LOAD      ACCESS:  125969787  HIT:  125969639  MISS:        148
L1I RFO       ACCESS:          0  HIT:          0  MISS:          0
L1I PREFETCH  ACCESS:          0  HIT:          0  MISS:          0
L1I WRITEBACK ACCESS:          0  HIT:          0  MISS:          0
L1I PREFETCH  REQUESTED:          0  ISSUED:          0  USEFUL:          0  USELESS:          0
L1I AVERAGE MISS LATENCY: 235.277 cycles
L2C TOTAL     ACCESS:   77303789  HIT:   16862678  MISS:   60441111
L2C LOAD      ACCESS:   67573678  HIT:   11296945  MISS:   56276733
L2C RFO       ACCESS:    4440756  HIT:     279629  MISS:    4161127
L2C PREFETCH  ACCESS:          0  HIT:          0  MISS:          0
L2C WRITEBACK ACCESS:    5289355  HIT:    5286104  MISS:       3251
L2C PREFETCH  REQUESTED:          0  ISSUED:          0  USEFUL:          0  USELESS:          0
L2C AVERAGE MISS LATENCY: 82.6014 cycles
LLC TOTAL     ACCESS:  121004961  HIT:  102061519  MISS:   18943442
LLC LOAD      ACCESS:   56276733  HIT:   52586221  MISS:    3690512
LLC RFO       ACCESS:    4161127  HIT:      43151  MISS:    4117976
LLC PREFETCH  ACCESS:   55572664  HIT:   44439613  MISS:   11133051
LLC WRITEBACK ACCESS:    4994437  HIT:    4992534  MISS:       1903
LLC PREFETCH  REQUESTED:   56274485  ISSUED:   55988848  USEFUL:    8464004  USELESS:    2668878
LLC AVERAGE MISS LATENCY: 332.797 cycles
Major fault: 0 Minor fault: 258012
performance stats:
mapping cache size: 12766312
divergence: 14190329

DRAM Statistics
 CHANNEL 0
 RQ ROW_BUFFER_HIT:    4487118  ROW_BUFFER_MISS:    4980649
 DBUS_CONGESTED:   22232173
 WQ ROW_BUFFER_HIT:    2143029  ROW_BUFFER_MISS:     304698  FULL:          0

 CHANNEL 1
 RQ ROW_BUFFER_HIT:    4489805  ROW_BUFFER_MISS:    4983508
 DBUS_CONGESTED:   22232173
 WQ ROW_BUFFER_HIT:    2142927  ROW_BUFFER_MISS:     305329  FULL:          0

 AVG_CONGESTED_CYCLE: 20

CPU 0 Branch Prediction Accuracy: 99.2843% MPKI: 1.29473 Average ROB Occupancy at Mispredict: 105.894

Branch types
NOT_BRANCH: 409546794 81.9094%
BRANCH_DIRECT_JUMP: 12217610 2.44352%
BRANCH_INDIRECT: 2 4e-07%
BRANCH_CONDITIONAL: 76453631 15.2907%
BRANCH_DIRECT_CALL: 582873 0.116575%
BRANCH_INDIRECT_CALL: 308106 0.0616212%
BRANCH_RETURN: 890980 0.178196%
BRANCH_OTHER: 0 0%

