
*** ChampSim Multicore Out-of-Order Simulator ***

Warmup Instructions: 1000000
Prefetch Warmup Instructions: 450000000
Simulation Instructions: 500000000
Stat Printing Period: 1000000
Number of CPUs: 1
LLC sets: 2048
LLC ways: 16
Off-chip DRAM Size: 32768 MB Channels: 2 Width: 64-bit Data Rate: 1024 MT/s

CPU 0 runs /scratch/cluster/cmolder/ML-DPC/ChampSimTraces/spec17/605.mcf-s0.trace.xz
Read seed: 267
Heartbeat CPU 0 instructions: 1000001 cycles: 418979 heartbeat IPC: 2.38676 cumulative IPC: 2.38676 (Simulation time: 0 hr 0 min 7 sec) 

Warmup complete CPU 0 instructions: 1000001 cycles: 418979 (Simulation time: 0 hr 0 min 7 sec) 

Heartbeat CPU 0 instructions: 2000001 cycles: 3150534 heartbeat IPC: 0.366092 cumulative IPC: 0.366092 (Simulation time: 0 hr 0 min 12 sec) 
Heartbeat CPU 0 instructions: 3000000 cycles: 5872394 heartbeat IPC: 0.367395 cumulative IPC: 0.366742 (Simulation time: 0 hr 0 min 18 sec) 
Heartbeat CPU 0 instructions: 4000001 cycles: 8590399 heartbeat IPC: 0.367917 cumulative IPC: 0.367133 (Simulation time: 0 hr 0 min 23 sec) 
Heartbeat CPU 0 instructions: 5000003 cycles: 11321161 heartbeat IPC: 0.366199 cumulative IPC: 0.366899 (Simulation time: 0 hr 0 min 29 sec) 
Heartbeat CPU 0 instructions: 6000000 cycles: 14030875 heartbeat IPC: 0.369042 cumulative IPC: 0.367326 (Simulation time: 0 hr 0 min 34 sec) 
Heartbeat CPU 0 instructions: 7000001 cycles: 16965060 heartbeat IPC: 0.34081 cumulative IPC: 0.362624 (Simulation time: 0 hr 0 min 40 sec) 
Heartbeat CPU 0 instructions: 8000003 cycles: 19696098 heartbeat IPC: 0.366162 cumulative IPC: 0.363125 (Simulation time: 0 hr 0 min 45 sec) 
Heartbeat CPU 0 instructions: 9000002 cycles: 22380225 heartbeat IPC: 0.37256 cumulative IPC: 0.364278 (Simulation time: 0 hr 0 min 51 sec) 
Heartbeat CPU 0 instructions: 10000002 cycles: 25025555 heartbeat IPC: 0.378025 cumulative IPC: 0.365756 (Simulation time: 0 hr 0 min 56 sec) 
Heartbeat CPU 0 instructions: 11000000 cycles: 27832817 heartbeat IPC: 0.356218 cumulative IPC: 0.364779 (Simulation time: 0 hr 1 min 2 sec) 
Heartbeat CPU 0 instructions: 12000003 cycles: 30775138 heartbeat IPC: 0.339869 cumulative IPC: 0.362365 (Simulation time: 0 hr 1 min 7 sec) 
Heartbeat CPU 0 instructions: 13000003 cycles: 33611604 heartbeat IPC: 0.352551 cumulative IPC: 0.361526 (Simulation time: 0 hr 1 min 13 sec) 
Heartbeat CPU 0 instructions: 14000003 cycles: 36282161 heartbeat IPC: 0.374454 cumulative IPC: 0.362489 (Simulation time: 0 hr 1 min 18 sec) 
Heartbeat CPU 0 instructions: 15000001 cycles: 38934563 heartbeat IPC: 0.377016 cumulative IPC: 0.363489 (Simulation time: 0 hr 1 min 24 sec) 
Heartbeat CPU 0 instructions: 16000000 cycles: 41591560 heartbeat IPC: 0.376364 cumulative IPC: 0.36432 (Simulation time: 0 hr 1 min 29 sec) 
Heartbeat CPU 0 instructions: 17000001 cycles: 44402822 heartbeat IPC: 0.355712 cumulative IPC: 0.36377 (Simulation time: 0 hr 1 min 34 sec) 
Heartbeat CPU 0 instructions: 18000000 cycles: 47458206 heartbeat IPC: 0.327291 cumulative IPC: 0.3614 (Simulation time: 0 hr 1 min 40 sec) 
Heartbeat CPU 0 instructions: 19000000 cycles: 50257310 heartbeat IPC: 0.357257 cumulative IPC: 0.361168 (Simulation time: 0 hr 1 min 46 sec) 
Heartbeat CPU 0 instructions: 20000001 cycles: 52976981 heartbeat IPC: 0.367692 cumulative IPC: 0.361505 (Simulation time: 0 hr 1 min 51 sec) 
Heartbeat CPU 0 instructions: 21000003 cycles: 55677784 heartbeat IPC: 0.370261 cumulative IPC: 0.361933 (Simulation time: 0 hr 1 min 56 sec) 
Heartbeat CPU 0 instructions: 22000000 cycles: 58385992 heartbeat IPC: 0.369247 cumulative IPC: 0.362275 (Simulation time: 0 hr 2 min 2 sec) 
Heartbeat CPU 0 instructions: 23000001 cycles: 61155637 heartbeat IPC: 0.361057 cumulative IPC: 0.362219 (Simulation time: 0 hr 2 min 7 sec) 
Heartbeat CPU 0 instructions: 24000001 cycles: 64180101 heartbeat IPC: 0.330637 cumulative IPC: 0.360721 (Simulation time: 0 hr 2 min 13 sec) 
Heartbeat CPU 0 instructions: 25000002 cycles: 66961255 heartbeat IPC: 0.359563 cumulative IPC: 0.360673 (Simulation time: 0 hr 2 min 19 sec) 
Heartbeat CPU 0 instructions: 26000001 cycles: 69643712 heartbeat IPC: 0.372792 cumulative IPC: 0.361143 (Simulation time: 0 hr 2 min 24 sec) 
Heartbeat CPU 0 instructions: 27000000 cycles: 72334120 heartbeat IPC: 0.37169 cumulative IPC: 0.361537 (Simulation time: 0 hr 2 min 30 sec) 
Heartbeat CPU 0 instructions: 28000000 cycles: 75033800 heartbeat IPC: 0.370414 cumulative IPC: 0.361858 (Simulation time: 0 hr 2 min 36 sec) 
Heartbeat CPU 0 instructions: 29000001 cycles: 77793249 heartbeat IPC: 0.362392 cumulative IPC: 0.361877 (Simulation time: 0 hr 2 min 41 sec) 
Heartbeat CPU 0 instructions: 30000000 cycles: 80474459 heartbeat IPC: 0.372966 cumulative IPC: 0.362249 (Simulation time: 0 hr 2 min 47 sec) 
Heartbeat CPU 0 instructions: 31000002 cycles: 83172129 heartbeat IPC: 0.370691 cumulative IPC: 0.362524 (Simulation time: 0 hr 2 min 52 sec) 
Heartbeat CPU 0 instructions: 32000001 cycles: 85885476 heartbeat IPC: 0.368548 cumulative IPC: 0.362715 (Simulation time: 0 hr 2 min 58 sec) 
Heartbeat CPU 0 instructions: 33000000 cycles: 88573431 heartbeat IPC: 0.37203 cumulative IPC: 0.362999 (Simulation time: 0 hr 3 min 4 sec) 
Heartbeat CPU 0 instructions: 34000000 cycles: 91292899 heartbeat IPC: 0.367719 cumulative IPC: 0.36314 (Simulation time: 0 hr 3 min 10 sec) 
Heartbeat CPU 0 instructions: 35000001 cycles: 93967360 heartbeat IPC: 0.373907 cumulative IPC: 0.363448 (Simulation time: 0 hr 3 min 16 sec) 
Heartbeat CPU 0 instructions: 36000001 cycles: 96797497 heartbeat IPC: 0.35334 cumulative IPC: 0.363151 (Simulation time: 0 hr 3 min 22 sec) 
Heartbeat CPU 0 instructions: 37000000 cycles: 99849190 heartbeat IPC: 0.327687 cumulative IPC: 0.362063 (Simulation time: 0 hr 3 min 28 sec) 
Heartbeat CPU 0 instructions: 38000003 cycles: 102533345 heartbeat IPC: 0.372558 cumulative IPC: 0.362339 (Simulation time: 0 hr 3 min 34 sec) 
Heartbeat CPU 0 instructions: 39000000 cycles: 105233956 heartbeat IPC: 0.370285 cumulative IPC: 0.362544 (Simulation time: 0 hr 3 min 39 sec) 
Heartbeat CPU 0 instructions: 40000001 cycles: 107939024 heartbeat IPC: 0.369677 cumulative IPC: 0.362723 (Simulation time: 0 hr 3 min 45 sec) 
Heartbeat CPU 0 instructions: 41000000 cycles: 110629990 heartbeat IPC: 0.371613 cumulative IPC: 0.36294 (Simulation time: 0 hr 3 min 50 sec) 
Heartbeat CPU 0 instructions: 42000000 cycles: 113442982 heartbeat IPC: 0.355493 cumulative IPC: 0.362755 (Simulation time: 0 hr 3 min 56 sec) 
Heartbeat CPU 0 instructions: 43000000 cycles: 116497351 heartbeat IPC: 0.3274 cumulative IPC: 0.361825 (Simulation time: 0 hr 4 min 1 sec) 
Heartbeat CPU 0 instructions: 44000000 cycles: 119210579 heartbeat IPC: 0.368565 cumulative IPC: 0.361978 (Simulation time: 0 hr 4 min 7 sec) 
Heartbeat CPU 0 instructions: 45000002 cycles: 121855830 heartbeat IPC: 0.378037 cumulative IPC: 0.362328 (Simulation time: 0 hr 4 min 12 sec) 
Heartbeat CPU 0 instructions: 46000000 cycles: 124550689 heartbeat IPC: 0.371076 cumulative IPC: 0.362518 (Simulation time: 0 hr 4 min 18 sec) 
Heartbeat CPU 0 instructions: 47000000 cycles: 127210329 heartbeat IPC: 0.375991 cumulative IPC: 0.362801 (Simulation time: 0 hr 4 min 23 sec) 
Heartbeat CPU 0 instructions: 48000000 cycles: 130036497 heartbeat IPC: 0.353836 cumulative IPC: 0.362605 (Simulation time: 0 hr 4 min 29 sec) 
Heartbeat CPU 0 instructions: 49000001 cycles: 133027760 heartbeat IPC: 0.334307 cumulative IPC: 0.361967 (Simulation time: 0 hr 4 min 35 sec) 
Heartbeat CPU 0 instructions: 50000001 cycles: 135718898 heartbeat IPC: 0.37159 cumulative IPC: 0.362158 (Simulation time: 0 hr 4 min 40 sec) 
Heartbeat CPU 0 instructions: 51000003 cycles: 138362581 heartbeat IPC: 0.378261 cumulative IPC: 0.362467 (Simulation time: 0 hr 4 min 46 sec) 
Heartbeat CPU 0 instructions: 52000000 cycles: 141026878 heartbeat IPC: 0.375332 cumulative IPC: 0.362711 (Simulation time: 0 hr 4 min 51 sec) 
Heartbeat CPU 0 instructions: 53000000 cycles: 143841709 heartbeat IPC: 0.355261 cumulative IPC: 0.362565 (Simulation time: 0 hr 4 min 57 sec) 
Heartbeat CPU 0 instructions: 54000003 cycles: 146756670 heartbeat IPC: 0.343059 cumulative IPC: 0.362176 (Simulation time: 0 hr 5 min 3 sec) 
Heartbeat CPU 0 instructions: 55000000 cycles: 149418778 heartbeat IPC: 0.375641 cumulative IPC: 0.362417 (Simulation time: 0 hr 5 min 8 sec) 
Heartbeat CPU 0 instructions: 56000000 cycles: 152064854 heartbeat IPC: 0.377918 cumulative IPC: 0.362687 (Simulation time: 0 hr 5 min 14 sec) 
Heartbeat CPU 0 instructions: 57000000 cycles: 154786561 heartbeat IPC: 0.367416 cumulative IPC: 0.36277 (Simulation time: 0 hr 5 min 19 sec) 
Heartbeat CPU 0 instructions: 58000000 cycles: 157812976 heartbeat IPC: 0.330424 cumulative IPC: 0.362148 (Simulation time: 0 hr 5 min 25 sec) 
Heartbeat CPU 0 instructions: 59000000 cycles: 160463704 heartbeat IPC: 0.377255 cumulative IPC: 0.362399 (Simulation time: 0 hr 5 min 31 sec) 
Heartbeat CPU 0 instructions: 60000001 cycles: 163110882 heartbeat IPC: 0.377761 cumulative IPC: 0.362649 (Simulation time: 0 hr 5 min 36 sec) 
Heartbeat CPU 0 instructions: 61000002 cycles: 165732272 heartbeat IPC: 0.381477 cumulative IPC: 0.362947 (Simulation time: 0 hr 5 min 42 sec) 
Heartbeat CPU 0 instructions: 62000000 cycles: 168831723 heartbeat IPC: 0.322637 cumulative IPC: 0.362205 (Simulation time: 0 hr 5 min 47 sec) 
Heartbeat CPU 0 instructions: 63000000 cycles: 171524642 heartbeat IPC: 0.371344 cumulative IPC: 0.362349 (Simulation time: 0 hr 5 min 53 sec) 
Heartbeat CPU 0 instructions: 64000001 cycles: 174195261 heartbeat IPC: 0.374445 cumulative IPC: 0.362535 (Simulation time: 0 hr 5 min 58 sec) 
Heartbeat CPU 0 instructions: 65000001 cycles: 176905880 heartbeat IPC: 0.368919 cumulative IPC: 0.362633 (Simulation time: 0 hr 6 min 3 sec) 
Heartbeat CPU 0 instructions: 66000000 cycles: 180060335 heartbeat IPC: 0.317012 cumulative IPC: 0.361832 (Simulation time: 0 hr 6 min 9 sec) 
Heartbeat CPU 0 instructions: 67000002 cycles: 182719115 heartbeat IPC: 0.376113 cumulative IPC: 0.36204 (Simulation time: 0 hr 6 min 15 sec) 
Heartbeat CPU 0 instructions: 68000000 cycles: 185403863 heartbeat IPC: 0.372474 cumulative IPC: 0.362192 (Simulation time: 0 hr 6 min 20 sec) 
Heartbeat CPU 0 instructions: 69000002 cycles: 188139717 heartbeat IPC: 0.365517 cumulative IPC: 0.36224 (Simulation time: 0 hr 6 min 25 sec) 
Heartbeat CPU 0 instructions: 70000001 cycles: 191234606 heartbeat IPC: 0.323113 cumulative IPC: 0.361606 (Simulation time: 0 hr 6 min 31 sec) 
Heartbeat CPU 0 instructions: 71000002 cycles: 193897129 heartbeat IPC: 0.375584 cumulative IPC: 0.361798 (Simulation time: 0 hr 6 min 36 sec) 
Heartbeat CPU 0 instructions: 72000001 cycles: 196524152 heartbeat IPC: 0.380659 cumulative IPC: 0.362051 (Simulation time: 0 hr 6 min 41 sec) 
Heartbeat CPU 0 instructions: 73000003 cycles: 199147669 heartbeat IPC: 0.381168 cumulative IPC: 0.362303 (Simulation time: 0 hr 6 min 46 sec) 
Heartbeat CPU 0 instructions: 74000000 cycles: 202070923 heartbeat IPC: 0.342084 cumulative IPC: 0.36201 (Simulation time: 0 hr 6 min 52 sec) 
Heartbeat CPU 0 instructions: 75000001 cycles: 204925270 heartbeat IPC: 0.350343 cumulative IPC: 0.361847 (Simulation time: 0 hr 6 min 57 sec) 
Heartbeat CPU 0 instructions: 76000002 cycles: 207536483 heartbeat IPC: 0.382964 cumulative IPC: 0.362113 (Simulation time: 0 hr 7 min 2 sec) 
Heartbeat CPU 0 instructions: 77000000 cycles: 210184393 heartbeat IPC: 0.377656 cumulative IPC: 0.362309 (Simulation time: 0 hr 7 min 8 sec) 
Heartbeat CPU 0 instructions: 78000002 cycles: 212844479 heartbeat IPC: 0.375928 cumulative IPC: 0.36248 (Simulation time: 0 hr 7 min 13 sec) 
Heartbeat CPU 0 instructions: 79000001 cycles: 215977423 heartbeat IPC: 0.319188 cumulative IPC: 0.361851 (Simulation time: 0 hr 7 min 19 sec) 
Heartbeat CPU 0 instructions: 80000003 cycles: 218614473 heartbeat IPC: 0.379212 cumulative IPC: 0.362061 (Simulation time: 0 hr 7 min 25 sec) 
Heartbeat CPU 0 instructions: 81000000 cycles: 221253777 heartbeat IPC: 0.378887 cumulative IPC: 0.362262 (Simulation time: 0 hr 7 min 30 sec) 
Heartbeat CPU 0 instructions: 82000000 cycles: 224063786 heartbeat IPC: 0.355871 cumulative IPC: 0.362181 (Simulation time: 0 hr 7 min 35 sec) 
Heartbeat CPU 0 instructions: 83000000 cycles: 227083652 heartbeat IPC: 0.331141 cumulative IPC: 0.361768 (Simulation time: 0 hr 7 min 41 sec) 
Heartbeat CPU 0 instructions: 84000000 cycles: 229713052 heartbeat IPC: 0.380315 cumulative IPC: 0.361981 (Simulation time: 0 hr 7 min 46 sec) 
Heartbeat CPU 0 instructions: 85000002 cycles: 232700439 heartbeat IPC: 0.334741 cumulative IPC: 0.36163 (Simulation time: 0 hr 7 min 52 sec) 
Heartbeat CPU 0 instructions: 86000002 cycles: 235423951 heartbeat IPC: 0.367173 cumulative IPC: 0.361694 (Simulation time: 0 hr 7 min 57 sec) 
Heartbeat CPU 0 instructions: 87000000 cycles: 238059395 heartbeat IPC: 0.379442 cumulative IPC: 0.361891 (Simulation time: 0 hr 8 min 3 sec) 
Heartbeat CPU 0 instructions: 88000000 cycles: 241146763 heartbeat IPC: 0.3239 cumulative IPC: 0.361404 (Simulation time: 0 hr 8 min 9 sec) 
Heartbeat CPU 0 instructions: 89000000 cycles: 243809642 heartbeat IPC: 0.375533 cumulative IPC: 0.361559 (Simulation time: 0 hr 8 min 14 sec) 
Heartbeat CPU 0 instructions: 90000003 cycles: 246475667 heartbeat IPC: 0.375091 cumulative IPC: 0.361705 (Simulation time: 0 hr 8 min 19 sec) 
Heartbeat CPU 0 instructions: 91000002 cycles: 249244658 heartbeat IPC: 0.361142 cumulative IPC: 0.361699 (Simulation time: 0 hr 8 min 25 sec) 
Heartbeat CPU 0 instructions: 92000001 cycles: 252237371 heartbeat IPC: 0.334145 cumulative IPC: 0.361372 (Simulation time: 0 hr 8 min 31 sec) 
Heartbeat CPU 0 instructions: 93000000 cycles: 254889294 heartbeat IPC: 0.377084 cumulative IPC: 0.361535 (Simulation time: 0 hr 8 min 36 sec) 
Heartbeat CPU 0 instructions: 94000000 cycles: 257603982 heartbeat IPC: 0.368366 cumulative IPC: 0.361607 (Simulation time: 0 hr 8 min 42 sec) 
Heartbeat CPU 0 instructions: 95000000 cycles: 260586317 heartbeat IPC: 0.335308 cumulative IPC: 0.361306 (Simulation time: 0 hr 8 min 47 sec) 
Heartbeat CPU 0 instructions: 96000002 cycles: 263256954 heartbeat IPC: 0.374443 cumulative IPC: 0.361439 (Simulation time: 0 hr 8 min 52 sec) 
Heartbeat CPU 0 instructions: 97000000 cycles: 266099909 heartbeat IPC: 0.351746 cumulative IPC: 0.361336 (Simulation time: 0 hr 8 min 58 sec) 
Heartbeat CPU 0 instructions: 98000000 cycles: 269024273 heartbeat IPC: 0.341955 cumulative IPC: 0.361125 (Simulation time: 0 hr 9 min 3 sec) 
Heartbeat CPU 0 instructions: 99000000 cycles: 271775876 heartbeat IPC: 0.363425 cumulative IPC: 0.361148 (Simulation time: 0 hr 9 min 9 sec) 
Heartbeat CPU 0 instructions: 100000001 cycles: 274738572 heartbeat IPC: 0.337531 cumulative IPC: 0.360893 (Simulation time: 0 hr 9 min 15 sec) 
Heartbeat CPU 0 instructions: 101000003 cycles: 277363952 heartbeat IPC: 0.380898 cumulative IPC: 0.361083 (Simulation time: 0 hr 9 min 20 sec) 
Heartbeat CPU 0 instructions: 102000001 cycles: 280426189 heartbeat IPC: 0.326558 cumulative IPC: 0.360705 (Simulation time: 0 hr 9 min 26 sec) 
Heartbeat CPU 0 instructions: 103000001 cycles: 283075165 heartbeat IPC: 0.377504 cumulative IPC: 0.360862 (Simulation time: 0 hr 9 min 31 sec) 
Heartbeat CPU 0 instructions: 104000001 cycles: 286152194 heartbeat IPC: 0.324989 cumulative IPC: 0.360476 (Simulation time: 0 hr 9 min 37 sec) 
Heartbeat CPU 0 instructions: 105000001 cycles: 288908931 heartbeat IPC: 0.362748 cumulative IPC: 0.360498 (Simulation time: 0 hr 9 min 42 sec) 
Heartbeat CPU 0 instructions: 106000000 cycles: 291830190 heartbeat IPC: 0.342318 cumulative IPC: 0.360316 (Simulation time: 0 hr 9 min 48 sec) 
Heartbeat CPU 0 instructions: 107000000 cycles: 294547155 heartbeat IPC: 0.368058 cumulative IPC: 0.360387 (Simulation time: 0 hr 9 min 54 sec) 
Heartbeat CPU 0 instructions: 108000003 cycles: 297406908 heartbeat IPC: 0.349682 cumulative IPC: 0.360284 (Simulation time: 0 hr 9 min 59 sec) 
Heartbeat CPU 0 instructions: 109000000 cycles: 300498172 heartbeat IPC: 0.323491 cumulative IPC: 0.359905 (Simulation time: 0 hr 10 min 5 sec) 
Heartbeat CPU 0 instructions: 110000000 cycles: 303066260 heartbeat IPC: 0.389395 cumulative IPC: 0.360155 (Simulation time: 0 hr 10 min 11 sec) 
Heartbeat CPU 0 instructions: 111000000 cycles: 306126738 heartbeat IPC: 0.326746 cumulative IPC: 0.359821 (Simulation time: 0 hr 10 min 17 sec) 
Heartbeat CPU 0 instructions: 112000001 cycles: 308912286 heartbeat IPC: 0.358996 cumulative IPC: 0.359813 (Simulation time: 0 hr 10 min 23 sec) 
Heartbeat CPU 0 instructions: 113000000 cycles: 311797676 heartbeat IPC: 0.346573 cumulative IPC: 0.359691 (Simulation time: 0 hr 10 min 29 sec) 
Heartbeat CPU 0 instructions: 114000000 cycles: 314820113 heartbeat IPC: 0.330859 cumulative IPC: 0.359413 (Simulation time: 0 hr 10 min 35 sec) 
Heartbeat CPU 0 instructions: 115000001 cycles: 317400357 heartbeat IPC: 0.387561 cumulative IPC: 0.359643 (Simulation time: 0 hr 10 min 41 sec) 
Heartbeat CPU 0 instructions: 116000000 cycles: 320446462 heartbeat IPC: 0.328288 cumulative IPC: 0.359344 (Simulation time: 0 hr 10 min 47 sec) 
Heartbeat CPU 0 instructions: 117000000 cycles: 322990572 heartbeat IPC: 0.393065 cumulative IPC: 0.35961 (Simulation time: 0 hr 10 min 53 sec) 
Heartbeat CPU 0 instructions: 118000000 cycles: 326062543 heartbeat IPC: 0.325524 cumulative IPC: 0.359289 (Simulation time: 0 hr 10 min 59 sec) 
Heartbeat CPU 0 instructions: 119000000 cycles: 328776629 heartbeat IPC: 0.368448 cumulative IPC: 0.359364 (Simulation time: 0 hr 11 min 5 sec) 
Heartbeat CPU 0 instructions: 120000002 cycles: 331727213 heartbeat IPC: 0.338917 cumulative IPC: 0.359182 (Simulation time: 0 hr 11 min 11 sec) 
Heartbeat CPU 0 instructions: 121000000 cycles: 334736752 heartbeat IPC: 0.332276 cumulative IPC: 0.35894 (Simulation time: 0 hr 11 min 17 sec) 
Heartbeat CPU 0 instructions: 122000000 cycles: 337622812 heartbeat IPC: 0.346493 cumulative IPC: 0.358833 (Simulation time: 0 hr 11 min 22 sec) 
Heartbeat CPU 0 instructions: 123000002 cycles: 340319500 heartbeat IPC: 0.370826 cumulative IPC: 0.358929 (Simulation time: 0 hr 11 min 28 sec) 
Heartbeat CPU 0 instructions: 124000001 cycles: 343338486 heartbeat IPC: 0.331237 cumulative IPC: 0.358685 (Simulation time: 0 hr 11 min 34 sec) 
Heartbeat CPU 0 instructions: 125000001 cycles: 346339749 heartbeat IPC: 0.333193 cumulative IPC: 0.358464 (Simulation time: 0 hr 11 min 40 sec) 
Heartbeat CPU 0 instructions: 126000001 cycles: 349381514 heartbeat IPC: 0.328756 cumulative IPC: 0.358205 (Simulation time: 0 hr 11 min 46 sec) 
Heartbeat CPU 0 instructions: 127000001 cycles: 352368296 heartbeat IPC: 0.334808 cumulative IPC: 0.358006 (Simulation time: 0 hr 11 min 52 sec) 
Heartbeat CPU 0 instructions: 128000000 cycles: 355328595 heartbeat IPC: 0.337803 cumulative IPC: 0.357838 (Simulation time: 0 hr 11 min 57 sec) 
Heartbeat CPU 0 instructions: 129000001 cycles: 358283952 heartbeat IPC: 0.338369 cumulative IPC: 0.357677 (Simulation time: 0 hr 12 min 3 sec) 
Heartbeat CPU 0 instructions: 130000002 cycles: 361297405 heartbeat IPC: 0.331846 cumulative IPC: 0.357461 (Simulation time: 0 hr 12 min 9 sec) 
Heartbeat CPU 0 instructions: 131000000 cycles: 364578469 heartbeat IPC: 0.304779 cumulative IPC: 0.356986 (Simulation time: 0 hr 12 min 15 sec) 
Heartbeat CPU 0 instructions: 132000000 cycles: 367538787 heartbeat IPC: 0.337802 cumulative IPC: 0.356832 (Simulation time: 0 hr 12 min 21 sec) 
Heartbeat CPU 0 instructions: 133000001 cycles: 370501636 heartbeat IPC: 0.337513 cumulative IPC: 0.356677 (Simulation time: 0 hr 12 min 27 sec) 
Heartbeat CPU 0 instructions: 134000003 cycles: 373457167 heartbeat IPC: 0.338349 cumulative IPC: 0.356532 (Simulation time: 0 hr 12 min 33 sec) 
Heartbeat CPU 0 instructions: 135000000 cycles: 376439472 heartbeat IPC: 0.33531 cumulative IPC: 0.356364 (Simulation time: 0 hr 12 min 39 sec) 
Heartbeat CPU 0 instructions: 136000002 cycles: 379378833 heartbeat IPC: 0.340211 cumulative IPC: 0.356238 (Simulation time: 0 hr 12 min 45 sec) 
Heartbeat CPU 0 instructions: 137000000 cycles: 382327842 heartbeat IPC: 0.339096 cumulative IPC: 0.356106 (Simulation time: 0 hr 12 min 50 sec) 
Heartbeat CPU 0 instructions: 138000000 cycles: 385296456 heartbeat IPC: 0.336858 cumulative IPC: 0.355957 (Simulation time: 0 hr 12 min 56 sec) 
Heartbeat CPU 0 instructions: 139000001 cycles: 388641643 heartbeat IPC: 0.298937 cumulative IPC: 0.355466 (Simulation time: 0 hr 13 min 3 sec) 
Heartbeat CPU 0 instructions: 140000002 cycles: 391815815 heartbeat IPC: 0.315043 cumulative IPC: 0.355138 (Simulation time: 0 hr 13 min 9 sec) 
Heartbeat CPU 0 instructions: 141000000 cycles: 395085452 heartbeat IPC: 0.305844 cumulative IPC: 0.35473 (Simulation time: 0 hr 13 min 15 sec) 
Heartbeat CPU 0 instructions: 142000003 cycles: 398070902 heartbeat IPC: 0.334959 cumulative IPC: 0.354581 (Simulation time: 0 hr 13 min 21 sec) 
Heartbeat CPU 0 instructions: 143000000 cycles: 401102470 heartbeat IPC: 0.329861 cumulative IPC: 0.354394 (Simulation time: 0 hr 13 min 27 sec) 
Heartbeat CPU 0 instructions: 144000000 cycles: 404301114 heartbeat IPC: 0.312632 cumulative IPC: 0.354064 (Simulation time: 0 hr 13 min 33 sec) 
Heartbeat CPU 0 instructions: 145000003 cycles: 407476357 heartbeat IPC: 0.314937 cumulative IPC: 0.353758 (Simulation time: 0 hr 13 min 39 sec) 
Heartbeat CPU 0 instructions: 146000000 cycles: 410667272 heartbeat IPC: 0.313389 cumulative IPC: 0.353444 (Simulation time: 0 hr 13 min 46 sec) 
Heartbeat CPU 0 instructions: 147000001 cycles: 413662443 heartbeat IPC: 0.333871 cumulative IPC: 0.353303 (Simulation time: 0 hr 13 min 52 sec) 
Heartbeat CPU 0 instructions: 148000001 cycles: 416723180 heartbeat IPC: 0.326719 cumulative IPC: 0.353107 (Simulation time: 0 hr 13 min 58 sec) 
Heartbeat CPU 0 instructions: 149000000 cycles: 419999676 heartbeat IPC: 0.305204 cumulative IPC: 0.352733 (Simulation time: 0 hr 14 min 4 sec) 
Heartbeat CPU 0 instructions: 150000001 cycles: 423224029 heartbeat IPC: 0.31014 cumulative IPC: 0.352408 (Simulation time: 0 hr 14 min 11 sec) 
Heartbeat CPU 0 instructions: 151000001 cycles: 426653061 heartbeat IPC: 0.291627 cumulative IPC: 0.351919 (Simulation time: 0 hr 14 min 18 sec) 
Heartbeat CPU 0 instructions: 152000000 cycles: 429829787 heartbeat IPC: 0.314789 cumulative IPC: 0.351645 (Simulation time: 0 hr 14 min 25 sec) 
Heartbeat CPU 0 instructions: 153000000 cycles: 432952132 heartbeat IPC: 0.320272 cumulative IPC: 0.351418 (Simulation time: 0 hr 14 min 32 sec) 
Heartbeat CPU 0 instructions: 154000000 cycles: 436401304 heartbeat IPC: 0.289925 cumulative IPC: 0.350932 (Simulation time: 0 hr 14 min 39 sec) 
Heartbeat CPU 0 instructions: 155000002 cycles: 439547678 heartbeat IPC: 0.317827 cumulative IPC: 0.350694 (Simulation time: 0 hr 14 min 45 sec) 
Heartbeat CPU 0 instructions: 156000000 cycles: 443023202 heartbeat IPC: 0.287726 cumulative IPC: 0.3502 (Simulation time: 0 hr 14 min 52 sec) 
Heartbeat CPU 0 instructions: 157000000 cycles: 446121178 heartbeat IPC: 0.322791 cumulative IPC: 0.35001 (Simulation time: 0 hr 14 min 58 sec) 
Heartbeat CPU 0 instructions: 158000001 cycles: 449571265 heartbeat IPC: 0.289848 cumulative IPC: 0.349547 (Simulation time: 0 hr 15 min 5 sec) 
Heartbeat CPU 0 instructions: 159000001 cycles: 452608269 heartbeat IPC: 0.329272 cumulative IPC: 0.349411 (Simulation time: 0 hr 15 min 11 sec) 
Heartbeat CPU 0 instructions: 160000001 cycles: 456050682 heartbeat IPC: 0.290494 cumulative IPC: 0.348966 (Simulation time: 0 hr 15 min 18 sec) 
Heartbeat CPU 0 instructions: 161000002 cycles: 459122624 heartbeat IPC: 0.325527 cumulative IPC: 0.348809 (Simulation time: 0 hr 15 min 24 sec) 
Heartbeat CPU 0 instructions: 162000000 cycles: 462623154 heartbeat IPC: 0.28567 cumulative IPC: 0.348331 (Simulation time: 0 hr 15 min 31 sec) 
Heartbeat CPU 0 instructions: 163000002 cycles: 465817717 heartbeat IPC: 0.313032 cumulative IPC: 0.348089 (Simulation time: 0 hr 15 min 38 sec) 
Heartbeat CPU 0 instructions: 164000003 cycles: 469269684 heartbeat IPC: 0.28969 cumulative IPC: 0.347659 (Simulation time: 0 hr 15 min 44 sec) 
Heartbeat CPU 0 instructions: 165000000 cycles: 472584656 heartbeat IPC: 0.301661 cumulative IPC: 0.347336 (Simulation time: 0 hr 15 min 51 sec) 
Heartbeat CPU 0 instructions: 166000002 cycles: 475870933 heartbeat IPC: 0.304296 cumulative IPC: 0.347038 (Simulation time: 0 hr 15 min 57 sec) 
Heartbeat CPU 0 instructions: 167000001 cycles: 479508951 heartbeat IPC: 0.274875 cumulative IPC: 0.34649 (Simulation time: 0 hr 16 min 4 sec) 
Heartbeat CPU 0 instructions: 168000001 cycles: 483231504 heartbeat IPC: 0.268633 cumulative IPC: 0.34589 (Simulation time: 0 hr 16 min 11 sec) 
Heartbeat CPU 0 instructions: 169000000 cycles: 486696995 heartbeat IPC: 0.288559 cumulative IPC: 0.345481 (Simulation time: 0 hr 16 min 19 sec) 
Heartbeat CPU 0 instructions: 170000001 cycles: 490403946 heartbeat IPC: 0.269764 cumulative IPC: 0.344909 (Simulation time: 0 hr 16 min 26 sec) 
Heartbeat CPU 0 instructions: 171000000 cycles: 493864526 heartbeat IPC: 0.288969 cumulative IPC: 0.344516 (Simulation time: 0 hr 16 min 32 sec) 
Heartbeat CPU 0 instructions: 172000000 cycles: 497543806 heartbeat IPC: 0.271792 cumulative IPC: 0.343978 (Simulation time: 0 hr 16 min 39 sec) 
Heartbeat CPU 0 instructions: 173000002 cycles: 500912778 heartbeat IPC: 0.296827 cumulative IPC: 0.343661 (Simulation time: 0 hr 16 min 46 sec) 
Heartbeat CPU 0 instructions: 174000001 cycles: 504447465 heartbeat IPC: 0.28291 cumulative IPC: 0.343235 (Simulation time: 0 hr 16 min 53 sec) 
Heartbeat CPU 0 instructions: 175000001 cycles: 508069970 heartbeat IPC: 0.276052 cumulative IPC: 0.342755 (Simulation time: 0 hr 17 min 0 sec) 
Heartbeat CPU 0 instructions: 176000000 cycles: 511412348 heartbeat IPC: 0.299188 cumulative IPC: 0.34247 (Simulation time: 0 hr 17 min 7 sec) 
Heartbeat CPU 0 instructions: 177000001 cycles: 514806571 heartbeat IPC: 0.294619 cumulative IPC: 0.342154 (Simulation time: 0 hr 17 min 14 sec) 
Heartbeat CPU 0 instructions: 178000001 cycles: 518383779 heartbeat IPC: 0.279548 cumulative IPC: 0.341722 (Simulation time: 0 hr 17 min 21 sec) 
Heartbeat CPU 0 instructions: 179000000 cycles: 521862098 heartbeat IPC: 0.287495 cumulative IPC: 0.34136 (Simulation time: 0 hr 17 min 28 sec) 
Heartbeat CPU 0 instructions: 180000003 cycles: 525436533 heartbeat IPC: 0.279765 cumulative IPC: 0.340941 (Simulation time: 0 hr 17 min 35 sec) 
Heartbeat CPU 0 instructions: 181000001 cycles: 529020005 heartbeat IPC: 0.279058 cumulative IPC: 0.340521 (Simulation time: 0 hr 17 min 42 sec) 
Heartbeat CPU 0 instructions: 182000003 cycles: 532559225 heartbeat IPC: 0.282549 cumulative IPC: 0.340136 (Simulation time: 0 hr 17 min 49 sec) 
Heartbeat CPU 0 instructions: 183000002 cycles: 536201272 heartbeat IPC: 0.274571 cumulative IPC: 0.33969 (Simulation time: 0 hr 17 min 57 sec) 
Heartbeat CPU 0 instructions: 184000002 cycles: 539629769 heartbeat IPC: 0.291673 cumulative IPC: 0.339385 (Simulation time: 0 hr 18 min 5 sec) 
Heartbeat CPU 0 instructions: 185000001 cycles: 543581942 heartbeat IPC: 0.253025 cumulative IPC: 0.338757 (Simulation time: 0 hr 18 min 12 sec) 
Heartbeat CPU 0 instructions: 186000003 cycles: 547002757 heartbeat IPC: 0.292329 cumulative IPC: 0.338466 (Simulation time: 0 hr 18 min 19 sec) 
Heartbeat CPU 0 instructions: 187000000 cycles: 550565614 heartbeat IPC: 0.280673 cumulative IPC: 0.338092 (Simulation time: 0 hr 18 min 27 sec) 
Heartbeat CPU 0 instructions: 188000002 cycles: 554241526 heartbeat IPC: 0.272042 cumulative IPC: 0.337653 (Simulation time: 0 hr 18 min 34 sec) 
Heartbeat CPU 0 instructions: 189000002 cycles: 557653079 heartbeat IPC: 0.293122 cumulative IPC: 0.337381 (Simulation time: 0 hr 18 min 41 sec) 
Heartbeat CPU 0 instructions: 190000002 cycles: 561222822 heartbeat IPC: 0.280132 cumulative IPC: 0.337016 (Simulation time: 0 hr 18 min 49 sec) 
Heartbeat CPU 0 instructions: 191000001 cycles: 564818410 heartbeat IPC: 0.278118 cumulative IPC: 0.336641 (Simulation time: 0 hr 18 min 57 sec) 
Heartbeat CPU 0 instructions: 192000001 cycles: 568272642 heartbeat IPC: 0.2895 cumulative IPC: 0.336354 (Simulation time: 0 hr 19 min 4 sec) 
Heartbeat CPU 0 instructions: 193000001 cycles: 571987326 heartbeat IPC: 0.269202 cumulative IPC: 0.335918 (Simulation time: 0 hr 19 min 13 sec) 
Heartbeat CPU 0 instructions: 194000000 cycles: 575549937 heartbeat IPC: 0.280693 cumulative IPC: 0.335576 (Simulation time: 0 hr 19 min 21 sec) 
Heartbeat CPU 0 instructions: 195000000 cycles: 579468433 heartbeat IPC: 0.2552 cumulative IPC: 0.335032 (Simulation time: 0 hr 19 min 29 sec) 
Heartbeat CPU 0 instructions: 196000002 cycles: 582967524 heartbeat IPC: 0.285789 cumulative IPC: 0.334736 (Simulation time: 0 hr 19 min 37 sec) 
Heartbeat CPU 0 instructions: 197000001 cycles: 586785061 heartbeat IPC: 0.261949 cumulative IPC: 0.334262 (Simulation time: 0 hr 19 min 46 sec) 
Heartbeat CPU 0 instructions: 198000000 cycles: 590336439 heartbeat IPC: 0.281581 cumulative IPC: 0.333945 (Simulation time: 0 hr 19 min 54 sec) 
Heartbeat CPU 0 instructions: 199000000 cycles: 594099472 heartbeat IPC: 0.265743 cumulative IPC: 0.333513 (Simulation time: 0 hr 20 min 1 sec) 
Heartbeat CPU 0 instructions: 200000001 cycles: 597720442 heartbeat IPC: 0.276169 cumulative IPC: 0.333165 (Simulation time: 0 hr 20 min 8 sec) 
Heartbeat CPU 0 instructions: 201000003 cycles: 601256029 heartbeat IPC: 0.282839 cumulative IPC: 0.332869 (Simulation time: 0 hr 20 min 15 sec) 
Heartbeat CPU 0 instructions: 202000003 cycles: 604838020 heartbeat IPC: 0.279174 cumulative IPC: 0.332551 (Simulation time: 0 hr 20 min 22 sec) 
Heartbeat CPU 0 instructions: 203000002 cycles: 608433212 heartbeat IPC: 0.278149 cumulative IPC: 0.332229 (Simulation time: 0 hr 20 min 28 sec) 
Heartbeat CPU 0 instructions: 204000000 cycles: 612029085 heartbeat IPC: 0.278096 cumulative IPC: 0.331911 (Simulation time: 0 hr 20 min 35 sec) 
Heartbeat CPU 0 instructions: 205000001 cycles: 615568170 heartbeat IPC: 0.282559 cumulative IPC: 0.331627 (Simulation time: 0 hr 20 min 42 sec) 
Heartbeat CPU 0 instructions: 206000000 cycles: 619256348 heartbeat IPC: 0.271136 cumulative IPC: 0.331266 (Simulation time: 0 hr 20 min 49 sec) 
Heartbeat CPU 0 instructions: 207000001 cycles: 623018422 heartbeat IPC: 0.265811 cumulative IPC: 0.330871 (Simulation time: 0 hr 20 min 56 sec) 
Heartbeat CPU 0 instructions: 208000003 cycles: 626564924 heartbeat IPC: 0.281969 cumulative IPC: 0.330594 (Simulation time: 0 hr 21 min 2 sec) 
Heartbeat CPU 0 instructions: 209000000 cycles: 630090624 heartbeat IPC: 0.283631 cumulative IPC: 0.330331 (Simulation time: 0 hr 21 min 9 sec) 
Heartbeat CPU 0 instructions: 210000002 cycles: 633876009 heartbeat IPC: 0.264174 cumulative IPC: 0.329936 (Simulation time: 0 hr 21 min 16 sec) 
Heartbeat CPU 0 instructions: 211000003 cycles: 637429729 heartbeat IPC: 0.281396 cumulative IPC: 0.329665 (Simulation time: 0 hr 21 min 23 sec) 
Heartbeat CPU 0 instructions: 212000001 cycles: 640943000 heartbeat IPC: 0.284634 cumulative IPC: 0.329418 (Simulation time: 0 hr 21 min 30 sec) 
Heartbeat CPU 0 instructions: 213000003 cycles: 644500790 heartbeat IPC: 0.281074 cumulative IPC: 0.329151 (Simulation time: 0 hr 21 min 36 sec) 
Heartbeat CPU 0 instructions: 214000002 cycles: 647984346 heartbeat IPC: 0.287063 cumulative IPC: 0.328924 (Simulation time: 0 hr 21 min 43 sec) 
Heartbeat CPU 0 instructions: 215000000 cycles: 651710672 heartbeat IPC: 0.26836 cumulative IPC: 0.328578 (Simulation time: 0 hr 21 min 50 sec) 
Heartbeat CPU 0 instructions: 216000001 cycles: 654980794 heartbeat IPC: 0.305799 cumulative IPC: 0.328464 (Simulation time: 0 hr 21 min 56 sec) 
Heartbeat CPU 0 instructions: 217000001 cycles: 658428429 heartbeat IPC: 0.290054 cumulative IPC: 0.328263 (Simulation time: 0 hr 22 min 3 sec) 
Heartbeat CPU 0 instructions: 218000003 cycles: 661984529 heartbeat IPC: 0.281208 cumulative IPC: 0.32801 (Simulation time: 0 hr 22 min 10 sec) 
Heartbeat CPU 0 instructions: 219000000 cycles: 665474274 heartbeat IPC: 0.286553 cumulative IPC: 0.327792 (Simulation time: 0 hr 22 min 16 sec) 
Heartbeat CPU 0 instructions: 220000000 cycles: 668720996 heartbeat IPC: 0.308003 cumulative IPC: 0.327696 (Simulation time: 0 hr 22 min 23 sec) 
Heartbeat CPU 0 instructions: 221000001 cycles: 672148344 heartbeat IPC: 0.291771 cumulative IPC: 0.327513 (Simulation time: 0 hr 22 min 29 sec) 
Heartbeat CPU 0 instructions: 222000000 cycles: 675712367 heartbeat IPC: 0.280582 cumulative IPC: 0.327265 (Simulation time: 0 hr 22 min 36 sec) 
Heartbeat CPU 0 instructions: 223000000 cycles: 679045154 heartbeat IPC: 0.300049 cumulative IPC: 0.327132 (Simulation time: 0 hr 22 min 43 sec) 
Heartbeat CPU 0 instructions: 224000001 cycles: 682385950 heartbeat IPC: 0.29933 cumulative IPC: 0.326995 (Simulation time: 0 hr 22 min 49 sec) 
Heartbeat CPU 0 instructions: 225000000 cycles: 685919906 heartbeat IPC: 0.282969 cumulative IPC: 0.326768 (Simulation time: 0 hr 22 min 56 sec) 
Heartbeat CPU 0 instructions: 226000002 cycles: 689505540 heartbeat IPC: 0.278891 cumulative IPC: 0.326519 (Simulation time: 0 hr 23 min 3 sec) 
Heartbeat CPU 0 instructions: 227000002 cycles: 692879388 heartbeat IPC: 0.296397 cumulative IPC: 0.326372 (Simulation time: 0 hr 23 min 10 sec) 
Heartbeat CPU 0 instructions: 228000000 cycles: 696256898 heartbeat IPC: 0.296076 cumulative IPC: 0.326225 (Simulation time: 0 hr 23 min 17 sec) 
Heartbeat CPU 0 instructions: 229000003 cycles: 699825918 heartbeat IPC: 0.28019 cumulative IPC: 0.32599 (Simulation time: 0 hr 23 min 24 sec) 
Heartbeat CPU 0 instructions: 230000002 cycles: 703216670 heartbeat IPC: 0.29492 cumulative IPC: 0.325841 (Simulation time: 0 hr 23 min 30 sec) 
Heartbeat CPU 0 instructions: 231000000 cycles: 706586538 heartbeat IPC: 0.296747 cumulative IPC: 0.325702 (Simulation time: 0 hr 23 min 37 sec) 
Heartbeat CPU 0 instructions: 232000000 cycles: 710146627 heartbeat IPC: 0.280892 cumulative IPC: 0.325477 (Simulation time: 0 hr 23 min 44 sec) 
Heartbeat CPU 0 instructions: 233000000 cycles: 713700188 heartbeat IPC: 0.281408 cumulative IPC: 0.325257 (Simulation time: 0 hr 23 min 50 sec) 
Heartbeat CPU 0 instructions: 234000002 cycles: 717017810 heartbeat IPC: 0.301421 cumulative IPC: 0.325147 (Simulation time: 0 hr 23 min 57 sec) 
Heartbeat CPU 0 instructions: 235000001 cycles: 720479952 heartbeat IPC: 0.288838 cumulative IPC: 0.324972 (Simulation time: 0 hr 24 min 3 sec) 
Heartbeat CPU 0 instructions: 236000002 cycles: 724014096 heartbeat IPC: 0.282954 cumulative IPC: 0.324767 (Simulation time: 0 hr 24 min 10 sec) 
Heartbeat CPU 0 instructions: 237000001 cycles: 732000896 heartbeat IPC: 0.125206 cumulative IPC: 0.322589 (Simulation time: 0 hr 24 min 20 sec) 
Heartbeat CPU 0 instructions: 238000001 cycles: 735291400 heartbeat IPC: 0.303905 cumulative IPC: 0.322505 (Simulation time: 0 hr 24 min 26 sec) 
Heartbeat CPU 0 instructions: 239000003 cycles: 738609134 heartbeat IPC: 0.301411 cumulative IPC: 0.32241 (Simulation time: 0 hr 24 min 32 sec) 
Heartbeat CPU 0 instructions: 240000001 cycles: 742161266 heartbeat IPC: 0.281521 cumulative IPC: 0.322214 (Simulation time: 0 hr 24 min 39 sec) 
Heartbeat CPU 0 instructions: 241000000 cycles: 745346003 heartbeat IPC: 0.313997 cumulative IPC: 0.322179 (Simulation time: 0 hr 24 min 45 sec) 
Heartbeat CPU 0 instructions: 242000000 cycles: 748598653 heartbeat IPC: 0.307442 cumulative IPC: 0.322115 (Simulation time: 0 hr 24 min 51 sec) 
Heartbeat CPU 0 instructions: 243000001 cycles: 751818577 heartbeat IPC: 0.310567 cumulative IPC: 0.322066 (Simulation time: 0 hr 24 min 58 sec) 
Heartbeat CPU 0 instructions: 244000003 cycles: 755096175 heartbeat IPC: 0.305102 cumulative IPC: 0.321992 (Simulation time: 0 hr 25 min 4 sec) 
Heartbeat CPU 0 instructions: 245000002 cycles: 758673041 heartbeat IPC: 0.279574 cumulative IPC: 0.321792 (Simulation time: 0 hr 25 min 10 sec) 
Heartbeat CPU 0 instructions: 246000002 cycles: 761848683 heartbeat IPC: 0.314897 cumulative IPC: 0.321763 (Simulation time: 0 hr 25 min 17 sec) 
Heartbeat CPU 0 instructions: 247000002 cycles: 767998622 heartbeat IPC: 0.162603 cumulative IPC: 0.320488 (Simulation time: 0 hr 25 min 25 sec) 
Heartbeat CPU 0 instructions: 248000001 cycles: 771184007 heartbeat IPC: 0.313933 cumulative IPC: 0.320461 (Simulation time: 0 hr 25 min 31 sec) 
Heartbeat CPU 0 instructions: 249000002 cycles: 774572786 heartbeat IPC: 0.295092 cumulative IPC: 0.32035 (Simulation time: 0 hr 25 min 37 sec) 
Heartbeat CPU 0 instructions: 250000001 cycles: 777463294 heartbeat IPC: 0.34596 cumulative IPC: 0.320445 (Simulation time: 0 hr 25 min 43 sec) 
Heartbeat CPU 0 instructions: 251000001 cycles: 780772958 heartbeat IPC: 0.302145 cumulative IPC: 0.320367 (Simulation time: 0 hr 25 min 49 sec) 
Heartbeat CPU 0 instructions: 252000003 cycles: 783751824 heartbeat IPC: 0.335699 cumulative IPC: 0.320426 (Simulation time: 0 hr 25 min 55 sec) 
Heartbeat CPU 0 instructions: 253000000 cycles: 787005227 heartbeat IPC: 0.30737 cumulative IPC: 0.320372 (Simulation time: 0 hr 26 min 1 sec) 
Heartbeat CPU 0 instructions: 254000001 cycles: 790268722 heartbeat IPC: 0.30642 cumulative IPC: 0.320314 (Simulation time: 0 hr 26 min 7 sec) 
Heartbeat CPU 0 instructions: 255000001 cycles: 793336615 heartbeat IPC: 0.325957 cumulative IPC: 0.320336 (Simulation time: 0 hr 26 min 14 sec) 
Heartbeat CPU 0 instructions: 256000002 cycles: 796326880 heartbeat IPC: 0.334419 cumulative IPC: 0.320389 (Simulation time: 0 hr 26 min 19 sec) 
Heartbeat CPU 0 instructions: 257000002 cycles: 799692591 heartbeat IPC: 0.297114 cumulative IPC: 0.320291 (Simulation time: 0 hr 26 min 26 sec) 
Heartbeat CPU 0 instructions: 258000000 cycles: 802975248 heartbeat IPC: 0.304631 cumulative IPC: 0.320227 (Simulation time: 0 hr 26 min 32 sec) 
Heartbeat CPU 0 instructions: 259000002 cycles: 806292339 heartbeat IPC: 0.30147 cumulative IPC: 0.32015 (Simulation time: 0 hr 26 min 38 sec) 
Heartbeat CPU 0 instructions: 260000000 cycles: 809307844 heartbeat IPC: 0.331619 cumulative IPC: 0.320192 (Simulation time: 0 hr 26 min 44 sec) 
Heartbeat CPU 0 instructions: 261000003 cycles: 812503712 heartbeat IPC: 0.312905 cumulative IPC: 0.320164 (Simulation time: 0 hr 26 min 50 sec) 
Heartbeat CPU 0 instructions: 262000001 cycles: 815820242 heartbeat IPC: 0.301519 cumulative IPC: 0.320088 (Simulation time: 0 hr 26 min 56 sec) 
Heartbeat CPU 0 instructions: 263000001 cycles: 819149391 heartbeat IPC: 0.300377 cumulative IPC: 0.320008 (Simulation time: 0 hr 27 min 3 sec) 
Heartbeat CPU 0 instructions: 264000000 cycles: 822481043 heartbeat IPC: 0.300151 cumulative IPC: 0.319927 (Simulation time: 0 hr 27 min 9 sec) 
Heartbeat CPU 0 instructions: 265000002 cycles: 825793019 heartbeat IPC: 0.301935 cumulative IPC: 0.319855 (Simulation time: 0 hr 27 min 15 sec) 
Heartbeat CPU 0 instructions: 266000000 cycles: 828895163 heartbeat IPC: 0.322357 cumulative IPC: 0.319864 (Simulation time: 0 hr 27 min 21 sec) 
Heartbeat CPU 0 instructions: 267000000 cycles: 832055609 heartbeat IPC: 0.316411 cumulative IPC: 0.319851 (Simulation time: 0 hr 27 min 28 sec) 
Heartbeat CPU 0 instructions: 268000002 cycles: 835360047 heartbeat IPC: 0.302624 cumulative IPC: 0.319783 (Simulation time: 0 hr 27 min 34 sec) 
Heartbeat CPU 0 instructions: 269000002 cycles: 838714387 heartbeat IPC: 0.298121 cumulative IPC: 0.319696 (Simulation time: 0 hr 27 min 40 sec) 
Heartbeat CPU 0 instructions: 270000000 cycles: 841864489 heartbeat IPC: 0.317449 cumulative IPC: 0.319688 (Simulation time: 0 hr 27 min 47 sec) 
Heartbeat CPU 0 instructions: 271000002 cycles: 845015907 heartbeat IPC: 0.317318 cumulative IPC: 0.319679 (Simulation time: 0 hr 27 min 53 sec) 
Heartbeat CPU 0 instructions: 272000003 cycles: 848378117 heartbeat IPC: 0.297424 cumulative IPC: 0.319591 (Simulation time: 0 hr 27 min 59 sec) 
Heartbeat CPU 0 instructions: 273000001 cycles: 851743605 heartbeat IPC: 0.297133 cumulative IPC: 0.319502 (Simulation time: 0 hr 28 min 5 sec) 
Heartbeat CPU 0 instructions: 274000001 cycles: 854664107 heartbeat IPC: 0.342407 cumulative IPC: 0.31958 (Simulation time: 0 hr 28 min 11 sec) 
Heartbeat CPU 0 instructions: 275000000 cycles: 857977583 heartbeat IPC: 0.301798 cumulative IPC: 0.319512 (Simulation time: 0 hr 28 min 17 sec) 
Heartbeat CPU 0 instructions: 276000000 cycles: 861252180 heartbeat IPC: 0.305381 cumulative IPC: 0.319458 (Simulation time: 0 hr 28 min 23 sec) 
Heartbeat CPU 0 instructions: 277000002 cycles: 864295580 heartbeat IPC: 0.328581 cumulative IPC: 0.31949 (Simulation time: 0 hr 28 min 29 sec) 
Heartbeat CPU 0 instructions: 278000002 cycles: 867623954 heartbeat IPC: 0.300447 cumulative IPC: 0.319417 (Simulation time: 0 hr 28 min 36 sec) 
Heartbeat CPU 0 instructions: 279000000 cycles: 870974434 heartbeat IPC: 0.298464 cumulative IPC: 0.319336 (Simulation time: 0 hr 28 min 42 sec) 
Heartbeat CPU 0 instructions: 280000000 cycles: 873920347 heartbeat IPC: 0.339453 cumulative IPC: 0.319404 (Simulation time: 0 hr 28 min 48 sec) 
Heartbeat CPU 0 instructions: 281000000 cycles: 877170010 heartbeat IPC: 0.307724 cumulative IPC: 0.319361 (Simulation time: 0 hr 28 min 54 sec) 
Heartbeat CPU 0 instructions: 282000000 cycles: 880450057 heartbeat IPC: 0.304874 cumulative IPC: 0.319307 (Simulation time: 0 hr 29 min 0 sec) 
Heartbeat CPU 0 instructions: 283000003 cycles: 883756721 heartbeat IPC: 0.30242 cumulative IPC: 0.319244 (Simulation time: 0 hr 29 min 6 sec) 
Heartbeat CPU 0 instructions: 284000002 cycles: 887120587 heartbeat IPC: 0.297277 cumulative IPC: 0.31916 (Simulation time: 0 hr 29 min 13 sec) 
Heartbeat CPU 0 instructions: 285000002 cycles: 890086025 heartbeat IPC: 0.337218 cumulative IPC: 0.319221 (Simulation time: 0 hr 29 min 19 sec) 
Heartbeat CPU 0 instructions: 286000000 cycles: 893365763 heartbeat IPC: 0.304902 cumulative IPC: 0.319168 (Simulation time: 0 hr 29 min 25 sec) 
Heartbeat CPU 0 instructions: 287000000 cycles: 896728633 heartbeat IPC: 0.297365 cumulative IPC: 0.319086 (Simulation time: 0 hr 29 min 31 sec) 
Heartbeat CPU 0 instructions: 288000001 cycles: 899893754 heartbeat IPC: 0.315944 cumulative IPC: 0.319075 (Simulation time: 0 hr 29 min 37 sec) 
Heartbeat CPU 0 instructions: 289000000 cycles: 902997214 heartbeat IPC: 0.322221 cumulative IPC: 0.319086 (Simulation time: 0 hr 29 min 43 sec) 
Heartbeat CPU 0 instructions: 290000000 cycles: 906350458 heartbeat IPC: 0.298219 cumulative IPC: 0.319009 (Simulation time: 0 hr 29 min 49 sec) 
Heartbeat CPU 0 instructions: 291000000 cycles: 909457851 heartbeat IPC: 0.321813 cumulative IPC: 0.319018 (Simulation time: 0 hr 29 min 55 sec) 
Heartbeat CPU 0 instructions: 292000001 cycles: 912665883 heartbeat IPC: 0.311718 cumulative IPC: 0.318993 (Simulation time: 0 hr 30 min 1 sec) 
Heartbeat CPU 0 instructions: 293000003 cycles: 916071589 heartbeat IPC: 0.293625 cumulative IPC: 0.318898 (Simulation time: 0 hr 30 min 7 sec) 
Heartbeat CPU 0 instructions: 294000001 cycles: 919112760 heartbeat IPC: 0.32882 cumulative IPC: 0.318931 (Simulation time: 0 hr 30 min 13 sec) 
Heartbeat CPU 0 instructions: 295000000 cycles: 922380216 heartbeat IPC: 0.306048 cumulative IPC: 0.318885 (Simulation time: 0 hr 30 min 19 sec) 
Heartbeat CPU 0 instructions: 296000000 cycles: 925699335 heartbeat IPC: 0.301285 cumulative IPC: 0.318822 (Simulation time: 0 hr 30 min 25 sec) 
Heartbeat CPU 0 instructions: 297000000 cycles: 928667209 heartbeat IPC: 0.336942 cumulative IPC: 0.31888 (Simulation time: 0 hr 30 min 31 sec) 
Heartbeat CPU 0 instructions: 298000000 cycles: 932034511 heartbeat IPC: 0.296974 cumulative IPC: 0.318801 (Simulation time: 0 hr 30 min 37 sec) 
Heartbeat CPU 0 instructions: 299000001 cycles: 935138403 heartbeat IPC: 0.322176 cumulative IPC: 0.318812 (Simulation time: 0 hr 30 min 43 sec) 
Heartbeat CPU 0 instructions: 300000002 cycles: 938353945 heartbeat IPC: 0.31099 cumulative IPC: 0.318785 (Simulation time: 0 hr 30 min 49 sec) 
Heartbeat CPU 0 instructions: 301000001 cycles: 941705845 heartbeat IPC: 0.298338 cumulative IPC: 0.318713 (Simulation time: 0 hr 30 min 56 sec) 
Heartbeat CPU 0 instructions: 302000002 cycles: 944907854 heartbeat IPC: 0.312304 cumulative IPC: 0.318691 (Simulation time: 0 hr 31 min 2 sec) 
Heartbeat CPU 0 instructions: 303000001 cycles: 947975196 heartbeat IPC: 0.326015 cumulative IPC: 0.318715 (Simulation time: 0 hr 31 min 8 sec) 
Heartbeat CPU 0 instructions: 304000001 cycles: 951441655 heartbeat IPC: 0.288479 cumulative IPC: 0.318604 (Simulation time: 0 hr 31 min 14 sec) 
Heartbeat CPU 0 instructions: 305000000 cycles: 954681409 heartbeat IPC: 0.308665 cumulative IPC: 0.318571 (Simulation time: 0 hr 31 min 20 sec) 
Heartbeat CPU 0 instructions: 306000002 cycles: 957706927 heartbeat IPC: 0.330523 cumulative IPC: 0.318608 (Simulation time: 0 hr 31 min 26 sec) 
Heartbeat CPU 0 instructions: 307000000 cycles: 961079419 heartbeat IPC: 0.296516 cumulative IPC: 0.318531 (Simulation time: 0 hr 31 min 33 sec) 
Heartbeat CPU 0 instructions: 308000000 cycles: 964362795 heartbeat IPC: 0.304565 cumulative IPC: 0.318483 (Simulation time: 0 hr 31 min 40 sec) 
Heartbeat CPU 0 instructions: 309000000 cycles: 967418520 heartbeat IPC: 0.327255 cumulative IPC: 0.318511 (Simulation time: 0 hr 31 min 46 sec) 
Heartbeat CPU 0 instructions: 310000000 cycles: 970801948 heartbeat IPC: 0.295558 cumulative IPC: 0.318431 (Simulation time: 0 hr 31 min 52 sec) 
Heartbeat CPU 0 instructions: 311000002 cycles: 974201602 heartbeat IPC: 0.294148 cumulative IPC: 0.318346 (Simulation time: 0 hr 31 min 59 sec) 
Heartbeat CPU 0 instructions: 312000000 cycles: 977147445 heartbeat IPC: 0.339461 cumulative IPC: 0.31841 (Simulation time: 0 hr 32 min 4 sec) 
Heartbeat CPU 0 instructions: 313000000 cycles: 980483821 heartbeat IPC: 0.299726 cumulative IPC: 0.318346 (Simulation time: 0 hr 32 min 11 sec) 
Heartbeat CPU 0 instructions: 314000000 cycles: 983558819 heartbeat IPC: 0.325203 cumulative IPC: 0.318368 (Simulation time: 0 hr 32 min 17 sec) 
Heartbeat CPU 0 instructions: 315000002 cycles: 986812661 heartbeat IPC: 0.30733 cumulative IPC: 0.318331 (Simulation time: 0 hr 32 min 23 sec) 
Heartbeat CPU 0 instructions: 316000002 cycles: 990177073 heartbeat IPC: 0.297229 cumulative IPC: 0.31826 (Simulation time: 0 hr 32 min 29 sec) 
Heartbeat CPU 0 instructions: 317000002 cycles: 993188788 heartbeat IPC: 0.332037 cumulative IPC: 0.318301 (Simulation time: 0 hr 32 min 36 sec) 
Heartbeat CPU 0 instructions: 318000001 cycles: 996477119 heartbeat IPC: 0.304105 cumulative IPC: 0.318255 (Simulation time: 0 hr 32 min 42 sec) 
Heartbeat CPU 0 instructions: 319000000 cycles: 999863711 heartbeat IPC: 0.295282 cumulative IPC: 0.318177 (Simulation time: 0 hr 32 min 49 sec) 
Heartbeat CPU 0 instructions: 320000001 cycles: 1003159410 heartbeat IPC: 0.303426 cumulative IPC: 0.318128 (Simulation time: 0 hr 32 min 55 sec) 
Heartbeat CPU 0 instructions: 321000000 cycles: 1006176731 heartbeat IPC: 0.331419 cumulative IPC: 0.318168 (Simulation time: 0 hr 33 min 1 sec) 
Heartbeat CPU 0 instructions: 322000001 cycles: 1009526018 heartbeat IPC: 0.298571 cumulative IPC: 0.318103 (Simulation time: 0 hr 33 min 8 sec) 
Heartbeat CPU 0 instructions: 323000002 cycles: 1012844318 heartbeat IPC: 0.301359 cumulative IPC: 0.318048 (Simulation time: 0 hr 33 min 14 sec) 
Heartbeat CPU 0 instructions: 324000002 cycles: 1016047776 heartbeat IPC: 0.312163 cumulative IPC: 0.31803 (Simulation time: 0 hr 33 min 20 sec) 
Heartbeat CPU 0 instructions: 325000000 cycles: 1019213131 heartbeat IPC: 0.31592 cumulative IPC: 0.318023 (Simulation time: 0 hr 33 min 26 sec) 
Heartbeat CPU 0 instructions: 326000001 cycles: 1022543983 heartbeat IPC: 0.300224 cumulative IPC: 0.317965 (Simulation time: 0 hr 33 min 32 sec) 
Heartbeat CPU 0 instructions: 327000002 cycles: 1025746511 heartbeat IPC: 0.312254 cumulative IPC: 0.317947 (Simulation time: 0 hr 33 min 39 sec) 
Heartbeat CPU 0 instructions: 328000001 cycles: 1028753940 heartbeat IPC: 0.33251 cumulative IPC: 0.31799 (Simulation time: 0 hr 33 min 45 sec) 
Heartbeat CPU 0 instructions: 329000000 cycles: 1032056978 heartbeat IPC: 0.302751 cumulative IPC: 0.317941 (Simulation time: 0 hr 33 min 51 sec) 
Heartbeat CPU 0 instructions: 330000000 cycles: 1035317484 heartbeat IPC: 0.306701 cumulative IPC: 0.317906 (Simulation time: 0 hr 33 min 58 sec) 
Heartbeat CPU 0 instructions: 331000000 cycles: 1038647922 heartbeat IPC: 0.300261 cumulative IPC: 0.317849 (Simulation time: 0 hr 34 min 4 sec) 
Heartbeat CPU 0 instructions: 332000000 cycles: 1041920464 heartbeat IPC: 0.305573 cumulative IPC: 0.31781 (Simulation time: 0 hr 34 min 10 sec) 
Heartbeat CPU 0 instructions: 333000000 cycles: 1045100530 heartbeat IPC: 0.314459 cumulative IPC: 0.3178 (Simulation time: 0 hr 34 min 17 sec) 
Heartbeat CPU 0 instructions: 334000001 cycles: 1048258579 heartbeat IPC: 0.316652 cumulative IPC: 0.317797 (Simulation time: 0 hr 34 min 23 sec) 
Heartbeat CPU 0 instructions: 335000000 cycles: 1051635856 heartbeat IPC: 0.296096 cumulative IPC: 0.317727 (Simulation time: 0 hr 34 min 29 sec) 
Heartbeat CPU 0 instructions: 336000000 cycles: 1054851034 heartbeat IPC: 0.311025 cumulative IPC: 0.317707 (Simulation time: 0 hr 34 min 36 sec) 
Heartbeat CPU 0 instructions: 337000003 cycles: 1058109388 heartbeat IPC: 0.306904 cumulative IPC: 0.317673 (Simulation time: 0 hr 34 min 42 sec) 
Heartbeat CPU 0 instructions: 338000002 cycles: 1061417526 heartbeat IPC: 0.302285 cumulative IPC: 0.317625 (Simulation time: 0 hr 34 min 49 sec) 
Heartbeat CPU 0 instructions: 339000003 cycles: 1064712003 heartbeat IPC: 0.303539 cumulative IPC: 0.317582 (Simulation time: 0 hr 34 min 55 sec) 
Heartbeat CPU 0 instructions: 340000003 cycles: 1068003280 heartbeat IPC: 0.303833 cumulative IPC: 0.317539 (Simulation time: 0 hr 35 min 2 sec) 
Heartbeat CPU 0 instructions: 341000000 cycles: 1071320240 heartbeat IPC: 0.30148 cumulative IPC: 0.31749 (Simulation time: 0 hr 35 min 9 sec) 
Heartbeat CPU 0 instructions: 342000001 cycles: 1074668194 heartbeat IPC: 0.29869 cumulative IPC: 0.317431 (Simulation time: 0 hr 35 min 15 sec) 
Heartbeat CPU 0 instructions: 343000000 cycles: 1077994340 heartbeat IPC: 0.300648 cumulative IPC: 0.317379 (Simulation time: 0 hr 35 min 21 sec) 
Heartbeat CPU 0 instructions: 344000003 cycles: 1081304250 heartbeat IPC: 0.302124 cumulative IPC: 0.317332 (Simulation time: 0 hr 35 min 28 sec) 
Heartbeat CPU 0 instructions: 345000001 cycles: 1084582272 heartbeat IPC: 0.305061 cumulative IPC: 0.317295 (Simulation time: 0 hr 35 min 35 sec) 
Heartbeat CPU 0 instructions: 346000000 cycles: 1087911303 heartbeat IPC: 0.300387 cumulative IPC: 0.317244 (Simulation time: 0 hr 35 min 41 sec) 
Heartbeat CPU 0 instructions: 347000000 cycles: 1091187149 heartbeat IPC: 0.305265 cumulative IPC: 0.317208 (Simulation time: 0 hr 35 min 47 sec) 
Heartbeat CPU 0 instructions: 348000000 cycles: 1094304237 heartbeat IPC: 0.320812 cumulative IPC: 0.317218 (Simulation time: 0 hr 35 min 54 sec) 
Heartbeat CPU 0 instructions: 349000002 cycles: 1097587638 heartbeat IPC: 0.304563 cumulative IPC: 0.31718 (Simulation time: 0 hr 36 min 0 sec) 
Heartbeat CPU 0 instructions: 350000000 cycles: 1100901286 heartbeat IPC: 0.301782 cumulative IPC: 0.317134 (Simulation time: 0 hr 36 min 6 sec) 
Heartbeat CPU 0 instructions: 351000002 cycles: 1104098680 heartbeat IPC: 0.312755 cumulative IPC: 0.317121 (Simulation time: 0 hr 36 min 13 sec) 
Heartbeat CPU 0 instructions: 352000000 cycles: 1107460526 heartbeat IPC: 0.297455 cumulative IPC: 0.317061 (Simulation time: 0 hr 36 min 19 sec) 
Heartbeat CPU 0 instructions: 353000002 cycles: 1110784078 heartbeat IPC: 0.300884 cumulative IPC: 0.317013 (Simulation time: 0 hr 36 min 25 sec) 
Heartbeat CPU 0 instructions: 354000000 cycles: 1114012012 heartbeat IPC: 0.309795 cumulative IPC: 0.316992 (Simulation time: 0 hr 36 min 31 sec) 
Heartbeat CPU 0 instructions: 355000000 cycles: 1117156431 heartbeat IPC: 0.318024 cumulative IPC: 0.316995 (Simulation time: 0 hr 36 min 37 sec) 
Heartbeat CPU 0 instructions: 356000002 cycles: 1120582538 heartbeat IPC: 0.291877 cumulative IPC: 0.316918 (Simulation time: 0 hr 36 min 44 sec) 
Heartbeat CPU 0 instructions: 357000000 cycles: 1123644339 heartbeat IPC: 0.326605 cumulative IPC: 0.316944 (Simulation time: 0 hr 36 min 50 sec) 
Heartbeat CPU 0 instructions: 358000001 cycles: 1126783438 heartbeat IPC: 0.318563 cumulative IPC: 0.316949 (Simulation time: 0 hr 36 min 56 sec) 
Heartbeat CPU 0 instructions: 359000000 cycles: 1130047364 heartbeat IPC: 0.306379 cumulative IPC: 0.316918 (Simulation time: 0 hr 37 min 2 sec) 
Heartbeat CPU 0 instructions: 360000001 cycles: 1133372431 heartbeat IPC: 0.300746 cumulative IPC: 0.316871 (Simulation time: 0 hr 37 min 8 sec) 
Heartbeat CPU 0 instructions: 361000001 cycles: 1136707275 heartbeat IPC: 0.299864 cumulative IPC: 0.316821 (Simulation time: 0 hr 37 min 15 sec) 
Heartbeat CPU 0 instructions: 362000001 cycles: 1140002466 heartbeat IPC: 0.303473 cumulative IPC: 0.316782 (Simulation time: 0 hr 37 min 21 sec) 
Heartbeat CPU 0 instructions: 363000000 cycles: 1143010060 heartbeat IPC: 0.332491 cumulative IPC: 0.316824 (Simulation time: 0 hr 37 min 27 sec) 
Heartbeat CPU 0 instructions: 364000003 cycles: 1146310097 heartbeat IPC: 0.303028 cumulative IPC: 0.316784 (Simulation time: 0 hr 37 min 33 sec) 
Heartbeat CPU 0 instructions: 365000001 cycles: 1149504188 heartbeat IPC: 0.313077 cumulative IPC: 0.316774 (Simulation time: 0 hr 37 min 39 sec) 
Heartbeat CPU 0 instructions: 366000000 cycles: 1152744685 heartbeat IPC: 0.308594 cumulative IPC: 0.316751 (Simulation time: 0 hr 37 min 45 sec) 
Heartbeat CPU 0 instructions: 367000000 cycles: 1156050321 heartbeat IPC: 0.302514 cumulative IPC: 0.31671 (Simulation time: 0 hr 37 min 51 sec) 
Heartbeat CPU 0 instructions: 368000000 cycles: 1159486983 heartbeat IPC: 0.29098 cumulative IPC: 0.316634 (Simulation time: 0 hr 37 min 58 sec) 
Heartbeat CPU 0 instructions: 369000003 cycles: 1162961954 heartbeat IPC: 0.287773 cumulative IPC: 0.316547 (Simulation time: 0 hr 38 min 4 sec) 
Heartbeat CPU 0 instructions: 370000002 cycles: 1166400113 heartbeat IPC: 0.290853 cumulative IPC: 0.316472 (Simulation time: 0 hr 38 min 11 sec) 
Heartbeat CPU 0 instructions: 371000000 cycles: 1169621516 heartbeat IPC: 0.310423 cumulative IPC: 0.316455 (Simulation time: 0 hr 38 min 17 sec) 
Heartbeat CPU 0 instructions: 372000003 cycles: 1173193577 heartbeat IPC: 0.279951 cumulative IPC: 0.316344 (Simulation time: 0 hr 38 min 24 sec) 
Heartbeat CPU 0 instructions: 373000003 cycles: 1176517303 heartbeat IPC: 0.300867 cumulative IPC: 0.3163 (Simulation time: 0 hr 38 min 31 sec) 
Heartbeat CPU 0 instructions: 374000000 cycles: 1180017670 heartbeat IPC: 0.285683 cumulative IPC: 0.316209 (Simulation time: 0 hr 38 min 38 sec) 
Heartbeat CPU 0 instructions: 375000001 cycles: 1183492634 heartbeat IPC: 0.287773 cumulative IPC: 0.316126 (Simulation time: 0 hr 38 min 44 sec) 
Heartbeat CPU 0 instructions: 376000000 cycles: 1186765965 heartbeat IPC: 0.305499 cumulative IPC: 0.316096 (Simulation time: 0 hr 38 min 51 sec) 
Heartbeat CPU 0 instructions: 377000000 cycles: 1190376811 heartbeat IPC: 0.276943 cumulative IPC: 0.315978 (Simulation time: 0 hr 38 min 57 sec) 
Heartbeat CPU 0 instructions: 378000001 cycles: 1193698530 heartbeat IPC: 0.301049 cumulative IPC: 0.315936 (Simulation time: 0 hr 39 min 4 sec) 
Heartbeat CPU 0 instructions: 379000000 cycles: 1197314823 heartbeat IPC: 0.276526 cumulative IPC: 0.315817 (Simulation time: 0 hr 39 min 10 sec) 
Heartbeat CPU 0 instructions: 380000003 cycles: 1200554978 heartbeat IPC: 0.308628 cumulative IPC: 0.315798 (Simulation time: 0 hr 39 min 17 sec) 
Heartbeat CPU 0 instructions: 381000001 cycles: 1204053650 heartbeat IPC: 0.285822 cumulative IPC: 0.31571 (Simulation time: 0 hr 39 min 23 sec) 
Heartbeat CPU 0 instructions: 382000003 cycles: 1207543725 heartbeat IPC: 0.286527 cumulative IPC: 0.315626 (Simulation time: 0 hr 39 min 30 sec) 
Heartbeat CPU 0 instructions: 383000000 cycles: 1210803205 heartbeat IPC: 0.306796 cumulative IPC: 0.315602 (Simulation time: 0 hr 39 min 36 sec) 
Heartbeat CPU 0 instructions: 384000000 cycles: 1214447382 heartbeat IPC: 0.27441 cumulative IPC: 0.315479 (Simulation time: 0 hr 39 min 43 sec) 
Heartbeat CPU 0 instructions: 385000000 cycles: 1217696515 heartbeat IPC: 0.307774 cumulative IPC: 0.315458 (Simulation time: 0 hr 39 min 49 sec) 
Heartbeat CPU 0 instructions: 386000000 cycles: 1221265437 heartbeat IPC: 0.280197 cumulative IPC: 0.315355 (Simulation time: 0 hr 39 min 56 sec) 
Heartbeat CPU 0 instructions: 387000000 cycles: 1224507003 heartbeat IPC: 0.308493 cumulative IPC: 0.315337 (Simulation time: 0 hr 40 min 2 sec) 
Heartbeat CPU 0 instructions: 388000000 cycles: 1228152802 heartbeat IPC: 0.274288 cumulative IPC: 0.315215 (Simulation time: 0 hr 40 min 9 sec) 
Heartbeat CPU 0 instructions: 389000002 cycles: 1231345832 heartbeat IPC: 0.313183 cumulative IPC: 0.31521 (Simulation time: 0 hr 40 min 15 sec) 
Heartbeat CPU 0 instructions: 390000002 cycles: 1234956921 heartbeat IPC: 0.276925 cumulative IPC: 0.315098 (Simulation time: 0 hr 40 min 22 sec) 
Heartbeat CPU 0 instructions: 391000001 cycles: 1238305115 heartbeat IPC: 0.298668 cumulative IPC: 0.315053 (Simulation time: 0 hr 40 min 28 sec) 
Heartbeat CPU 0 instructions: 392000000 cycles: 1241989110 heartbeat IPC: 0.271444 cumulative IPC: 0.314924 (Simulation time: 0 hr 40 min 35 sec) 
Heartbeat CPU 0 instructions: 393000001 cycles: 1245651508 heartbeat IPC: 0.273045 cumulative IPC: 0.314801 (Simulation time: 0 hr 40 min 42 sec) 
Heartbeat CPU 0 instructions: 394000000 cycles: 1249473775 heartbeat IPC: 0.261625 cumulative IPC: 0.314638 (Simulation time: 0 hr 40 min 49 sec) 
Heartbeat CPU 0 instructions: 395000001 cycles: 1253062430 heartbeat IPC: 0.278656 cumulative IPC: 0.314535 (Simulation time: 0 hr 40 min 56 sec) 
Heartbeat CPU 0 instructions: 396000000 cycles: 1256679964 heartbeat IPC: 0.276431 cumulative IPC: 0.314425 (Simulation time: 0 hr 41 min 2 sec) 
Heartbeat CPU 0 instructions: 397000000 cycles: 1260328647 heartbeat IPC: 0.274071 cumulative IPC: 0.314308 (Simulation time: 0 hr 41 min 9 sec) 
Heartbeat CPU 0 instructions: 398000001 cycles: 1263996725 heartbeat IPC: 0.272623 cumulative IPC: 0.314187 (Simulation time: 0 hr 41 min 16 sec) 
Heartbeat CPU 0 instructions: 399000000 cycles: 1267543060 heartbeat IPC: 0.281981 cumulative IPC: 0.314097 (Simulation time: 0 hr 41 min 23 sec) 
Heartbeat CPU 0 instructions: 400000001 cycles: 1271058001 heartbeat IPC: 0.2845 cumulative IPC: 0.314015 (Simulation time: 0 hr 41 min 29 sec) 
Heartbeat CPU 0 instructions: 401000002 cycles: 1274869587 heartbeat IPC: 0.262358 cumulative IPC: 0.313861 (Simulation time: 0 hr 41 min 36 sec) 
Heartbeat CPU 0 instructions: 402000002 cycles: 1278423640 heartbeat IPC: 0.281369 cumulative IPC: 0.31377 (Simulation time: 0 hr 41 min 43 sec) 
Heartbeat CPU 0 instructions: 403000001 cycles: 1281948369 heartbeat IPC: 0.283709 cumulative IPC: 0.313688 (Simulation time: 0 hr 41 min 50 sec) 
Heartbeat CPU 0 instructions: 404000000 cycles: 1285531572 heartbeat IPC: 0.27908 cumulative IPC: 0.313591 (Simulation time: 0 hr 41 min 57 sec) 
Heartbeat CPU 0 instructions: 405000001 cycles: 1296345499 heartbeat IPC: 0.0924734 cumulative IPC: 0.311746 (Simulation time: 0 hr 42 min 9 sec) 
Heartbeat CPU 0 instructions: 406000002 cycles: 1299673612 heartbeat IPC: 0.300471 cumulative IPC: 0.311717 (Simulation time: 0 hr 42 min 15 sec) 
Heartbeat CPU 0 instructions: 407000000 cycles: 1302905093 heartbeat IPC: 0.309455 cumulative IPC: 0.311712 (Simulation time: 0 hr 42 min 21 sec) 
Heartbeat CPU 0 instructions: 408000002 cycles: 1306151017 heartbeat IPC: 0.308079 cumulative IPC: 0.311703 (Simulation time: 0 hr 42 min 27 sec) 
Heartbeat CPU 0 instructions: 409000000 cycles: 1309358807 heartbeat IPC: 0.31174 cumulative IPC: 0.311703 (Simulation time: 0 hr 42 min 34 sec) 
Heartbeat CPU 0 instructions: 410000003 cycles: 1312692033 heartbeat IPC: 0.300011 cumulative IPC: 0.311673 (Simulation time: 0 hr 42 min 40 sec) 
Heartbeat CPU 0 instructions: 411000000 cycles: 1315902603 heartbeat IPC: 0.31147 cumulative IPC: 0.311672 (Simulation time: 0 hr 42 min 46 sec) 
Heartbeat CPU 0 instructions: 412000001 cycles: 1319141207 heartbeat IPC: 0.308775 cumulative IPC: 0.311665 (Simulation time: 0 hr 42 min 53 sec) 
Heartbeat CPU 0 instructions: 413000000 cycles: 1322580121 heartbeat IPC: 0.290789 cumulative IPC: 0.311611 (Simulation time: 0 hr 42 min 59 sec) 
Heartbeat CPU 0 instructions: 414000002 cycles: 1325843652 heartbeat IPC: 0.306417 cumulative IPC: 0.311598 (Simulation time: 0 hr 43 min 5 sec) 
Heartbeat CPU 0 instructions: 415000001 cycles: 1329116003 heartbeat IPC: 0.30559 cumulative IPC: 0.311583 (Simulation time: 0 hr 43 min 12 sec) 
Heartbeat CPU 0 instructions: 416000000 cycles: 1332377237 heartbeat IPC: 0.306632 cumulative IPC: 0.311571 (Simulation time: 0 hr 43 min 18 sec) 
Heartbeat CPU 0 instructions: 417000000 cycles: 1335635527 heartbeat IPC: 0.306909 cumulative IPC: 0.31156 (Simulation time: 0 hr 43 min 24 sec) 
Heartbeat CPU 0 instructions: 418000000 cycles: 1338897593 heartbeat IPC: 0.306554 cumulative IPC: 0.311548 (Simulation time: 0 hr 43 min 30 sec) 
Heartbeat CPU 0 instructions: 419000000 cycles: 1342153954 heartbeat IPC: 0.307091 cumulative IPC: 0.311537 (Simulation time: 0 hr 43 min 37 sec) 
Heartbeat CPU 0 instructions: 420000001 cycles: 1345808453 heartbeat IPC: 0.273636 cumulative IPC: 0.311434 (Simulation time: 0 hr 43 min 43 sec) 
Heartbeat CPU 0 instructions: 421000001 cycles: 1349437519 heartbeat IPC: 0.275553 cumulative IPC: 0.311337 (Simulation time: 0 hr 43 min 50 sec) 
Heartbeat CPU 0 instructions: 422000002 cycles: 1353083160 heartbeat IPC: 0.2743 cumulative IPC: 0.311238 (Simulation time: 0 hr 43 min 57 sec) 
Heartbeat CPU 0 instructions: 423000000 cycles: 1356480067 heartbeat IPC: 0.294385 cumulative IPC: 0.311195 (Simulation time: 0 hr 44 min 3 sec) 
Heartbeat CPU 0 instructions: 424000003 cycles: 1360032061 heartbeat IPC: 0.281533 cumulative IPC: 0.311118 (Simulation time: 0 hr 44 min 10 sec) 
Heartbeat CPU 0 instructions: 425000002 cycles: 1363573980 heartbeat IPC: 0.282333 cumulative IPC: 0.311043 (Simulation time: 0 hr 44 min 17 sec) 
Heartbeat CPU 0 instructions: 426000003 cycles: 1367196014 heartbeat IPC: 0.276088 cumulative IPC: 0.31095 (Simulation time: 0 hr 44 min 24 sec) 
Heartbeat CPU 0 instructions: 427000001 cycles: 1370819244 heartbeat IPC: 0.275996 cumulative IPC: 0.310858 (Simulation time: 0 hr 44 min 31 sec) 
Heartbeat CPU 0 instructions: 428000000 cycles: 1374030072 heartbeat IPC: 0.311446 cumulative IPC: 0.310859 (Simulation time: 0 hr 44 min 38 sec) 
Heartbeat CPU 0 instructions: 429000000 cycles: 1377667723 heartbeat IPC: 0.274903 cumulative IPC: 0.310764 (Simulation time: 0 hr 44 min 45 sec) 
Heartbeat CPU 0 instructions: 430000001 cycles: 1380829534 heartbeat IPC: 0.316275 cumulative IPC: 0.310777 (Simulation time: 0 hr 44 min 52 sec) 
Heartbeat CPU 0 instructions: 431000001 cycles: 1384263047 heartbeat IPC: 0.291247 cumulative IPC: 0.310729 (Simulation time: 0 hr 44 min 59 sec) 
Heartbeat CPU 0 instructions: 432000000 cycles: 1387667525 heartbeat IPC: 0.29373 cumulative IPC: 0.310687 (Simulation time: 0 hr 45 min 6 sec) 
Heartbeat CPU 0 instructions: 433000000 cycles: 1391272821 heartbeat IPC: 0.27737 cumulative IPC: 0.310601 (Simulation time: 0 hr 45 min 13 sec) 
Heartbeat CPU 0 instructions: 434000000 cycles: 1394693203 heartbeat IPC: 0.292365 cumulative IPC: 0.310556 (Simulation time: 0 hr 45 min 21 sec) 
Heartbeat CPU 0 instructions: 435000001 cycles: 1398213013 heartbeat IPC: 0.284107 cumulative IPC: 0.310489 (Simulation time: 0 hr 45 min 27 sec) 
Heartbeat CPU 0 instructions: 436000001 cycles: 1401853387 heartbeat IPC: 0.274697 cumulative IPC: 0.310396 (Simulation time: 0 hr 45 min 35 sec) 
Heartbeat CPU 0 instructions: 437000002 cycles: 1405254253 heartbeat IPC: 0.294043 cumulative IPC: 0.310357 (Simulation time: 0 hr 45 min 42 sec) 
Heartbeat CPU 0 instructions: 438000001 cycles: 1408742235 heartbeat IPC: 0.286698 cumulative IPC: 0.310298 (Simulation time: 0 hr 45 min 49 sec) 
Heartbeat CPU 0 instructions: 439000000 cycles: 1412424725 heartbeat IPC: 0.271555 cumulative IPC: 0.310197 (Simulation time: 0 hr 45 min 56 sec) 
Heartbeat CPU 0 instructions: 440000000 cycles: 1415641575 heartbeat IPC: 0.310863 cumulative IPC: 0.310199 (Simulation time: 0 hr 46 min 3 sec) 
Heartbeat CPU 0 instructions: 441000002 cycles: 1419266570 heartbeat IPC: 0.275863 cumulative IPC: 0.310111 (Simulation time: 0 hr 46 min 10 sec) 
Heartbeat CPU 0 instructions: 442000001 cycles: 1422585753 heartbeat IPC: 0.301279 cumulative IPC: 0.31009 (Simulation time: 0 hr 46 min 16 sec) 
Heartbeat CPU 0 instructions: 443000000 cycles: 1426089812 heartbeat IPC: 0.285383 cumulative IPC: 0.310029 (Simulation time: 0 hr 46 min 23 sec) 
Heartbeat CPU 0 instructions: 444000000 cycles: 1429667035 heartbeat IPC: 0.279546 cumulative IPC: 0.309953 (Simulation time: 0 hr 46 min 30 sec) 
Heartbeat CPU 0 instructions: 445000000 cycles: 1432920181 heartbeat IPC: 0.307395 cumulative IPC: 0.309947 (Simulation time: 0 hr 46 min 37 sec) 
Heartbeat CPU 0 instructions: 446000000 cycles: 1436459957 heartbeat IPC: 0.282504 cumulative IPC: 0.30988 (Simulation time: 0 hr 46 min 44 sec) 
Heartbeat CPU 0 instructions: 447000002 cycles: 1440004627 heartbeat IPC: 0.282114 cumulative IPC: 0.309811 (Simulation time: 0 hr 46 min 50 sec) 
Heartbeat CPU 0 instructions: 448000002 cycles: 1443222373 heartbeat IPC: 0.310777 cumulative IPC: 0.309814 (Simulation time: 0 hr 46 min 57 sec) 
Heartbeat CPU 0 instructions: 449000000 cycles: 1446835734 heartbeat IPC: 0.27675 cumulative IPC: 0.309731 (Simulation time: 0 hr 47 min 4 sec) 
Heartbeat CPU 0 instructions: 450000001 cycles: 1450456649 heartbeat IPC: 0.276174 cumulative IPC: 0.309647 (Simulation time: 0 hr 47 min 10 sec) 

Warmup complete CPU 0 instructions: 450000001 cycles: 1450456649 (Simulation time: 0 hr 47 min 10 sec) 

Heartbeat CPU 0 instructions: 451000000 cycles: 1453717630 heartbeat IPC: 0.306656 cumulative IPC: 0.306656 (Simulation time: 0 hr 47 min 17 sec) 
Heartbeat CPU 0 instructions: 452000002 cycles: 1457271914 heartbeat IPC: 0.281351 cumulative IPC: 0.293459 (Simulation time: 0 hr 47 min 24 sec) 
Heartbeat CPU 0 instructions: 453000003 cycles: 1460848912 heartbeat IPC: 0.279564 cumulative IPC: 0.288677 (Simulation time: 0 hr 47 min 31 sec) 
Heartbeat CPU 0 instructions: 454000001 cycles: 1464099936 heartbeat IPC: 0.307595 cumulative IPC: 0.293184 (Simulation time: 0 hr 47 min 37 sec) 
Heartbeat CPU 0 instructions: 455000002 cycles: 1467633633 heartbeat IPC: 0.28299 cumulative IPC: 0.291087 (Simulation time: 0 hr 47 min 44 sec) 
Heartbeat CPU 0 instructions: 456000001 cycles: 1470891707 heartbeat IPC: 0.306929 cumulative IPC: 0.293613 (Simulation time: 0 hr 47 min 51 sec) 
Heartbeat CPU 0 instructions: 457000000 cycles: 1474414033 heartbeat IPC: 0.283903 cumulative IPC: 0.292185 (Simulation time: 0 hr 47 min 57 sec) 
Heartbeat CPU 0 instructions: 458000000 cycles: 1477961882 heartbeat IPC: 0.281861 cumulative IPC: 0.290854 (Simulation time: 0 hr 48 min 4 sec) 
Heartbeat CPU 0 instructions: 459000002 cycles: 1481374125 heartbeat IPC: 0.293063 cumulative IPC: 0.291098 (Simulation time: 0 hr 48 min 11 sec) 
Heartbeat CPU 0 instructions: 460000000 cycles: 1484872319 heartbeat IPC: 0.285861 cumulative IPC: 0.290565 (Simulation time: 0 hr 48 min 18 sec) 
Heartbeat CPU 0 instructions: 461000002 cycles: 1488196774 heartbeat IPC: 0.300802 cumulative IPC: 0.291467 (Simulation time: 0 hr 48 min 24 sec) 
Heartbeat CPU 0 instructions: 462000000 cycles: 1492053462 heartbeat IPC: 0.259289 cumulative IPC: 0.288484 (Simulation time: 0 hr 48 min 31 sec) 
Heartbeat CPU 0 instructions: 463000000 cycles: 1495309569 heartbeat IPC: 0.307115 cumulative IPC: 0.289836 (Simulation time: 0 hr 48 min 38 sec) 
Heartbeat CPU 0 instructions: 464000000 cycles: 1498669254 heartbeat IPC: 0.297647 cumulative IPC: 0.29038 (Simulation time: 0 hr 48 min 44 sec) 
Heartbeat CPU 0 instructions: 465000003 cycles: 1502158749 heartbeat IPC: 0.286575 cumulative IPC: 0.290124 (Simulation time: 0 hr 48 min 51 sec) 
Heartbeat CPU 0 instructions: 466000003 cycles: 1505415641 heartbeat IPC: 0.307041 cumulative IPC: 0.291126 (Simulation time: 0 hr 48 min 58 sec) 
Heartbeat CPU 0 instructions: 467000000 cycles: 1508981438 heartbeat IPC: 0.280441 cumulative IPC: 0.290475 (Simulation time: 0 hr 49 min 4 sec) 
Heartbeat CPU 0 instructions: 468000001 cycles: 1512227934 heartbeat IPC: 0.308025 cumulative IPC: 0.291398 (Simulation time: 0 hr 49 min 11 sec) 
Heartbeat CPU 0 instructions: 469000002 cycles: 1515540956 heartbeat IPC: 0.30184 cumulative IPC: 0.291929 (Simulation time: 0 hr 49 min 18 sec) 
Heartbeat CPU 0 instructions: 470000002 cycles: 1519053793 heartbeat IPC: 0.28467 cumulative IPC: 0.291557 (Simulation time: 0 hr 49 min 24 sec) 
Heartbeat CPU 0 instructions: 471000002 cycles: 1522282254 heartbeat IPC: 0.309745 cumulative IPC: 0.292375 (Simulation time: 0 hr 49 min 31 sec) 
Heartbeat CPU 0 instructions: 472000000 cycles: 1525677833 heartbeat IPC: 0.2945 cumulative IPC: 0.292471 (Simulation time: 0 hr 49 min 37 sec) 
Heartbeat CPU 0 instructions: 473000000 cycles: 1529157520 heartbeat IPC: 0.287382 cumulative IPC: 0.292246 (Simulation time: 0 hr 49 min 44 sec) 
Heartbeat CPU 0 instructions: 474000001 cycles: 1532528205 heartbeat IPC: 0.296676 cumulative IPC: 0.292428 (Simulation time: 0 hr 49 min 51 sec) 
Heartbeat CPU 0 instructions: 475000000 cycles: 1536048188 heartbeat IPC: 0.284092 cumulative IPC: 0.292085 (Simulation time: 0 hr 49 min 57 sec) 
Heartbeat CPU 0 instructions: 476000002 cycles: 1539352185 heartbeat IPC: 0.302664 cumulative IPC: 0.292478 (Simulation time: 0 hr 50 min 4 sec) 
Heartbeat CPU 0 instructions: 477000000 cycles: 1542957841 heartbeat IPC: 0.277341 cumulative IPC: 0.291888 (Simulation time: 0 hr 50 min 11 sec) 
Heartbeat CPU 0 instructions: 478000002 cycles: 1546587339 heartbeat IPC: 0.275521 cumulative IPC: 0.29127 (Simulation time: 0 hr 50 min 17 sec) 
Heartbeat CPU 0 instructions: 479000003 cycles: 1549875876 heartbeat IPC: 0.304087 cumulative IPC: 0.291694 (Simulation time: 0 hr 50 min 24 sec) 
Heartbeat CPU 0 instructions: 480000000 cycles: 1553158939 heartbeat IPC: 0.304593 cumulative IPC: 0.292106 (Simulation time: 0 hr 50 min 30 sec) 
Heartbeat CPU 0 instructions: 481000000 cycles: 1556466713 heartbeat IPC: 0.302318 cumulative IPC: 0.292425 (Simulation time: 0 hr 50 min 37 sec) 
Heartbeat CPU 0 instructions: 482000002 cycles: 1560840043 heartbeat IPC: 0.228659 cumulative IPC: 0.289899 (Simulation time: 0 hr 50 min 44 sec) 
Heartbeat CPU 0 instructions: 483000002 cycles: 1564145092 heartbeat IPC: 0.302567 cumulative IPC: 0.290267 (Simulation time: 0 hr 50 min 51 sec) 
Heartbeat CPU 0 instructions: 484000000 cycles: 1567813926 heartbeat IPC: 0.272566 cumulative IPC: 0.289714 (Simulation time: 0 hr 50 min 57 sec) 
Heartbeat CPU 0 instructions: 485000000 cycles: 1571054723 heartbeat IPC: 0.308566 cumulative IPC: 0.29022 (Simulation time: 0 hr 51 min 4 sec) 
Heartbeat CPU 0 instructions: 486000000 cycles: 1574728759 heartbeat IPC: 0.27218 cumulative IPC: 0.289687 (Simulation time: 0 hr 51 min 10 sec) 
Heartbeat CPU 0 instructions: 487000001 cycles: 1577972922 heartbeat IPC: 0.308246 cumulative IPC: 0.290159 (Simulation time: 0 hr 51 min 17 sec) 
Heartbeat CPU 0 instructions: 488000002 cycles: 1581564658 heartbeat IPC: 0.278417 cumulative IPC: 0.289837 (Simulation time: 0 hr 51 min 24 sec) 
Heartbeat CPU 0 instructions: 489000000 cycles: 1584984873 heartbeat IPC: 0.292379 cumulative IPC: 0.289902 (Simulation time: 0 hr 51 min 30 sec) 
Heartbeat CPU 0 instructions: 490000001 cycles: 1588263473 heartbeat IPC: 0.305009 cumulative IPC: 0.290261 (Simulation time: 0 hr 51 min 37 sec) 
Heartbeat CPU 0 instructions: 491000000 cycles: 1591564873 heartbeat IPC: 0.302902 cumulative IPC: 0.290557 (Simulation time: 0 hr 51 min 44 sec) 
Heartbeat CPU 0 instructions: 492000000 cycles: 1595133935 heartbeat IPC: 0.280186 cumulative IPC: 0.290301 (Simulation time: 0 hr 51 min 50 sec) 
Heartbeat CPU 0 instructions: 493000003 cycles: 1598569072 heartbeat IPC: 0.29111 cumulative IPC: 0.29032 (Simulation time: 0 hr 51 min 57 sec) 
Heartbeat CPU 0 instructions: 494000000 cycles: 1601790317 heartbeat IPC: 0.310438 cumulative IPC: 0.290748 (Simulation time: 0 hr 52 min 3 sec) 
Heartbeat CPU 0 instructions: 495000000 cycles: 1605103113 heartbeat IPC: 0.30186 cumulative IPC: 0.290986 (Simulation time: 0 hr 52 min 9 sec) 
Heartbeat CPU 0 instructions: 496000003 cycles: 1608750101 heartbeat IPC: 0.2742 cumulative IPC: 0.2906 (Simulation time: 0 hr 52 min 16 sec) 
Heartbeat CPU 0 instructions: 497000002 cycles: 1612006513 heartbeat IPC: 0.307086 cumulative IPC: 0.290932 (Simulation time: 0 hr 52 min 22 sec) 
Heartbeat CPU 0 instructions: 498000003 cycles: 1615346498 heartbeat IPC: 0.299403 cumulative IPC: 0.291103 (Simulation time: 0 hr 52 min 29 sec) 
Heartbeat CPU 0 instructions: 499000000 cycles: 1618909970 heartbeat IPC: 0.280624 cumulative IPC: 0.290882 (Simulation time: 0 hr 52 min 35 sec) 
Heartbeat CPU 0 instructions: 500000002 cycles: 1622223798 heartbeat IPC: 0.301766 cumulative IPC: 0.291092 (Simulation time: 0 hr 52 min 42 sec) 
Heartbeat CPU 0 instructions: 501000000 cycles: 1625481507 heartbeat IPC: 0.306964 cumulative IPC: 0.291387 (Simulation time: 0 hr 52 min 48 sec) 
Heartbeat CPU 0 instructions: 502000002 cycles: 1628764000 heartbeat IPC: 0.304647 cumulative IPC: 0.291631 (Simulation time: 0 hr 52 min 55 sec) 
Heartbeat CPU 0 instructions: 503000001 cycles: 1632011778 heartbeat IPC: 0.307903 cumulative IPC: 0.291922 (Simulation time: 0 hr 53 min 1 sec) 
Heartbeat CPU 0 instructions: 504000002 cycles: 1635306605 heartbeat IPC: 0.303506 cumulative IPC: 0.292129 (Simulation time: 0 hr 53 min 8 sec) 
Heartbeat CPU 0 instructions: 505000001 cycles: 1638660388 heartbeat IPC: 0.29817 cumulative IPC: 0.292236 (Simulation time: 0 hr 53 min 14 sec) 
Heartbeat CPU 0 instructions: 506000000 cycles: 1642227222 heartbeat IPC: 0.28036 cumulative IPC: 0.292016 (Simulation time: 0 hr 53 min 21 sec) 
Heartbeat CPU 0 instructions: 507000000 cycles: 1646512305 heartbeat IPC: 0.233368 cumulative IPC: 0.290734 (Simulation time: 0 hr 53 min 28 sec) 
Heartbeat CPU 0 instructions: 508000001 cycles: 1649902586 heartbeat IPC: 0.294961 cumulative IPC: 0.290806 (Simulation time: 0 hr 53 min 35 sec) 
Heartbeat CPU 0 instructions: 509000000 cycles: 1653323138 heartbeat IPC: 0.29235 cumulative IPC: 0.290832 (Simulation time: 0 hr 53 min 42 sec) 
Heartbeat CPU 0 instructions: 510000000 cycles: 1656574377 heartbeat IPC: 0.307575 cumulative IPC: 0.291096 (Simulation time: 0 hr 53 min 48 sec) 
Heartbeat CPU 0 instructions: 511000000 cycles: 1659779018 heartbeat IPC: 0.312047 cumulative IPC: 0.291417 (Simulation time: 0 hr 53 min 54 sec) 
Heartbeat CPU 0 instructions: 512000002 cycles: 1662982704 heartbeat IPC: 0.312141 cumulative IPC: 0.291729 (Simulation time: 0 hr 54 min 0 sec) 
Heartbeat CPU 0 instructions: 513000002 cycles: 1666254346 heartbeat IPC: 0.305657 cumulative IPC: 0.29194 (Simulation time: 0 hr 54 min 6 sec) 
Heartbeat CPU 0 instructions: 514000000 cycles: 1669540689 heartbeat IPC: 0.304289 cumulative IPC: 0.292125 (Simulation time: 0 hr 54 min 12 sec) 
Heartbeat CPU 0 instructions: 515000000 cycles: 1672851663 heartbeat IPC: 0.302026 cumulative IPC: 0.292273 (Simulation time: 0 hr 54 min 19 sec) 
Heartbeat CPU 0 instructions: 516000003 cycles: 1676216322 heartbeat IPC: 0.297208 cumulative IPC: 0.292346 (Simulation time: 0 hr 54 min 25 sec) 
Heartbeat CPU 0 instructions: 517000000 cycles: 1679518288 heartbeat IPC: 0.302849 cumulative IPC: 0.292498 (Simulation time: 0 hr 54 min 31 sec) 
Heartbeat CPU 0 instructions: 518000000 cycles: 1682495117 heartbeat IPC: 0.335928 cumulative IPC: 0.293055 (Simulation time: 0 hr 54 min 37 sec) 
Heartbeat CPU 0 instructions: 519000002 cycles: 1685774230 heartbeat IPC: 0.304961 cumulative IPC: 0.293221 (Simulation time: 0 hr 54 min 44 sec) 
Heartbeat CPU 0 instructions: 520000000 cycles: 1689111807 heartbeat IPC: 0.299618 cumulative IPC: 0.29331 (Simulation time: 0 hr 54 min 50 sec) 
Heartbeat CPU 0 instructions: 521000000 cycles: 1692442928 heartbeat IPC: 0.300199 cumulative IPC: 0.293405 (Simulation time: 0 hr 54 min 56 sec) 
Heartbeat CPU 0 instructions: 522000000 cycles: 1695728332 heartbeat IPC: 0.304377 cumulative IPC: 0.293552 (Simulation time: 0 hr 55 min 2 sec) 
Heartbeat CPU 0 instructions: 523000000 cycles: 1699077779 heartbeat IPC: 0.298557 cumulative IPC: 0.293619 (Simulation time: 0 hr 55 min 9 sec) 
Heartbeat CPU 0 instructions: 524000000 cycles: 1702443505 heartbeat IPC: 0.297113 cumulative IPC: 0.293666 (Simulation time: 0 hr 55 min 16 sec) 
Heartbeat CPU 0 instructions: 525000000 cycles: 1705625351 heartbeat IPC: 0.314283 cumulative IPC: 0.293923 (Simulation time: 0 hr 55 min 23 sec) 
Heartbeat CPU 0 instructions: 526000002 cycles: 1708864306 heartbeat IPC: 0.308742 cumulative IPC: 0.294109 (Simulation time: 0 hr 55 min 29 sec) 
Heartbeat CPU 0 instructions: 527000001 cycles: 1712135384 heartbeat IPC: 0.305709 cumulative IPC: 0.294254 (Simulation time: 0 hr 55 min 36 sec) 
Heartbeat CPU 0 instructions: 528000000 cycles: 1715312728 heartbeat IPC: 0.314728 cumulative IPC: 0.2945 (Simulation time: 0 hr 55 min 42 sec) 
Heartbeat CPU 0 instructions: 529000000 cycles: 1718658782 heartbeat IPC: 0.29886 cumulative IPC: 0.294554 (Simulation time: 0 hr 55 min 49 sec) 
Heartbeat CPU 0 instructions: 530000002 cycles: 1722103689 heartbeat IPC: 0.290284 cumulative IPC: 0.2945 (Simulation time: 0 hr 55 min 56 sec) 
Heartbeat CPU 0 instructions: 531000002 cycles: 1725085933 heartbeat IPC: 0.335318 cumulative IPC: 0.294943 (Simulation time: 0 hr 56 min 2 sec) 
Heartbeat CPU 0 instructions: 532000000 cycles: 1728418334 heartbeat IPC: 0.300083 cumulative IPC: 0.295005 (Simulation time: 0 hr 56 min 8 sec) 
Heartbeat CPU 0 instructions: 533000000 cycles: 1731796302 heartbeat IPC: 0.296036 cumulative IPC: 0.295017 (Simulation time: 0 hr 56 min 14 sec) 
Heartbeat CPU 0 instructions: 534000002 cycles: 1734783046 heartbeat IPC: 0.334813 cumulative IPC: 0.295435 (Simulation time: 0 hr 56 min 21 sec) 
Heartbeat CPU 0 instructions: 535000001 cycles: 1738079633 heartbeat IPC: 0.303344 cumulative IPC: 0.295526 (Simulation time: 0 hr 56 min 27 sec) 
Heartbeat CPU 0 instructions: 536000001 cycles: 1741446592 heartbeat IPC: 0.297004 cumulative IPC: 0.295543 (Simulation time: 0 hr 56 min 33 sec) 
Heartbeat CPU 0 instructions: 537000000 cycles: 1744753280 heartbeat IPC: 0.302417 cumulative IPC: 0.29562 (Simulation time: 0 hr 56 min 40 sec) 
Heartbeat CPU 0 instructions: 538000002 cycles: 1747795541 heartbeat IPC: 0.328704 cumulative IPC: 0.295959 (Simulation time: 0 hr 56 min 46 sec) 
Heartbeat CPU 0 instructions: 539000000 cycles: 1751118841 heartbeat IPC: 0.300905 cumulative IPC: 0.296013 (Simulation time: 0 hr 56 min 52 sec) 
Heartbeat CPU 0 instructions: 540000000 cycles: 1754494177 heartbeat IPC: 0.296267 cumulative IPC: 0.296016 (Simulation time: 0 hr 56 min 58 sec) 
Heartbeat CPU 0 instructions: 541000001 cycles: 1757555387 heartbeat IPC: 0.326669 cumulative IPC: 0.296322 (Simulation time: 0 hr 57 min 4 sec) 
Heartbeat CPU 0 instructions: 542000000 cycles: 1760791119 heartbeat IPC: 0.309049 cumulative IPC: 0.296454 (Simulation time: 0 hr 57 min 10 sec) 
Heartbeat CPU 0 instructions: 543000001 cycles: 1764194791 heartbeat IPC: 0.293801 cumulative IPC: 0.296426 (Simulation time: 0 hr 57 min 16 sec) 
Heartbeat CPU 0 instructions: 544000000 cycles: 1767348457 heartbeat IPC: 0.317091 cumulative IPC: 0.296631 (Simulation time: 0 hr 57 min 23 sec) 
Heartbeat CPU 0 instructions: 545000002 cycles: 1770613990 heartbeat IPC: 0.306229 cumulative IPC: 0.296729 (Simulation time: 0 hr 57 min 29 sec) 
[...]
Heartbeat CPU 0 instructions: 835000000 cycles: 2656250027 heartbeat IPC: 0.295453 cumulative IPC: 0.319292 (Simulation time: 1 hr 26 min 15 sec) 
Heartbeat CPU 0 instructions: 836000000 cycles: 2659393177 heartbeat IPC: 0.318152 cumulative IPC: 0.319289 (Simulation time: 1 hr 26 min 21 sec) 
Heartbeat CPU 0 instructions: 837000002 cycles: 2662621085 heartbeat IPC: 0.309799 cumulative IPC: 0.319264 (Simulation time: 1 hr 26 min 27 sec) 
Heartbeat CPU 0 instructions: 838000000 cycles: 2666081170 heartbeat IPC: 0.28901 cumulative IPC: 0.319178 (Simulation time: 1 hr 26 min 34 sec) 
Heartbeat CPU 0 instructions: 839000000 cycles: 2669312757 heartbeat IPC: 0.309445 cumulative IPC: 0.319152 (Simulation time: 1 hr 26 min 41 sec) 
Heartbeat CPU 0 instructions: 840000001 cycles: 2672629368 heartbeat IPC: 0.301513 cumulative IPC: 0.319104 (Simulation time: 1 hr 26 min 47 sec) 
Heartbeat CPU 0 instructions: 841000000 cycles: 2676086146 heartbeat IPC: 0.289286 cumulative IPC: 0.31902 (Simulation time: 1 hr 26 min 54 sec) 
Heartbeat CPU 0 instructions: 842000002 cycles: 2679240458 heartbeat IPC: 0.317027 cumulative IPC: 0.319015 (Simulation time: 1 hr 27 min 0 sec) 
Heartbeat CPU 0 instructions: 843000000 cycles: 2682526207 heartbeat IPC: 0.304344 cumulative IPC: 0.318976 (Simulation time: 1 hr 27 min 6 sec) 
Heartbeat CPU 0 instructions: 844000001 cycles: 2685932242 heartbeat IPC: 0.293597 cumulative IPC: 0.318906 (Simulation time: 1 hr 27 min 13 sec) 
Heartbeat CPU 0 instructions: 845000001 cycles: 2689331184 heartbeat IPC: 0.294209 cumulative IPC: 0.318838 (Simulation time: 1 hr 27 min 19 sec) 
Heartbeat CPU 0 instructions: 846000001 cycles: 2692790574 heartbeat IPC: 0.289068 cumulative IPC: 0.318755 (Simulation time: 1 hr 27 min 26 sec) 
Heartbeat CPU 0 instructions: 847000000 cycles: 2695865474 heartbeat IPC: 0.325213 cumulative IPC: 0.318771 (Simulation time: 1 hr 27 min 32 sec) 
Heartbeat CPU 0 instructions: 848000003 cycles: 2699170662 heartbeat IPC: 0.302556 cumulative IPC: 0.318728 (Simulation time: 1 hr 27 min 38 sec) 
Heartbeat CPU 0 instructions: 849000003 cycles: 2702517294 heartbeat IPC: 0.298808 cumulative IPC: 0.318675 (Simulation time: 1 hr 27 min 45 sec) 
Heartbeat CPU 0 instructions: 850000001 cycles: 2705951626 heartbeat IPC: 0.291177 cumulative IPC: 0.318599 (Simulation time: 1 hr 27 min 51 sec) 
Heartbeat CPU 0 instructions: 851000001 cycles: 2709259768 heartbeat IPC: 0.302284 cumulative IPC: 0.318557 (Simulation time: 1 hr 27 min 58 sec) 
Heartbeat CPU 0 instructions: 852000000 cycles: 2712386132 heartbeat IPC: 0.31986 cumulative IPC: 0.31856 (Simulation time: 1 hr 28 min 4 sec) 
Heartbeat CPU 0 instructions: 853000001 cycles: 2715759992 heartbeat IPC: 0.296397 cumulative IPC: 0.318501 (Simulation time: 1 hr 28 min 11 sec) 
Heartbeat CPU 0 instructions: 854000002 cycles: 2719385212 heartbeat IPC: 0.275846 cumulative IPC: 0.318379 (Simulation time: 1 hr 28 min 17 sec) 
Heartbeat CPU 0 instructions: 855000000 cycles: 2722746651 heartbeat IPC: 0.297491 cumulative IPC: 0.318324 (Simulation time: 1 hr 28 min 24 sec) 
Heartbeat CPU 0 instructions: 856000001 cycles: 2725912836 heartbeat IPC: 0.315838 cumulative IPC: 0.318317 (Simulation time: 1 hr 28 min 30 sec) 
Heartbeat CPU 0 instructions: 857000002 cycles: 2729239303 heartbeat IPC: 0.30062 cumulative IPC: 0.318271 (Simulation time: 1 hr 28 min 37 sec) 
Heartbeat CPU 0 instructions: 858000000 cycles: 2732593813 heartbeat IPC: 0.298106 cumulative IPC: 0.318219 (Simulation time: 1 hr 28 min 43 sec) 
Heartbeat CPU 0 instructions: 859000002 cycles: 2736004241 heartbeat IPC: 0.293219 cumulative IPC: 0.318152 (Simulation time: 1 hr 28 min 50 sec) 
Heartbeat CPU 0 instructions: 860000000 cycles: 2739358340 heartbeat IPC: 0.298142 cumulative IPC: 0.3181 (Simulation time: 1 hr 28 min 56 sec) 
Heartbeat CPU 0 instructions: 861000000 cycles: 2742732701 heartbeat IPC: 0.296352 cumulative IPC: 0.318044 (Simulation time: 1 hr 29 min 3 sec) 
Heartbeat CPU 0 instructions: 862000000 cycles: 2745708508 heartbeat IPC: 0.336043 cumulative IPC: 0.318085 (Simulation time: 1 hr 29 min 9 sec) 
Heartbeat CPU 0 instructions: 863000000 cycles: 2749036921 heartbeat IPC: 0.300443 cumulative IPC: 0.31804 (Simulation time: 1 hr 29 min 15 sec) 
Heartbeat CPU 0 instructions: 864000002 cycles: 2752390984 heartbeat IPC: 0.298146 cumulative IPC: 0.317988 (Simulation time: 1 hr 29 min 21 sec) 
Heartbeat CPU 0 instructions: 865000000 cycles: 2755419490 heartbeat IPC: 0.330195 cumulative IPC: 0.318017 (Simulation time: 1 hr 29 min 27 sec) 
Heartbeat CPU 0 instructions: 866000000 cycles: 2758720462 heartbeat IPC: 0.302941 cumulative IPC: 0.317979 (Simulation time: 1 hr 29 min 34 sec) 
Heartbeat CPU 0 instructions: 867000003 cycles: 2762118381 heartbeat IPC: 0.294299 cumulative IPC: 0.317917 (Simulation time: 1 hr 29 min 40 sec) 
Heartbeat CPU 0 instructions: 868000000 cycles: 2765498639 heartbeat IPC: 0.295835 cumulative IPC: 0.317861 (Simulation time: 1 hr 29 min 47 sec) 
Heartbeat CPU 0 instructions: 869000000 cycles: 2768889944 heartbeat IPC: 0.294872 cumulative IPC: 0.317801 (Simulation time: 1 hr 29 min 53 sec) 
Heartbeat CPU 0 instructions: 870000003 cycles: 2772252824 heartbeat IPC: 0.297365 cumulative IPC: 0.317749 (Simulation time: 1 hr 29 min 59 sec) 
Heartbeat CPU 0 instructions: 871000002 cycles: 2775598711 heartbeat IPC: 0.298874 cumulative IPC: 0.317702 (Simulation time: 1 hr 30 min 6 sec) 
Heartbeat CPU 0 instructions: 872000001 cycles: 2778959479 heartbeat IPC: 0.297551 cumulative IPC: 0.317651 (Simulation time: 1 hr 30 min 12 sec) 
Heartbeat CPU 0 instructions: 873000002 cycles: 2782378392 heartbeat IPC: 0.292491 cumulative IPC: 0.317586 (Simulation time: 1 hr 30 min 18 sec) 
Heartbeat CPU 0 instructions: 874000002 cycles: 2785728906 heartbeat IPC: 0.298462 cumulative IPC: 0.317538 (Simulation time: 1 hr 30 min 25 sec) 
Heartbeat CPU 0 instructions: 875000001 cycles: 2789081080 heartbeat IPC: 0.298314 cumulative IPC: 0.31749 (Simulation time: 1 hr 30 min 31 sec) 
Heartbeat CPU 0 instructions: 876000000 cycles: 2792376934 heartbeat IPC: 0.303411 cumulative IPC: 0.317456 (Simulation time: 1 hr 30 min 37 sec) 
Heartbeat CPU 0 instructions: 877000002 cycles: 2795740371 heartbeat IPC: 0.297316 cumulative IPC: 0.317405 (Simulation time: 1 hr 30 min 44 sec) 
Heartbeat CPU 0 instructions: 878000001 cycles: 2799107670 heartbeat IPC: 0.296974 cumulative IPC: 0.317354 (Simulation time: 1 hr 30 min 51 sec) 
Heartbeat CPU 0 instructions: 879000003 cycles: 2802456240 heartbeat IPC: 0.298636 cumulative IPC: 0.317308 (Simulation time: 1 hr 30 min 58 sec) 
Heartbeat CPU 0 instructions: 880000000 cycles: 2805848977 heartbeat IPC: 0.294746 cumulative IPC: 0.317251 (Simulation time: 1 hr 31 min 5 sec) 
Heartbeat CPU 0 instructions: 881000000 cycles: 2809228729 heartbeat IPC: 0.29588 cumulative IPC: 0.317198 (Simulation time: 1 hr 31 min 12 sec) 
Heartbeat CPU 0 instructions: 882000002 cycles: 2812573731 heartbeat IPC: 0.298954 cumulative IPC: 0.317153 (Simulation time: 1 hr 31 min 19 sec) 
Heartbeat CPU 0 instructions: 883000002 cycles: 2815858627 heartbeat IPC: 0.304424 cumulative IPC: 0.317123 (Simulation time: 1 hr 31 min 26 sec) 
Heartbeat CPU 0 instructions: 884000003 cycles: 2819141770 heartbeat IPC: 0.304586 cumulative IPC: 0.317093 (Simulation time: 1 hr 31 min 32 sec) 
Heartbeat CPU 0 instructions: 885000000 cycles: 2822430339 heartbeat IPC: 0.304083 cumulative IPC: 0.317061 (Simulation time: 1 hr 31 min 39 sec) 
Heartbeat CPU 0 instructions: 886000000 cycles: 2825722746 heartbeat IPC: 0.303729 cumulative IPC: 0.31703 (Simulation time: 1 hr 31 min 45 sec) 
Heartbeat CPU 0 instructions: 887000000 cycles: 2829044010 heartbeat IPC: 0.30109 cumulative IPC: 0.316991 (Simulation time: 1 hr 31 min 52 sec) 
Heartbeat CPU 0 instructions: 888000003 cycles: 2832285258 heartbeat IPC: 0.308524 cumulative IPC: 0.316971 (Simulation time: 1 hr 31 min 58 sec) 
Heartbeat CPU 0 instructions: 889000002 cycles: 2835810602 heartbeat IPC: 0.28366 cumulative IPC: 0.316887 (Simulation time: 1 hr 32 min 5 sec) 
Heartbeat CPU 0 instructions: 890000003 cycles: 2839454584 heartbeat IPC: 0.274425 cumulative IPC: 0.316775 (Simulation time: 1 hr 32 min 12 sec) 
Heartbeat CPU 0 instructions: 891000000 cycles: 2842725846 heartbeat IPC: 0.305692 cumulative IPC: 0.316749 (Simulation time: 1 hr 32 min 18 sec) 
Heartbeat CPU 0 instructions: 892000001 cycles: 2845784836 heartbeat IPC: 0.326906 cumulative IPC: 0.316771 (Simulation time: 1 hr 32 min 24 sec) 
Heartbeat CPU 0 instructions: 893000001 cycles: 2849076799 heartbeat IPC: 0.30377 cumulative IPC: 0.316741 (Simulation time: 1 hr 32 min 31 sec) 
Heartbeat CPU 0 instructions: 894000002 cycles: 2852433627 heartbeat IPC: 0.297901 cumulative IPC: 0.316696 (Simulation time: 1 hr 32 min 37 sec) 
Heartbeat CPU 0 instructions: 895000003 cycles: 2855804239 heartbeat IPC: 0.296682 cumulative IPC: 0.316648 (Simulation time: 1 hr 32 min 44 sec) 
Heartbeat CPU 0 instructions: 896000002 cycles: 2859175565 heartbeat IPC: 0.296619 cumulative IPC: 0.3166 (Simulation time: 1 hr 32 min 51 sec) 
Heartbeat CPU 0 instructions: 897000001 cycles: 2862532553 heartbeat IPC: 0.297886 cumulative IPC: 0.316555 (Simulation time: 1 hr 32 min 57 sec) 
Heartbeat CPU 0 instructions: 898000000 cycles: 2865598385 heartbeat IPC: 0.326175 cumulative IPC: 0.316576 (Simulation time: 1 hr 33 min 4 sec) 
Heartbeat CPU 0 instructions: 899000000 cycles: 2868792887 heartbeat IPC: 0.313038 cumulative IPC: 0.316568 (Simulation time: 1 hr 33 min 10 sec) 
Heartbeat CPU 0 instructions: 900000000 cycles: 2872118971 heartbeat IPC: 0.300654 cumulative IPC: 0.316531 (Simulation time: 1 hr 33 min 17 sec) 
Heartbeat CPU 0 instructions: 901000002 cycles: 2875475973 heartbeat IPC: 0.297885 cumulative IPC: 0.316487 (Simulation time: 1 hr 33 min 23 sec) 
Heartbeat CPU 0 instructions: 902000000 cycles: 2878802229 heartbeat IPC: 0.300638 cumulative IPC: 0.31645 (Simulation time: 1 hr 33 min 30 sec) 
Heartbeat CPU 0 instructions: 903000001 cycles: 2882180688 heartbeat IPC: 0.295993 cumulative IPC: 0.316402 (Simulation time: 1 hr 33 min 36 sec) 
Heartbeat CPU 0 instructions: 904000000 cycles: 2885533738 heartbeat IPC: 0.298236 cumulative IPC: 0.316359 (Simulation time: 1 hr 33 min 43 sec) 
Heartbeat CPU 0 instructions: 905000000 cycles: 2888910737 heartbeat IPC: 0.296121 cumulative IPC: 0.316312 (Simulation time: 1 hr 33 min 49 sec) 
Heartbeat CPU 0 instructions: 906000001 cycles: 2892265559 heartbeat IPC: 0.298079 cumulative IPC: 0.316269 (Simulation time: 1 hr 33 min 56 sec) 
Heartbeat CPU 0 instructions: 907000000 cycles: 2895328609 heartbeat IPC: 0.326472 cumulative IPC: 0.316291 (Simulation time: 1 hr 34 min 2 sec) 
Heartbeat CPU 0 instructions: 908000000 cycles: 2898690081 heartbeat IPC: 0.297489 cumulative IPC: 0.316247 (Simulation time: 1 hr 34 min 9 sec) 
Heartbeat CPU 0 instructions: 909000001 cycles: 2902204268 heartbeat IPC: 0.284561 cumulative IPC: 0.316171 (Simulation time: 1 hr 34 min 15 sec) 
Heartbeat CPU 0 instructions: 910000001 cycles: 2905524193 heartbeat IPC: 0.301212 cumulative IPC: 0.316137 (Simulation time: 1 hr 34 min 22 sec) 
Heartbeat CPU 0 instructions: 911000002 cycles: 2908824479 heartbeat IPC: 0.303004 cumulative IPC: 0.316107 (Simulation time: 1 hr 34 min 29 sec) 
Heartbeat CPU 0 instructions: 912000001 cycles: 2912116775 heartbeat IPC: 0.303739 cumulative IPC: 0.316079 (Simulation time: 1 hr 34 min 35 sec) 
Heartbeat CPU 0 instructions: 913000000 cycles: 2915358690 heartbeat IPC: 0.308459 cumulative IPC: 0.316062 (Simulation time: 1 hr 34 min 42 sec) 
Heartbeat CPU 0 instructions: 914000000 cycles: 2918565676 heartbeat IPC: 0.311819 cumulative IPC: 0.316053 (Simulation time: 1 hr 34 min 49 sec) 
Heartbeat CPU 0 instructions: 915000003 cycles: 2921744358 heartbeat IPC: 0.314597 cumulative IPC: 0.31605 (Simulation time: 1 hr 34 min 55 sec) 
Heartbeat CPU 0 instructions: 916000001 cycles: 2925035897 heartbeat IPC: 0.303809 cumulative IPC: 0.316022 (Simulation time: 1 hr 35 min 2 sec) 
Heartbeat CPU 0 instructions: 917000003 cycles: 2928354299 heartbeat IPC: 0.30135 cumulative IPC: 0.315989 (Simulation time: 1 hr 35 min 8 sec) 
Heartbeat CPU 0 instructions: 918000000 cycles: 2931683867 heartbeat IPC: 0.300338 cumulative IPC: 0.315954 (Simulation time: 1 hr 35 min 14 sec) 
Heartbeat CPU 0 instructions: 919000003 cycles: 2935007518 heartbeat IPC: 0.300875 cumulative IPC: 0.31592 (Simulation time: 1 hr 35 min 21 sec) 
Heartbeat CPU 0 instructions: 920000000 cycles: 2938322267 heartbeat IPC: 0.301681 cumulative IPC: 0.315889 (Simulation time: 1 hr 35 min 27 sec) 
Heartbeat CPU 0 instructions: 921000003 cycles: 2941593309 heartbeat IPC: 0.305714 cumulative IPC: 0.315866 (Simulation time: 1 hr 35 min 34 sec) 
Heartbeat CPU 0 instructions: 922000000 cycles: 2944857100 heartbeat IPC: 0.306391 cumulative IPC: 0.315846 (Simulation time: 1 hr 35 min 40 sec) 
Heartbeat CPU 0 instructions: 923000003 cycles: 2948128922 heartbeat IPC: 0.305641 cumulative IPC: 0.315823 (Simulation time: 1 hr 35 min 47 sec) 
Heartbeat CPU 0 instructions: 924000000 cycles: 2951539406 heartbeat IPC: 0.293213 cumulative IPC: 0.315772 (Simulation time: 1 hr 35 min 53 sec) 
Heartbeat CPU 0 instructions: 925000001 cycles: 2954870555 heartbeat IPC: 0.300197 cumulative IPC: 0.315738 (Simulation time: 1 hr 36 min 0 sec) 
Heartbeat CPU 0 instructions: 926000000 cycles: 2958234739 heartbeat IPC: 0.297249 cumulative IPC: 0.315696 (Simulation time: 1 hr 36 min 6 sec) 
Heartbeat CPU 0 instructions: 927000000 cycles: 2961557281 heartbeat IPC: 0.300974 cumulative IPC: 0.315664 (Simulation time: 1 hr 36 min 13 sec) 
Heartbeat CPU 0 instructions: 928000000 cycles: 2964911448 heartbeat IPC: 0.298137 cumulative IPC: 0.315625 (Simulation time: 1 hr 36 min 19 sec) 
Heartbeat CPU 0 instructions: 929000002 cycles: 2968389544 heartbeat IPC: 0.287514 cumulative IPC: 0.315561 (Simulation time: 1 hr 36 min 26 sec) 
Heartbeat CPU 0 instructions: 930000000 cycles: 2971787170 heartbeat IPC: 0.294323 cumulative IPC: 0.315513 (Simulation time: 1 hr 36 min 32 sec) 
Heartbeat CPU 0 instructions: 931000000 cycles: 2975221018 heartbeat IPC: 0.291218 cumulative IPC: 0.315459 (Simulation time: 1 hr 36 min 39 sec) 
Heartbeat CPU 0 instructions: 932000003 cycles: 2978442313 heartbeat IPC: 0.310435 cumulative IPC: 0.315448 (Simulation time: 1 hr 36 min 45 sec) 
Heartbeat CPU 0 instructions: 933000001 cycles: 2982101215 heartbeat IPC: 0.273305 cumulative IPC: 0.315347 (Simulation time: 1 hr 36 min 52 sec) 
Heartbeat CPU 0 instructions: 934000000 cycles: 2985626725 heartbeat IPC: 0.283647 cumulative IPC: 0.315275 (Simulation time: 1 hr 36 min 59 sec) 
Heartbeat CPU 0 instructions: 935000000 cycles: 2988878811 heartbeat IPC: 0.307495 cumulative IPC: 0.315258 (Simulation time: 1 hr 37 min 5 sec) 
Heartbeat CPU 0 instructions: 936000001 cycles: 2992159855 heartbeat IPC: 0.304781 cumulative IPC: 0.315236 (Simulation time: 1 hr 37 min 11 sec) 
Heartbeat CPU 0 instructions: 937000000 cycles: 2995535264 heartbeat IPC: 0.29626 cumulative IPC: 0.315194 (Simulation time: 1 hr 37 min 18 sec) 
Heartbeat CPU 0 instructions: 938000000 cycles: 2999163009 heartbeat IPC: 0.275653 cumulative IPC: 0.315102 (Simulation time: 1 hr 37 min 25 sec) 
Heartbeat CPU 0 instructions: 939000000 cycles: 3002484195 heartbeat IPC: 0.301097 cumulative IPC: 0.315072 (Simulation time: 1 hr 37 min 31 sec) 
Heartbeat CPU 0 instructions: 940000000 cycles: 3005756813 heartbeat IPC: 0.305566 cumulative IPC: 0.315052 (Simulation time: 1 hr 37 min 37 sec) 
Heartbeat CPU 0 instructions: 941000000 cycles: 3009147589 heartbeat IPC: 0.294918 cumulative IPC: 0.315008 (Simulation time: 1 hr 37 min 44 sec) 
Heartbeat CPU 0 instructions: 942000000 cycles: 3012801512 heartbeat IPC: 0.273678 cumulative IPC: 0.314911 (Simulation time: 1 hr 37 min 51 sec) 
Heartbeat CPU 0 instructions: 943000002 cycles: 3016129690 heartbeat IPC: 0.300465 cumulative IPC: 0.314881 (Simulation time: 1 hr 37 min 57 sec) 
Heartbeat CPU 0 instructions: 944000002 cycles: 3019488364 heartbeat IPC: 0.297737 cumulative IPC: 0.314844 (Simulation time: 1 hr 38 min 4 sec) 
Heartbeat CPU 0 instructions: 945000002 cycles: 3023035112 heartbeat IPC: 0.281948 cumulative IPC: 0.31477 (Simulation time: 1 hr 38 min 11 sec) 
Heartbeat CPU 0 instructions: 946000000 cycles: 3026702946 heartbeat IPC: 0.27264 cumulative IPC: 0.314672 (Simulation time: 1 hr 38 min 18 sec) 
Heartbeat CPU 0 instructions: 947000002 cycles: 3030169113 heartbeat IPC: 0.288504 cumulative IPC: 0.314614 (Simulation time: 1 hr 38 min 25 sec) 
Heartbeat CPU 0 instructions: 948000002 cycles: 3033833472 heartbeat IPC: 0.272899 cumulative IPC: 0.314518 (Simulation time: 1 hr 38 min 31 sec) 
Heartbeat CPU 0 instructions: 949000002 cycles: 3037102228 heartbeat IPC: 0.305927 cumulative IPC: 0.3145 (Simulation time: 1 hr 38 min 38 sec) 
Heartbeat CPU 0 instructions: 950000000 cycles: 3040637515 heartbeat IPC: 0.282862 cumulative IPC: 0.31443 (Simulation time: 1 hr 38 min 44 sec) 
Finished CPU 0 instructions: 500000000 cycles: 1590180867 cumulative IPC: 0.31443 (Simulation time: 1 hr 38 min 44 sec) 

ChampSim completed all CPUs

Region of Interest Statistics

CPU 0 cumulative IPC: 0.31443 instructions: 500000000 cycles: 1590180867
L1D TOTAL     ACCESS:  165970368  HIT:  133778401  MISS:   32191967
L1D LOAD      ACCESS:  123060309  HIT:   92437412  MISS:   30622897
L1D RFO       ACCESS:   42910059  HIT:   41340989  MISS:    1569070
L1D PREFETCH  ACCESS:          0  HIT:          0  MISS:          0
L1D WRITEBACK ACCESS:          0  HIT:          0  MISS:          0
L1D PREFETCH  REQUESTED:          0  ISSUED:          0  USEFUL:          0  USELESS:          0
L1D AVERAGE MISS LATENCY: 96.8524 cycles
L1I TOTAL     ACCESS:   90657829  HIT:   90657829  MISS:          0
L1I LOAD      ACCESS:   90657829  HIT:   90657829  MISS:          0
L1I RFO       ACCESS:          0  HIT:          0  MISS:          0
L1I PREFETCH  ACCESS:          0  HIT:          0  MISS:          0
L1I WRITEBACK ACCESS:          0  HIT:          0  MISS:          0
L1I PREFETCH  REQUESTED:          0  ISSUED:          0  USEFUL:          0  USELESS:          0
L1I AVERAGE MISS LATENCY: -nan cycles
L2C TOTAL     ACCESS:   34571626  HIT:    8357750  MISS:   26213876
L2C LOAD      ACCESS:   30622730  HIT:    5179859  MISS:   25442871
L2C RFO       ACCESS:    1569063  HIT:     801581  MISS:     767482
L2C PREFETCH  ACCESS:          0  HIT:          0  MISS:          0
L2C WRITEBACK ACCESS:    2379833  HIT:    2376310  MISS:       3523
L2C PREFETCH  REQUESTED:          0  ISSUED:          0  USEFUL:          0  USELESS:          0
L2C AVERAGE MISS LATENCY: 101.225 cycles
LLC TOTAL     ACCESS:   27755555  HIT:   15072967  MISS:   12682588
LLC LOAD      ACCESS:   25442853  HIT:   12798798  MISS:   12644055
LLC RFO       ACCESS:     767482  HIT:     752414  MISS:      15068
LLC PREFETCH  ACCESS:          0  HIT:          0  MISS:          0
LLC WRITEBACK ACCESS:    1545220  HIT:    1521755  MISS:      23465
LLC PREFETCH  REQUESTED:          0  ISSUED:          0  USEFUL:          0  USELESS:          0
LLC AVERAGE MISS LATENCY: 144.201 cycles
Major fault: 0 Minor fault: 303883

DRAM Statistics
 CHANNEL 0
 RQ ROW_BUFFER_HIT:    4918220  ROW_BUFFER_MISS:    1421598
 DBUS_CONGESTED:    8584567
 WQ ROW_BUFFER_HIT:      36013  ROW_BUFFER_MISS:      37244  FULL:          0

 CHANNEL 1
 RQ ROW_BUFFER_HIT:    4916353  ROW_BUFFER_MISS:    1402927
 DBUS_CONGESTED:    8584567
 WQ ROW_BUFFER_HIT:      35396  ROW_BUFFER_MISS:      36136  FULL:          0

 AVG_CONGESTED_CYCLE: 15

CPU 0 Branch Prediction Accuracy: 94.4017% MPKI: 14.3155 Average ROB Occupancy at Mispredict: 32.6476

Branch types
NOT_BRANCH: 372143845 74.4288%
BRANCH_DIRECT_JUMP: 14238481 2.8477%
BRANCH_INDIRECT: 0 0%
BRANCH_CONDITIONAL: 93325958 18.6652%
BRANCH_DIRECT_CALL: 9505113 1.90102%
BRANCH_INDIRECT_CALL: 640558 0.128112%
BRANCH_RETURN: 10145672 2.02913%
BRANCH_OTHER: 0 0%

