
*** ChampSim Multicore Out-of-Order Simulator ***

Warmup Instructions: 1000000
Prefetch Warmup Instructions: 450000000
Simulation Instructions: 500000000
Stat Printing Period: 1000000
Number of CPUs: 1
LLC sets: 2048
LLC ways: 16
Off-chip DRAM Size: 32768 MB Channels: 2 Width: 64-bit Data Rate: 1024 MT/s

CPU 0 runs /scratch/cluster/cmolder/ML-DPC/ChampSimTraces/spec17/605.mcf-s0.trace.xz
Read seed: 267
Heartbeat CPU 0 instructions: 1000001 cycles: 418979 heartbeat IPC: 2.38676 cumulative IPC: 2.38676 (Simulation time: 0 hr 0 min 6 sec) 

Warmup complete CPU 0 instructions: 1000001 cycles: 418979 (Simulation time: 0 hr 0 min 6 sec) 

Heartbeat CPU 0 instructions: 2000001 cycles: 3150534 heartbeat IPC: 0.366092 cumulative IPC: 0.366092 (Simulation time: 0 hr 0 min 12 sec) 
Heartbeat CPU 0 instructions: 3000000 cycles: 5872394 heartbeat IPC: 0.367395 cumulative IPC: 0.366742 (Simulation time: 0 hr 0 min 17 sec) 
Heartbeat CPU 0 instructions: 4000001 cycles: 8590399 heartbeat IPC: 0.367917 cumulative IPC: 0.367133 (Simulation time: 0 hr 0 min 23 sec) 
Heartbeat CPU 0 instructions: 5000003 cycles: 11321161 heartbeat IPC: 0.366199 cumulative IPC: 0.366899 (Simulation time: 0 hr 0 min 29 sec) 
Heartbeat CPU 0 instructions: 6000000 cycles: 14030875 heartbeat IPC: 0.369042 cumulative IPC: 0.367326 (Simulation time: 0 hr 0 min 35 sec) 
Heartbeat CPU 0 instructions: 7000001 cycles: 16965060 heartbeat IPC: 0.34081 cumulative IPC: 0.362624 (Simulation time: 0 hr 0 min 40 sec) 
Heartbeat CPU 0 instructions: 8000003 cycles: 19696098 heartbeat IPC: 0.366162 cumulative IPC: 0.363125 (Simulation time: 0 hr 0 min 46 sec) 
Heartbeat CPU 0 instructions: 9000002 cycles: 22380225 heartbeat IPC: 0.37256 cumulative IPC: 0.364278 (Simulation time: 0 hr 0 min 52 sec) 
Heartbeat CPU 0 instructions: 10000002 cycles: 25025555 heartbeat IPC: 0.378025 cumulative IPC: 0.365756 (Simulation time: 0 hr 0 min 57 sec) 
Heartbeat CPU 0 instructions: 11000000 cycles: 27832817 heartbeat IPC: 0.356218 cumulative IPC: 0.364779 (Simulation time: 0 hr 1 min 3 sec) 
Heartbeat CPU 0 instructions: 12000003 cycles: 30775138 heartbeat IPC: 0.339869 cumulative IPC: 0.362365 (Simulation time: 0 hr 1 min 9 sec) 
Heartbeat CPU 0 instructions: 13000003 cycles: 33611604 heartbeat IPC: 0.352551 cumulative IPC: 0.361526 (Simulation time: 0 hr 1 min 15 sec) 
Heartbeat CPU 0 instructions: 14000003 cycles: 36282161 heartbeat IPC: 0.374454 cumulative IPC: 0.362489 (Simulation time: 0 hr 1 min 20 sec) 
Heartbeat CPU 0 instructions: 15000001 cycles: 38934563 heartbeat IPC: 0.377016 cumulative IPC: 0.363489 (Simulation time: 0 hr 1 min 25 sec) 
Heartbeat CPU 0 instructions: 16000000 cycles: 41591560 heartbeat IPC: 0.376364 cumulative IPC: 0.36432 (Simulation time: 0 hr 1 min 31 sec) 
Heartbeat CPU 0 instructions: 17000001 cycles: 44402822 heartbeat IPC: 0.355712 cumulative IPC: 0.36377 (Simulation time: 0 hr 1 min 36 sec) 
Heartbeat CPU 0 instructions: 18000000 cycles: 47458206 heartbeat IPC: 0.327291 cumulative IPC: 0.3614 (Simulation time: 0 hr 1 min 42 sec) 
Heartbeat CPU 0 instructions: 19000000 cycles: 50257310 heartbeat IPC: 0.357257 cumulative IPC: 0.361168 (Simulation time: 0 hr 1 min 47 sec) 
Heartbeat CPU 0 instructions: 20000001 cycles: 52976981 heartbeat IPC: 0.367692 cumulative IPC: 0.361505 (Simulation time: 0 hr 1 min 53 sec) 
Heartbeat CPU 0 instructions: 21000003 cycles: 55677784 heartbeat IPC: 0.370261 cumulative IPC: 0.361933 (Simulation time: 0 hr 1 min 58 sec) 
Heartbeat CPU 0 instructions: 22000000 cycles: 58385992 heartbeat IPC: 0.369247 cumulative IPC: 0.362275 (Simulation time: 0 hr 2 min 3 sec) 
Heartbeat CPU 0 instructions: 23000001 cycles: 61155637 heartbeat IPC: 0.361057 cumulative IPC: 0.362219 (Simulation time: 0 hr 2 min 9 sec) 
Heartbeat CPU 0 instructions: 24000001 cycles: 64180101 heartbeat IPC: 0.330637 cumulative IPC: 0.360721 (Simulation time: 0 hr 2 min 14 sec) 
Heartbeat CPU 0 instructions: 25000002 cycles: 66961255 heartbeat IPC: 0.359563 cumulative IPC: 0.360673 (Simulation time: 0 hr 2 min 20 sec) 
Heartbeat CPU 0 instructions: 26000001 cycles: 69643712 heartbeat IPC: 0.372792 cumulative IPC: 0.361143 (Simulation time: 0 hr 2 min 25 sec) 
Heartbeat CPU 0 instructions: 27000000 cycles: 72334120 heartbeat IPC: 0.37169 cumulative IPC: 0.361537 (Simulation time: 0 hr 2 min 31 sec) 
Heartbeat CPU 0 instructions: 28000000 cycles: 75033800 heartbeat IPC: 0.370414 cumulative IPC: 0.361858 (Simulation time: 0 hr 2 min 36 sec) 
Heartbeat CPU 0 instructions: 29000001 cycles: 77793249 heartbeat IPC: 0.362392 cumulative IPC: 0.361877 (Simulation time: 0 hr 2 min 41 sec) 
Heartbeat CPU 0 instructions: 30000000 cycles: 80474459 heartbeat IPC: 0.372966 cumulative IPC: 0.362249 (Simulation time: 0 hr 2 min 47 sec) 
Heartbeat CPU 0 instructions: 31000002 cycles: 83172129 heartbeat IPC: 0.370691 cumulative IPC: 0.362524 (Simulation time: 0 hr 2 min 52 sec) 
Heartbeat CPU 0 instructions: 32000001 cycles: 85885476 heartbeat IPC: 0.368548 cumulative IPC: 0.362715 (Simulation time: 0 hr 2 min 57 sec) 
Heartbeat CPU 0 instructions: 33000000 cycles: 88573431 heartbeat IPC: 0.37203 cumulative IPC: 0.362999 (Simulation time: 0 hr 3 min 3 sec) 
Heartbeat CPU 0 instructions: 34000000 cycles: 91292899 heartbeat IPC: 0.367719 cumulative IPC: 0.36314 (Simulation time: 0 hr 3 min 8 sec) 
Heartbeat CPU 0 instructions: 35000001 cycles: 93967360 heartbeat IPC: 0.373907 cumulative IPC: 0.363448 (Simulation time: 0 hr 3 min 14 sec) 
Heartbeat CPU 0 instructions: 36000001 cycles: 96797497 heartbeat IPC: 0.35334 cumulative IPC: 0.363151 (Simulation time: 0 hr 3 min 20 sec) 
Heartbeat CPU 0 instructions: 37000000 cycles: 99849190 heartbeat IPC: 0.327687 cumulative IPC: 0.362063 (Simulation time: 0 hr 3 min 26 sec) 
Heartbeat CPU 0 instructions: 38000003 cycles: 102533345 heartbeat IPC: 0.372558 cumulative IPC: 0.362339 (Simulation time: 0 hr 3 min 32 sec) 
Heartbeat CPU 0 instructions: 39000000 cycles: 105233956 heartbeat IPC: 0.370285 cumulative IPC: 0.362544 (Simulation time: 0 hr 3 min 38 sec) 
Heartbeat CPU 0 instructions: 40000001 cycles: 107939024 heartbeat IPC: 0.369677 cumulative IPC: 0.362723 (Simulation time: 0 hr 3 min 44 sec) 
Heartbeat CPU 0 instructions: 41000000 cycles: 110629990 heartbeat IPC: 0.371613 cumulative IPC: 0.36294 (Simulation time: 0 hr 3 min 49 sec) 
Heartbeat CPU 0 instructions: 42000000 cycles: 113442982 heartbeat IPC: 0.355493 cumulative IPC: 0.362755 (Simulation time: 0 hr 3 min 55 sec) 
Heartbeat CPU 0 instructions: 43000000 cycles: 116497351 heartbeat IPC: 0.3274 cumulative IPC: 0.361825 (Simulation time: 0 hr 4 min 2 sec) 
Heartbeat CPU 0 instructions: 44000000 cycles: 119210579 heartbeat IPC: 0.368565 cumulative IPC: 0.361978 (Simulation time: 0 hr 4 min 7 sec) 
Heartbeat CPU 0 instructions: 45000002 cycles: 121855830 heartbeat IPC: 0.378037 cumulative IPC: 0.362328 (Simulation time: 0 hr 4 min 13 sec) 
Heartbeat CPU 0 instructions: 46000000 cycles: 124550689 heartbeat IPC: 0.371076 cumulative IPC: 0.362518 (Simulation time: 0 hr 4 min 19 sec) 
Heartbeat CPU 0 instructions: 47000000 cycles: 127210329 heartbeat IPC: 0.375991 cumulative IPC: 0.362801 (Simulation time: 0 hr 4 min 24 sec) 
Heartbeat CPU 0 instructions: 48000000 cycles: 130036497 heartbeat IPC: 0.353836 cumulative IPC: 0.362605 (Simulation time: 0 hr 4 min 30 sec) 
Heartbeat CPU 0 instructions: 49000001 cycles: 133027760 heartbeat IPC: 0.334307 cumulative IPC: 0.361967 (Simulation time: 0 hr 4 min 35 sec) 
Heartbeat CPU 0 instructions: 50000001 cycles: 135718898 heartbeat IPC: 0.37159 cumulative IPC: 0.362158 (Simulation time: 0 hr 4 min 41 sec) 
Heartbeat CPU 0 instructions: 51000003 cycles: 138362581 heartbeat IPC: 0.378261 cumulative IPC: 0.362467 (Simulation time: 0 hr 4 min 47 sec) 
Heartbeat CPU 0 instructions: 52000000 cycles: 141026878 heartbeat IPC: 0.375332 cumulative IPC: 0.362711 (Simulation time: 0 hr 4 min 53 sec) 
Heartbeat CPU 0 instructions: 53000000 cycles: 143841709 heartbeat IPC: 0.355261 cumulative IPC: 0.362565 (Simulation time: 0 hr 4 min 58 sec) 
Heartbeat CPU 0 instructions: 54000003 cycles: 146756670 heartbeat IPC: 0.343059 cumulative IPC: 0.362176 (Simulation time: 0 hr 5 min 4 sec) 
Heartbeat CPU 0 instructions: 55000000 cycles: 149418778 heartbeat IPC: 0.375641 cumulative IPC: 0.362417 (Simulation time: 0 hr 5 min 9 sec) 
Heartbeat CPU 0 instructions: 56000000 cycles: 152064854 heartbeat IPC: 0.377918 cumulative IPC: 0.362687 (Simulation time: 0 hr 5 min 15 sec) 
Heartbeat CPU 0 instructions: 57000000 cycles: 154786561 heartbeat IPC: 0.367416 cumulative IPC: 0.36277 (Simulation time: 0 hr 5 min 21 sec) 
Heartbeat CPU 0 instructions: 58000000 cycles: 157812976 heartbeat IPC: 0.330424 cumulative IPC: 0.362148 (Simulation time: 0 hr 5 min 27 sec) 
Heartbeat CPU 0 instructions: 59000000 cycles: 160463704 heartbeat IPC: 0.377255 cumulative IPC: 0.362399 (Simulation time: 0 hr 5 min 33 sec) 
Heartbeat CPU 0 instructions: 60000001 cycles: 163110882 heartbeat IPC: 0.377761 cumulative IPC: 0.362649 (Simulation time: 0 hr 5 min 38 sec) 
Heartbeat CPU 0 instructions: 61000002 cycles: 165732272 heartbeat IPC: 0.381477 cumulative IPC: 0.362947 (Simulation time: 0 hr 5 min 43 sec) 
Heartbeat CPU 0 instructions: 62000000 cycles: 168831723 heartbeat IPC: 0.322637 cumulative IPC: 0.362205 (Simulation time: 0 hr 5 min 49 sec) 
Heartbeat CPU 0 instructions: 63000000 cycles: 171524642 heartbeat IPC: 0.371344 cumulative IPC: 0.362349 (Simulation time: 0 hr 5 min 55 sec) 
Heartbeat CPU 0 instructions: 64000001 cycles: 174195261 heartbeat IPC: 0.374445 cumulative IPC: 0.362535 (Simulation time: 0 hr 6 min 0 sec) 
Heartbeat CPU 0 instructions: 65000001 cycles: 176905880 heartbeat IPC: 0.368919 cumulative IPC: 0.362633 (Simulation time: 0 hr 6 min 5 sec) 
Heartbeat CPU 0 instructions: 66000000 cycles: 180060335 heartbeat IPC: 0.317012 cumulative IPC: 0.361832 (Simulation time: 0 hr 6 min 11 sec) 
Heartbeat CPU 0 instructions: 67000002 cycles: 182719115 heartbeat IPC: 0.376113 cumulative IPC: 0.36204 (Simulation time: 0 hr 6 min 16 sec) 
Heartbeat CPU 0 instructions: 68000000 cycles: 185403863 heartbeat IPC: 0.372474 cumulative IPC: 0.362192 (Simulation time: 0 hr 6 min 22 sec) 
Heartbeat CPU 0 instructions: 69000002 cycles: 188139717 heartbeat IPC: 0.365517 cumulative IPC: 0.36224 (Simulation time: 0 hr 6 min 28 sec) 
Heartbeat CPU 0 instructions: 70000001 cycles: 191234606 heartbeat IPC: 0.323113 cumulative IPC: 0.361606 (Simulation time: 0 hr 6 min 34 sec) 
Heartbeat CPU 0 instructions: 71000002 cycles: 193897129 heartbeat IPC: 0.375584 cumulative IPC: 0.361798 (Simulation time: 0 hr 6 min 40 sec) 
Heartbeat CPU 0 instructions: 72000001 cycles: 196524152 heartbeat IPC: 0.380659 cumulative IPC: 0.362051 (Simulation time: 0 hr 6 min 45 sec) 
Heartbeat CPU 0 instructions: 73000003 cycles: 199147669 heartbeat IPC: 0.381168 cumulative IPC: 0.362303 (Simulation time: 0 hr 6 min 51 sec) 
Heartbeat CPU 0 instructions: 74000000 cycles: 202070923 heartbeat IPC: 0.342084 cumulative IPC: 0.36201 (Simulation time: 0 hr 6 min 57 sec) 
Heartbeat CPU 0 instructions: 75000001 cycles: 204925270 heartbeat IPC: 0.350343 cumulative IPC: 0.361847 (Simulation time: 0 hr 7 min 3 sec) 
Heartbeat CPU 0 instructions: 76000002 cycles: 207536483 heartbeat IPC: 0.382964 cumulative IPC: 0.362113 (Simulation time: 0 hr 7 min 9 sec) 
Heartbeat CPU 0 instructions: 77000000 cycles: 210184393 heartbeat IPC: 0.377656 cumulative IPC: 0.362309 (Simulation time: 0 hr 7 min 15 sec) 
Heartbeat CPU 0 instructions: 78000002 cycles: 212844479 heartbeat IPC: 0.375928 cumulative IPC: 0.36248 (Simulation time: 0 hr 7 min 21 sec) 
Heartbeat CPU 0 instructions: 79000001 cycles: 215977423 heartbeat IPC: 0.319188 cumulative IPC: 0.361851 (Simulation time: 0 hr 7 min 27 sec) 
Heartbeat CPU 0 instructions: 80000003 cycles: 218614473 heartbeat IPC: 0.379212 cumulative IPC: 0.362061 (Simulation time: 0 hr 7 min 33 sec) 
Heartbeat CPU 0 instructions: 81000000 cycles: 221253777 heartbeat IPC: 0.378887 cumulative IPC: 0.362262 (Simulation time: 0 hr 7 min 39 sec) 
Heartbeat CPU 0 instructions: 82000000 cycles: 224063786 heartbeat IPC: 0.355871 cumulative IPC: 0.362181 (Simulation time: 0 hr 7 min 45 sec) 
Heartbeat CPU 0 instructions: 83000000 cycles: 227083652 heartbeat IPC: 0.331141 cumulative IPC: 0.361768 (Simulation time: 0 hr 7 min 51 sec) 
Heartbeat CPU 0 instructions: 84000000 cycles: 229713052 heartbeat IPC: 0.380315 cumulative IPC: 0.361981 (Simulation time: 0 hr 7 min 56 sec) 
Heartbeat CPU 0 instructions: 85000002 cycles: 232700439 heartbeat IPC: 0.334741 cumulative IPC: 0.36163 (Simulation time: 0 hr 8 min 2 sec) 
Heartbeat CPU 0 instructions: 86000002 cycles: 235423951 heartbeat IPC: 0.367173 cumulative IPC: 0.361694 (Simulation time: 0 hr 8 min 8 sec) 
Heartbeat CPU 0 instructions: 87000000 cycles: 238059395 heartbeat IPC: 0.379442 cumulative IPC: 0.361891 (Simulation time: 0 hr 8 min 13 sec) 
Heartbeat CPU 0 instructions: 88000000 cycles: 241146763 heartbeat IPC: 0.3239 cumulative IPC: 0.361404 (Simulation time: 0 hr 8 min 19 sec) 
Heartbeat CPU 0 instructions: 89000000 cycles: 243809642 heartbeat IPC: 0.375533 cumulative IPC: 0.361559 (Simulation time: 0 hr 8 min 24 sec) 
Heartbeat CPU 0 instructions: 90000003 cycles: 246475667 heartbeat IPC: 0.375091 cumulative IPC: 0.361705 (Simulation time: 0 hr 8 min 30 sec) 
Heartbeat CPU 0 instructions: 91000002 cycles: 249244658 heartbeat IPC: 0.361142 cumulative IPC: 0.361699 (Simulation time: 0 hr 8 min 35 sec) 
Heartbeat CPU 0 instructions: 92000001 cycles: 252237371 heartbeat IPC: 0.334145 cumulative IPC: 0.361372 (Simulation time: 0 hr 8 min 41 sec) 
Heartbeat CPU 0 instructions: 93000000 cycles: 254889294 heartbeat IPC: 0.377084 cumulative IPC: 0.361535 (Simulation time: 0 hr 8 min 47 sec) 
Heartbeat CPU 0 instructions: 94000000 cycles: 257603982 heartbeat IPC: 0.368366 cumulative IPC: 0.361607 (Simulation time: 0 hr 8 min 52 sec) 
Heartbeat CPU 0 instructions: 95000000 cycles: 260586317 heartbeat IPC: 0.335308 cumulative IPC: 0.361306 (Simulation time: 0 hr 8 min 58 sec) 
Heartbeat CPU 0 instructions: 96000002 cycles: 263256954 heartbeat IPC: 0.374443 cumulative IPC: 0.361439 (Simulation time: 0 hr 9 min 4 sec) 
Heartbeat CPU 0 instructions: 97000000 cycles: 266099909 heartbeat IPC: 0.351746 cumulative IPC: 0.361336 (Simulation time: 0 hr 9 min 9 sec) 
Heartbeat CPU 0 instructions: 98000000 cycles: 269024273 heartbeat IPC: 0.341955 cumulative IPC: 0.361125 (Simulation time: 0 hr 9 min 15 sec) 
Heartbeat CPU 0 instructions: 99000000 cycles: 271775876 heartbeat IPC: 0.363425 cumulative IPC: 0.361148 (Simulation time: 0 hr 9 min 21 sec) 
Heartbeat CPU 0 instructions: 100000001 cycles: 274738572 heartbeat IPC: 0.337531 cumulative IPC: 0.360893 (Simulation time: 0 hr 9 min 27 sec) 
Heartbeat CPU 0 instructions: 101000003 cycles: 277363952 heartbeat IPC: 0.380898 cumulative IPC: 0.361083 (Simulation time: 0 hr 9 min 32 sec) 
Heartbeat CPU 0 instructions: 102000001 cycles: 280426189 heartbeat IPC: 0.326558 cumulative IPC: 0.360705 (Simulation time: 0 hr 9 min 38 sec) 
Heartbeat CPU 0 instructions: 103000001 cycles: 283075165 heartbeat IPC: 0.377504 cumulative IPC: 0.360862 (Simulation time: 0 hr 9 min 44 sec) 
Heartbeat CPU 0 instructions: 104000001 cycles: 286152194 heartbeat IPC: 0.324989 cumulative IPC: 0.360476 (Simulation time: 0 hr 9 min 50 sec) 
Heartbeat CPU 0 instructions: 105000001 cycles: 288908931 heartbeat IPC: 0.362748 cumulative IPC: 0.360498 (Simulation time: 0 hr 9 min 55 sec) 
Heartbeat CPU 0 instructions: 106000000 cycles: 291830190 heartbeat IPC: 0.342318 cumulative IPC: 0.360316 (Simulation time: 0 hr 10 min 1 sec) 
Heartbeat CPU 0 instructions: 107000000 cycles: 294547155 heartbeat IPC: 0.368058 cumulative IPC: 0.360387 (Simulation time: 0 hr 10 min 7 sec) 
Heartbeat CPU 0 instructions: 108000003 cycles: 297406908 heartbeat IPC: 0.349682 cumulative IPC: 0.360284 (Simulation time: 0 hr 10 min 13 sec) 
Heartbeat CPU 0 instructions: 109000000 cycles: 300498172 heartbeat IPC: 0.323491 cumulative IPC: 0.359905 (Simulation time: 0 hr 10 min 19 sec) 
Heartbeat CPU 0 instructions: 110000000 cycles: 303066260 heartbeat IPC: 0.389395 cumulative IPC: 0.360155 (Simulation time: 0 hr 10 min 25 sec) 
Heartbeat CPU 0 instructions: 111000000 cycles: 306126738 heartbeat IPC: 0.326746 cumulative IPC: 0.359821 (Simulation time: 0 hr 10 min 31 sec) 
Heartbeat CPU 0 instructions: 112000001 cycles: 308912286 heartbeat IPC: 0.358996 cumulative IPC: 0.359813 (Simulation time: 0 hr 10 min 37 sec) 
Heartbeat CPU 0 instructions: 113000000 cycles: 311797676 heartbeat IPC: 0.346573 cumulative IPC: 0.359691 (Simulation time: 0 hr 10 min 43 sec) 
Heartbeat CPU 0 instructions: 114000000 cycles: 314820113 heartbeat IPC: 0.330859 cumulative IPC: 0.359413 (Simulation time: 0 hr 10 min 49 sec) 
Heartbeat CPU 0 instructions: 115000001 cycles: 317400357 heartbeat IPC: 0.387561 cumulative IPC: 0.359643 (Simulation time: 0 hr 10 min 55 sec) 
Heartbeat CPU 0 instructions: 116000000 cycles: 320446462 heartbeat IPC: 0.328288 cumulative IPC: 0.359344 (Simulation time: 0 hr 11 min 1 sec) 
Heartbeat CPU 0 instructions: 117000000 cycles: 322990572 heartbeat IPC: 0.393065 cumulative IPC: 0.35961 (Simulation time: 0 hr 11 min 7 sec) 
Heartbeat CPU 0 instructions: 118000000 cycles: 326062543 heartbeat IPC: 0.325524 cumulative IPC: 0.359289 (Simulation time: 0 hr 11 min 13 sec) 
Heartbeat CPU 0 instructions: 119000000 cycles: 328776629 heartbeat IPC: 0.368448 cumulative IPC: 0.359364 (Simulation time: 0 hr 11 min 19 sec) 
Heartbeat CPU 0 instructions: 120000002 cycles: 331727213 heartbeat IPC: 0.338917 cumulative IPC: 0.359182 (Simulation time: 0 hr 11 min 25 sec) 
Heartbeat CPU 0 instructions: 121000000 cycles: 334736752 heartbeat IPC: 0.332276 cumulative IPC: 0.35894 (Simulation time: 0 hr 11 min 32 sec) 
Heartbeat CPU 0 instructions: 122000000 cycles: 337622812 heartbeat IPC: 0.346493 cumulative IPC: 0.358833 (Simulation time: 0 hr 11 min 38 sec) 
Heartbeat CPU 0 instructions: 123000002 cycles: 340319500 heartbeat IPC: 0.370826 cumulative IPC: 0.358929 (Simulation time: 0 hr 11 min 44 sec) 
Heartbeat CPU 0 instructions: 124000001 cycles: 343338486 heartbeat IPC: 0.331237 cumulative IPC: 0.358685 (Simulation time: 0 hr 11 min 50 sec) 
Heartbeat CPU 0 instructions: 125000001 cycles: 346339749 heartbeat IPC: 0.333193 cumulative IPC: 0.358464 (Simulation time: 0 hr 11 min 56 sec) 
Heartbeat CPU 0 instructions: 126000001 cycles: 349381514 heartbeat IPC: 0.328756 cumulative IPC: 0.358205 (Simulation time: 0 hr 12 min 2 sec) 
Heartbeat CPU 0 instructions: 127000001 cycles: 352368296 heartbeat IPC: 0.334808 cumulative IPC: 0.358006 (Simulation time: 0 hr 12 min 9 sec) 
Heartbeat CPU 0 instructions: 128000000 cycles: 355328595 heartbeat IPC: 0.337803 cumulative IPC: 0.357838 (Simulation time: 0 hr 12 min 15 sec) 
Heartbeat CPU 0 instructions: 129000001 cycles: 358283952 heartbeat IPC: 0.338369 cumulative IPC: 0.357677 (Simulation time: 0 hr 12 min 21 sec) 
Heartbeat CPU 0 instructions: 130000002 cycles: 361297405 heartbeat IPC: 0.331846 cumulative IPC: 0.357461 (Simulation time: 0 hr 12 min 27 sec) 
Heartbeat CPU 0 instructions: 131000000 cycles: 364578469 heartbeat IPC: 0.304779 cumulative IPC: 0.356986 (Simulation time: 0 hr 12 min 34 sec) 
Heartbeat CPU 0 instructions: 132000000 cycles: 367538787 heartbeat IPC: 0.337802 cumulative IPC: 0.356832 (Simulation time: 0 hr 12 min 40 sec) 
Heartbeat CPU 0 instructions: 133000001 cycles: 370501636 heartbeat IPC: 0.337513 cumulative IPC: 0.356677 (Simulation time: 0 hr 12 min 46 sec) 
Heartbeat CPU 0 instructions: 134000003 cycles: 373457167 heartbeat IPC: 0.338349 cumulative IPC: 0.356532 (Simulation time: 0 hr 12 min 53 sec) 
Heartbeat CPU 0 instructions: 135000000 cycles: 376439472 heartbeat IPC: 0.33531 cumulative IPC: 0.356364 (Simulation time: 0 hr 12 min 59 sec) 
Heartbeat CPU 0 instructions: 136000002 cycles: 379378833 heartbeat IPC: 0.340211 cumulative IPC: 0.356238 (Simulation time: 0 hr 13 min 5 sec) 
Heartbeat CPU 0 instructions: 137000000 cycles: 382327842 heartbeat IPC: 0.339096 cumulative IPC: 0.356106 (Simulation time: 0 hr 13 min 11 sec) 
Heartbeat CPU 0 instructions: 138000000 cycles: 385296456 heartbeat IPC: 0.336858 cumulative IPC: 0.355957 (Simulation time: 0 hr 13 min 18 sec) 
Heartbeat CPU 0 instructions: 139000001 cycles: 388641643 heartbeat IPC: 0.298937 cumulative IPC: 0.355466 (Simulation time: 0 hr 13 min 24 sec) 
Heartbeat CPU 0 instructions: 140000002 cycles: 391815815 heartbeat IPC: 0.315043 cumulative IPC: 0.355138 (Simulation time: 0 hr 13 min 31 sec) 
Heartbeat CPU 0 instructions: 141000000 cycles: 395085452 heartbeat IPC: 0.305844 cumulative IPC: 0.35473 (Simulation time: 0 hr 13 min 37 sec) 
Heartbeat CPU 0 instructions: 142000003 cycles: 398070902 heartbeat IPC: 0.334959 cumulative IPC: 0.354581 (Simulation time: 0 hr 13 min 44 sec) 
Heartbeat CPU 0 instructions: 143000000 cycles: 401102470 heartbeat IPC: 0.329861 cumulative IPC: 0.354394 (Simulation time: 0 hr 13 min 50 sec) 
Heartbeat CPU 0 instructions: 144000000 cycles: 404301114 heartbeat IPC: 0.312632 cumulative IPC: 0.354064 (Simulation time: 0 hr 13 min 57 sec) 
Heartbeat CPU 0 instructions: 145000003 cycles: 407476357 heartbeat IPC: 0.314937 cumulative IPC: 0.353758 (Simulation time: 0 hr 14 min 3 sec) 
Heartbeat CPU 0 instructions: 146000000 cycles: 410667272 heartbeat IPC: 0.313389 cumulative IPC: 0.353444 (Simulation time: 0 hr 14 min 10 sec) 
Heartbeat CPU 0 instructions: 147000001 cycles: 413662443 heartbeat IPC: 0.333871 cumulative IPC: 0.353303 (Simulation time: 0 hr 14 min 17 sec) 
Heartbeat CPU 0 instructions: 148000001 cycles: 416723180 heartbeat IPC: 0.326719 cumulative IPC: 0.353107 (Simulation time: 0 hr 14 min 23 sec) 
Heartbeat CPU 0 instructions: 149000000 cycles: 419999676 heartbeat IPC: 0.305204 cumulative IPC: 0.352733 (Simulation time: 0 hr 14 min 30 sec) 
Heartbeat CPU 0 instructions: 150000001 cycles: 423224029 heartbeat IPC: 0.31014 cumulative IPC: 0.352408 (Simulation time: 0 hr 14 min 37 sec) 
Heartbeat CPU 0 instructions: 151000001 cycles: 426653061 heartbeat IPC: 0.291627 cumulative IPC: 0.351919 (Simulation time: 0 hr 14 min 44 sec) 
Heartbeat CPU 0 instructions: 152000000 cycles: 429829787 heartbeat IPC: 0.314789 cumulative IPC: 0.351645 (Simulation time: 0 hr 14 min 50 sec) 
Heartbeat CPU 0 instructions: 153000000 cycles: 432952132 heartbeat IPC: 0.320272 cumulative IPC: 0.351418 (Simulation time: 0 hr 14 min 57 sec) 
Heartbeat CPU 0 instructions: 154000000 cycles: 436401304 heartbeat IPC: 0.289925 cumulative IPC: 0.350932 (Simulation time: 0 hr 15 min 4 sec) 
Heartbeat CPU 0 instructions: 155000002 cycles: 439547678 heartbeat IPC: 0.317827 cumulative IPC: 0.350694 (Simulation time: 0 hr 15 min 11 sec) 
Heartbeat CPU 0 instructions: 156000000 cycles: 443023202 heartbeat IPC: 0.287726 cumulative IPC: 0.3502 (Simulation time: 0 hr 15 min 18 sec) 
Heartbeat CPU 0 instructions: 157000000 cycles: 446121178 heartbeat IPC: 0.322791 cumulative IPC: 0.35001 (Simulation time: 0 hr 15 min 25 sec) 
Heartbeat CPU 0 instructions: 158000001 cycles: 449571265 heartbeat IPC: 0.289848 cumulative IPC: 0.349547 (Simulation time: 0 hr 15 min 32 sec) 
Heartbeat CPU 0 instructions: 159000001 cycles: 452608269 heartbeat IPC: 0.329272 cumulative IPC: 0.349411 (Simulation time: 0 hr 15 min 39 sec) 
Heartbeat CPU 0 instructions: 160000001 cycles: 456050682 heartbeat IPC: 0.290494 cumulative IPC: 0.348966 (Simulation time: 0 hr 15 min 46 sec) 
Heartbeat CPU 0 instructions: 161000002 cycles: 459122624 heartbeat IPC: 0.325527 cumulative IPC: 0.348809 (Simulation time: 0 hr 15 min 53 sec) 
Heartbeat CPU 0 instructions: 162000000 cycles: 462623154 heartbeat IPC: 0.28567 cumulative IPC: 0.348331 (Simulation time: 0 hr 16 min 0 sec) 
Heartbeat CPU 0 instructions: 163000002 cycles: 465817717 heartbeat IPC: 0.313032 cumulative IPC: 0.348089 (Simulation time: 0 hr 16 min 7 sec) 
Heartbeat CPU 0 instructions: 164000003 cycles: 469269684 heartbeat IPC: 0.28969 cumulative IPC: 0.347659 (Simulation time: 0 hr 16 min 14 sec) 
Heartbeat CPU 0 instructions: 165000000 cycles: 472584656 heartbeat IPC: 0.301661 cumulative IPC: 0.347336 (Simulation time: 0 hr 16 min 21 sec) 
Heartbeat CPU 0 instructions: 166000002 cycles: 475870933 heartbeat IPC: 0.304296 cumulative IPC: 0.347038 (Simulation time: 0 hr 16 min 28 sec) 
Heartbeat CPU 0 instructions: 167000001 cycles: 479508951 heartbeat IPC: 0.274875 cumulative IPC: 0.34649 (Simulation time: 0 hr 16 min 36 sec) 
Heartbeat CPU 0 instructions: 168000001 cycles: 483231504 heartbeat IPC: 0.268633 cumulative IPC: 0.34589 (Simulation time: 0 hr 16 min 43 sec) 
Heartbeat CPU 0 instructions: 169000000 cycles: 486696995 heartbeat IPC: 0.288559 cumulative IPC: 0.345481 (Simulation time: 0 hr 16 min 51 sec) 
Heartbeat CPU 0 instructions: 170000001 cycles: 490403946 heartbeat IPC: 0.269764 cumulative IPC: 0.344909 (Simulation time: 0 hr 16 min 59 sec) 
Heartbeat CPU 0 instructions: 171000000 cycles: 493864526 heartbeat IPC: 0.288969 cumulative IPC: 0.344516 (Simulation time: 0 hr 17 min 6 sec) 
Heartbeat CPU 0 instructions: 172000000 cycles: 497543806 heartbeat IPC: 0.271792 cumulative IPC: 0.343978 (Simulation time: 0 hr 17 min 14 sec) 
Heartbeat CPU 0 instructions: 173000002 cycles: 500912778 heartbeat IPC: 0.296827 cumulative IPC: 0.343661 (Simulation time: 0 hr 17 min 21 sec) 
Heartbeat CPU 0 instructions: 174000001 cycles: 504447465 heartbeat IPC: 0.28291 cumulative IPC: 0.343235 (Simulation time: 0 hr 17 min 29 sec) 
Heartbeat CPU 0 instructions: 175000001 cycles: 508069970 heartbeat IPC: 0.276052 cumulative IPC: 0.342755 (Simulation time: 0 hr 17 min 36 sec) 
Heartbeat CPU 0 instructions: 176000000 cycles: 511412348 heartbeat IPC: 0.299188 cumulative IPC: 0.34247 (Simulation time: 0 hr 17 min 43 sec) 
Heartbeat CPU 0 instructions: 177000001 cycles: 514806571 heartbeat IPC: 0.294619 cumulative IPC: 0.342154 (Simulation time: 0 hr 17 min 50 sec) 
Heartbeat CPU 0 instructions: 178000001 cycles: 518383779 heartbeat IPC: 0.279548 cumulative IPC: 0.341722 (Simulation time: 0 hr 17 min 58 sec) 
Heartbeat CPU 0 instructions: 179000000 cycles: 521862098 heartbeat IPC: 0.287495 cumulative IPC: 0.34136 (Simulation time: 0 hr 18 min 5 sec) 
Heartbeat CPU 0 instructions: 180000003 cycles: 525436533 heartbeat IPC: 0.279765 cumulative IPC: 0.340941 (Simulation time: 0 hr 18 min 12 sec) 
Heartbeat CPU 0 instructions: 181000001 cycles: 529020005 heartbeat IPC: 0.279058 cumulative IPC: 0.340521 (Simulation time: 0 hr 18 min 19 sec) 
Heartbeat CPU 0 instructions: 182000003 cycles: 532559225 heartbeat IPC: 0.282549 cumulative IPC: 0.340136 (Simulation time: 0 hr 18 min 27 sec) 
Heartbeat CPU 0 instructions: 183000002 cycles: 536201272 heartbeat IPC: 0.274571 cumulative IPC: 0.33969 (Simulation time: 0 hr 18 min 35 sec) 
Heartbeat CPU 0 instructions: 184000002 cycles: 539629769 heartbeat IPC: 0.291673 cumulative IPC: 0.339385 (Simulation time: 0 hr 18 min 42 sec) 
Heartbeat CPU 0 instructions: 185000001 cycles: 543581942 heartbeat IPC: 0.253025 cumulative IPC: 0.338757 (Simulation time: 0 hr 18 min 50 sec) 
Heartbeat CPU 0 instructions: 186000003 cycles: 547002757 heartbeat IPC: 0.292329 cumulative IPC: 0.338466 (Simulation time: 0 hr 18 min 57 sec) 
Heartbeat CPU 0 instructions: 187000000 cycles: 550565614 heartbeat IPC: 0.280673 cumulative IPC: 0.338092 (Simulation time: 0 hr 19 min 5 sec) 
Heartbeat CPU 0 instructions: 188000002 cycles: 554241526 heartbeat IPC: 0.272042 cumulative IPC: 0.337653 (Simulation time: 0 hr 19 min 12 sec) 
Heartbeat CPU 0 instructions: 189000002 cycles: 557653079 heartbeat IPC: 0.293122 cumulative IPC: 0.337381 (Simulation time: 0 hr 19 min 20 sec) 
Heartbeat CPU 0 instructions: 190000002 cycles: 561222822 heartbeat IPC: 0.280132 cumulative IPC: 0.337016 (Simulation time: 0 hr 19 min 27 sec) 
Heartbeat CPU 0 instructions: 191000001 cycles: 564818410 heartbeat IPC: 0.278118 cumulative IPC: 0.336641 (Simulation time: 0 hr 19 min 34 sec) 
Heartbeat CPU 0 instructions: 192000001 cycles: 568272642 heartbeat IPC: 0.2895 cumulative IPC: 0.336354 (Simulation time: 0 hr 19 min 42 sec) 
Heartbeat CPU 0 instructions: 193000001 cycles: 571987326 heartbeat IPC: 0.269202 cumulative IPC: 0.335918 (Simulation time: 0 hr 19 min 49 sec) 
Heartbeat CPU 0 instructions: 194000000 cycles: 575549937 heartbeat IPC: 0.280693 cumulative IPC: 0.335576 (Simulation time: 0 hr 19 min 57 sec) 
Heartbeat CPU 0 instructions: 195000000 cycles: 579468433 heartbeat IPC: 0.2552 cumulative IPC: 0.335032 (Simulation time: 0 hr 20 min 5 sec) 
Heartbeat CPU 0 instructions: 196000002 cycles: 582967524 heartbeat IPC: 0.285789 cumulative IPC: 0.334736 (Simulation time: 0 hr 20 min 12 sec) 
Heartbeat CPU 0 instructions: 197000001 cycles: 586785061 heartbeat IPC: 0.261949 cumulative IPC: 0.334262 (Simulation time: 0 hr 20 min 20 sec) 
Heartbeat CPU 0 instructions: 198000000 cycles: 590336439 heartbeat IPC: 0.281581 cumulative IPC: 0.333945 (Simulation time: 0 hr 20 min 27 sec) 
Heartbeat CPU 0 instructions: 199000000 cycles: 594099472 heartbeat IPC: 0.265743 cumulative IPC: 0.333513 (Simulation time: 0 hr 20 min 34 sec) 
Heartbeat CPU 0 instructions: 200000001 cycles: 597720442 heartbeat IPC: 0.276169 cumulative IPC: 0.333165 (Simulation time: 0 hr 20 min 41 sec) 
Heartbeat CPU 0 instructions: 201000003 cycles: 601256029 heartbeat IPC: 0.282839 cumulative IPC: 0.332869 (Simulation time: 0 hr 20 min 48 sec) 
Heartbeat CPU 0 instructions: 202000003 cycles: 604838020 heartbeat IPC: 0.279174 cumulative IPC: 0.332551 (Simulation time: 0 hr 20 min 55 sec) 
Heartbeat CPU 0 instructions: 203000002 cycles: 608433212 heartbeat IPC: 0.278149 cumulative IPC: 0.332229 (Simulation time: 0 hr 21 min 2 sec) 
Heartbeat CPU 0 instructions: 204000000 cycles: 612029085 heartbeat IPC: 0.278096 cumulative IPC: 0.331911 (Simulation time: 0 hr 21 min 9 sec) 
Heartbeat CPU 0 instructions: 205000001 cycles: 615568170 heartbeat IPC: 0.282559 cumulative IPC: 0.331627 (Simulation time: 0 hr 21 min 16 sec) 
Heartbeat CPU 0 instructions: 206000000 cycles: 619256348 heartbeat IPC: 0.271136 cumulative IPC: 0.331266 (Simulation time: 0 hr 21 min 23 sec) 
Heartbeat CPU 0 instructions: 207000001 cycles: 623018422 heartbeat IPC: 0.265811 cumulative IPC: 0.330871 (Simulation time: 0 hr 21 min 30 sec) 
Heartbeat CPU 0 instructions: 208000003 cycles: 626564924 heartbeat IPC: 0.281969 cumulative IPC: 0.330594 (Simulation time: 0 hr 21 min 37 sec) 
Heartbeat CPU 0 instructions: 209000000 cycles: 630090624 heartbeat IPC: 0.283631 cumulative IPC: 0.330331 (Simulation time: 0 hr 21 min 43 sec) 
Heartbeat CPU 0 instructions: 210000002 cycles: 633876009 heartbeat IPC: 0.264174 cumulative IPC: 0.329936 (Simulation time: 0 hr 21 min 50 sec) 
Heartbeat CPU 0 instructions: 211000003 cycles: 637429729 heartbeat IPC: 0.281396 cumulative IPC: 0.329665 (Simulation time: 0 hr 21 min 57 sec) 
Heartbeat CPU 0 instructions: 212000001 cycles: 640943000 heartbeat IPC: 0.284634 cumulative IPC: 0.329418 (Simulation time: 0 hr 22 min 4 sec) 
Heartbeat CPU 0 instructions: 213000003 cycles: 644500790 heartbeat IPC: 0.281074 cumulative IPC: 0.329151 (Simulation time: 0 hr 22 min 11 sec) 
Heartbeat CPU 0 instructions: 214000002 cycles: 647984346 heartbeat IPC: 0.287063 cumulative IPC: 0.328924 (Simulation time: 0 hr 22 min 18 sec) 
Heartbeat CPU 0 instructions: 215000000 cycles: 651710672 heartbeat IPC: 0.26836 cumulative IPC: 0.328578 (Simulation time: 0 hr 22 min 25 sec) 
Heartbeat CPU 0 instructions: 216000001 cycles: 654980794 heartbeat IPC: 0.305799 cumulative IPC: 0.328464 (Simulation time: 0 hr 22 min 32 sec) 
Heartbeat CPU 0 instructions: 217000001 cycles: 658428429 heartbeat IPC: 0.290054 cumulative IPC: 0.328263 (Simulation time: 0 hr 22 min 38 sec) 
Heartbeat CPU 0 instructions: 218000003 cycles: 661984529 heartbeat IPC: 0.281208 cumulative IPC: 0.32801 (Simulation time: 0 hr 22 min 45 sec) 
Heartbeat CPU 0 instructions: 219000000 cycles: 665474274 heartbeat IPC: 0.286553 cumulative IPC: 0.327792 (Simulation time: 0 hr 22 min 52 sec) 
Heartbeat CPU 0 instructions: 220000000 cycles: 668720996 heartbeat IPC: 0.308003 cumulative IPC: 0.327696 (Simulation time: 0 hr 22 min 59 sec) 
Heartbeat CPU 0 instructions: 221000001 cycles: 672148344 heartbeat IPC: 0.291771 cumulative IPC: 0.327513 (Simulation time: 0 hr 23 min 6 sec) 
Heartbeat CPU 0 instructions: 222000000 cycles: 675712367 heartbeat IPC: 0.280582 cumulative IPC: 0.327265 (Simulation time: 0 hr 23 min 13 sec) 
Heartbeat CPU 0 instructions: 223000000 cycles: 679045154 heartbeat IPC: 0.300049 cumulative IPC: 0.327132 (Simulation time: 0 hr 23 min 20 sec) 
Heartbeat CPU 0 instructions: 224000001 cycles: 682385950 heartbeat IPC: 0.29933 cumulative IPC: 0.326995 (Simulation time: 0 hr 23 min 27 sec) 
Heartbeat CPU 0 instructions: 225000000 cycles: 685919906 heartbeat IPC: 0.282969 cumulative IPC: 0.326768 (Simulation time: 0 hr 23 min 34 sec) 
Heartbeat CPU 0 instructions: 226000002 cycles: 689505540 heartbeat IPC: 0.278891 cumulative IPC: 0.326519 (Simulation time: 0 hr 23 min 41 sec) 
Heartbeat CPU 0 instructions: 227000002 cycles: 692879388 heartbeat IPC: 0.296397 cumulative IPC: 0.326372 (Simulation time: 0 hr 23 min 48 sec) 
Heartbeat CPU 0 instructions: 228000000 cycles: 696256898 heartbeat IPC: 0.296076 cumulative IPC: 0.326225 (Simulation time: 0 hr 23 min 54 sec) 
Heartbeat CPU 0 instructions: 229000003 cycles: 699825918 heartbeat IPC: 0.28019 cumulative IPC: 0.32599 (Simulation time: 0 hr 24 min 1 sec) 
Heartbeat CPU 0 instructions: 230000002 cycles: 703216670 heartbeat IPC: 0.29492 cumulative IPC: 0.325841 (Simulation time: 0 hr 24 min 8 sec) 
Heartbeat CPU 0 instructions: 231000000 cycles: 706586538 heartbeat IPC: 0.296747 cumulative IPC: 0.325702 (Simulation time: 0 hr 24 min 14 sec) 
Heartbeat CPU 0 instructions: 232000000 cycles: 710146627 heartbeat IPC: 0.280892 cumulative IPC: 0.325477 (Simulation time: 0 hr 24 min 21 sec) 
Heartbeat CPU 0 instructions: 233000000 cycles: 713700188 heartbeat IPC: 0.281408 cumulative IPC: 0.325257 (Simulation time: 0 hr 24 min 27 sec) 
Heartbeat CPU 0 instructions: 234000002 cycles: 717017810 heartbeat IPC: 0.301421 cumulative IPC: 0.325147 (Simulation time: 0 hr 24 min 34 sec) 
Heartbeat CPU 0 instructions: 235000001 cycles: 720479952 heartbeat IPC: 0.288838 cumulative IPC: 0.324972 (Simulation time: 0 hr 24 min 40 sec) 
Heartbeat CPU 0 instructions: 236000002 cycles: 724014096 heartbeat IPC: 0.282954 cumulative IPC: 0.324767 (Simulation time: 0 hr 24 min 47 sec) 
Heartbeat CPU 0 instructions: 237000001 cycles: 732000896 heartbeat IPC: 0.125206 cumulative IPC: 0.322589 (Simulation time: 0 hr 24 min 57 sec) 
Heartbeat CPU 0 instructions: 238000001 cycles: 735291400 heartbeat IPC: 0.303905 cumulative IPC: 0.322505 (Simulation time: 0 hr 25 min 3 sec) 
Heartbeat CPU 0 instructions: 239000003 cycles: 738609134 heartbeat IPC: 0.301411 cumulative IPC: 0.32241 (Simulation time: 0 hr 25 min 10 sec) 
Heartbeat CPU 0 instructions: 240000001 cycles: 742161266 heartbeat IPC: 0.281521 cumulative IPC: 0.322214 (Simulation time: 0 hr 25 min 17 sec) 
Heartbeat CPU 0 instructions: 241000000 cycles: 745346003 heartbeat IPC: 0.313997 cumulative IPC: 0.322179 (Simulation time: 0 hr 25 min 23 sec) 
Heartbeat CPU 0 instructions: 242000000 cycles: 748598653 heartbeat IPC: 0.307442 cumulative IPC: 0.322115 (Simulation time: 0 hr 25 min 29 sec) 
Heartbeat CPU 0 instructions: 243000001 cycles: 751818577 heartbeat IPC: 0.310567 cumulative IPC: 0.322066 (Simulation time: 0 hr 25 min 36 sec) 
Heartbeat CPU 0 instructions: 244000003 cycles: 755096175 heartbeat IPC: 0.305102 cumulative IPC: 0.321992 (Simulation time: 0 hr 25 min 42 sec) 
Heartbeat CPU 0 instructions: 245000002 cycles: 758673041 heartbeat IPC: 0.279574 cumulative IPC: 0.321792 (Simulation time: 0 hr 25 min 49 sec) 
Heartbeat CPU 0 instructions: 246000002 cycles: 761848683 heartbeat IPC: 0.314897 cumulative IPC: 0.321763 (Simulation time: 0 hr 25 min 55 sec) 
Heartbeat CPU 0 instructions: 247000002 cycles: 767998622 heartbeat IPC: 0.162603 cumulative IPC: 0.320488 (Simulation time: 0 hr 26 min 5 sec) 
Heartbeat CPU 0 instructions: 248000001 cycles: 771184007 heartbeat IPC: 0.313933 cumulative IPC: 0.320461 (Simulation time: 0 hr 26 min 11 sec) 
Heartbeat CPU 0 instructions: 249000002 cycles: 774572786 heartbeat IPC: 0.295092 cumulative IPC: 0.32035 (Simulation time: 0 hr 26 min 18 sec) 
Heartbeat CPU 0 instructions: 250000001 cycles: 777463294 heartbeat IPC: 0.34596 cumulative IPC: 0.320445 (Simulation time: 0 hr 26 min 24 sec) 
Heartbeat CPU 0 instructions: 251000001 cycles: 780772958 heartbeat IPC: 0.302145 cumulative IPC: 0.320367 (Simulation time: 0 hr 26 min 31 sec) 
Heartbeat CPU 0 instructions: 252000003 cycles: 783751824 heartbeat IPC: 0.335699 cumulative IPC: 0.320426 (Simulation time: 0 hr 26 min 37 sec) 
Heartbeat CPU 0 instructions: 253000000 cycles: 787005227 heartbeat IPC: 0.30737 cumulative IPC: 0.320372 (Simulation time: 0 hr 26 min 44 sec) 
Heartbeat CPU 0 instructions: 254000001 cycles: 790268722 heartbeat IPC: 0.30642 cumulative IPC: 0.320314 (Simulation time: 0 hr 26 min 51 sec) 
Heartbeat CPU 0 instructions: 255000001 cycles: 793336615 heartbeat IPC: 0.325957 cumulative IPC: 0.320336 (Simulation time: 0 hr 26 min 57 sec) 
Heartbeat CPU 0 instructions: 256000002 cycles: 796326880 heartbeat IPC: 0.334419 cumulative IPC: 0.320389 (Simulation time: 0 hr 27 min 4 sec) 
Heartbeat CPU 0 instructions: 257000002 cycles: 799692591 heartbeat IPC: 0.297114 cumulative IPC: 0.320291 (Simulation time: 0 hr 27 min 11 sec) 
Heartbeat CPU 0 instructions: 258000000 cycles: 802975248 heartbeat IPC: 0.304631 cumulative IPC: 0.320227 (Simulation time: 0 hr 27 min 18 sec) 
Heartbeat CPU 0 instructions: 259000002 cycles: 806292339 heartbeat IPC: 0.30147 cumulative IPC: 0.32015 (Simulation time: 0 hr 27 min 24 sec) 
Heartbeat CPU 0 instructions: 260000000 cycles: 809307844 heartbeat IPC: 0.331619 cumulative IPC: 0.320192 (Simulation time: 0 hr 27 min 31 sec) 
Heartbeat CPU 0 instructions: 261000003 cycles: 812503712 heartbeat IPC: 0.312905 cumulative IPC: 0.320164 (Simulation time: 0 hr 27 min 37 sec) 
Heartbeat CPU 0 instructions: 262000001 cycles: 815820242 heartbeat IPC: 0.301519 cumulative IPC: 0.320088 (Simulation time: 0 hr 27 min 44 sec) 
Heartbeat CPU 0 instructions: 263000001 cycles: 819149391 heartbeat IPC: 0.300377 cumulative IPC: 0.320008 (Simulation time: 0 hr 27 min 51 sec) 
Heartbeat CPU 0 instructions: 264000000 cycles: 822481043 heartbeat IPC: 0.300151 cumulative IPC: 0.319927 (Simulation time: 0 hr 27 min 58 sec) 
Heartbeat CPU 0 instructions: 265000002 cycles: 825793019 heartbeat IPC: 0.301935 cumulative IPC: 0.319855 (Simulation time: 0 hr 28 min 4 sec) 
Heartbeat CPU 0 instructions: 266000000 cycles: 828895163 heartbeat IPC: 0.322357 cumulative IPC: 0.319864 (Simulation time: 0 hr 28 min 11 sec) 
Heartbeat CPU 0 instructions: 267000000 cycles: 832055609 heartbeat IPC: 0.316411 cumulative IPC: 0.319851 (Simulation time: 0 hr 28 min 18 sec) 
Heartbeat CPU 0 instructions: 268000002 cycles: 835360047 heartbeat IPC: 0.302624 cumulative IPC: 0.319783 (Simulation time: 0 hr 28 min 24 sec) 
Heartbeat CPU 0 instructions: 269000002 cycles: 838714387 heartbeat IPC: 0.298121 cumulative IPC: 0.319696 (Simulation time: 0 hr 28 min 31 sec) 
Heartbeat CPU 0 instructions: 270000000 cycles: 841864489 heartbeat IPC: 0.317449 cumulative IPC: 0.319688 (Simulation time: 0 hr 28 min 38 sec) 
Heartbeat CPU 0 instructions: 271000002 cycles: 845015907 heartbeat IPC: 0.317318 cumulative IPC: 0.319679 (Simulation time: 0 hr 28 min 44 sec) 
Heartbeat CPU 0 instructions: 272000003 cycles: 848378117 heartbeat IPC: 0.297424 cumulative IPC: 0.319591 (Simulation time: 0 hr 28 min 51 sec) 
Heartbeat CPU 0 instructions: 273000001 cycles: 851743605 heartbeat IPC: 0.297133 cumulative IPC: 0.319502 (Simulation time: 0 hr 28 min 58 sec) 
Heartbeat CPU 0 instructions: 274000001 cycles: 854664107 heartbeat IPC: 0.342407 cumulative IPC: 0.31958 (Simulation time: 0 hr 29 min 4 sec) 
Heartbeat CPU 0 instructions: 275000000 cycles: 857977583 heartbeat IPC: 0.301798 cumulative IPC: 0.319512 (Simulation time: 0 hr 29 min 11 sec) 
Heartbeat CPU 0 instructions: 276000000 cycles: 861252180 heartbeat IPC: 0.305381 cumulative IPC: 0.319458 (Simulation time: 0 hr 29 min 18 sec) 
Heartbeat CPU 0 instructions: 277000002 cycles: 864295580 heartbeat IPC: 0.328581 cumulative IPC: 0.31949 (Simulation time: 0 hr 29 min 24 sec) 
Heartbeat CPU 0 instructions: 278000002 cycles: 867623954 heartbeat IPC: 0.300447 cumulative IPC: 0.319417 (Simulation time: 0 hr 29 min 31 sec) 
Heartbeat CPU 0 instructions: 279000000 cycles: 870974434 heartbeat IPC: 0.298464 cumulative IPC: 0.319336 (Simulation time: 0 hr 29 min 38 sec) 
Heartbeat CPU 0 instructions: 280000000 cycles: 873920347 heartbeat IPC: 0.339453 cumulative IPC: 0.319404 (Simulation time: 0 hr 29 min 45 sec) 
Heartbeat CPU 0 instructions: 281000000 cycles: 877170010 heartbeat IPC: 0.307724 cumulative IPC: 0.319361 (Simulation time: 0 hr 29 min 51 sec) 
Heartbeat CPU 0 instructions: 282000000 cycles: 880450057 heartbeat IPC: 0.304874 cumulative IPC: 0.319307 (Simulation time: 0 hr 29 min 58 sec) 
Heartbeat CPU 0 instructions: 283000003 cycles: 883756721 heartbeat IPC: 0.30242 cumulative IPC: 0.319244 (Simulation time: 0 hr 30 min 5 sec) 
Heartbeat CPU 0 instructions: 284000002 cycles: 887120587 heartbeat IPC: 0.297277 cumulative IPC: 0.31916 (Simulation time: 0 hr 30 min 12 sec) 
Heartbeat CPU 0 instructions: 285000002 cycles: 890086025 heartbeat IPC: 0.337218 cumulative IPC: 0.319221 (Simulation time: 0 hr 30 min 18 sec) 
Heartbeat CPU 0 instructions: 286000000 cycles: 893365763 heartbeat IPC: 0.304902 cumulative IPC: 0.319168 (Simulation time: 0 hr 30 min 24 sec) 
Heartbeat CPU 0 instructions: 287000000 cycles: 896728633 heartbeat IPC: 0.297365 cumulative IPC: 0.319086 (Simulation time: 0 hr 30 min 30 sec) 
Heartbeat CPU 0 instructions: 288000001 cycles: 899893754 heartbeat IPC: 0.315944 cumulative IPC: 0.319075 (Simulation time: 0 hr 30 min 37 sec) 
Heartbeat CPU 0 instructions: 289000000 cycles: 902997214 heartbeat IPC: 0.322221 cumulative IPC: 0.319086 (Simulation time: 0 hr 30 min 43 sec) 
Heartbeat CPU 0 instructions: 290000000 cycles: 906350458 heartbeat IPC: 0.298219 cumulative IPC: 0.319009 (Simulation time: 0 hr 30 min 49 sec) 
Heartbeat CPU 0 instructions: 291000000 cycles: 909457851 heartbeat IPC: 0.321813 cumulative IPC: 0.319018 (Simulation time: 0 hr 30 min 56 sec) 
Heartbeat CPU 0 instructions: 292000001 cycles: 912665883 heartbeat IPC: 0.311718 cumulative IPC: 0.318993 (Simulation time: 0 hr 31 min 2 sec) 
Heartbeat CPU 0 instructions: 293000003 cycles: 916071589 heartbeat IPC: 0.293625 cumulative IPC: 0.318898 (Simulation time: 0 hr 31 min 9 sec) 
Heartbeat CPU 0 instructions: 294000001 cycles: 919112760 heartbeat IPC: 0.32882 cumulative IPC: 0.318931 (Simulation time: 0 hr 31 min 15 sec) 
Heartbeat CPU 0 instructions: 295000000 cycles: 922380216 heartbeat IPC: 0.306048 cumulative IPC: 0.318885 (Simulation time: 0 hr 31 min 22 sec) 
Heartbeat CPU 0 instructions: 296000000 cycles: 925699335 heartbeat IPC: 0.301285 cumulative IPC: 0.318822 (Simulation time: 0 hr 31 min 29 sec) 
Heartbeat CPU 0 instructions: 297000000 cycles: 928667209 heartbeat IPC: 0.336942 cumulative IPC: 0.31888 (Simulation time: 0 hr 31 min 35 sec) 
Heartbeat CPU 0 instructions: 298000000 cycles: 932034511 heartbeat IPC: 0.296974 cumulative IPC: 0.318801 (Simulation time: 0 hr 31 min 41 sec) 
Heartbeat CPU 0 instructions: 299000001 cycles: 935138403 heartbeat IPC: 0.322176 cumulative IPC: 0.318812 (Simulation time: 0 hr 31 min 48 sec) 
Heartbeat CPU 0 instructions: 300000002 cycles: 938353945 heartbeat IPC: 0.31099 cumulative IPC: 0.318785 (Simulation time: 0 hr 31 min 54 sec) 
Heartbeat CPU 0 instructions: 301000001 cycles: 941705845 heartbeat IPC: 0.298338 cumulative IPC: 0.318713 (Simulation time: 0 hr 32 min 1 sec) 
Heartbeat CPU 0 instructions: 302000002 cycles: 944907854 heartbeat IPC: 0.312304 cumulative IPC: 0.318691 (Simulation time: 0 hr 32 min 8 sec) 
Heartbeat CPU 0 instructions: 303000001 cycles: 947975196 heartbeat IPC: 0.326015 cumulative IPC: 0.318715 (Simulation time: 0 hr 32 min 14 sec) 
Heartbeat CPU 0 instructions: 304000001 cycles: 951441655 heartbeat IPC: 0.288479 cumulative IPC: 0.318604 (Simulation time: 0 hr 32 min 21 sec) 
Heartbeat CPU 0 instructions: 305000000 cycles: 954681409 heartbeat IPC: 0.308665 cumulative IPC: 0.318571 (Simulation time: 0 hr 32 min 27 sec) 
Heartbeat CPU 0 instructions: 306000002 cycles: 957706927 heartbeat IPC: 0.330523 cumulative IPC: 0.318608 (Simulation time: 0 hr 32 min 34 sec) 
Heartbeat CPU 0 instructions: 307000000 cycles: 961079419 heartbeat IPC: 0.296516 cumulative IPC: 0.318531 (Simulation time: 0 hr 32 min 40 sec) 
Heartbeat CPU 0 instructions: 308000000 cycles: 964362795 heartbeat IPC: 0.304565 cumulative IPC: 0.318483 (Simulation time: 0 hr 32 min 47 sec) 
Heartbeat CPU 0 instructions: 309000000 cycles: 967418520 heartbeat IPC: 0.327255 cumulative IPC: 0.318511 (Simulation time: 0 hr 32 min 53 sec) 
Heartbeat CPU 0 instructions: 310000000 cycles: 970801948 heartbeat IPC: 0.295558 cumulative IPC: 0.318431 (Simulation time: 0 hr 33 min 0 sec) 
Heartbeat CPU 0 instructions: 311000002 cycles: 974201602 heartbeat IPC: 0.294148 cumulative IPC: 0.318346 (Simulation time: 0 hr 33 min 6 sec) 
Heartbeat CPU 0 instructions: 312000000 cycles: 977147445 heartbeat IPC: 0.339461 cumulative IPC: 0.31841 (Simulation time: 0 hr 33 min 13 sec) 
Heartbeat CPU 0 instructions: 313000000 cycles: 980483821 heartbeat IPC: 0.299726 cumulative IPC: 0.318346 (Simulation time: 0 hr 33 min 19 sec) 
Heartbeat CPU 0 instructions: 314000000 cycles: 983558819 heartbeat IPC: 0.325203 cumulative IPC: 0.318368 (Simulation time: 0 hr 33 min 26 sec) 
Heartbeat CPU 0 instructions: 315000002 cycles: 986812661 heartbeat IPC: 0.30733 cumulative IPC: 0.318331 (Simulation time: 0 hr 33 min 32 sec) 
Heartbeat CPU 0 instructions: 316000002 cycles: 990177073 heartbeat IPC: 0.297229 cumulative IPC: 0.31826 (Simulation time: 0 hr 33 min 39 sec) 
Heartbeat CPU 0 instructions: 317000002 cycles: 993188788 heartbeat IPC: 0.332037 cumulative IPC: 0.318301 (Simulation time: 0 hr 33 min 45 sec) 
Heartbeat CPU 0 instructions: 318000001 cycles: 996477119 heartbeat IPC: 0.304105 cumulative IPC: 0.318255 (Simulation time: 0 hr 33 min 51 sec) 
Heartbeat CPU 0 instructions: 319000000 cycles: 999863711 heartbeat IPC: 0.295282 cumulative IPC: 0.318177 (Simulation time: 0 hr 33 min 57 sec) 
Heartbeat CPU 0 instructions: 320000001 cycles: 1003159410 heartbeat IPC: 0.303426 cumulative IPC: 0.318128 (Simulation time: 0 hr 34 min 3 sec) 
Heartbeat CPU 0 instructions: 321000000 cycles: 1006176731 heartbeat IPC: 0.331419 cumulative IPC: 0.318168 (Simulation time: 0 hr 34 min 9 sec) 
Heartbeat CPU 0 instructions: 322000001 cycles: 1009526018 heartbeat IPC: 0.298571 cumulative IPC: 0.318103 (Simulation time: 0 hr 34 min 16 sec) 
Heartbeat CPU 0 instructions: 323000002 cycles: 1012844318 heartbeat IPC: 0.301359 cumulative IPC: 0.318048 (Simulation time: 0 hr 34 min 22 sec) 
Heartbeat CPU 0 instructions: 324000002 cycles: 1016047776 heartbeat IPC: 0.312163 cumulative IPC: 0.31803 (Simulation time: 0 hr 34 min 28 sec) 
Heartbeat CPU 0 instructions: 325000000 cycles: 1019213131 heartbeat IPC: 0.31592 cumulative IPC: 0.318023 (Simulation time: 0 hr 34 min 35 sec) 
Heartbeat CPU 0 instructions: 326000001 cycles: 1022543983 heartbeat IPC: 0.300224 cumulative IPC: 0.317965 (Simulation time: 0 hr 34 min 42 sec) 
Heartbeat CPU 0 instructions: 327000002 cycles: 1025746511 heartbeat IPC: 0.312254 cumulative IPC: 0.317947 (Simulation time: 0 hr 34 min 48 sec) 
Heartbeat CPU 0 instructions: 328000001 cycles: 1028753940 heartbeat IPC: 0.33251 cumulative IPC: 0.31799 (Simulation time: 0 hr 34 min 54 sec) 
Heartbeat CPU 0 instructions: 329000000 cycles: 1032056978 heartbeat IPC: 0.302751 cumulative IPC: 0.317941 (Simulation time: 0 hr 35 min 1 sec) 
Heartbeat CPU 0 instructions: 330000000 cycles: 1035317484 heartbeat IPC: 0.306701 cumulative IPC: 0.317906 (Simulation time: 0 hr 35 min 7 sec) 
Heartbeat CPU 0 instructions: 331000000 cycles: 1038647922 heartbeat IPC: 0.300261 cumulative IPC: 0.317849 (Simulation time: 0 hr 35 min 14 sec) 
Heartbeat CPU 0 instructions: 332000000 cycles: 1041920464 heartbeat IPC: 0.305573 cumulative IPC: 0.31781 (Simulation time: 0 hr 35 min 20 sec) 
Heartbeat CPU 0 instructions: 333000000 cycles: 1045100530 heartbeat IPC: 0.314459 cumulative IPC: 0.3178 (Simulation time: 0 hr 35 min 27 sec) 
Heartbeat CPU 0 instructions: 334000001 cycles: 1048258579 heartbeat IPC: 0.316652 cumulative IPC: 0.317797 (Simulation time: 0 hr 35 min 33 sec) 
Heartbeat CPU 0 instructions: 335000000 cycles: 1051635856 heartbeat IPC: 0.296096 cumulative IPC: 0.317727 (Simulation time: 0 hr 35 min 39 sec) 
Heartbeat CPU 0 instructions: 336000000 cycles: 1054851034 heartbeat IPC: 0.311025 cumulative IPC: 0.317707 (Simulation time: 0 hr 35 min 45 sec) 
Heartbeat CPU 0 instructions: 337000003 cycles: 1058109388 heartbeat IPC: 0.306904 cumulative IPC: 0.317673 (Simulation time: 0 hr 35 min 52 sec) 
Heartbeat CPU 0 instructions: 338000002 cycles: 1061417526 heartbeat IPC: 0.302285 cumulative IPC: 0.317625 (Simulation time: 0 hr 35 min 58 sec) 
Heartbeat CPU 0 instructions: 339000003 cycles: 1064712003 heartbeat IPC: 0.303539 cumulative IPC: 0.317582 (Simulation time: 0 hr 36 min 4 sec) 
Heartbeat CPU 0 instructions: 340000003 cycles: 1068003280 heartbeat IPC: 0.303833 cumulative IPC: 0.317539 (Simulation time: 0 hr 36 min 11 sec) 
Heartbeat CPU 0 instructions: 341000000 cycles: 1071320240 heartbeat IPC: 0.30148 cumulative IPC: 0.31749 (Simulation time: 0 hr 36 min 17 sec) 
Heartbeat CPU 0 instructions: 342000001 cycles: 1074668194 heartbeat IPC: 0.29869 cumulative IPC: 0.317431 (Simulation time: 0 hr 36 min 24 sec) 
Heartbeat CPU 0 instructions: 343000000 cycles: 1077994340 heartbeat IPC: 0.300648 cumulative IPC: 0.317379 (Simulation time: 0 hr 36 min 30 sec) 
Heartbeat CPU 0 instructions: 344000003 cycles: 1081304250 heartbeat IPC: 0.302124 cumulative IPC: 0.317332 (Simulation time: 0 hr 36 min 36 sec) 
Heartbeat CPU 0 instructions: 345000001 cycles: 1084582272 heartbeat IPC: 0.305061 cumulative IPC: 0.317295 (Simulation time: 0 hr 36 min 43 sec) 
Heartbeat CPU 0 instructions: 346000000 cycles: 1087911303 heartbeat IPC: 0.300387 cumulative IPC: 0.317244 (Simulation time: 0 hr 36 min 50 sec) 
Heartbeat CPU 0 instructions: 347000000 cycles: 1091187149 heartbeat IPC: 0.305265 cumulative IPC: 0.317208 (Simulation time: 0 hr 36 min 57 sec) 
Heartbeat CPU 0 instructions: 348000000 cycles: 1094304237 heartbeat IPC: 0.320812 cumulative IPC: 0.317218 (Simulation time: 0 hr 37 min 3 sec) 
Heartbeat CPU 0 instructions: 349000002 cycles: 1097587638 heartbeat IPC: 0.304563 cumulative IPC: 0.31718 (Simulation time: 0 hr 37 min 10 sec) 
Heartbeat CPU 0 instructions: 350000000 cycles: 1100901286 heartbeat IPC: 0.301782 cumulative IPC: 0.317134 (Simulation time: 0 hr 37 min 17 sec) 
Heartbeat CPU 0 instructions: 351000002 cycles: 1104098680 heartbeat IPC: 0.312755 cumulative IPC: 0.317121 (Simulation time: 0 hr 37 min 23 sec) 
Heartbeat CPU 0 instructions: 352000000 cycles: 1107460526 heartbeat IPC: 0.297455 cumulative IPC: 0.317061 (Simulation time: 0 hr 37 min 29 sec) 
Heartbeat CPU 0 instructions: 353000002 cycles: 1110784078 heartbeat IPC: 0.300884 cumulative IPC: 0.317013 (Simulation time: 0 hr 37 min 36 sec) 
Heartbeat CPU 0 instructions: 354000000 cycles: 1114012012 heartbeat IPC: 0.309795 cumulative IPC: 0.316992 (Simulation time: 0 hr 37 min 43 sec) 
Heartbeat CPU 0 instructions: 355000000 cycles: 1117156431 heartbeat IPC: 0.318024 cumulative IPC: 0.316995 (Simulation time: 0 hr 37 min 50 sec) 
Heartbeat CPU 0 instructions: 356000002 cycles: 1120582538 heartbeat IPC: 0.291877 cumulative IPC: 0.316918 (Simulation time: 0 hr 37 min 57 sec) 
Heartbeat CPU 0 instructions: 357000000 cycles: 1123644339 heartbeat IPC: 0.326605 cumulative IPC: 0.316944 (Simulation time: 0 hr 38 min 3 sec) 
Heartbeat CPU 0 instructions: 358000001 cycles: 1126783438 heartbeat IPC: 0.318563 cumulative IPC: 0.316949 (Simulation time: 0 hr 38 min 10 sec) 
Heartbeat CPU 0 instructions: 359000000 cycles: 1130047364 heartbeat IPC: 0.306379 cumulative IPC: 0.316918 (Simulation time: 0 hr 38 min 17 sec) 
Heartbeat CPU 0 instructions: 360000001 cycles: 1133372431 heartbeat IPC: 0.300746 cumulative IPC: 0.316871 (Simulation time: 0 hr 38 min 24 sec) 
Heartbeat CPU 0 instructions: 361000001 cycles: 1136707275 heartbeat IPC: 0.299864 cumulative IPC: 0.316821 (Simulation time: 0 hr 38 min 31 sec) 
Heartbeat CPU 0 instructions: 362000001 cycles: 1140002466 heartbeat IPC: 0.303473 cumulative IPC: 0.316782 (Simulation time: 0 hr 38 min 38 sec) 
Heartbeat CPU 0 instructions: 363000000 cycles: 1143010060 heartbeat IPC: 0.332491 cumulative IPC: 0.316824 (Simulation time: 0 hr 38 min 44 sec) 
Heartbeat CPU 0 instructions: 364000003 cycles: 1146310097 heartbeat IPC: 0.303028 cumulative IPC: 0.316784 (Simulation time: 0 hr 38 min 51 sec) 
Heartbeat CPU 0 instructions: 365000001 cycles: 1149504188 heartbeat IPC: 0.313077 cumulative IPC: 0.316774 (Simulation time: 0 hr 38 min 58 sec) 
Heartbeat CPU 0 instructions: 366000000 cycles: 1152744685 heartbeat IPC: 0.308594 cumulative IPC: 0.316751 (Simulation time: 0 hr 39 min 5 sec) 
Heartbeat CPU 0 instructions: 367000000 cycles: 1156050321 heartbeat IPC: 0.302514 cumulative IPC: 0.31671 (Simulation time: 0 hr 39 min 12 sec) 
Heartbeat CPU 0 instructions: 368000000 cycles: 1159486983 heartbeat IPC: 0.29098 cumulative IPC: 0.316634 (Simulation time: 0 hr 39 min 20 sec) 
Heartbeat CPU 0 instructions: 369000003 cycles: 1162961954 heartbeat IPC: 0.287773 cumulative IPC: 0.316547 (Simulation time: 0 hr 39 min 27 sec) 
Heartbeat CPU 0 instructions: 370000002 cycles: 1166400113 heartbeat IPC: 0.290853 cumulative IPC: 0.316472 (Simulation time: 0 hr 39 min 33 sec) 
Heartbeat CPU 0 instructions: 371000000 cycles: 1169621516 heartbeat IPC: 0.310423 cumulative IPC: 0.316455 (Simulation time: 0 hr 39 min 40 sec) 
Heartbeat CPU 0 instructions: 372000003 cycles: 1173193577 heartbeat IPC: 0.279951 cumulative IPC: 0.316344 (Simulation time: 0 hr 39 min 47 sec) 
Heartbeat CPU 0 instructions: 373000003 cycles: 1176517303 heartbeat IPC: 0.300867 cumulative IPC: 0.3163 (Simulation time: 0 hr 39 min 54 sec) 
Heartbeat CPU 0 instructions: 374000000 cycles: 1180017670 heartbeat IPC: 0.285683 cumulative IPC: 0.316209 (Simulation time: 0 hr 40 min 1 sec) 
Heartbeat CPU 0 instructions: 375000001 cycles: 1183492634 heartbeat IPC: 0.287773 cumulative IPC: 0.316126 (Simulation time: 0 hr 40 min 7 sec) 
Heartbeat CPU 0 instructions: 376000000 cycles: 1186765965 heartbeat IPC: 0.305499 cumulative IPC: 0.316096 (Simulation time: 0 hr 40 min 14 sec) 
Heartbeat CPU 0 instructions: 377000000 cycles: 1190376811 heartbeat IPC: 0.276943 cumulative IPC: 0.315978 (Simulation time: 0 hr 40 min 21 sec) 
Heartbeat CPU 0 instructions: 378000001 cycles: 1193698530 heartbeat IPC: 0.301049 cumulative IPC: 0.315936 (Simulation time: 0 hr 40 min 27 sec) 
Heartbeat CPU 0 instructions: 379000000 cycles: 1197314823 heartbeat IPC: 0.276526 cumulative IPC: 0.315817 (Simulation time: 0 hr 40 min 34 sec) 
Heartbeat CPU 0 instructions: 380000003 cycles: 1200554978 heartbeat IPC: 0.308628 cumulative IPC: 0.315798 (Simulation time: 0 hr 40 min 40 sec) 
Heartbeat CPU 0 instructions: 381000001 cycles: 1204053650 heartbeat IPC: 0.285822 cumulative IPC: 0.31571 (Simulation time: 0 hr 40 min 47 sec) 
Heartbeat CPU 0 instructions: 382000003 cycles: 1207543725 heartbeat IPC: 0.286527 cumulative IPC: 0.315626 (Simulation time: 0 hr 40 min 54 sec) 
Heartbeat CPU 0 instructions: 383000000 cycles: 1210803205 heartbeat IPC: 0.306796 cumulative IPC: 0.315602 (Simulation time: 0 hr 41 min 0 sec) 
Heartbeat CPU 0 instructions: 384000000 cycles: 1214447382 heartbeat IPC: 0.27441 cumulative IPC: 0.315479 (Simulation time: 0 hr 41 min 7 sec) 
Heartbeat CPU 0 instructions: 385000000 cycles: 1217696515 heartbeat IPC: 0.307774 cumulative IPC: 0.315458 (Simulation time: 0 hr 41 min 13 sec) 
Heartbeat CPU 0 instructions: 386000000 cycles: 1221265437 heartbeat IPC: 0.280197 cumulative IPC: 0.315355 (Simulation time: 0 hr 41 min 20 sec) 
Heartbeat CPU 0 instructions: 387000000 cycles: 1224507003 heartbeat IPC: 0.308493 cumulative IPC: 0.315337 (Simulation time: 0 hr 41 min 26 sec) 
Heartbeat CPU 0 instructions: 388000000 cycles: 1228152802 heartbeat IPC: 0.274288 cumulative IPC: 0.315215 (Simulation time: 0 hr 41 min 33 sec) 
Heartbeat CPU 0 instructions: 389000002 cycles: 1231345832 heartbeat IPC: 0.313183 cumulative IPC: 0.31521 (Simulation time: 0 hr 41 min 39 sec) 
Heartbeat CPU 0 instructions: 390000002 cycles: 1234956921 heartbeat IPC: 0.276925 cumulative IPC: 0.315098 (Simulation time: 0 hr 41 min 46 sec) 
Heartbeat CPU 0 instructions: 391000001 cycles: 1238305115 heartbeat IPC: 0.298668 cumulative IPC: 0.315053 (Simulation time: 0 hr 41 min 53 sec) 
Heartbeat CPU 0 instructions: 392000000 cycles: 1241989110 heartbeat IPC: 0.271444 cumulative IPC: 0.314924 (Simulation time: 0 hr 42 min 0 sec) 
Heartbeat CPU 0 instructions: 393000001 cycles: 1245651508 heartbeat IPC: 0.273045 cumulative IPC: 0.314801 (Simulation time: 0 hr 42 min 7 sec) 
Heartbeat CPU 0 instructions: 394000000 cycles: 1249473775 heartbeat IPC: 0.261625 cumulative IPC: 0.314638 (Simulation time: 0 hr 42 min 14 sec) 
Heartbeat CPU 0 instructions: 395000001 cycles: 1253062430 heartbeat IPC: 0.278656 cumulative IPC: 0.314535 (Simulation time: 0 hr 42 min 21 sec) 
Heartbeat CPU 0 instructions: 396000000 cycles: 1256679964 heartbeat IPC: 0.276431 cumulative IPC: 0.314425 (Simulation time: 0 hr 42 min 28 sec) 
Heartbeat CPU 0 instructions: 397000000 cycles: 1260328647 heartbeat IPC: 0.274071 cumulative IPC: 0.314308 (Simulation time: 0 hr 42 min 35 sec) 
Heartbeat CPU 0 instructions: 398000001 cycles: 1263996725 heartbeat IPC: 0.272623 cumulative IPC: 0.314187 (Simulation time: 0 hr 42 min 42 sec) 
Heartbeat CPU 0 instructions: 399000000 cycles: 1267543060 heartbeat IPC: 0.281981 cumulative IPC: 0.314097 (Simulation time: 0 hr 42 min 49 sec) 
Heartbeat CPU 0 instructions: 400000001 cycles: 1271058001 heartbeat IPC: 0.2845 cumulative IPC: 0.314015 (Simulation time: 0 hr 42 min 56 sec) 
Heartbeat CPU 0 instructions: 401000002 cycles: 1274869587 heartbeat IPC: 0.262358 cumulative IPC: 0.313861 (Simulation time: 0 hr 43 min 3 sec) 
Heartbeat CPU 0 instructions: 402000002 cycles: 1278423640 heartbeat IPC: 0.281369 cumulative IPC: 0.31377 (Simulation time: 0 hr 43 min 10 sec) 
Heartbeat CPU 0 instructions: 403000001 cycles: 1281948369 heartbeat IPC: 0.283709 cumulative IPC: 0.313688 (Simulation time: 0 hr 43 min 17 sec) 
Heartbeat CPU 0 instructions: 404000000 cycles: 1285531572 heartbeat IPC: 0.27908 cumulative IPC: 0.313591 (Simulation time: 0 hr 43 min 24 sec) 
Heartbeat CPU 0 instructions: 405000001 cycles: 1296345499 heartbeat IPC: 0.0924734 cumulative IPC: 0.311746 (Simulation time: 0 hr 43 min 36 sec) 
Heartbeat CPU 0 instructions: 406000002 cycles: 1299673612 heartbeat IPC: 0.300471 cumulative IPC: 0.311717 (Simulation time: 0 hr 43 min 43 sec) 
Heartbeat CPU 0 instructions: 407000000 cycles: 1302905093 heartbeat IPC: 0.309455 cumulative IPC: 0.311712 (Simulation time: 0 hr 43 min 49 sec) 
Heartbeat CPU 0 instructions: 408000002 cycles: 1306151017 heartbeat IPC: 0.308079 cumulative IPC: 0.311703 (Simulation time: 0 hr 43 min 56 sec) 
Heartbeat CPU 0 instructions: 409000000 cycles: 1309358807 heartbeat IPC: 0.31174 cumulative IPC: 0.311703 (Simulation time: 0 hr 44 min 3 sec) 
Heartbeat CPU 0 instructions: 410000003 cycles: 1312692033 heartbeat IPC: 0.300011 cumulative IPC: 0.311673 (Simulation time: 0 hr 44 min 10 sec) 
Heartbeat CPU 0 instructions: 411000000 cycles: 1315902603 heartbeat IPC: 0.31147 cumulative IPC: 0.311672 (Simulation time: 0 hr 44 min 17 sec) 
Heartbeat CPU 0 instructions: 412000001 cycles: 1319141207 heartbeat IPC: 0.308775 cumulative IPC: 0.311665 (Simulation time: 0 hr 44 min 24 sec) 
Heartbeat CPU 0 instructions: 413000000 cycles: 1322580121 heartbeat IPC: 0.290789 cumulative IPC: 0.311611 (Simulation time: 0 hr 44 min 31 sec) 
Heartbeat CPU 0 instructions: 414000002 cycles: 1325843652 heartbeat IPC: 0.306417 cumulative IPC: 0.311598 (Simulation time: 0 hr 44 min 38 sec) 
Heartbeat CPU 0 instructions: 415000001 cycles: 1329116003 heartbeat IPC: 0.30559 cumulative IPC: 0.311583 (Simulation time: 0 hr 44 min 45 sec) 
Heartbeat CPU 0 instructions: 416000000 cycles: 1332377237 heartbeat IPC: 0.306632 cumulative IPC: 0.311571 (Simulation time: 0 hr 44 min 52 sec) 
Heartbeat CPU 0 instructions: 417000000 cycles: 1335635527 heartbeat IPC: 0.306909 cumulative IPC: 0.31156 (Simulation time: 0 hr 44 min 59 sec) 
Heartbeat CPU 0 instructions: 418000000 cycles: 1338897593 heartbeat IPC: 0.306554 cumulative IPC: 0.311548 (Simulation time: 0 hr 45 min 5 sec) 
Heartbeat CPU 0 instructions: 419000000 cycles: 1342153954 heartbeat IPC: 0.307091 cumulative IPC: 0.311537 (Simulation time: 0 hr 45 min 11 sec) 
Heartbeat CPU 0 instructions: 420000001 cycles: 1345808453 heartbeat IPC: 0.273636 cumulative IPC: 0.311434 (Simulation time: 0 hr 45 min 18 sec) 
Heartbeat CPU 0 instructions: 421000001 cycles: 1349437519 heartbeat IPC: 0.275553 cumulative IPC: 0.311337 (Simulation time: 0 hr 45 min 25 sec) 
Heartbeat CPU 0 instructions: 422000002 cycles: 1353083160 heartbeat IPC: 0.2743 cumulative IPC: 0.311238 (Simulation time: 0 hr 45 min 32 sec) 
Heartbeat CPU 0 instructions: 423000000 cycles: 1356480067 heartbeat IPC: 0.294385 cumulative IPC: 0.311195 (Simulation time: 0 hr 45 min 38 sec) 
Heartbeat CPU 0 instructions: 424000003 cycles: 1360032061 heartbeat IPC: 0.281533 cumulative IPC: 0.311118 (Simulation time: 0 hr 45 min 45 sec) 
Heartbeat CPU 0 instructions: 425000002 cycles: 1363573980 heartbeat IPC: 0.282333 cumulative IPC: 0.311043 (Simulation time: 0 hr 45 min 52 sec) 
Heartbeat CPU 0 instructions: 426000003 cycles: 1367196014 heartbeat IPC: 0.276088 cumulative IPC: 0.31095 (Simulation time: 0 hr 45 min 59 sec) 
Heartbeat CPU 0 instructions: 427000001 cycles: 1370819244 heartbeat IPC: 0.275996 cumulative IPC: 0.310858 (Simulation time: 0 hr 46 min 6 sec) 
Heartbeat CPU 0 instructions: 428000000 cycles: 1374030072 heartbeat IPC: 0.311446 cumulative IPC: 0.310859 (Simulation time: 0 hr 46 min 13 sec) 
Heartbeat CPU 0 instructions: 429000000 cycles: 1377667723 heartbeat IPC: 0.274903 cumulative IPC: 0.310764 (Simulation time: 0 hr 46 min 20 sec) 
Heartbeat CPU 0 instructions: 430000001 cycles: 1380829534 heartbeat IPC: 0.316275 cumulative IPC: 0.310777 (Simulation time: 0 hr 46 min 27 sec) 
Heartbeat CPU 0 instructions: 431000001 cycles: 1384263047 heartbeat IPC: 0.291247 cumulative IPC: 0.310729 (Simulation time: 0 hr 46 min 35 sec) 
Heartbeat CPU 0 instructions: 432000000 cycles: 1387667525 heartbeat IPC: 0.29373 cumulative IPC: 0.310687 (Simulation time: 0 hr 46 min 42 sec) 
Heartbeat CPU 0 instructions: 433000000 cycles: 1391272821 heartbeat IPC: 0.27737 cumulative IPC: 0.310601 (Simulation time: 0 hr 46 min 49 sec) 
Heartbeat CPU 0 instructions: 434000000 cycles: 1394693203 heartbeat IPC: 0.292365 cumulative IPC: 0.310556 (Simulation time: 0 hr 46 min 56 sec) 
Heartbeat CPU 0 instructions: 435000001 cycles: 1398213013 heartbeat IPC: 0.284107 cumulative IPC: 0.310489 (Simulation time: 0 hr 47 min 3 sec) 
Heartbeat CPU 0 instructions: 436000001 cycles: 1401853387 heartbeat IPC: 0.274697 cumulative IPC: 0.310396 (Simulation time: 0 hr 47 min 9 sec) 
Heartbeat CPU 0 instructions: 437000002 cycles: 1405254253 heartbeat IPC: 0.294043 cumulative IPC: 0.310357 (Simulation time: 0 hr 47 min 16 sec) 
Heartbeat CPU 0 instructions: 438000001 cycles: 1408742235 heartbeat IPC: 0.286698 cumulative IPC: 0.310298 (Simulation time: 0 hr 47 min 23 sec) 
Heartbeat CPU 0 instructions: 439000000 cycles: 1412424725 heartbeat IPC: 0.271555 cumulative IPC: 0.310197 (Simulation time: 0 hr 47 min 30 sec) 
Heartbeat CPU 0 instructions: 440000000 cycles: 1415641575 heartbeat IPC: 0.310863 cumulative IPC: 0.310199 (Simulation time: 0 hr 47 min 36 sec) 
Heartbeat CPU 0 instructions: 441000002 cycles: 1419266570 heartbeat IPC: 0.275863 cumulative IPC: 0.310111 (Simulation time: 0 hr 47 min 43 sec) 
Heartbeat CPU 0 instructions: 442000001 cycles: 1422585753 heartbeat IPC: 0.301279 cumulative IPC: 0.31009 (Simulation time: 0 hr 47 min 50 sec) 
Heartbeat CPU 0 instructions: 443000000 cycles: 1426089812 heartbeat IPC: 0.285383 cumulative IPC: 0.310029 (Simulation time: 0 hr 47 min 56 sec) 
Heartbeat CPU 0 instructions: 444000000 cycles: 1429667035 heartbeat IPC: 0.279546 cumulative IPC: 0.309953 (Simulation time: 0 hr 48 min 3 sec) 
Heartbeat CPU 0 instructions: 445000000 cycles: 1432920181 heartbeat IPC: 0.307395 cumulative IPC: 0.309947 (Simulation time: 0 hr 48 min 10 sec) 
Heartbeat CPU 0 instructions: 446000000 cycles: 1436459957 heartbeat IPC: 0.282504 cumulative IPC: 0.30988 (Simulation time: 0 hr 48 min 16 sec) 
Heartbeat CPU 0 instructions: 447000002 cycles: 1440004627 heartbeat IPC: 0.282114 cumulative IPC: 0.309811 (Simulation time: 0 hr 48 min 23 sec) 
Heartbeat CPU 0 instructions: 448000002 cycles: 1443222373 heartbeat IPC: 0.310777 cumulative IPC: 0.309814 (Simulation time: 0 hr 48 min 30 sec) 
Heartbeat CPU 0 instructions: 449000000 cycles: 1446835734 heartbeat IPC: 0.27675 cumulative IPC: 0.309731 (Simulation time: 0 hr 48 min 37 sec) 
Heartbeat CPU 0 instructions: 450000001 cycles: 1450456649 heartbeat IPC: 0.276174 cumulative IPC: 0.309647 (Simulation time: 0 hr 48 min 44 sec) 

Warmup complete CPU 0 instructions: 450000001 cycles: 1450456649 (Simulation time: 0 hr 48 min 44 sec) 

Heartbeat CPU 0 instructions: 451000000 cycles: 1453131995 heartbeat IPC: 0.373783 cumulative IPC: 0.373783 (Simulation time: 0 hr 48 min 50 sec) 
Heartbeat CPU 0 instructions: 452000002 cycles: 1455949223 heartbeat IPC: 0.35496 cumulative IPC: 0.364128 (Simulation time: 0 hr 48 min 56 sec) 
Heartbeat CPU 0 instructions: 453000003 cycles: 1458793535 heartbeat IPC: 0.351579 cumulative IPC: 0.359847 (Simulation time: 0 hr 49 min 3 sec) 
Heartbeat CPU 0 instructions: 454000001 cycles: 1461398095 heartbeat IPC: 0.383941 cumulative IPC: 0.365582 (Simulation time: 0 hr 49 min 9 sec) 
Heartbeat CPU 0 instructions: 455000002 cycles: 1464192012 heartbeat IPC: 0.357921 cumulative IPC: 0.364024 (Simulation time: 0 hr 49 min 15 sec) 
Heartbeat CPU 0 instructions: 456000001 cycles: 1466778527 heartbeat IPC: 0.38662 cumulative IPC: 0.367605 (Simulation time: 0 hr 49 min 22 sec) 
Heartbeat CPU 0 instructions: 457000000 cycles: 1469570707 heartbeat IPC: 0.358143 cumulative IPC: 0.366223 (Simulation time: 0 hr 49 min 28 sec) 
Heartbeat CPU 0 instructions: 458000000 cycles: 1472373770 heartbeat IPC: 0.356753 cumulative IPC: 0.365011 (Simulation time: 0 hr 49 min 35 sec) 
Heartbeat CPU 0 instructions: 459000002 cycles: 1475082617 heartbeat IPC: 0.369161 cumulative IPC: 0.365468 (Simulation time: 0 hr 49 min 41 sec) 
Heartbeat CPU 0 instructions: 460000000 cycles: 1477840183 heartbeat IPC: 0.362638 cumulative IPC: 0.365183 (Simulation time: 0 hr 49 min 48 sec) 
Heartbeat CPU 0 instructions: 461000002 cycles: 1480489016 heartbeat IPC: 0.377526 cumulative IPC: 0.366272 (Simulation time: 0 hr 49 min 54 sec) 
Heartbeat CPU 0 instructions: 462000000 cycles: 1483499650 heartbeat IPC: 0.332155 cumulative IPC: 0.363163 (Simulation time: 0 hr 50 min 1 sec) 
Heartbeat CPU 0 instructions: 463000000 cycles: 1486113597 heartbeat IPC: 0.382563 cumulative IPC: 0.364585 (Simulation time: 0 hr 50 min 7 sec) 
Heartbeat CPU 0 instructions: 464000000 cycles: 1488785221 heartbeat IPC: 0.374304 cumulative IPC: 0.365263 (Simulation time: 0 hr 50 min 13 sec) 
Heartbeat CPU 0 instructions: 465000003 cycles: 1491561312 heartbeat IPC: 0.36022 cumulative IPC: 0.364922 (Simulation time: 0 hr 50 min 19 sec) 
Heartbeat CPU 0 instructions: 466000003 cycles: 1494157074 heartbeat IPC: 0.385243 cumulative IPC: 0.366129 (Simulation time: 0 hr 50 min 26 sec) 
Heartbeat CPU 0 instructions: 467000000 cycles: 1496975909 heartbeat IPC: 0.354755 cumulative IPC: 0.36544 (Simulation time: 0 hr 50 min 32 sec) 
Heartbeat CPU 0 instructions: 468000001 cycles: 1499560058 heartbeat IPC: 0.386975 cumulative IPC: 0.366573 (Simulation time: 0 hr 50 min 38 sec) 
Heartbeat CPU 0 instructions: 469000002 cycles: 1502195907 heartbeat IPC: 0.379385 cumulative IPC: 0.367226 (Simulation time: 0 hr 50 min 44 sec) 
Heartbeat CPU 0 instructions: 470000002 cycles: 1504982812 heartbeat IPC: 0.358821 cumulative IPC: 0.366796 (Simulation time: 0 hr 50 min 51 sec) 
Heartbeat CPU 0 instructions: 471000002 cycles: 1507555958 heartbeat IPC: 0.388629 cumulative IPC: 0.36778 (Simulation time: 0 hr 50 min 57 sec) 
Heartbeat CPU 0 instructions: 472000000 cycles: 1510246434 heartbeat IPC: 0.371681 cumulative IPC: 0.367956 (Simulation time: 0 hr 51 min 3 sec) 
Heartbeat CPU 0 instructions: 473000000 cycles: 1512995800 heartbeat IPC: 0.36372 cumulative IPC: 0.36777 (Simulation time: 0 hr 51 min 9 sec) 
Heartbeat CPU 0 instructions: 474000001 cycles: 1515671713 heartbeat IPC: 0.373705 cumulative IPC: 0.368013 (Simulation time: 0 hr 51 min 16 sec) 
Heartbeat CPU 0 instructions: 475000000 cycles: 1518475307 heartbeat IPC: 0.356685 cumulative IPC: 0.367546 (Simulation time: 0 hr 51 min 22 sec) 
Heartbeat CPU 0 instructions: 476000002 cycles: 1521126818 heartbeat IPC: 0.377144 cumulative IPC: 0.367906 (Simulation time: 0 hr 51 min 29 sec) 
Heartbeat CPU 0 instructions: 477000000 cycles: 1523988082 heartbeat IPC: 0.349495 cumulative IPC: 0.36719 (Simulation time: 0 hr 51 min 36 sec) 
Heartbeat CPU 0 instructions: 478000002 cycles: 1526865064 heartbeat IPC: 0.347587 cumulative IPC: 0.366452 (Simulation time: 0 hr 51 min 42 sec) 
Heartbeat CPU 0 instructions: 479000003 cycles: 1529499786 heartbeat IPC: 0.379547 cumulative IPC: 0.366888 (Simulation time: 0 hr 51 min 49 sec) 
Heartbeat CPU 0 instructions: 480000000 cycles: 1532131954 heartbeat IPC: 0.379914 cumulative IPC: 0.367308 (Simulation time: 0 hr 51 min 55 sec) 
Heartbeat CPU 0 instructions: 481000000 cycles: 1534778651 heartbeat IPC: 0.377829 cumulative IPC: 0.367638 (Simulation time: 0 hr 52 min 2 sec) 
Heartbeat CPU 0 instructions: 482000002 cycles: 1538138426 heartbeat IPC: 0.29764 cumulative IPC: 0.364956 (Simulation time: 0 hr 52 min 9 sec) 
Heartbeat CPU 0 instructions: 483000002 cycles: 1540763403 heartbeat IPC: 0.380956 cumulative IPC: 0.365421 (Simulation time: 0 hr 52 min 15 sec) 
Heartbeat CPU 0 instructions: 484000000 cycles: 1543670150 heartbeat IPC: 0.344027 cumulative IPC: 0.364754 (Simulation time: 0 hr 52 min 22 sec) 
Heartbeat CPU 0 instructions: 485000000 cycles: 1546263939 heartbeat IPC: 0.385536 cumulative IPC: 0.365317 (Simulation time: 0 hr 52 min 28 sec) 
Heartbeat CPU 0 instructions: 486000000 cycles: 1549143129 heartbeat IPC: 0.34732 cumulative IPC: 0.364792 (Simulation time: 0 hr 52 min 35 sec) 
Heartbeat CPU 0 instructions: 487000001 cycles: 1551749802 heartbeat IPC: 0.383631 cumulative IPC: 0.365276 (Simulation time: 0 hr 52 min 41 sec) 
Heartbeat CPU 0 instructions: 488000002 cycles: 1554610005 heartbeat IPC: 0.349626 cumulative IPC: 0.364847 (Simulation time: 0 hr 52 min 48 sec) 
Heartbeat CPU 0 instructions: 489000000 cycles: 1557324049 heartbeat IPC: 0.368453 cumulative IPC: 0.364938 (Simulation time: 0 hr 52 min 55 sec) 
Heartbeat CPU 0 instructions: 490000001 cycles: 1559940941 heartbeat IPC: 0.382133 cumulative IPC: 0.365349 (Simulation time: 0 hr 53 min 1 sec) 
Heartbeat CPU 0 instructions: 491000000 cycles: 1562580037 heartbeat IPC: 0.378917 cumulative IPC: 0.365669 (Simulation time: 0 hr 53 min 7 sec) 
Heartbeat CPU 0 instructions: 492000000 cycles: 1565392982 heartbeat IPC: 0.355499 cumulative IPC: 0.36542 (Simulation time: 0 hr 53 min 14 sec) 
Heartbeat CPU 0 instructions: 493000003 cycles: 1568119856 heartbeat IPC: 0.366721 cumulative IPC: 0.36545 (Simulation time: 0 hr 53 min 20 sec) 
Heartbeat CPU 0 instructions: 494000000 cycles: 1570691419 heartbeat IPC: 0.388867 cumulative IPC: 0.365951 (Simulation time: 0 hr 53 min 26 sec) 
Heartbeat CPU 0 instructions: 495000000 cycles: 1573322112 heartbeat IPC: 0.380128 cumulative IPC: 0.366254 (Simulation time: 0 hr 53 min 32 sec) 
Heartbeat CPU 0 instructions: 496000003 cycles: 1576225271 heartbeat IPC: 0.344453 cumulative IPC: 0.365751 (Simulation time: 0 hr 53 min 38 sec) 
Heartbeat CPU 0 instructions: 497000002 cycles: 1578821342 heartbeat IPC: 0.385197 cumulative IPC: 0.366144 (Simulation time: 0 hr 53 min 44 sec) 
Heartbeat CPU 0 instructions: 498000003 cycles: 1581504305 heartbeat IPC: 0.372723 cumulative IPC: 0.366279 (Simulation time: 0 hr 53 min 50 sec) 
Heartbeat CPU 0 instructions: 499000000 cycles: 1584341961 heartbeat IPC: 0.352402 cumulative IPC: 0.365985 (Simulation time: 0 hr 53 min 55 sec) 
Heartbeat CPU 0 instructions: 500000002 cycles: 1587001051 heartbeat IPC: 0.376069 cumulative IPC: 0.366181 (Simulation time: 0 hr 54 min 1 sec) 
Heartbeat CPU 0 instructions: 501000000 cycles: 1589601512 heartbeat IPC: 0.384546 cumulative IPC: 0.366524 (Simulation time: 0 hr 54 min 6 sec) 
Heartbeat CPU 0 instructions: 502000002 cycles: 1592220088 heartbeat IPC: 0.381888 cumulative IPC: 0.366808 (Simulation time: 0 hr 54 min 11 sec) 
Heartbeat CPU 0 instructions: 503000001 cycles: 1594832357 heartbeat IPC: 0.382809 cumulative IPC: 0.367098 (Simulation time: 0 hr 54 min 16 sec) 
Heartbeat CPU 0 instructions: 504000002 cycles: 1597470494 heartbeat IPC: 0.379056 cumulative IPC: 0.367312 (Simulation time: 0 hr 54 min 21 sec) 
Heartbeat CPU 0 instructions: 505000001 cycles: 1600163061 heartbeat IPC: 0.371392 cumulative IPC: 0.367386 (Simulation time: 0 hr 54 min 27 sec) 
Heartbeat CPU 0 instructions: 506000000 cycles: 1603001932 heartbeat IPC: 0.352252 cumulative IPC: 0.367104 (Simulation time: 0 hr 54 min 32 sec) 
Heartbeat CPU 0 instructions: 507000000 cycles: 1606456680 heartbeat IPC: 0.289457 cumulative IPC: 0.365385 (Simulation time: 0 hr 54 min 38 sec) 
Heartbeat CPU 0 instructions: 508000001 cycles: 1609153916 heartbeat IPC: 0.37075 cumulative IPC: 0.365476 (Simulation time: 0 hr 54 min 43 sec) 
Heartbeat CPU 0 instructions: 509000000 cycles: 1611871832 heartbeat IPC: 0.367929 cumulative IPC: 0.365517 (Simulation time: 0 hr 54 min 48 sec) 
Heartbeat CPU 0 instructions: 510000000 cycles: 1614488351 heartbeat IPC: 0.382187 cumulative IPC: 0.365783 (Simulation time: 0 hr 54 min 53 sec) 
Heartbeat CPU 0 instructions: 511000000 cycles: 1617055964 heartbeat IPC: 0.389467 cumulative IPC: 0.366148 (Simulation time: 0 hr 54 min 58 sec) 
Heartbeat CPU 0 instructions: 512000002 cycles: 1619634515 heartbeat IPC: 0.387815 cumulative IPC: 0.366478 (Simulation time: 0 hr 55 min 3 sec) 
Heartbeat CPU 0 instructions: 513000002 cycles: 1622267578 heartbeat IPC: 0.379786 cumulative IPC: 0.366682 (Simulation time: 0 hr 55 min 8 sec) 
Heartbeat CPU 0 instructions: 514000000 cycles: 1624892165 heartbeat IPC: 0.381012 cumulative IPC: 0.366898 (Simulation time: 0 hr 55 min 14 sec) 
Heartbeat CPU 0 instructions: 515000000 cycles: 1627527991 heartbeat IPC: 0.379388 cumulative IPC: 0.367084 (Simulation time: 0 hr 55 min 19 sec) 
Heartbeat CPU 0 instructions: 516000003 cycles: 1630203072 heartbeat IPC: 0.373822 cumulative IPC: 0.367184 (Simulation time: 0 hr 55 min 24 sec) 
Heartbeat CPU 0 instructions: 517000000 cycles: 1632846591 heartbeat IPC: 0.378283 cumulative IPC: 0.367345 (Simulation time: 0 hr 55 min 29 sec) 
Heartbeat CPU 0 instructions: 518000000 cycles: 1635247403 heartbeat IPC: 0.416526 cumulative IPC: 0.367984 (Simulation time: 0 hr 55 min 34 sec) 
Heartbeat CPU 0 instructions: 519000002 cycles: 1637871294 heartbeat IPC: 0.381114 cumulative IPC: 0.368168 (Simulation time: 0 hr 55 min 40 sec) 
Heartbeat CPU 0 instructions: 520000000 cycles: 1640532550 heartbeat IPC: 0.375762 cumulative IPC: 0.368274 (Simulation time: 0 hr 55 min 45 sec) 
Heartbeat CPU 0 instructions: 521000000 cycles: 1643180161 heartbeat IPC: 0.377699 cumulative IPC: 0.368403 (Simulation time: 0 hr 55 min 50 sec) 
Heartbeat CPU 0 instructions: 522000000 cycles: 1645802249 heartbeat IPC: 0.381375 cumulative IPC: 0.368578 (Simulation time: 0 hr 55 min 55 sec) 
Heartbeat CPU 0 instructions: 523000000 cycles: 1648472344 heartbeat IPC: 0.374519 cumulative IPC: 0.368658 (Simulation time: 0 hr 56 min 1 sec) 
Heartbeat CPU 0 instructions: 524000000 cycles: 1651158050 heartbeat IPC: 0.372342 cumulative IPC: 0.368707 (Simulation time: 0 hr 56 min 6 sec) 
Heartbeat CPU 0 instructions: 525000000 cycles: 1653718128 heartbeat IPC: 0.390613 cumulative IPC: 0.368983 (Simulation time: 0 hr 56 min 11 sec) 
Heartbeat CPU 0 instructions: 526000002 cycles: 1656319115 heartbeat IPC: 0.38447 cumulative IPC: 0.369179 (Simulation time: 0 hr 56 min 16 sec) 
Heartbeat CPU 0 instructions: 527000001 cycles: 1658950653 heartbeat IPC: 0.380006 cumulative IPC: 0.369315 (Simulation time: 0 hr 56 min 21 sec) 
Heartbeat CPU 0 instructions: 528000000 cycles: 1661516145 heartbeat IPC: 0.389788 cumulative IPC: 0.369564 (Simulation time: 0 hr 56 min 26 sec) 
Heartbeat CPU 0 instructions: 529000000 cycles: 1664200404 heartbeat IPC: 0.372542 cumulative IPC: 0.369601 (Simulation time: 0 hr 56 min 31 sec) 
Heartbeat CPU 0 instructions: 530000002 cycles: 1666954880 heartbeat IPC: 0.363046 cumulative IPC: 0.369518 (Simulation time: 0 hr 56 min 37 sec) 
Heartbeat CPU 0 instructions: 531000002 cycles: 1669379681 heartbeat IPC: 0.412405 cumulative IPC: 0.369993 (Simulation time: 0 hr 56 min 42 sec) 
Heartbeat CPU 0 instructions: 532000000 cycles: 1672054251 heartbeat IPC: 0.373891 cumulative IPC: 0.37004 (Simulation time: 0 hr 56 min 47 sec) 
Heartbeat CPU 0 instructions: 533000000 cycles: 1674754251 heartbeat IPC: 0.37037 cumulative IPC: 0.370044 (Simulation time: 0 hr 56 min 52 sec) 
Heartbeat CPU 0 instructions: 534000002 cycles: 1677158517 heartbeat IPC: 0.415928 cumulative IPC: 0.370531 (Simulation time: 0 hr 56 min 57 sec) 
Heartbeat CPU 0 instructions: 535000001 cycles: 1679792302 heartbeat IPC: 0.379681 cumulative IPC: 0.370636 (Simulation time: 0 hr 57 min 2 sec) 
Heartbeat CPU 0 instructions: 536000001 cycles: 1682484335 heartbeat IPC: 0.371466 cumulative IPC: 0.370645 (Simulation time: 0 hr 57 min 8 sec) 
Heartbeat CPU 0 instructions: 537000000 cycles: 1685126949 heartbeat IPC: 0.378413 cumulative IPC: 0.370733 (Simulation time: 0 hr 57 min 13 sec) 
Heartbeat CPU 0 instructions: 538000002 cycles: 1687584337 heartbeat IPC: 0.406937 cumulative IPC: 0.371108 (Simulation time: 0 hr 57 min 18 sec) 
Heartbeat CPU 0 instructions: 539000000 cycles: 1690220509 heartbeat IPC: 0.379337 cumulative IPC: 0.371199 (Simulation time: 0 hr 57 min 23 sec) 
Heartbeat CPU 0 instructions: 540000000 cycles: 1692911504 heartbeat IPC: 0.37161 cumulative IPC: 0.371203 (Simulation time: 0 hr 57 min 28 sec) 
Heartbeat CPU 0 instructions: 541000001 cycles: 1695373152 heartbeat IPC: 0.406232 cumulative IPC: 0.371555 (Simulation time: 0 hr 57 min 34 sec) 
Heartbeat CPU 0 instructions: 542000000 cycles: 1697976567 heartbeat IPC: 0.38411 cumulative IPC: 0.371687 (Simulation time: 0 hr 57 min 39 sec) 
Heartbeat CPU 0 instructions: 543000001 cycles: 1700666312 heartbeat IPC: 0.371783 cumulative IPC: 0.371688 (Simulation time: 0 hr 57 min 44 sec) 
Heartbeat CPU 0 instructions: 544000000 cycles: 1703217715 heartbeat IPC: 0.391941 cumulative IPC: 0.371893 (Simulation time: 0 hr 57 min 49 sec) 
Heartbeat CPU 0 instructions: 545000002 cycles: 1705837460 heartbeat IPC: 0.381717 cumulative IPC: 0.371994 (Simulation time: 0 hr 57 min 54 sec) 
[...]
Heartbeat CPU 0 instructions: 836000000 cycles: 2423694202 heartbeat IPC: 0.39691 cumulative IPC: 0.396614 (Simulation time: 1 hr 21 min 37 sec) 
Heartbeat CPU 0 instructions: 837000002 cycles: 2426288764 heartbeat IPC: 0.385422 cumulative IPC: 0.396585 (Simulation time: 1 hr 21 min 41 sec) 
Heartbeat CPU 0 instructions: 838000000 cycles: 2429053725 heartbeat IPC: 0.361668 cumulative IPC: 0.396486 (Simulation time: 1 hr 21 min 47 sec) 
Heartbeat CPU 0 instructions: 839000000 cycles: 2431657779 heartbeat IPC: 0.384017 cumulative IPC: 0.396453 (Simulation time: 1 hr 21 min 52 sec) 
Heartbeat CPU 0 instructions: 840000001 cycles: 2434312414 heartbeat IPC: 0.3767 cumulative IPC: 0.3964 (Simulation time: 1 hr 21 min 57 sec) 
Heartbeat CPU 0 instructions: 841000000 cycles: 2437052191 heartbeat IPC: 0.364993 cumulative IPC: 0.396312 (Simulation time: 1 hr 22 min 2 sec) 
Heartbeat CPU 0 instructions: 842000002 cycles: 2439568942 heartbeat IPC: 0.397338 cumulative IPC: 0.396315 (Simulation time: 1 hr 22 min 6 sec) 
Heartbeat CPU 0 instructions: 843000000 cycles: 2442187027 heartbeat IPC: 0.381958 cumulative IPC: 0.396277 (Simulation time: 1 hr 22 min 11 sec) 
Heartbeat CPU 0 instructions: 844000001 cycles: 2444874926 heartbeat IPC: 0.372038 cumulative IPC: 0.396212 (Simulation time: 1 hr 22 min 15 sec) 
Heartbeat CPU 0 instructions: 845000001 cycles: 2447590006 heartbeat IPC: 0.368313 cumulative IPC: 0.396136 (Simulation time: 1 hr 22 min 20 sec) 
Heartbeat CPU 0 instructions: 846000001 cycles: 2450315124 heartbeat IPC: 0.366957 cumulative IPC: 0.396056 (Simulation time: 1 hr 22 min 25 sec) 
Heartbeat CPU 0 instructions: 847000000 cycles: 2452787052 heartbeat IPC: 0.404542 cumulative IPC: 0.396077 (Simulation time: 1 hr 22 min 30 sec) 
Heartbeat CPU 0 instructions: 848000003 cycles: 2455420478 heartbeat IPC: 0.379735 cumulative IPC: 0.396034 (Simulation time: 1 hr 22 min 35 sec) 
Heartbeat CPU 0 instructions: 849000003 cycles: 2458094799 heartbeat IPC: 0.373927 cumulative IPC: 0.395975 (Simulation time: 1 hr 22 min 40 sec) 
Heartbeat CPU 0 instructions: 850000001 cycles: 2460800757 heartbeat IPC: 0.369554 cumulative IPC: 0.395905 (Simulation time: 1 hr 22 min 45 sec) 
Heartbeat CPU 0 instructions: 851000001 cycles: 2463436057 heartbeat IPC: 0.379463 cumulative IPC: 0.395862 (Simulation time: 1 hr 22 min 50 sec) 
Heartbeat CPU 0 instructions: 852000000 cycles: 2465948085 heartbeat IPC: 0.398084 cumulative IPC: 0.395867 (Simulation time: 1 hr 22 min 54 sec) 
Heartbeat CPU 0 instructions: 853000001 cycles: 2468628376 heartbeat IPC: 0.373094 cumulative IPC: 0.395808 (Simulation time: 1 hr 22 min 59 sec) 
Heartbeat CPU 0 instructions: 854000002 cycles: 2471449567 heartbeat IPC: 0.354461 cumulative IPC: 0.395693 (Simulation time: 1 hr 23 min 4 sec) 
Heartbeat CPU 0 instructions: 855000000 cycles: 2474117794 heartbeat IPC: 0.37478 cumulative IPC: 0.395639 (Simulation time: 1 hr 23 min 9 sec) 
Heartbeat CPU 0 instructions: 856000001 cycles: 2476656689 heartbeat IPC: 0.393873 cumulative IPC: 0.395634 (Simulation time: 1 hr 23 min 14 sec) 
Heartbeat CPU 0 instructions: 857000002 cycles: 2479304335 heartbeat IPC: 0.377694 cumulative IPC: 0.395588 (Simulation time: 1 hr 23 min 19 sec) 
Heartbeat CPU 0 instructions: 858000000 cycles: 2481968435 heartbeat IPC: 0.375361 cumulative IPC: 0.395536 (Simulation time: 1 hr 23 min 24 sec) 
Heartbeat CPU 0 instructions: 859000002 cycles: 2484670484 heartbeat IPC: 0.37009 cumulative IPC: 0.395469 (Simulation time: 1 hr 23 min 29 sec) 
Heartbeat CPU 0 instructions: 860000000 cycles: 2487346186 heartbeat IPC: 0.373733 cumulative IPC: 0.395413 (Simulation time: 1 hr 23 min 33 sec) 
Heartbeat CPU 0 instructions: 861000000 cycles: 2490006367 heartbeat IPC: 0.375914 cumulative IPC: 0.395363 (Simulation time: 1 hr 23 min 38 sec) 
Heartbeat CPU 0 instructions: 862000000 cycles: 2492415266 heartbeat IPC: 0.415127 cumulative IPC: 0.395409 (Simulation time: 1 hr 23 min 43 sec) 
Heartbeat CPU 0 instructions: 863000000 cycles: 2495077387 heartbeat IPC: 0.37564 cumulative IPC: 0.395359 (Simulation time: 1 hr 23 min 48 sec) 
Heartbeat CPU 0 instructions: 864000002 cycles: 2497750358 heartbeat IPC: 0.374116 cumulative IPC: 0.395305 (Simulation time: 1 hr 23 min 53 sec) 
Heartbeat CPU 0 instructions: 865000000 cycles: 2500170009 heartbeat IPC: 0.413282 cumulative IPC: 0.395346 (Simulation time: 1 hr 23 min 58 sec) 
Heartbeat CPU 0 instructions: 866000000 cycles: 2502776684 heartbeat IPC: 0.38363 cumulative IPC: 0.395317 (Simulation time: 1 hr 24 min 2 sec) 
Heartbeat CPU 0 instructions: 867000003 cycles: 2505479670 heartbeat IPC: 0.369962 cumulative IPC: 0.395252 (Simulation time: 1 hr 24 min 8 sec) 
Heartbeat CPU 0 instructions: 868000000 cycles: 2508145632 heartbeat IPC: 0.375098 cumulative IPC: 0.395201 (Simulation time: 1 hr 24 min 13 sec) 
Heartbeat CPU 0 instructions: 869000000 cycles: 2510837021 heartbeat IPC: 0.371555 cumulative IPC: 0.395141 (Simulation time: 1 hr 24 min 18 sec) 
Heartbeat CPU 0 instructions: 870000003 cycles: 2513516812 heartbeat IPC: 0.373165 cumulative IPC: 0.395086 (Simulation time: 1 hr 24 min 23 sec) 
Heartbeat CPU 0 instructions: 871000002 cycles: 2516185395 heartbeat IPC: 0.37473 cumulative IPC: 0.395035 (Simulation time: 1 hr 24 min 28 sec) 
Heartbeat CPU 0 instructions: 872000001 cycles: 2518863668 heartbeat IPC: 0.373375 cumulative IPC: 0.394981 (Simulation time: 1 hr 24 min 33 sec) 
Heartbeat CPU 0 instructions: 873000002 cycles: 2521576994 heartbeat IPC: 0.368552 cumulative IPC: 0.394914 (Simulation time: 1 hr 24 min 38 sec) 
Heartbeat CPU 0 instructions: 874000002 cycles: 2524234402 heartbeat IPC: 0.376307 cumulative IPC: 0.394868 (Simulation time: 1 hr 24 min 43 sec) 
Heartbeat CPU 0 instructions: 875000001 cycles: 2526921467 heartbeat IPC: 0.372153 cumulative IPC: 0.394811 (Simulation time: 1 hr 24 min 47 sec) 
Heartbeat CPU 0 instructions: 876000000 cycles: 2529557539 heartbeat IPC: 0.379352 cumulative IPC: 0.394773 (Simulation time: 1 hr 24 min 52 sec) 
Heartbeat CPU 0 instructions: 877000002 cycles: 2532208775 heartbeat IPC: 0.377183 cumulative IPC: 0.39473 (Simulation time: 1 hr 24 min 57 sec) 
Heartbeat CPU 0 instructions: 878000001 cycles: 2534886978 heartbeat IPC: 0.373384 cumulative IPC: 0.394677 (Simulation time: 1 hr 25 min 2 sec) 
Heartbeat CPU 0 instructions: 879000003 cycles: 2537525704 heartbeat IPC: 0.378972 cumulative IPC: 0.394639 (Simulation time: 1 hr 25 min 7 sec) 
Heartbeat CPU 0 instructions: 880000000 cycles: 2540198777 heartbeat IPC: 0.3741 cumulative IPC: 0.394589 (Simulation time: 1 hr 25 min 12 sec) 
Heartbeat CPU 0 instructions: 881000000 cycles: 2542877924 heartbeat IPC: 0.373253 cumulative IPC: 0.394536 (Simulation time: 1 hr 25 min 17 sec) 
Heartbeat CPU 0 instructions: 882000002 cycles: 2545549151 heartbeat IPC: 0.374361 cumulative IPC: 0.394487 (Simulation time: 1 hr 25 min 22 sec) 
Heartbeat CPU 0 instructions: 883000002 cycles: 2548176416 heartbeat IPC: 0.380624 cumulative IPC: 0.394454 (Simulation time: 1 hr 25 min 27 sec) 
Heartbeat CPU 0 instructions: 884000003 cycles: 2550788619 heartbeat IPC: 0.382819 cumulative IPC: 0.394426 (Simulation time: 1 hr 25 min 32 sec) 
Heartbeat CPU 0 instructions: 885000000 cycles: 2553391603 heartbeat IPC: 0.384173 cumulative IPC: 0.394402 (Simulation time: 1 hr 25 min 37 sec) 
Heartbeat CPU 0 instructions: 886000000 cycles: 2556008974 heartbeat IPC: 0.382063 cumulative IPC: 0.394373 (Simulation time: 1 hr 25 min 42 sec) 
Heartbeat CPU 0 instructions: 887000000 cycles: 2558659922 heartbeat IPC: 0.377224 cumulative IPC: 0.394332 (Simulation time: 1 hr 25 min 47 sec) 
Heartbeat CPU 0 instructions: 888000001 cycles: 2561227558 heartbeat IPC: 0.389464 cumulative IPC: 0.394321 (Simulation time: 1 hr 25 min 51 sec) 
Heartbeat CPU 0 instructions: 889000002 cycles: 2564027677 heartbeat IPC: 0.357128 cumulative IPC: 0.394227 (Simulation time: 1 hr 25 min 57 sec) 
Heartbeat CPU 0 instructions: 890000003 cycles: 2566892543 heartbeat IPC: 0.349057 cumulative IPC: 0.394111 (Simulation time: 1 hr 26 min 1 sec) 
Heartbeat CPU 0 instructions: 891000000 cycles: 2569485594 heartbeat IPC: 0.385645 cumulative IPC: 0.394092 (Simulation time: 1 hr 26 min 6 sec) 
Heartbeat CPU 0 instructions: 892000001 cycles: 2571949570 heartbeat IPC: 0.405849 cumulative IPC: 0.394118 (Simulation time: 1 hr 26 min 11 sec) 
Heartbeat CPU 0 instructions: 893000001 cycles: 2574556764 heartbeat IPC: 0.383554 cumulative IPC: 0.394093 (Simulation time: 1 hr 26 min 16 sec) 
Heartbeat CPU 0 instructions: 894000002 cycles: 2577235540 heartbeat IPC: 0.373305 cumulative IPC: 0.394044 (Simulation time: 1 hr 26 min 21 sec) 
Heartbeat CPU 0 instructions: 895000003 cycles: 2579908299 heartbeat IPC: 0.374146 cumulative IPC: 0.393997 (Simulation time: 1 hr 26 min 26 sec) 
Heartbeat CPU 0 instructions: 896000002 cycles: 2582585677 heartbeat IPC: 0.373499 cumulative IPC: 0.393948 (Simulation time: 1 hr 26 min 31 sec) 
Heartbeat CPU 0 instructions: 897000002 cycles: 2585258476 heartbeat IPC: 0.37414 cumulative IPC: 0.393901 (Simulation time: 1 hr 26 min 37 sec) 
Heartbeat CPU 0 instructions: 898000000 cycles: 2587714549 heartbeat IPC: 0.407153 cumulative IPC: 0.39393 (Simulation time: 1 hr 26 min 42 sec) 
Heartbeat CPU 0 instructions: 899000002 cycles: 2590262510 heartbeat IPC: 0.392471 cumulative IPC: 0.393927 (Simulation time: 1 hr 26 min 47 sec) 
Heartbeat CPU 0 instructions: 900000000 cycles: 2592921738 heartbeat IPC: 0.376048 cumulative IPC: 0.393885 (Simulation time: 1 hr 26 min 53 sec) 
Heartbeat CPU 0 instructions: 901000002 cycles: 2595580423 heartbeat IPC: 0.376127 cumulative IPC: 0.393844 (Simulation time: 1 hr 26 min 59 sec) 
Heartbeat CPU 0 instructions: 902000000 cycles: 2598224513 heartbeat IPC: 0.378201 cumulative IPC: 0.393808 (Simulation time: 1 hr 27 min 4 sec) 
Heartbeat CPU 0 instructions: 903000001 cycles: 2600892004 heartbeat IPC: 0.374884 cumulative IPC: 0.393764 (Simulation time: 1 hr 27 min 10 sec) 
Heartbeat CPU 0 instructions: 904000000 cycles: 2603540741 heartbeat IPC: 0.377538 cumulative IPC: 0.393727 (Simulation time: 1 hr 27 min 15 sec) 
Heartbeat CPU 0 instructions: 905000000 cycles: 2606212930 heartbeat IPC: 0.374225 cumulative IPC: 0.393682 (Simulation time: 1 hr 27 min 21 sec) 
Heartbeat CPU 0 instructions: 906000001 cycles: 2608892091 heartbeat IPC: 0.373252 cumulative IPC: 0.393634 (Simulation time: 1 hr 27 min 28 sec) 
Heartbeat CPU 0 instructions: 907000000 cycles: 2611334040 heartbeat IPC: 0.409509 cumulative IPC: 0.393668 (Simulation time: 1 hr 27 min 33 sec) 
Heartbeat CPU 0 instructions: 908000000 cycles: 2614011438 heartbeat IPC: 0.373497 cumulative IPC: 0.393621 (Simulation time: 1 hr 27 min 38 sec) 
Heartbeat CPU 0 instructions: 909000001 cycles: 2616783897 heartbeat IPC: 0.360691 cumulative IPC: 0.393543 (Simulation time: 1 hr 27 min 43 sec) 
Heartbeat CPU 0 instructions: 910000001 cycles: 2619425045 heartbeat IPC: 0.378623 cumulative IPC: 0.393509 (Simulation time: 1 hr 27 min 48 sec) 
Heartbeat CPU 0 instructions: 911000002 cycles: 2622050208 heartbeat IPC: 0.380929 cumulative IPC: 0.393481 (Simulation time: 1 hr 27 min 53 sec) 
Heartbeat CPU 0 instructions: 912000001 cycles: 2624683545 heartbeat IPC: 0.379746 cumulative IPC: 0.39345 (Simulation time: 1 hr 27 min 58 sec) 
Heartbeat CPU 0 instructions: 913000000 cycles: 2627281604 heartbeat IPC: 0.384902 cumulative IPC: 0.393431 (Simulation time: 1 hr 28 min 3 sec) 
Heartbeat CPU 0 instructions: 914000000 cycles: 2629845262 heartbeat IPC: 0.390068 cumulative IPC: 0.393424 (Simulation time: 1 hr 28 min 8 sec) 
Heartbeat CPU 0 instructions: 915000001 cycles: 2632376367 heartbeat IPC: 0.395085 cumulative IPC: 0.393428 (Simulation time: 1 hr 28 min 14 sec) 
Heartbeat CPU 0 instructions: 916000001 cycles: 2634993121 heartbeat IPC: 0.382153 cumulative IPC: 0.393403 (Simulation time: 1 hr 28 min 19 sec) 
Heartbeat CPU 0 instructions: 917000003 cycles: 2637631656 heartbeat IPC: 0.378999 cumulative IPC: 0.393371 (Simulation time: 1 hr 28 min 24 sec) 
Heartbeat CPU 0 instructions: 918000000 cycles: 2640268017 heartbeat IPC: 0.37931 cumulative IPC: 0.39334 (Simulation time: 1 hr 28 min 30 sec) 
Heartbeat CPU 0 instructions: 919000003 cycles: 2642923668 heartbeat IPC: 0.376557 cumulative IPC: 0.393302 (Simulation time: 1 hr 28 min 35 sec) 
Heartbeat CPU 0 instructions: 920000000 cycles: 2645551855 heartbeat IPC: 0.380489 cumulative IPC: 0.393274 (Simulation time: 1 hr 28 min 40 sec) 
Heartbeat CPU 0 instructions: 921000003 cycles: 2648159124 heartbeat IPC: 0.383544 cumulative IPC: 0.393253 (Simulation time: 1 hr 28 min 45 sec) 
Heartbeat CPU 0 instructions: 922000000 cycles: 2650741309 heartbeat IPC: 0.387268 cumulative IPC: 0.39324 (Simulation time: 1 hr 28 min 51 sec) 
Heartbeat CPU 0 instructions: 923000003 cycles: 2653369250 heartbeat IPC: 0.380527 cumulative IPC: 0.393212 (Simulation time: 1 hr 28 min 56 sec) 
Heartbeat CPU 0 instructions: 924000000 cycles: 2656042359 heartbeat IPC: 0.374095 cumulative IPC: 0.39317 (Simulation time: 1 hr 29 min 1 sec) 
Heartbeat CPU 0 instructions: 925000001 cycles: 2658674322 heartbeat IPC: 0.379945 cumulative IPC: 0.393141 (Simulation time: 1 hr 29 min 6 sec) 
Heartbeat CPU 0 instructions: 926000000 cycles: 2661317451 heartbeat IPC: 0.378339 cumulative IPC: 0.393109 (Simulation time: 1 hr 29 min 11 sec) 
Heartbeat CPU 0 instructions: 927000000 cycles: 2663960800 heartbeat IPC: 0.378308 cumulative IPC: 0.393077 (Simulation time: 1 hr 29 min 16 sec) 
Heartbeat CPU 0 instructions: 928000000 cycles: 2666611392 heartbeat IPC: 0.377274 cumulative IPC: 0.393042 (Simulation time: 1 hr 29 min 21 sec) 
Heartbeat CPU 0 instructions: 929000002 cycles: 2669358647 heartbeat IPC: 0.364 cumulative IPC: 0.392977 (Simulation time: 1 hr 29 min 26 sec) 
Heartbeat CPU 0 instructions: 930000000 cycles: 2672055804 heartbeat IPC: 0.37076 cumulative IPC: 0.392928 (Simulation time: 1 hr 29 min 31 sec) 
Heartbeat CPU 0 instructions: 931000000 cycles: 2674773503 heartbeat IPC: 0.367958 cumulative IPC: 0.392872 (Simulation time: 1 hr 29 min 36 sec) 
Heartbeat CPU 0 instructions: 932000002 cycles: 2677328076 heartbeat IPC: 0.391456 cumulative IPC: 0.392869 (Simulation time: 1 hr 29 min 41 sec) 
Heartbeat CPU 0 instructions: 933000001 cycles: 2680189871 heartbeat IPC: 0.349431 cumulative IPC: 0.392768 (Simulation time: 1 hr 29 min 46 sec) 
Heartbeat CPU 0 instructions: 934000000 cycles: 2682960830 heartbeat IPC: 0.360886 cumulative IPC: 0.392696 (Simulation time: 1 hr 29 min 51 sec) 
Heartbeat CPU 0 instructions: 935000000 cycles: 2685540131 heartbeat IPC: 0.387702 cumulative IPC: 0.392686 (Simulation time: 1 hr 29 min 56 sec) 
Heartbeat CPU 0 instructions: 936000001 cycles: 2688138578 heartbeat IPC: 0.384846 cumulative IPC: 0.39267 (Simulation time: 1 hr 30 min 0 sec) 
Heartbeat CPU 0 instructions: 937000000 cycles: 2690806837 heartbeat IPC: 0.374776 cumulative IPC: 0.392631 (Simulation time: 1 hr 30 min 6 sec) 
Heartbeat CPU 0 instructions: 938000000 cycles: 2693656359 heartbeat IPC: 0.350936 cumulative IPC: 0.392535 (Simulation time: 1 hr 30 min 11 sec) 
Heartbeat CPU 0 instructions: 939000000 cycles: 2696285749 heartbeat IPC: 0.380316 cumulative IPC: 0.39251 (Simulation time: 1 hr 30 min 16 sec) 
Heartbeat CPU 0 instructions: 940000000 cycles: 2698893250 heartbeat IPC: 0.383509 cumulative IPC: 0.392491 (Simulation time: 1 hr 30 min 21 sec) 
Heartbeat CPU 0 instructions: 941000000 cycles: 2701571237 heartbeat IPC: 0.373415 cumulative IPC: 0.39245 (Simulation time: 1 hr 30 min 26 sec) 
Heartbeat CPU 0 instructions: 942000000 cycles: 2704423178 heartbeat IPC: 0.350638 cumulative IPC: 0.392355 (Simulation time: 1 hr 30 min 31 sec) 
Heartbeat CPU 0 instructions: 943000002 cycles: 2707062627 heartbeat IPC: 0.378868 cumulative IPC: 0.392327 (Simulation time: 1 hr 30 min 36 sec) 
Heartbeat CPU 0 instructions: 944000002 cycles: 2709711606 heartbeat IPC: 0.377504 cumulative IPC: 0.392295 (Simulation time: 1 hr 30 min 41 sec) 
Heartbeat CPU 0 instructions: 945000002 cycles: 2712500430 heartbeat IPC: 0.358574 cumulative IPC: 0.392221 (Simulation time: 1 hr 30 min 46 sec) 
Heartbeat CPU 0 instructions: 946000000 cycles: 2715367989 heartbeat IPC: 0.348728 cumulative IPC: 0.392122 (Simulation time: 1 hr 30 min 51 sec) 
Heartbeat CPU 0 instructions: 947000002 cycles: 2718100919 heartbeat IPC: 0.365908 cumulative IPC: 0.392066 (Simulation time: 1 hr 30 min 56 sec) 
Heartbeat CPU 0 instructions: 948000002 cycles: 2720967492 heartbeat IPC: 0.348849 cumulative IPC: 0.391968 (Simulation time: 1 hr 31 min 1 sec) 
Heartbeat CPU 0 instructions: 949000002 cycles: 2723581634 heartbeat IPC: 0.382535 cumulative IPC: 0.391949 (Simulation time: 1 hr 31 min 6 sec) 
Heartbeat CPU 0 instructions: 950000000 cycles: 2726368290 heartbeat IPC: 0.358852 cumulative IPC: 0.391877 (Simulation time: 1 hr 31 min 11 sec) 
Finished CPU 0 instructions: 500000000 cycles: 1275911642 cumulative IPC: 0.391877 (Simulation time: 1 hr 31 min 11 sec) 

ChampSim completed all CPUs

Region of Interest Statistics

CPU 0 cumulative IPC: 0.391877 instructions: 500000000 cycles: 1275911642
L1D TOTAL     ACCESS:  166010440  HIT:  133818603  MISS:   32191837
L1D LOAD      ACCESS:  123100721  HIT:   92477933  MISS:   30622788
L1D RFO       ACCESS:   42909719  HIT:   41340670  MISS:    1569049
L1D PREFETCH  ACCESS:          0  HIT:          0  MISS:          0
L1D WRITEBACK ACCESS:          0  HIT:          0  MISS:          0
L1D PREFETCH  REQUESTED:          0  ISSUED:          0  USEFUL:          0  USELESS:          0
L1D AVERAGE MISS LATENCY: 62.5289 cycles
L1I TOTAL     ACCESS:   90371665  HIT:   90371665  MISS:          0
L1I LOAD      ACCESS:   90371665  HIT:   90371665  MISS:          0
L1I RFO       ACCESS:          0  HIT:          0  MISS:          0
L1I PREFETCH  ACCESS:          0  HIT:          0  MISS:          0
L1I WRITEBACK ACCESS:          0  HIT:          0  MISS:          0
L1I PREFETCH  REQUESTED:          0  ISSUED:          0  USEFUL:          0  USELESS:          0
L1I AVERAGE MISS LATENCY: -nan cycles
L2C TOTAL     ACCESS:   34571476  HIT:    8357628  MISS:   26213848
L2C LOAD      ACCESS:   30622622  HIT:    5179788  MISS:   25442834
L2C RFO       ACCESS:    1569042  HIT:     801550  MISS:     767492
L2C PREFETCH  ACCESS:          0  HIT:          0  MISS:          0
L2C WRITEBACK ACCESS:    2379812  HIT:    2376290  MISS:       3522
L2C PREFETCH  REQUESTED:          0  ISSUED:          0  USEFUL:          0  USELESS:          0
L2C AVERAGE MISS LATENCY: 58.9365 cycles
LLC TOTAL     ACCESS:   51403136  HIT:   38317166  MISS:   13085970
LLC LOAD      ACCESS:   25442818  HIT:   21549285  MISS:    3893533
LLC RFO       ACCESS:     767480  HIT:     751260  MISS:      16220
LLC PREFETCH  ACCESS:   23647629  HIT:   14498023  MISS:    9149606
LLC WRITEBACK ACCESS:    1545209  HIT:    1518598  MISS:      26611
LLC PREFETCH  REQUESTED:   25436680  ISSUED:   24236419  USEFUL:    8409565  USELESS:     738254
LLC AVERAGE MISS LATENCY: 151.315 cycles
Major fault: 0 Minor fault: 303883
performance stats:
mapping cache size: 19361774
divergence: 24405924

DRAM Statistics
 CHANNEL 0
 RQ ROW_BUFFER_HIT:    4935556  ROW_BUFFER_MISS:    1606186
 DBUS_CONGESTED:    9845347
 WQ ROW_BUFFER_HIT:      43239  ROW_BUFFER_MISS:      33907  FULL:          0

 CHANNEL 1
 RQ ROW_BUFFER_HIT:    4931662  ROW_BUFFER_MISS:    1585877
 DBUS_CONGESTED:    9845347
 WQ ROW_BUFFER_HIT:      42175  ROW_BUFFER_MISS:      32876  FULL:          0

 AVG_CONGESTED_CYCLE: 16

CPU 0 Branch Prediction Accuracy: 94.4017% MPKI: 14.3155 Average ROB Occupancy at Mispredict: 32.3203

Branch types
NOT_BRANCH: 372143845 74.4288%
BRANCH_DIRECT_JUMP: 14238481 2.8477%
BRANCH_INDIRECT: 0 0%
BRANCH_CONDITIONAL: 93325958 18.6652%
BRANCH_DIRECT_CALL: 9505113 1.90102%
BRANCH_INDIRECT_CALL: 640558 0.128112%
BRANCH_RETURN: 10145672 2.02913%
BRANCH_OTHER: 0 0%

