
*** ChampSim Multicore Out-of-Order Simulator ***

Warmup Instructions: 1000000
Prefetch Warmup Instructions: 450000000
Simulation Instructions: 500000000
Stat Printing Period: 1000000
Number of CPUs: 1
LLC sets: 2048
LLC ways: 16
Off-chip DRAM Size: 32768 MB Channels: 2 Width: 64-bit Data Rate: 1024 MT/s

CPU 0 runs /scratch/cluster/cmolder/ML-DPC/ChampSimTraces/spec17/605.mcf-s3.trace.xz
Read seed: 273
Heartbeat CPU 0 instructions: 1000000 cycles: 713393 heartbeat IPC: 1.40175 cumulative IPC: 1.40175 (Simulation time: 0 hr 0 min 9 sec) 

Warmup complete CPU 0 instructions: 1000001 cycles: 713394 (Simulation time: 0 hr 0 min 9 sec) 

Heartbeat CPU 0 instructions: 2000002 cycles: 6947993 heartbeat IPC: 0.160396 cumulative IPC: 0.160395 (Simulation time: 0 hr 0 min 20 sec) 
Heartbeat CPU 0 instructions: 3000000 cycles: 13268484 heartbeat IPC: 0.158215 cumulative IPC: 0.159298 (Simulation time: 0 hr 0 min 32 sec) 
Heartbeat CPU 0 instructions: 4000001 cycles: 19526317 heartbeat IPC: 0.1598 cumulative IPC: 0.159465 (Simulation time: 0 hr 0 min 44 sec) 
Heartbeat CPU 0 instructions: 5000000 cycles: 25971615 heartbeat IPC: 0.155152 cumulative IPC: 0.158364 (Simulation time: 0 hr 0 min 56 sec) 
Heartbeat CPU 0 instructions: 6000003 cycles: 32391522 heartbeat IPC: 0.155766 cumulative IPC: 0.157838 (Simulation time: 0 hr 1 min 8 sec) 
Heartbeat CPU 0 instructions: 7000001 cycles: 38713759 heartbeat IPC: 0.158172 cumulative IPC: 0.157893 (Simulation time: 0 hr 1 min 19 sec) 
Heartbeat CPU 0 instructions: 8000003 cycles: 45061094 heartbeat IPC: 0.157547 cumulative IPC: 0.157844 (Simulation time: 0 hr 1 min 31 sec) 
Heartbeat CPU 0 instructions: 9000002 cycles: 51358483 heartbeat IPC: 0.158796 cumulative IPC: 0.157962 (Simulation time: 0 hr 1 min 43 sec) 
Heartbeat CPU 0 instructions: 10000003 cycles: 57449931 heartbeat IPC: 0.164165 cumulative IPC: 0.158628 (Simulation time: 0 hr 1 min 56 sec) 
Heartbeat CPU 0 instructions: 11000000 cycles: 63448472 heartbeat IPC: 0.166707 cumulative IPC: 0.1594 (Simulation time: 0 hr 2 min 8 sec) 
Heartbeat CPU 0 instructions: 12000001 cycles: 69597498 heartbeat IPC: 0.162628 cumulative IPC: 0.159689 (Simulation time: 0 hr 2 min 20 sec) 
Heartbeat CPU 0 instructions: 13000003 cycles: 75678223 heartbeat IPC: 0.164454 cumulative IPC: 0.160075 (Simulation time: 0 hr 2 min 32 sec) 
Heartbeat CPU 0 instructions: 14000000 cycles: 81916135 heartbeat IPC: 0.16031 cumulative IPC: 0.160093 (Simulation time: 0 hr 2 min 45 sec) 
Heartbeat CPU 0 instructions: 15000002 cycles: 87932579 heartbeat IPC: 0.166211 cumulative IPC: 0.160515 (Simulation time: 0 hr 2 min 57 sec) 
Heartbeat CPU 0 instructions: 16000000 cycles: 93812212 heartbeat IPC: 0.170078 cumulative IPC: 0.161119 (Simulation time: 0 hr 3 min 10 sec) 
Heartbeat CPU 0 instructions: 17000000 cycles: 100008812 heartbeat IPC: 0.161379 cumulative IPC: 0.161135 (Simulation time: 0 hr 3 min 22 sec) 
Heartbeat CPU 0 instructions: 18000002 cycles: 106294425 heartbeat IPC: 0.159094 cumulative IPC: 0.161014 (Simulation time: 0 hr 3 min 34 sec) 
Heartbeat CPU 0 instructions: 19000001 cycles: 112700640 heartbeat IPC: 0.156098 cumulative IPC: 0.160733 (Simulation time: 0 hr 3 min 46 sec) 
Heartbeat CPU 0 instructions: 20000002 cycles: 118896799 heartbeat IPC: 0.16139 cumulative IPC: 0.160767 (Simulation time: 0 hr 3 min 58 sec) 
Heartbeat CPU 0 instructions: 21000000 cycles: 125044971 heartbeat IPC: 0.16265 cumulative IPC: 0.16086 (Simulation time: 0 hr 4 min 9 sec) 
Heartbeat CPU 0 instructions: 22000000 cycles: 131521651 heartbeat IPC: 0.1544 cumulative IPC: 0.16054 (Simulation time: 0 hr 4 min 22 sec) 
Heartbeat CPU 0 instructions: 23000002 cycles: 137953551 heartbeat IPC: 0.155475 cumulative IPC: 0.160303 (Simulation time: 0 hr 4 min 33 sec) 
Heartbeat CPU 0 instructions: 24000001 cycles: 144438900 heartbeat IPC: 0.154194 cumulative IPC: 0.160027 (Simulation time: 0 hr 4 min 45 sec) 
Heartbeat CPU 0 instructions: 25000003 cycles: 150964904 heartbeat IPC: 0.153233 cumulative IPC: 0.159732 (Simulation time: 0 hr 4 min 56 sec) 
Heartbeat CPU 0 instructions: 26000000 cycles: 157252985 heartbeat IPC: 0.159031 cumulative IPC: 0.159704 (Simulation time: 0 hr 5 min 8 sec) 
Heartbeat CPU 0 instructions: 27000000 cycles: 163424425 heartbeat IPC: 0.162037 cumulative IPC: 0.159792 (Simulation time: 0 hr 5 min 20 sec) 
Heartbeat CPU 0 instructions: 28000003 cycles: 169761000 heartbeat IPC: 0.157814 cumulative IPC: 0.159718 (Simulation time: 0 hr 5 min 31 sec) 
Heartbeat CPU 0 instructions: 29000001 cycles: 176201157 heartbeat IPC: 0.155275 cumulative IPC: 0.159555 (Simulation time: 0 hr 5 min 43 sec) 
Heartbeat CPU 0 instructions: 30000000 cycles: 182769140 heartbeat IPC: 0.152254 cumulative IPC: 0.159292 (Simulation time: 0 hr 5 min 54 sec) 
Heartbeat CPU 0 instructions: 31000003 cycles: 189180376 heartbeat IPC: 0.155977 cumulative IPC: 0.159179 (Simulation time: 0 hr 6 min 6 sec) 
Heartbeat CPU 0 instructions: 32000001 cycles: 195554387 heartbeat IPC: 0.156887 cumulative IPC: 0.159104 (Simulation time: 0 hr 6 min 18 sec) 
Heartbeat CPU 0 instructions: 33000000 cycles: 202121667 heartbeat IPC: 0.15227 cumulative IPC: 0.158881 (Simulation time: 0 hr 6 min 30 sec) 
Heartbeat CPU 0 instructions: 34000001 cycles: 208590527 heartbeat IPC: 0.154587 cumulative IPC: 0.158748 (Simulation time: 0 hr 6 min 42 sec) 
Heartbeat CPU 0 instructions: 35000001 cycles: 215034370 heartbeat IPC: 0.155187 cumulative IPC: 0.158641 (Simulation time: 0 hr 6 min 54 sec) 
Heartbeat CPU 0 instructions: 36000002 cycles: 221498590 heartbeat IPC: 0.154698 cumulative IPC: 0.158525 (Simulation time: 0 hr 7 min 6 sec) 
Heartbeat CPU 0 instructions: 37000002 cycles: 227921742 heartbeat IPC: 0.155687 cumulative IPC: 0.158445 (Simulation time: 0 hr 7 min 18 sec) 
Heartbeat CPU 0 instructions: 38000003 cycles: 234147669 heartbeat IPC: 0.160619 cumulative IPC: 0.158503 (Simulation time: 0 hr 7 min 30 sec) 
Heartbeat CPU 0 instructions: 39000000 cycles: 240564945 heartbeat IPC: 0.155829 cumulative IPC: 0.158431 (Simulation time: 0 hr 7 min 42 sec) 
Heartbeat CPU 0 instructions: 40000000 cycles: 247110764 heartbeat IPC: 0.152769 cumulative IPC: 0.158281 (Simulation time: 0 hr 7 min 54 sec) 
Heartbeat CPU 0 instructions: 41000003 cycles: 253242449 heartbeat IPC: 0.163088 cumulative IPC: 0.158398 (Simulation time: 0 hr 8 min 7 sec) 
Heartbeat CPU 0 instructions: 42000000 cycles: 259732868 heartbeat IPC: 0.154073 cumulative IPC: 0.158289 (Simulation time: 0 hr 8 min 19 sec) 
Heartbeat CPU 0 instructions: 43000003 cycles: 266161149 heartbeat IPC: 0.155563 cumulative IPC: 0.158223 (Simulation time: 0 hr 8 min 31 sec) 
Heartbeat CPU 0 instructions: 44000000 cycles: 272423459 heartbeat IPC: 0.159685 cumulative IPC: 0.158257 (Simulation time: 0 hr 8 min 44 sec) 
Heartbeat CPU 0 instructions: 45000001 cycles: 278943408 heartbeat IPC: 0.153376 cumulative IPC: 0.158143 (Simulation time: 0 hr 8 min 56 sec) 
Heartbeat CPU 0 instructions: 46000001 cycles: 285717268 heartbeat IPC: 0.147626 cumulative IPC: 0.157893 (Simulation time: 0 hr 9 min 7 sec) 
Heartbeat CPU 0 instructions: 47000002 cycles: 292224834 heartbeat IPC: 0.153667 cumulative IPC: 0.157798 (Simulation time: 0 hr 9 min 19 sec) 
Heartbeat CPU 0 instructions: 48000000 cycles: 298676514 heartbeat IPC: 0.154998 cumulative IPC: 0.157738 (Simulation time: 0 hr 9 min 32 sec) 
Heartbeat CPU 0 instructions: 49000000 cycles: 305056964 heartbeat IPC: 0.156729 cumulative IPC: 0.157716 (Simulation time: 0 hr 9 min 43 sec) 
Heartbeat CPU 0 instructions: 50000001 cycles: 311518192 heartbeat IPC: 0.154769 cumulative IPC: 0.157655 (Simulation time: 0 hr 9 min 55 sec) 
Heartbeat CPU 0 instructions: 51000001 cycles: 317974984 heartbeat IPC: 0.154876 cumulative IPC: 0.157599 (Simulation time: 0 hr 10 min 7 sec) 
Heartbeat CPU 0 instructions: 52000003 cycles: 324326911 heartbeat IPC: 0.157433 cumulative IPC: 0.157595 (Simulation time: 0 hr 10 min 19 sec) 
Heartbeat CPU 0 instructions: 53000001 cycles: 330679270 heartbeat IPC: 0.157422 cumulative IPC: 0.157592 (Simulation time: 0 hr 10 min 32 sec) 
Heartbeat CPU 0 instructions: 54000001 cycles: 337014626 heartbeat IPC: 0.157844 cumulative IPC: 0.157597 (Simulation time: 0 hr 10 min 45 sec) 
Heartbeat CPU 0 instructions: 55000000 cycles: 343309513 heartbeat IPC: 0.158859 cumulative IPC: 0.15762 (Simulation time: 0 hr 10 min 57 sec) 
Heartbeat CPU 0 instructions: 56000001 cycles: 349821905 heartbeat IPC: 0.153554 cumulative IPC: 0.157544 (Simulation time: 0 hr 11 min 10 sec) 
Heartbeat CPU 0 instructions: 57000003 cycles: 356241074 heartbeat IPC: 0.155784 cumulative IPC: 0.157512 (Simulation time: 0 hr 11 min 22 sec) 
Heartbeat CPU 0 instructions: 58000001 cycles: 362784461 heartbeat IPC: 0.152826 cumulative IPC: 0.157428 (Simulation time: 0 hr 11 min 35 sec) 
Heartbeat CPU 0 instructions: 59000000 cycles: 369386954 heartbeat IPC: 0.151458 cumulative IPC: 0.157321 (Simulation time: 0 hr 11 min 48 sec) 
Heartbeat CPU 0 instructions: 60000001 cycles: 375609909 heartbeat IPC: 0.160696 cumulative IPC: 0.157377 (Simulation time: 0 hr 12 min 0 sec) 
Heartbeat CPU 0 instructions: 61000003 cycles: 381971011 heartbeat IPC: 0.157206 cumulative IPC: 0.157374 (Simulation time: 0 hr 12 min 12 sec) 
Heartbeat CPU 0 instructions: 62000001 cycles: 388131806 heartbeat IPC: 0.162316 cumulative IPC: 0.157453 (Simulation time: 0 hr 12 min 24 sec) 
Heartbeat CPU 0 instructions: 63000001 cycles: 394929151 heartbeat IPC: 0.147116 cumulative IPC: 0.157274 (Simulation time: 0 hr 12 min 36 sec) 
Heartbeat CPU 0 instructions: 64000001 cycles: 401229334 heartbeat IPC: 0.158726 cumulative IPC: 0.157297 (Simulation time: 0 hr 12 min 48 sec) 
Heartbeat CPU 0 instructions: 65000000 cycles: 407867200 heartbeat IPC: 0.150651 cumulative IPC: 0.157189 (Simulation time: 0 hr 13 min 0 sec) 
Heartbeat CPU 0 instructions: 66000000 cycles: 413988769 heartbeat IPC: 0.163357 cumulative IPC: 0.15728 (Simulation time: 0 hr 13 min 12 sec) 
Heartbeat CPU 0 instructions: 67000003 cycles: 420388160 heartbeat IPC: 0.156265 cumulative IPC: 0.157265 (Simulation time: 0 hr 13 min 24 sec) 
Heartbeat CPU 0 instructions: 68000002 cycles: 426961779 heartbeat IPC: 0.152123 cumulative IPC: 0.157185 (Simulation time: 0 hr 13 min 36 sec) 
Heartbeat CPU 0 instructions: 69000000 cycles: 433318118 heartbeat IPC: 0.157323 cumulative IPC: 0.157187 (Simulation time: 0 hr 13 min 48 sec) 
Heartbeat CPU 0 instructions: 70000003 cycles: 439674129 heartbeat IPC: 0.157332 cumulative IPC: 0.157189 (Simulation time: 0 hr 14 min 0 sec) 
Heartbeat CPU 0 instructions: 71000001 cycles: 446113498 heartbeat IPC: 0.155294 cumulative IPC: 0.157162 (Simulation time: 0 hr 14 min 12 sec) 
Heartbeat CPU 0 instructions: 72000002 cycles: 452656794 heartbeat IPC: 0.152828 cumulative IPC: 0.157099 (Simulation time: 0 hr 14 min 23 sec) 
Heartbeat CPU 0 instructions: 73000000 cycles: 458866866 heartbeat IPC: 0.161028 cumulative IPC: 0.157153 (Simulation time: 0 hr 14 min 36 sec) 
Heartbeat CPU 0 instructions: 74000001 cycles: 465254135 heartbeat IPC: 0.156562 cumulative IPC: 0.157144 (Simulation time: 0 hr 14 min 48 sec) 
Heartbeat CPU 0 instructions: 75000001 cycles: 471764127 heartbeat IPC: 0.15361 cumulative IPC: 0.157096 (Simulation time: 0 hr 15 min 0 sec) 
Heartbeat CPU 0 instructions: 76000000 cycles: 478166637 heartbeat IPC: 0.156189 cumulative IPC: 0.157083 (Simulation time: 0 hr 15 min 13 sec) 
Heartbeat CPU 0 instructions: 77000000 cycles: 484431675 heartbeat IPC: 0.159616 cumulative IPC: 0.157116 (Simulation time: 0 hr 15 min 25 sec) 
Heartbeat CPU 0 instructions: 78000001 cycles: 490692690 heartbeat IPC: 0.159719 cumulative IPC: 0.157149 (Simulation time: 0 hr 15 min 38 sec) 
Heartbeat CPU 0 instructions: 79000002 cycles: 497390739 heartbeat IPC: 0.149297 cumulative IPC: 0.157044 (Simulation time: 0 hr 15 min 50 sec) 
Heartbeat CPU 0 instructions: 80000000 cycles: 503782348 heartbeat IPC: 0.156455 cumulative IPC: 0.157036 (Simulation time: 0 hr 16 min 3 sec) 
Heartbeat CPU 0 instructions: 81000003 cycles: 510117892 heartbeat IPC: 0.15784 cumulative IPC: 0.157046 (Simulation time: 0 hr 16 min 16 sec) 
Heartbeat CPU 0 instructions: 82000001 cycles: 516384414 heartbeat IPC: 0.159578 cumulative IPC: 0.157077 (Simulation time: 0 hr 16 min 29 sec) 
Heartbeat CPU 0 instructions: 83000002 cycles: 522818827 heartbeat IPC: 0.155414 cumulative IPC: 0.157056 (Simulation time: 0 hr 16 min 42 sec) 
Heartbeat CPU 0 instructions: 84000000 cycles: 529257349 heartbeat IPC: 0.155315 cumulative IPC: 0.157035 (Simulation time: 0 hr 16 min 55 sec) 
Heartbeat CPU 0 instructions: 85000002 cycles: 535667139 heartbeat IPC: 0.156012 cumulative IPC: 0.157023 (Simulation time: 0 hr 17 min 8 sec) 
Heartbeat CPU 0 instructions: 86000002 cycles: 542179858 heartbeat IPC: 0.153546 cumulative IPC: 0.156981 (Simulation time: 0 hr 17 min 20 sec) 
Heartbeat CPU 0 instructions: 87000002 cycles: 548452565 heartbeat IPC: 0.159421 cumulative IPC: 0.157009 (Simulation time: 0 hr 17 min 32 sec) 
Heartbeat CPU 0 instructions: 88000000 cycles: 554912250 heartbeat IPC: 0.154806 cumulative IPC: 0.156983 (Simulation time: 0 hr 17 min 44 sec) 
Heartbeat CPU 0 instructions: 89000000 cycles: 561198743 heartbeat IPC: 0.159071 cumulative IPC: 0.157007 (Simulation time: 0 hr 17 min 56 sec) 
Heartbeat CPU 0 instructions: 90000000 cycles: 567571585 heartbeat IPC: 0.156916 cumulative IPC: 0.157006 (Simulation time: 0 hr 18 min 8 sec) 
Heartbeat CPU 0 instructions: 91000003 cycles: 574148883 heartbeat IPC: 0.152039 cumulative IPC: 0.156949 (Simulation time: 0 hr 18 min 20 sec) 
Heartbeat CPU 0 instructions: 92000003 cycles: 580574097 heartbeat IPC: 0.155637 cumulative IPC: 0.156934 (Simulation time: 0 hr 18 min 32 sec) 
Heartbeat CPU 0 instructions: 93000002 cycles: 587049693 heartbeat IPC: 0.154426 cumulative IPC: 0.156907 (Simulation time: 0 hr 18 min 44 sec) 
Heartbeat CPU 0 instructions: 94000002 cycles: 593568114 heartbeat IPC: 0.153411 cumulative IPC: 0.156868 (Simulation time: 0 hr 18 min 57 sec) 
Heartbeat CPU 0 instructions: 95000000 cycles: 599946779 heartbeat IPC: 0.156772 cumulative IPC: 0.156867 (Simulation time: 0 hr 19 min 10 sec) 
Heartbeat CPU 0 instructions: 96000001 cycles: 606368501 heartbeat IPC: 0.155722 cumulative IPC: 0.156855 (Simulation time: 0 hr 19 min 22 sec) 
Heartbeat CPU 0 instructions: 97000001 cycles: 612815263 heartbeat IPC: 0.155117 cumulative IPC: 0.156837 (Simulation time: 0 hr 19 min 35 sec) 
Heartbeat CPU 0 instructions: 98000000 cycles: 619298717 heartbeat IPC: 0.154239 cumulative IPC: 0.156809 (Simulation time: 0 hr 19 min 46 sec) 
Heartbeat CPU 0 instructions: 99000000 cycles: 625931579 heartbeat IPC: 0.150764 cumulative IPC: 0.156745 (Simulation time: 0 hr 19 min 58 sec) 
Heartbeat CPU 0 instructions: 100000001 cycles: 632401637 heartbeat IPC: 0.154558 cumulative IPC: 0.156723 (Simulation time: 0 hr 20 min 10 sec) 
Heartbeat CPU 0 instructions: 101000000 cycles: 638873029 heartbeat IPC: 0.154526 cumulative IPC: 0.156701 (Simulation time: 0 hr 20 min 22 sec) 
Heartbeat CPU 0 instructions: 102000000 cycles: 645534872 heartbeat IPC: 0.150109 cumulative IPC: 0.156632 (Simulation time: 0 hr 20 min 35 sec) 
Heartbeat CPU 0 instructions: 103000001 cycles: 651955479 heartbeat IPC: 0.155749 cumulative IPC: 0.156624 (Simulation time: 0 hr 20 min 47 sec) 
Heartbeat CPU 0 instructions: 104000000 cycles: 658297711 heartbeat IPC: 0.157673 cumulative IPC: 0.156634 (Simulation time: 0 hr 20 min 59 sec) 
Heartbeat CPU 0 instructions: 105000000 cycles: 664826828 heartbeat IPC: 0.15316 cumulative IPC: 0.1566 (Simulation time: 0 hr 21 min 11 sec) 
Heartbeat CPU 0 instructions: 106000003 cycles: 671374263 heartbeat IPC: 0.152732 cumulative IPC: 0.156562 (Simulation time: 0 hr 21 min 23 sec) 
Heartbeat CPU 0 instructions: 107000000 cycles: 678162646 heartbeat IPC: 0.14731 cumulative IPC: 0.156469 (Simulation time: 0 hr 21 min 35 sec) 
Heartbeat CPU 0 instructions: 108000000 cycles: 684661008 heartbeat IPC: 0.153885 cumulative IPC: 0.156445 (Simulation time: 0 hr 21 min 47 sec) 
Heartbeat CPU 0 instructions: 109000001 cycles: 691273462 heartbeat IPC: 0.15123 cumulative IPC: 0.156395 (Simulation time: 0 hr 21 min 59 sec) 
Heartbeat CPU 0 instructions: 110000000 cycles: 697837660 heartbeat IPC: 0.152341 cumulative IPC: 0.156357 (Simulation time: 0 hr 22 min 12 sec) 
Heartbeat CPU 0 instructions: 111000000 cycles: 704450521 heartbeat IPC: 0.15122 cumulative IPC: 0.156308 (Simulation time: 0 hr 22 min 24 sec) 
Heartbeat CPU 0 instructions: 112000000 cycles: 711168327 heartbeat IPC: 0.148858 cumulative IPC: 0.156238 (Simulation time: 0 hr 22 min 36 sec) 
Heartbeat CPU 0 instructions: 113000003 cycles: 717920804 heartbeat IPC: 0.148094 cumulative IPC: 0.156161 (Simulation time: 0 hr 22 min 48 sec) 
Heartbeat CPU 0 instructions: 114000003 cycles: 724809077 heartbeat IPC: 0.145174 cumulative IPC: 0.156057 (Simulation time: 0 hr 23 min 0 sec) 
Heartbeat CPU 0 instructions: 115000000 cycles: 731185437 heartbeat IPC: 0.156829 cumulative IPC: 0.156063 (Simulation time: 0 hr 23 min 13 sec) 
Heartbeat CPU 0 instructions: 116000000 cycles: 737828164 heartbeat IPC: 0.150541 cumulative IPC: 0.156014 (Simulation time: 0 hr 23 min 25 sec) 
Heartbeat CPU 0 instructions: 117000000 cycles: 744239540 heartbeat IPC: 0.155973 cumulative IPC: 0.156013 (Simulation time: 0 hr 23 min 37 sec) 
Heartbeat CPU 0 instructions: 118000000 cycles: 750629024 heartbeat IPC: 0.156507 cumulative IPC: 0.156018 (Simulation time: 0 hr 23 min 50 sec) 
Heartbeat CPU 0 instructions: 119000000 cycles: 757227727 heartbeat IPC: 0.151545 cumulative IPC: 0.155979 (Simulation time: 0 hr 24 min 2 sec) 
Heartbeat CPU 0 instructions: 120000000 cycles: 763605714 heartbeat IPC: 0.156789 cumulative IPC: 0.155985 (Simulation time: 0 hr 24 min 14 sec) 
Heartbeat CPU 0 instructions: 121000000 cycles: 770136986 heartbeat IPC: 0.15311 cumulative IPC: 0.155961 (Simulation time: 0 hr 24 min 27 sec) 
Heartbeat CPU 0 instructions: 122000000 cycles: 776853232 heartbeat IPC: 0.148893 cumulative IPC: 0.1559 (Simulation time: 0 hr 24 min 39 sec) 
Heartbeat CPU 0 instructions: 123000002 cycles: 783229335 heartbeat IPC: 0.156836 cumulative IPC: 0.155907 (Simulation time: 0 hr 24 min 51 sec) 
Heartbeat CPU 0 instructions: 124000000 cycles: 789834841 heartbeat IPC: 0.151389 cumulative IPC: 0.15587 (Simulation time: 0 hr 25 min 3 sec) 
Heartbeat CPU 0 instructions: 125000000 cycles: 796376064 heartbeat IPC: 0.152877 cumulative IPC: 0.155845 (Simulation time: 0 hr 25 min 16 sec) 
Heartbeat CPU 0 instructions: 126000000 cycles: 802917548 heartbeat IPC: 0.152871 cumulative IPC: 0.155821 (Simulation time: 0 hr 25 min 28 sec) 
Heartbeat CPU 0 instructions: 127000000 cycles: 809492745 heartbeat IPC: 0.152087 cumulative IPC: 0.15579 (Simulation time: 0 hr 25 min 40 sec) 
Heartbeat CPU 0 instructions: 128000001 cycles: 816177371 heartbeat IPC: 0.149597 cumulative IPC: 0.15574 (Simulation time: 0 hr 25 min 52 sec) 
Heartbeat CPU 0 instructions: 129000003 cycles: 822705463 heartbeat IPC: 0.153184 cumulative IPC: 0.155719 (Simulation time: 0 hr 26 min 4 sec) 
Heartbeat CPU 0 instructions: 130000000 cycles: 829289735 heartbeat IPC: 0.151877 cumulative IPC: 0.155689 (Simulation time: 0 hr 26 min 17 sec) 
Heartbeat CPU 0 instructions: 131000002 cycles: 835704408 heartbeat IPC: 0.155893 cumulative IPC: 0.15569 (Simulation time: 0 hr 26 min 30 sec) 
Heartbeat CPU 0 instructions: 132000000 cycles: 842368600 heartbeat IPC: 0.150055 cumulative IPC: 0.155646 (Simulation time: 0 hr 26 min 43 sec) 
Heartbeat CPU 0 instructions: 133000002 cycles: 849031822 heartbeat IPC: 0.150078 cumulative IPC: 0.155602 (Simulation time: 0 hr 26 min 55 sec) 
Heartbeat CPU 0 instructions: 134000000 cycles: 855281779 heartbeat IPC: 0.160001 cumulative IPC: 0.155634 (Simulation time: 0 hr 27 min 8 sec) 
Heartbeat CPU 0 instructions: 135000000 cycles: 861759125 heartbeat IPC: 0.154384 cumulative IPC: 0.155625 (Simulation time: 0 hr 27 min 20 sec) 
Heartbeat CPU 0 instructions: 136000001 cycles: 868201397 heartbeat IPC: 0.155225 cumulative IPC: 0.155622 (Simulation time: 0 hr 27 min 33 sec) 
Heartbeat CPU 0 instructions: 137000002 cycles: 874696267 heartbeat IPC: 0.153968 cumulative IPC: 0.155609 (Simulation time: 0 hr 27 min 45 sec) 
Heartbeat CPU 0 instructions: 138000003 cycles: 881165942 heartbeat IPC: 0.154567 cumulative IPC: 0.155602 (Simulation time: 0 hr 27 min 58 sec) 
Heartbeat CPU 0 instructions: 139000002 cycles: 887530927 heartbeat IPC: 0.157109 cumulative IPC: 0.155613 (Simulation time: 0 hr 28 min 10 sec) 
Heartbeat CPU 0 instructions: 140000003 cycles: 893910113 heartbeat IPC: 0.15676 cumulative IPC: 0.155621 (Simulation time: 0 hr 28 min 22 sec) 
Heartbeat CPU 0 instructions: 141000000 cycles: 900331285 heartbeat IPC: 0.155734 cumulative IPC: 0.155622 (Simulation time: 0 hr 28 min 34 sec) 
Heartbeat CPU 0 instructions: 142000002 cycles: 906835154 heartbeat IPC: 0.153755 cumulative IPC: 0.155608 (Simulation time: 0 hr 28 min 47 sec) 
Heartbeat CPU 0 instructions: 143000000 cycles: 913196273 heartbeat IPC: 0.157205 cumulative IPC: 0.155619 (Simulation time: 0 hr 28 min 59 sec) 
Heartbeat CPU 0 instructions: 144000000 cycles: 919362213 heartbeat IPC: 0.162181 cumulative IPC: 0.155663 (Simulation time: 0 hr 29 min 11 sec) 
Heartbeat CPU 0 instructions: 145000000 cycles: 925485784 heartbeat IPC: 0.163303 cumulative IPC: 0.155714 (Simulation time: 0 hr 29 min 24 sec) 
Heartbeat CPU 0 instructions: 146000002 cycles: 931563671 heartbeat IPC: 0.164531 cumulative IPC: 0.155772 (Simulation time: 0 hr 29 min 36 sec) 
Heartbeat CPU 0 instructions: 147000001 cycles: 937518591 heartbeat IPC: 0.167928 cumulative IPC: 0.155849 (Simulation time: 0 hr 29 min 49 sec) 
Heartbeat CPU 0 instructions: 148000001 cycles: 943699242 heartbeat IPC: 0.161795 cumulative IPC: 0.155888 (Simulation time: 0 hr 30 min 1 sec) 
Heartbeat CPU 0 instructions: 149000000 cycles: 949859678 heartbeat IPC: 0.162326 cumulative IPC: 0.15593 (Simulation time: 0 hr 30 min 14 sec) 
Heartbeat CPU 0 instructions: 150000000 cycles: 955852005 heartbeat IPC: 0.16688 cumulative IPC: 0.155998 (Simulation time: 0 hr 30 min 27 sec) 
Heartbeat CPU 0 instructions: 151000002 cycles: 962020081 heartbeat IPC: 0.162125 cumulative IPC: 0.156038 (Simulation time: 0 hr 30 min 39 sec) 
Heartbeat CPU 0 instructions: 152000003 cycles: 968138278 heartbeat IPC: 0.163447 cumulative IPC: 0.156084 (Simulation time: 0 hr 30 min 52 sec) 
Heartbeat CPU 0 instructions: 153000000 cycles: 974091811 heartbeat IPC: 0.167967 cumulative IPC: 0.156157 (Simulation time: 0 hr 31 min 5 sec) 
Heartbeat CPU 0 instructions: 154000000 cycles: 979919826 heartbeat IPC: 0.171585 cumulative IPC: 0.156249 (Simulation time: 0 hr 31 min 17 sec) 
Heartbeat CPU 0 instructions: 155000001 cycles: 985837553 heartbeat IPC: 0.168984 cumulative IPC: 0.156325 (Simulation time: 0 hr 31 min 30 sec) 
Heartbeat CPU 0 instructions: 156000002 cycles: 991578332 heartbeat IPC: 0.174193 cumulative IPC: 0.156429 (Simulation time: 0 hr 31 min 42 sec) 
Heartbeat CPU 0 instructions: 157000000 cycles: 997525999 heartbeat IPC: 0.168133 cumulative IPC: 0.156499 (Simulation time: 0 hr 31 min 55 sec) 
Heartbeat CPU 0 instructions: 158000002 cycles: 1003090625 heartbeat IPC: 0.179707 cumulative IPC: 0.156628 (Simulation time: 0 hr 32 min 8 sec) 
Heartbeat CPU 0 instructions: 159000000 cycles: 1009335137 heartbeat IPC: 0.16014 cumulative IPC: 0.156649 (Simulation time: 0 hr 32 min 21 sec) 
Heartbeat CPU 0 instructions: 160000002 cycles: 1015535016 heartbeat IPC: 0.161294 cumulative IPC: 0.156678 (Simulation time: 0 hr 32 min 33 sec) 
Heartbeat CPU 0 instructions: 161000000 cycles: 1021749657 heartbeat IPC: 0.16091 cumulative IPC: 0.156704 (Simulation time: 0 hr 32 min 46 sec) 
Heartbeat CPU 0 instructions: 162000001 cycles: 1027912674 heartbeat IPC: 0.162258 cumulative IPC: 0.156737 (Simulation time: 0 hr 32 min 58 sec) 
Heartbeat CPU 0 instructions: 163000000 cycles: 1034268924 heartbeat IPC: 0.157325 cumulative IPC: 0.15674 (Simulation time: 0 hr 33 min 10 sec) 
Heartbeat CPU 0 instructions: 164000000 cycles: 1040602749 heartbeat IPC: 0.157882 cumulative IPC: 0.156747 (Simulation time: 0 hr 33 min 22 sec) 
Heartbeat CPU 0 instructions: 165000000 cycles: 1046902842 heartbeat IPC: 0.158728 cumulative IPC: 0.156759 (Simulation time: 0 hr 33 min 34 sec) 
Heartbeat CPU 0 instructions: 166000001 cycles: 1053285325 heartbeat IPC: 0.156679 cumulative IPC: 0.156759 (Simulation time: 0 hr 33 min 46 sec) 
Heartbeat CPU 0 instructions: 167000001 cycles: 1059690381 heartbeat IPC: 0.156127 cumulative IPC: 0.156755 (Simulation time: 0 hr 33 min 58 sec) 
Heartbeat CPU 0 instructions: 168000000 cycles: 1065839605 heartbeat IPC: 0.162622 cumulative IPC: 0.156789 (Simulation time: 0 hr 34 min 10 sec) 
Heartbeat CPU 0 instructions: 169000000 cycles: 1071980048 heartbeat IPC: 0.162855 cumulative IPC: 0.156824 (Simulation time: 0 hr 34 min 23 sec) 
Heartbeat CPU 0 instructions: 170000000 cycles: 1078102090 heartbeat IPC: 0.163344 cumulative IPC: 0.156861 (Simulation time: 0 hr 34 min 35 sec) 
Heartbeat CPU 0 instructions: 171000000 cycles: 1084264306 heartbeat IPC: 0.162279 cumulative IPC: 0.156892 (Simulation time: 0 hr 34 min 47 sec) 
Heartbeat CPU 0 instructions: 172000003 cycles: 1090648045 heartbeat IPC: 0.156648 cumulative IPC: 0.15689 (Simulation time: 0 hr 34 min 58 sec) 
Heartbeat CPU 0 instructions: 173000000 cycles: 1096902999 heartbeat IPC: 0.159873 cumulative IPC: 0.156907 (Simulation time: 0 hr 35 min 10 sec) 
Heartbeat CPU 0 instructions: 174000000 cycles: 1103156288 heartbeat IPC: 0.159916 cumulative IPC: 0.156924 (Simulation time: 0 hr 35 min 22 sec) 
Heartbeat CPU 0 instructions: 175000001 cycles: 1109473434 heartbeat IPC: 0.158299 cumulative IPC: 0.156932 (Simulation time: 0 hr 35 min 34 sec) 
Heartbeat CPU 0 instructions: 176000000 cycles: 1115923145 heartbeat IPC: 0.155046 cumulative IPC: 0.156921 (Simulation time: 0 hr 35 min 46 sec) 
Heartbeat CPU 0 instructions: 177000000 cycles: 1122158462 heartbeat IPC: 0.160377 cumulative IPC: 0.15694 (Simulation time: 0 hr 35 min 58 sec) 
Heartbeat CPU 0 instructions: 178000000 cycles: 1128266202 heartbeat IPC: 0.163727 cumulative IPC: 0.156977 (Simulation time: 0 hr 36 min 10 sec) 
Heartbeat CPU 0 instructions: 179000000 cycles: 1134334147 heartbeat IPC: 0.1648 cumulative IPC: 0.157019 (Simulation time: 0 hr 36 min 22 sec) 
Heartbeat CPU 0 instructions: 180000000 cycles: 1140241393 heartbeat IPC: 0.169284 cumulative IPC: 0.157083 (Simulation time: 0 hr 36 min 34 sec) 
Heartbeat CPU 0 instructions: 181000003 cycles: 1146437934 heartbeat IPC: 0.161381 cumulative IPC: 0.157106 (Simulation time: 0 hr 36 min 46 sec) 
Heartbeat CPU 0 instructions: 182000000 cycles: 1152304339 heartbeat IPC: 0.170462 cumulative IPC: 0.157174 (Simulation time: 0 hr 36 min 59 sec) 
Heartbeat CPU 0 instructions: 183000000 cycles: 1158453075 heartbeat IPC: 0.162635 cumulative IPC: 0.157203 (Simulation time: 0 hr 37 min 11 sec) 
Heartbeat CPU 0 instructions: 184000000 cycles: 1164626427 heartbeat IPC: 0.161987 cumulative IPC: 0.157228 (Simulation time: 0 hr 37 min 23 sec) 
Heartbeat CPU 0 instructions: 185000003 cycles: 1170817866 heartbeat IPC: 0.161514 cumulative IPC: 0.157251 (Simulation time: 0 hr 37 min 34 sec) 
Heartbeat CPU 0 instructions: 186000002 cycles: 1177300867 heartbeat IPC: 0.154249 cumulative IPC: 0.157234 (Simulation time: 0 hr 37 min 46 sec) 
Heartbeat CPU 0 instructions: 187000000 cycles: 1183560368 heartbeat IPC: 0.159757 cumulative IPC: 0.157248 (Simulation time: 0 hr 37 min 58 sec) 
Heartbeat CPU 0 instructions: 188000002 cycles: 1189629581 heartbeat IPC: 0.164766 cumulative IPC: 0.157286 (Simulation time: 0 hr 38 min 10 sec) 
Heartbeat CPU 0 instructions: 189000003 cycles: 1195912161 heartbeat IPC: 0.15917 cumulative IPC: 0.157296 (Simulation time: 0 hr 38 min 22 sec) 
Heartbeat CPU 0 instructions: 190000000 cycles: 1202071816 heartbeat IPC: 0.162346 cumulative IPC: 0.157322 (Simulation time: 0 hr 38 min 34 sec) 
Heartbeat CPU 0 instructions: 191000000 cycles: 1208419892 heartbeat IPC: 0.157528 cumulative IPC: 0.157323 (Simulation time: 0 hr 38 min 46 sec) 
Heartbeat CPU 0 instructions: 192000003 cycles: 1214922400 heartbeat IPC: 0.153787 cumulative IPC: 0.157304 (Simulation time: 0 hr 38 min 58 sec) 
Heartbeat CPU 0 instructions: 193000000 cycles: 1221098551 heartbeat IPC: 0.161913 cumulative IPC: 0.157327 (Simulation time: 0 hr 39 min 10 sec) 
Heartbeat CPU 0 instructions: 194000003 cycles: 1227341093 heartbeat IPC: 0.160192 cumulative IPC: 0.157342 (Simulation time: 0 hr 39 min 22 sec) 
Heartbeat CPU 0 instructions: 195000003 cycles: 1233752644 heartbeat IPC: 0.155969 cumulative IPC: 0.157335 (Simulation time: 0 hr 39 min 34 sec) 
Heartbeat CPU 0 instructions: 196000002 cycles: 1239976565 heartbeat IPC: 0.16067 cumulative IPC: 0.157352 (Simulation time: 0 hr 39 min 47 sec) 
Heartbeat CPU 0 instructions: 197000000 cycles: 1246308549 heartbeat IPC: 0.157928 cumulative IPC: 0.157355 (Simulation time: 0 hr 39 min 59 sec) 
Heartbeat CPU 0 instructions: 198000000 cycles: 1252583891 heartbeat IPC: 0.159354 cumulative IPC: 0.157365 (Simulation time: 0 hr 40 min 11 sec) 
Heartbeat CPU 0 instructions: 199000001 cycles: 1258672548 heartbeat IPC: 0.16424 cumulative IPC: 0.157398 (Simulation time: 0 hr 40 min 23 sec) 
Heartbeat CPU 0 instructions: 200000001 cycles: 1264816295 heartbeat IPC: 0.162767 cumulative IPC: 0.157424 (Simulation time: 0 hr 40 min 36 sec) 
Heartbeat CPU 0 instructions: 201000002 cycles: 1270906343 heartbeat IPC: 0.164202 cumulative IPC: 0.157456 (Simulation time: 0 hr 40 min 48 sec) 
Heartbeat CPU 0 instructions: 202000001 cycles: 1277140577 heartbeat IPC: 0.160404 cumulative IPC: 0.157471 (Simulation time: 0 hr 41 min 0 sec) 
Heartbeat CPU 0 instructions: 203000002 cycles: 1283251341 heartbeat IPC: 0.163646 cumulative IPC: 0.1575 (Simulation time: 0 hr 41 min 13 sec) 
Heartbeat CPU 0 instructions: 204000001 cycles: 1289428577 heartbeat IPC: 0.161885 cumulative IPC: 0.157521 (Simulation time: 0 hr 41 min 25 sec) 
Heartbeat CPU 0 instructions: 205000000 cycles: 1295743773 heartbeat IPC: 0.158348 cumulative IPC: 0.157525 (Simulation time: 0 hr 41 min 37 sec) 
Heartbeat CPU 0 instructions: 206000000 cycles: 1302194502 heartbeat IPC: 0.155021 cumulative IPC: 0.157513 (Simulation time: 0 hr 41 min 49 sec) 
Heartbeat CPU 0 instructions: 207000002 cycles: 1308324776 heartbeat IPC: 0.163125 cumulative IPC: 0.157539 (Simulation time: 0 hr 42 min 1 sec) 
Heartbeat CPU 0 instructions: 208000002 cycles: 1314570989 heartbeat IPC: 0.160097 cumulative IPC: 0.157551 (Simulation time: 0 hr 42 min 12 sec) 
Heartbeat CPU 0 instructions: 209000000 cycles: 1320913075 heartbeat IPC: 0.157677 cumulative IPC: 0.157552 (Simulation time: 0 hr 42 min 24 sec) 
Heartbeat CPU 0 instructions: 210000000 cycles: 1327221216 heartbeat IPC: 0.158525 cumulative IPC: 0.157557 (Simulation time: 0 hr 42 min 36 sec) 
Heartbeat CPU 0 instructions: 211000001 cycles: 1333585057 heartbeat IPC: 0.157138 cumulative IPC: 0.157555 (Simulation time: 0 hr 42 min 48 sec) 
Heartbeat CPU 0 instructions: 212000003 cycles: 1339859974 heartbeat IPC: 0.159365 cumulative IPC: 0.157563 (Simulation time: 0 hr 42 min 59 sec) 
Heartbeat CPU 0 instructions: 213000003 cycles: 1346118492 heartbeat IPC: 0.159782 cumulative IPC: 0.157573 (Simulation time: 0 hr 43 min 11 sec) 
Heartbeat CPU 0 instructions: 214000001 cycles: 1352194097 heartbeat IPC: 0.164592 cumulative IPC: 0.157605 (Simulation time: 0 hr 43 min 23 sec) 
Heartbeat CPU 0 instructions: 215000000 cycles: 1358158299 heartbeat IPC: 0.167667 cumulative IPC: 0.157649 (Simulation time: 0 hr 43 min 36 sec) 
Heartbeat CPU 0 instructions: 216000001 cycles: 1364545144 heartbeat IPC: 0.156572 cumulative IPC: 0.157644 (Simulation time: 0 hr 43 min 48 sec) 
Heartbeat CPU 0 instructions: 217000003 cycles: 1370817853 heartbeat IPC: 0.159421 cumulative IPC: 0.157652 (Simulation time: 0 hr 43 min 59 sec) 
Heartbeat CPU 0 instructions: 218000001 cycles: 1377195809 heartbeat IPC: 0.15679 cumulative IPC: 0.157648 (Simulation time: 0 hr 44 min 11 sec) 
Heartbeat CPU 0 instructions: 219000001 cycles: 1383549661 heartbeat IPC: 0.157385 cumulative IPC: 0.157647 (Simulation time: 0 hr 44 min 24 sec) 
Heartbeat CPU 0 instructions: 220000000 cycles: 1389957391 heartbeat IPC: 0.156061 cumulative IPC: 0.15764 (Simulation time: 0 hr 44 min 35 sec) 
Heartbeat CPU 0 instructions: 221000002 cycles: 1396139968 heartbeat IPC: 0.161745 cumulative IPC: 0.157658 (Simulation time: 0 hr 44 min 47 sec) 
Heartbeat CPU 0 instructions: 222000002 cycles: 1402331612 heartbeat IPC: 0.161508 cumulative IPC: 0.157675 (Simulation time: 0 hr 45 min 0 sec) 
Heartbeat CPU 0 instructions: 223000000 cycles: 1408279497 heartbeat IPC: 0.168127 cumulative IPC: 0.157719 (Simulation time: 0 hr 45 min 13 sec) 
Heartbeat CPU 0 instructions: 224000001 cycles: 1414300606 heartbeat IPC: 0.166083 cumulative IPC: 0.157755 (Simulation time: 0 hr 45 min 25 sec) 
Heartbeat CPU 0 instructions: 225000003 cycles: 1420667529 heartbeat IPC: 0.157062 cumulative IPC: 0.157752 (Simulation time: 0 hr 45 min 38 sec) 
Heartbeat CPU 0 instructions: 226000000 cycles: 1427027923 heartbeat IPC: 0.157222 cumulative IPC: 0.157749 (Simulation time: 0 hr 45 min 50 sec) 
Heartbeat CPU 0 instructions: 227000000 cycles: 1433378697 heartbeat IPC: 0.157461 cumulative IPC: 0.157748 (Simulation time: 0 hr 46 min 2 sec) 
Heartbeat CPU 0 instructions: 228000001 cycles: 1439854517 heartbeat IPC: 0.154421 cumulative IPC: 0.157733 (Simulation time: 0 hr 46 min 14 sec) 
Heartbeat CPU 0 instructions: 229000000 cycles: 1446061157 heartbeat IPC: 0.161118 cumulative IPC: 0.157748 (Simulation time: 0 hr 46 min 26 sec) 
Heartbeat CPU 0 instructions: 230000000 cycles: 1452069408 heartbeat IPC: 0.166438 cumulative IPC: 0.157783 (Simulation time: 0 hr 46 min 37 sec) 
Heartbeat CPU 0 instructions: 231000000 cycles: 1458365737 heartbeat IPC: 0.158823 cumulative IPC: 0.157788 (Simulation time: 0 hr 46 min 50 sec) 
Heartbeat CPU 0 instructions: 232000000 cycles: 1464762423 heartbeat IPC: 0.156331 cumulative IPC: 0.157782 (Simulation time: 0 hr 47 min 2 sec) 
Heartbeat CPU 0 instructions: 233000000 cycles: 1471097341 heartbeat IPC: 0.157855 cumulative IPC: 0.157782 (Simulation time: 0 hr 47 min 13 sec) 
Heartbeat CPU 0 instructions: 234000000 cycles: 1477325288 heartbeat IPC: 0.160567 cumulative IPC: 0.157794 (Simulation time: 0 hr 47 min 25 sec) 
Heartbeat CPU 0 instructions: 235000002 cycles: 1483518460 heartbeat IPC: 0.161468 cumulative IPC: 0.157809 (Simulation time: 0 hr 47 min 37 sec) 
Heartbeat CPU 0 instructions: 236000002 cycles: 1489718065 heartbeat IPC: 0.161301 cumulative IPC: 0.157824 (Simulation time: 0 hr 47 min 49 sec) 
Heartbeat CPU 0 instructions: 237000001 cycles: 1495928841 heartbeat IPC: 0.16101 cumulative IPC: 0.157837 (Simulation time: 0 hr 48 min 2 sec) 
Heartbeat CPU 0 instructions: 238000003 cycles: 1502256202 heartbeat IPC: 0.158044 cumulative IPC: 0.157838 (Simulation time: 0 hr 48 min 14 sec) 
Heartbeat CPU 0 instructions: 239000000 cycles: 1508631061 heartbeat IPC: 0.156866 cumulative IPC: 0.157834 (Simulation time: 0 hr 48 min 25 sec) 
Heartbeat CPU 0 instructions: 240000003 cycles: 1514866144 heartbeat IPC: 0.160383 cumulative IPC: 0.157844 (Simulation time: 0 hr 48 min 37 sec) 
Heartbeat CPU 0 instructions: 241000001 cycles: 1521175845 heartbeat IPC: 0.158486 cumulative IPC: 0.157847 (Simulation time: 0 hr 48 min 49 sec) 
Heartbeat CPU 0 instructions: 242000000 cycles: 1527386777 heartbeat IPC: 0.161006 cumulative IPC: 0.15786 (Simulation time: 0 hr 49 min 1 sec) 
Heartbeat CPU 0 instructions: 243000001 cycles: 1533885200 heartbeat IPC: 0.153884 cumulative IPC: 0.157843 (Simulation time: 0 hr 49 min 13 sec) 
Heartbeat CPU 0 instructions: 244000000 cycles: 1540325722 heartbeat IPC: 0.155267 cumulative IPC: 0.157832 (Simulation time: 0 hr 49 min 24 sec) 
Heartbeat CPU 0 instructions: 245000003 cycles: 1546576006 heartbeat IPC: 0.159993 cumulative IPC: 0.157841 (Simulation time: 0 hr 49 min 36 sec) 
Heartbeat CPU 0 instructions: 246000000 cycles: 1552942406 heartbeat IPC: 0.157074 cumulative IPC: 0.157838 (Simulation time: 0 hr 49 min 48 sec) 
Heartbeat CPU 0 instructions: 247000002 cycles: 1559249313 heartbeat IPC: 0.158557 cumulative IPC: 0.15784 (Simulation time: 0 hr 50 min 0 sec) 
Heartbeat CPU 0 instructions: 248000000 cycles: 1565438598 heartbeat IPC: 0.161569 cumulative IPC: 0.157855 (Simulation time: 0 hr 50 min 12 sec) 
Heartbeat CPU 0 instructions: 249000000 cycles: 1571514829 heartbeat IPC: 0.164576 cumulative IPC: 0.157881 (Simulation time: 0 hr 50 min 24 sec) 
Heartbeat CPU 0 instructions: 250000001 cycles: 1577860856 heartbeat IPC: 0.157579 cumulative IPC: 0.15788 (Simulation time: 0 hr 50 min 36 sec) 
Heartbeat CPU 0 instructions: 251000000 cycles: 1584242154 heartbeat IPC: 0.156708 cumulative IPC: 0.157875 (Simulation time: 0 hr 50 min 48 sec) 
Heartbeat CPU 0 instructions: 252000003 cycles: 1590546446 heartbeat IPC: 0.158623 cumulative IPC: 0.157878 (Simulation time: 0 hr 51 min 0 sec) 
Heartbeat CPU 0 instructions: 253000000 cycles: 1596755140 heartbeat IPC: 0.161064 cumulative IPC: 0.157891 (Simulation time: 0 hr 51 min 11 sec) 
Heartbeat CPU 0 instructions: 254000000 cycles: 1602979720 heartbeat IPC: 0.160653 cumulative IPC: 0.157901 (Simulation time: 0 hr 51 min 28 sec) 
Heartbeat CPU 0 instructions: 255000002 cycles: 1609419129 heartbeat IPC: 0.155294 cumulative IPC: 0.157891 (Simulation time: 0 hr 51 min 40 sec) 
Heartbeat CPU 0 instructions: 256000002 cycles: 1615683970 heartbeat IPC: 0.159621 cumulative IPC: 0.157898 (Simulation time: 0 hr 51 min 52 sec) 
Heartbeat CPU 0 instructions: 257000000 cycles: 1621893324 heartbeat IPC: 0.161047 cumulative IPC: 0.15791 (Simulation time: 0 hr 52 min 5 sec) 
Heartbeat CPU 0 instructions: 258000001 cycles: 1627925966 heartbeat IPC: 0.165765 cumulative IPC: 0.157939 (Simulation time: 0 hr 52 min 18 sec) 
Heartbeat CPU 0 instructions: 259000001 cycles: 1633965841 heartbeat IPC: 0.165566 cumulative IPC: 0.157967 (Simulation time: 0 hr 52 min 30 sec) 
Heartbeat CPU 0 instructions: 260000000 cycles: 1640270874 heartbeat IPC: 0.158603 cumulative IPC: 0.157969 (Simulation time: 0 hr 52 min 43 sec) 
Heartbeat CPU 0 instructions: 261000002 cycles: 1646497919 heartbeat IPC: 0.16059 cumulative IPC: 0.157979 (Simulation time: 0 hr 52 min 55 sec) 
Heartbeat CPU 0 instructions: 262000002 cycles: 1653024636 heartbeat IPC: 0.153216 cumulative IPC: 0.157961 (Simulation time: 0 hr 53 min 8 sec) 
Heartbeat CPU 0 instructions: 263000000 cycles: 1659367865 heartbeat IPC: 0.157648 cumulative IPC: 0.157959 (Simulation time: 0 hr 53 min 20 sec) 
Heartbeat CPU 0 instructions: 264000000 cycles: 1665535739 heartbeat IPC: 0.16213 cumulative IPC: 0.157975 (Simulation time: 0 hr 53 min 32 sec) 
Heartbeat CPU 0 instructions: 265000000 cycles: 1671805146 heartbeat IPC: 0.159505 cumulative IPC: 0.157981 (Simulation time: 0 hr 53 min 44 sec) 
Heartbeat CPU 0 instructions: 266000002 cycles: 1678245097 heartbeat IPC: 0.155281 cumulative IPC: 0.15797 (Simulation time: 0 hr 53 min 56 sec) 
Heartbeat CPU 0 instructions: 267000002 cycles: 1684842617 heartbeat IPC: 0.151572 cumulative IPC: 0.157945 (Simulation time: 0 hr 54 min 7 sec) 
Heartbeat CPU 0 instructions: 268000002 cycles: 1691278400 heartbeat IPC: 0.155381 cumulative IPC: 0.157935 (Simulation time: 0 hr 54 min 19 sec) 
Heartbeat CPU 0 instructions: 269000001 cycles: 1697433672 heartbeat IPC: 0.162462 cumulative IPC: 0.157952 (Simulation time: 0 hr 54 min 31 sec) 
Heartbeat CPU 0 instructions: 270000001 cycles: 1703758779 heartbeat IPC: 0.1581 cumulative IPC: 0.157952 (Simulation time: 0 hr 54 min 42 sec) 
Heartbeat CPU 0 instructions: 271000001 cycles: 1709965415 heartbeat IPC: 0.161118 cumulative IPC: 0.157964 (Simulation time: 0 hr 54 min 54 sec) 
Heartbeat CPU 0 instructions: 272000000 cycles: 1716026390 heartbeat IPC: 0.16499 cumulative IPC: 0.157989 (Simulation time: 0 hr 55 min 6 sec) 
Heartbeat CPU 0 instructions: 273000000 cycles: 1722190868 heartbeat IPC: 0.16222 cumulative IPC: 0.158004 (Simulation time: 0 hr 55 min 18 sec) 
Heartbeat CPU 0 instructions: 274000002 cycles: 1728542034 heartbeat IPC: 0.157452 cumulative IPC: 0.158002 (Simulation time: 0 hr 55 min 30 sec) 
Heartbeat CPU 0 instructions: 275000000 cycles: 1735107078 heartbeat IPC: 0.152322 cumulative IPC: 0.15798 (Simulation time: 0 hr 55 min 41 sec) 
Heartbeat CPU 0 instructions: 276000002 cycles: 1741513351 heartbeat IPC: 0.156097 cumulative IPC: 0.157973 (Simulation time: 0 hr 55 min 53 sec) 
Heartbeat CPU 0 instructions: 277000000 cycles: 1747782786 heartbeat IPC: 0.159504 cumulative IPC: 0.157979 (Simulation time: 0 hr 56 min 5 sec) 
Heartbeat CPU 0 instructions: 278000003 cycles: 1753971518 heartbeat IPC: 0.161584 cumulative IPC: 0.157992 (Simulation time: 0 hr 56 min 16 sec) 
Heartbeat CPU 0 instructions: 279000003 cycles: 1760194481 heartbeat IPC: 0.160695 cumulative IPC: 0.158001 (Simulation time: 0 hr 56 min 28 sec) 
Heartbeat CPU 0 instructions: 280000001 cycles: 1766434139 heartbeat IPC: 0.160265 cumulative IPC: 0.158009 (Simulation time: 0 hr 56 min 40 sec) 
Heartbeat CPU 0 instructions: 281000001 cycles: 1772557163 heartbeat IPC: 0.163318 cumulative IPC: 0.158027 (Simulation time: 0 hr 56 min 52 sec) 
Heartbeat CPU 0 instructions: 282000000 cycles: 1778775938 heartbeat IPC: 0.160803 cumulative IPC: 0.158037 (Simulation time: 0 hr 57 min 3 sec) 
Heartbeat CPU 0 instructions: 283000000 cycles: 1785089191 heartbeat IPC: 0.158397 cumulative IPC: 0.158038 (Simulation time: 0 hr 57 min 15 sec) 
Heartbeat CPU 0 instructions: 284000000 cycles: 1791468678 heartbeat IPC: 0.156752 cumulative IPC: 0.158034 (Simulation time: 0 hr 57 min 27 sec) 
Heartbeat CPU 0 instructions: 285000000 cycles: 1797694373 heartbeat IPC: 0.160625 cumulative IPC: 0.158043 (Simulation time: 0 hr 57 min 41 sec) 
Heartbeat CPU 0 instructions: 286000000 cycles: 1803640084 heartbeat IPC: 0.168188 cumulative IPC: 0.158076 (Simulation time: 0 hr 57 min 53 sec) 
Heartbeat CPU 0 instructions: 287000002 cycles: 1809868485 heartbeat IPC: 0.160555 cumulative IPC: 0.158085 (Simulation time: 0 hr 58 min 6 sec) 
Heartbeat CPU 0 instructions: 288000003 cycles: 1816112662 heartbeat IPC: 0.160149 cumulative IPC: 0.158092 (Simulation time: 0 hr 58 min 20 sec) 
Heartbeat CPU 0 instructions: 289000000 cycles: 1822124495 heartbeat IPC: 0.166338 cumulative IPC: 0.158119 (Simulation time: 0 hr 58 min 33 sec) 
Heartbeat CPU 0 instructions: 290000000 cycles: 1828283060 heartbeat IPC: 0.162375 cumulative IPC: 0.158134 (Simulation time: 0 hr 58 min 46 sec) 
Heartbeat CPU 0 instructions: 291000000 cycles: 1834458485 heartbeat IPC: 0.161932 cumulative IPC: 0.158146 (Simulation time: 0 hr 59 min 0 sec) 
Heartbeat CPU 0 instructions: 292000002 cycles: 1840851039 heartbeat IPC: 0.156432 cumulative IPC: 0.15814 (Simulation time: 0 hr 59 min 12 sec) 
Heartbeat CPU 0 instructions: 293000000 cycles: 1846901053 heartbeat IPC: 0.165289 cumulative IPC: 0.158164 (Simulation time: 0 hr 59 min 25 sec) 
Heartbeat CPU 0 instructions: 294000003 cycles: 1853422002 heartbeat IPC: 0.153352 cumulative IPC: 0.158147 (Simulation time: 0 hr 59 min 37 sec) 
Heartbeat CPU 0 instructions: 295000000 cycles: 1859621191 heartbeat IPC: 0.161311 cumulative IPC: 0.158157 (Simulation time: 0 hr 59 min 50 sec) 
Heartbeat CPU 0 instructions: 296000002 cycles: 1865849399 heartbeat IPC: 0.16056 cumulative IPC: 0.158165 (Simulation time: 1 hr 0 min 2 sec) 
Heartbeat CPU 0 instructions: 297000000 cycles: 1871902057 heartbeat IPC: 0.165216 cumulative IPC: 0.158188 (Simulation time: 1 hr 0 min 15 sec) 
Heartbeat CPU 0 instructions: 298000003 cycles: 1878264790 heartbeat IPC: 0.157166 cumulative IPC: 0.158185 (Simulation time: 1 hr 0 min 27 sec) 
Heartbeat CPU 0 instructions: 299000000 cycles: 1884752116 heartbeat IPC: 0.154146 cumulative IPC: 0.158171 (Simulation time: 1 hr 0 min 39 sec) 
Heartbeat CPU 0 instructions: 300000002 cycles: 1891004354 heartbeat IPC: 0.159943 cumulative IPC: 0.158177 (Simulation time: 1 hr 0 min 51 sec) 
Heartbeat CPU 0 instructions: 301000000 cycles: 1897353670 heartbeat IPC: 0.157497 cumulative IPC: 0.158174 (Simulation time: 1 hr 1 min 3 sec) 
Heartbeat CPU 0 instructions: 302000000 cycles: 1903893316 heartbeat IPC: 0.152913 cumulative IPC: 0.158156 (Simulation time: 1 hr 1 min 15 sec) 
Heartbeat CPU 0 instructions: 303000002 cycles: 1910506292 heartbeat IPC: 0.151218 cumulative IPC: 0.158132 (Simulation time: 1 hr 1 min 27 sec) 
Heartbeat CPU 0 instructions: 304000000 cycles: 1916945465 heartbeat IPC: 0.155299 cumulative IPC: 0.158123 (Simulation time: 1 hr 1 min 39 sec) 
Heartbeat CPU 0 instructions: 305000003 cycles: 1923493555 heartbeat IPC: 0.152717 cumulative IPC: 0.158104 (Simulation time: 1 hr 1 min 51 sec) 
Heartbeat CPU 0 instructions: 306000001 cycles: 1929977805 heartbeat IPC: 0.15422 cumulative IPC: 0.158091 (Simulation time: 1 hr 2 min 4 sec) 
Heartbeat CPU 0 instructions: 307000000 cycles: 1936480321 heartbeat IPC: 0.153786 cumulative IPC: 0.158077 (Simulation time: 1 hr 2 min 16 sec) 
Heartbeat CPU 0 instructions: 308000000 cycles: 1942920082 heartbeat IPC: 0.155285 cumulative IPC: 0.158068 (Simulation time: 1 hr 2 min 28 sec) 
Heartbeat CPU 0 instructions: 309000000 cycles: 1949277502 heartbeat IPC: 0.157297 cumulative IPC: 0.158065 (Simulation time: 1 hr 2 min 40 sec) 
Heartbeat CPU 0 instructions: 310000003 cycles: 1955573182 heartbeat IPC: 0.15884 cumulative IPC: 0.158068 (Simulation time: 1 hr 2 min 52 sec) 
Heartbeat CPU 0 instructions: 311000003 cycles: 1961809969 heartbeat IPC: 0.160339 cumulative IPC: 0.158075 (Simulation time: 1 hr 3 min 4 sec) 
Heartbeat CPU 0 instructions: 312000000 cycles: 1968254853 heartbeat IPC: 0.155161 cumulative IPC: 0.158065 (Simulation time: 1 hr 3 min 17 sec) 
Heartbeat CPU 0 instructions: 313000003 cycles: 1974680706 heartbeat IPC: 0.155622 cumulative IPC: 0.158057 (Simulation time: 1 hr 3 min 29 sec) 
Heartbeat CPU 0 instructions: 314000001 cycles: 1981101242 heartbeat IPC: 0.15575 cumulative IPC: 0.15805 (Simulation time: 1 hr 3 min 41 sec) 
Heartbeat CPU 0 instructions: 315000000 cycles: 1987298554 heartbeat IPC: 0.16136 cumulative IPC: 0.15806 (Simulation time: 1 hr 3 min 54 sec) 
Heartbeat CPU 0 instructions: 316000000 cycles: 1993598529 heartbeat IPC: 0.158731 cumulative IPC: 0.158062 (Simulation time: 1 hr 4 min 6 sec) 
Heartbeat CPU 0 instructions: 317000000 cycles: 1999845150 heartbeat IPC: 0.160087 cumulative IPC: 0.158069 (Simulation time: 1 hr 4 min 18 sec) 
Heartbeat CPU 0 instructions: 318000003 cycles: 2006162539 heartbeat IPC: 0.158294 cumulative IPC: 0.158069 (Simulation time: 1 hr 4 min 30 sec) 
Heartbeat CPU 0 instructions: 319000000 cycles: 2012481355 heartbeat IPC: 0.158257 cumulative IPC: 0.15807 (Simulation time: 1 hr 4 min 43 sec) 
Heartbeat CPU 0 instructions: 320000000 cycles: 2019015860 heartbeat IPC: 0.153034 cumulative IPC: 0.158054 (Simulation time: 1 hr 4 min 55 sec) 
Heartbeat CPU 0 instructions: 321000000 cycles: 2025476899 heartbeat IPC: 0.154774 cumulative IPC: 0.158043 (Simulation time: 1 hr 5 min 7 sec) 
Heartbeat CPU 0 instructions: 322000000 cycles: 2031857326 heartbeat IPC: 0.156729 cumulative IPC: 0.158039 (Simulation time: 1 hr 5 min 19 sec) 
Heartbeat CPU 0 instructions: 323000003 cycles: 2038249045 heartbeat IPC: 0.156453 cumulative IPC: 0.158034 (Simulation time: 1 hr 5 min 32 sec) 
Heartbeat CPU 0 instructions: 324000003 cycles: 2044763546 heartbeat IPC: 0.153504 cumulative IPC: 0.15802 (Simulation time: 1 hr 5 min 44 sec) 
Heartbeat CPU 0 instructions: 325000002 cycles: 2051205416 heartbeat IPC: 0.155234 cumulative IPC: 0.158011 (Simulation time: 1 hr 5 min 55 sec) 
Heartbeat CPU 0 instructions: 326000002 cycles: 2057549109 heartbeat IPC: 0.157637 cumulative IPC: 0.15801 (Simulation time: 1 hr 6 min 8 sec) 
Heartbeat CPU 0 instructions: 327000001 cycles: 2063909021 heartbeat IPC: 0.157235 cumulative IPC: 0.158007 (Simulation time: 1 hr 6 min 21 sec) 
Heartbeat CPU 0 instructions: 328000002 cycles: 2070469935 heartbeat IPC: 0.152418 cumulative IPC: 0.15799 (Simulation time: 1 hr 6 min 34 sec) 
Heartbeat CPU 0 instructions: 329000000 cycles: 2076879823 heartbeat IPC: 0.156009 cumulative IPC: 0.157983 (Simulation time: 1 hr 6 min 46 sec) 
Heartbeat CPU 0 instructions: 330000000 cycles: 2083370193 heartbeat IPC: 0.154074 cumulative IPC: 0.157971 (Simulation time: 1 hr 6 min 58 sec) 
Heartbeat CPU 0 instructions: 331000000 cycles: 2089978465 heartbeat IPC: 0.151325 cumulative IPC: 0.15795 (Simulation time: 1 hr 7 min 11 sec) 
Heartbeat CPU 0 instructions: 332000001 cycles: 2096352396 heartbeat IPC: 0.156889 cumulative IPC: 0.157947 (Simulation time: 1 hr 7 min 23 sec) 
Heartbeat CPU 0 instructions: 333000001 cycles: 2102953015 heartbeat IPC: 0.151501 cumulative IPC: 0.157927 (Simulation time: 1 hr 7 min 35 sec) 
Heartbeat CPU 0 instructions: 334000002 cycles: 2109330797 heartbeat IPC: 0.156794 cumulative IPC: 0.157923 (Simulation time: 1 hr 7 min 46 sec) 
Heartbeat CPU 0 instructions: 335000000 cycles: 2115494267 heartbeat IPC: 0.162246 cumulative IPC: 0.157936 (Simulation time: 1 hr 7 min 57 sec) 
Heartbeat CPU 0 instructions: 336000000 cycles: 2121916814 heartbeat IPC: 0.155701 cumulative IPC: 0.157929 (Simulation time: 1 hr 8 min 8 sec) 
Heartbeat CPU 0 instructions: 337000000 cycles: 2128251229 heartbeat IPC: 0.157868 cumulative IPC: 0.157929 (Simulation time: 1 hr 8 min 19 sec) 
Heartbeat CPU 0 instructions: 338000003 cycles: 2134723741 heartbeat IPC: 0.1545 cumulative IPC: 0.157919 (Simulation time: 1 hr 8 min 30 sec) 
Heartbeat CPU 0 instructions: 339000003 cycles: 2141517137 heartbeat IPC: 0.147202 cumulative IPC: 0.157885 (Simulation time: 1 hr 8 min 41 sec) 
Heartbeat CPU 0 instructions: 340000001 cycles: 2148150896 heartbeat IPC: 0.150744 cumulative IPC: 0.157863 (Simulation time: 1 hr 8 min 51 sec) 
Heartbeat CPU 0 instructions: 341000000 cycles: 2154539054 heartbeat IPC: 0.156539 cumulative IPC: 0.157859 (Simulation time: 1 hr 9 min 2 sec) 
Heartbeat CPU 0 instructions: 342000002 cycles: 2160935935 heartbeat IPC: 0.156327 cumulative IPC: 0.157854 (Simulation time: 1 hr 9 min 13 sec) 
Heartbeat CPU 0 instructions: 343000000 cycles: 2167462821 heartbeat IPC: 0.153212 cumulative IPC: 0.15784 (Simulation time: 1 hr 9 min 24 sec) 
Heartbeat CPU 0 instructions: 344000001 cycles: 2174110109 heartbeat IPC: 0.150437 cumulative IPC: 0.157817 (Simulation time: 1 hr 9 min 35 sec) 
Heartbeat CPU 0 instructions: 345000000 cycles: 2180546322 heartbeat IPC: 0.155371 cumulative IPC: 0.15781 (Simulation time: 1 hr 9 min 46 sec) 
Heartbeat CPU 0 instructions: 346000000 cycles: 2186907384 heartbeat IPC: 0.157206 cumulative IPC: 0.157808 (Simulation time: 1 hr 9 min 57 sec) 
Heartbeat CPU 0 instructions: 347000000 cycles: 2193219171 heartbeat IPC: 0.158434 cumulative IPC: 0.15781 (Simulation time: 1 hr 10 min 8 sec) 
Heartbeat CPU 0 instructions: 348000000 cycles: 2199563939 heartbeat IPC: 0.15761 cumulative IPC: 0.15781 (Simulation time: 1 hr 10 min 19 sec) 
Heartbeat CPU 0 instructions: 349000003 cycles: 2205931585 heartbeat IPC: 0.157044 cumulative IPC: 0.157808 (Simulation time: 1 hr 10 min 30 sec) 
Heartbeat CPU 0 instructions: 350000003 cycles: 2212539182 heartbeat IPC: 0.151341 cumulative IPC: 0.157788 (Simulation time: 1 hr 10 min 41 sec) 
Heartbeat CPU 0 instructions: 351000001 cycles: 2219043419 heartbeat IPC: 0.153746 cumulative IPC: 0.157776 (Simulation time: 1 hr 10 min 51 sec) 
Heartbeat CPU 0 instructions: 352000000 cycles: 2225427503 heartbeat IPC: 0.156639 cumulative IPC: 0.157773 (Simulation time: 1 hr 11 min 2 sec) 
Heartbeat CPU 0 instructions: 353000000 cycles: 2232162858 heartbeat IPC: 0.14847 cumulative IPC: 0.157745 (Simulation time: 1 hr 11 min 13 sec) 
Heartbeat CPU 0 instructions: 354000003 cycles: 2238727572 heartbeat IPC: 0.15233 cumulative IPC: 0.157729 (Simulation time: 1 hr 11 min 24 sec) 
Heartbeat CPU 0 instructions: 355000003 cycles: 2245177351 heartbeat IPC: 0.155044 cumulative IPC: 0.157721 (Simulation time: 1 hr 11 min 35 sec) 
Heartbeat CPU 0 instructions: 356000003 cycles: 2251733231 heartbeat IPC: 0.152535 cumulative IPC: 0.157706 (Simulation time: 1 hr 11 min 45 sec) 
Heartbeat CPU 0 instructions: 357000000 cycles: 2258233614 heartbeat IPC: 0.153837 cumulative IPC: 0.157695 (Simulation time: 1 hr 11 min 56 sec) 
Heartbeat CPU 0 instructions: 358000003 cycles: 2264766839 heartbeat IPC: 0.153064 cumulative IPC: 0.157682 (Simulation time: 1 hr 12 min 7 sec) 
Heartbeat CPU 0 instructions: 359000001 cycles: 2271148458 heartbeat IPC: 0.1567 cumulative IPC: 0.157679 (Simulation time: 1 hr 12 min 17 sec) 
Heartbeat CPU 0 instructions: 360000001 cycles: 2277564687 heartbeat IPC: 0.155855 cumulative IPC: 0.157674 (Simulation time: 1 hr 12 min 28 sec) 
Heartbeat CPU 0 instructions: 361000002 cycles: 2284019898 heartbeat IPC: 0.154914 cumulative IPC: 0.157666 (Simulation time: 1 hr 12 min 39 sec) 
Heartbeat CPU 0 instructions: 362000000 cycles: 2290527994 heartbeat IPC: 0.153654 cumulative IPC: 0.157655 (Simulation time: 1 hr 12 min 50 sec) 
Heartbeat CPU 0 instructions: 363000000 cycles: 2296915191 heartbeat IPC: 0.156563 cumulative IPC: 0.157652 (Simulation time: 1 hr 13 min 1 sec) 
Heartbeat CPU 0 instructions: 364000002 cycles: 2303671858 heartbeat IPC: 0.148002 cumulative IPC: 0.157623 (Simulation time: 1 hr 13 min 12 sec) 
Heartbeat CPU 0 instructions: 365000000 cycles: 2310212203 heartbeat IPC: 0.152897 cumulative IPC: 0.15761 (Simulation time: 1 hr 13 min 23 sec) 
Heartbeat CPU 0 instructions: 366000003 cycles: 2317015136 heartbeat IPC: 0.146996 cumulative IPC: 0.157579 (Simulation time: 1 hr 13 min 34 sec) 
Heartbeat CPU 0 instructions: 367000000 cycles: 2323457749 heartbeat IPC: 0.155216 cumulative IPC: 0.157572 (Simulation time: 1 hr 13 min 45 sec) 
Heartbeat CPU 0 instructions: 368000000 cycles: 2330197223 heartbeat IPC: 0.14838 cumulative IPC: 0.157546 (Simulation time: 1 hr 13 min 55 sec) 
Heartbeat CPU 0 instructions: 369000003 cycles: 2336712834 heartbeat IPC: 0.153478 cumulative IPC: 0.157534 (Simulation time: 1 hr 14 min 6 sec) 
Heartbeat CPU 0 instructions: 370000001 cycles: 2343258148 heartbeat IPC: 0.152781 cumulative IPC: 0.157521 (Simulation time: 1 hr 14 min 17 sec) 
Heartbeat CPU 0 instructions: 371000000 cycles: 2349803879 heartbeat IPC: 0.152771 cumulative IPC: 0.157508 (Simulation time: 1 hr 14 min 28 sec) 
Heartbeat CPU 0 instructions: 372000000 cycles: 2356178432 heartbeat IPC: 0.156874 cumulative IPC: 0.157506 (Simulation time: 1 hr 14 min 39 sec) 
Heartbeat CPU 0 instructions: 373000002 cycles: 2362619774 heartbeat IPC: 0.155247 cumulative IPC: 0.1575 (Simulation time: 1 hr 14 min 50 sec) 
Heartbeat CPU 0 instructions: 374000000 cycles: 2369130369 heartbeat IPC: 0.153595 cumulative IPC: 0.157489 (Simulation time: 1 hr 15 min 1 sec) 
Heartbeat CPU 0 instructions: 375000002 cycles: 2375643613 heartbeat IPC: 0.153534 cumulative IPC: 0.157478 (Simulation time: 1 hr 15 min 12 sec) 
Heartbeat CPU 0 instructions: 376000003 cycles: 2382512314 heartbeat IPC: 0.145588 cumulative IPC: 0.157444 (Simulation time: 1 hr 15 min 23 sec) 
Heartbeat CPU 0 instructions: 377000003 cycles: 2388992498 heartbeat IPC: 0.154317 cumulative IPC: 0.157436 (Simulation time: 1 hr 15 min 34 sec) 
Heartbeat CPU 0 instructions: 378000003 cycles: 2395776298 heartbeat IPC: 0.14741 cumulative IPC: 0.157407 (Simulation time: 1 hr 15 min 44 sec) 
Heartbeat CPU 0 instructions: 379000001 cycles: 2402230530 heartbeat IPC: 0.154937 cumulative IPC: 0.157401 (Simulation time: 1 hr 15 min 55 sec) 
Heartbeat CPU 0 instructions: 380000000 cycles: 2408821059 heartbeat IPC: 0.151733 cumulative IPC: 0.157385 (Simulation time: 1 hr 16 min 6 sec) 
Heartbeat CPU 0 instructions: 381000002 cycles: 2415334105 heartbeat IPC: 0.153538 cumulative IPC: 0.157375 (Simulation time: 1 hr 16 min 17 sec) 
Heartbeat CPU 0 instructions: 382000001 cycles: 2421881123 heartbeat IPC: 0.152741 cumulative IPC: 0.157362 (Simulation time: 1 hr 16 min 28 sec) 
Heartbeat CPU 0 instructions: 383000001 cycles: 2428509453 heartbeat IPC: 0.150868 cumulative IPC: 0.157344 (Simulation time: 1 hr 16 min 38 sec) 
Heartbeat CPU 0 instructions: 384000000 cycles: 2434991271 heartbeat IPC: 0.154278 cumulative IPC: 0.157336 (Simulation time: 1 hr 16 min 49 sec) 
Heartbeat CPU 0 instructions: 385000000 cycles: 2441539479 heartbeat IPC: 0.152714 cumulative IPC: 0.157324 (Simulation time: 1 hr 17 min 0 sec) 
Heartbeat CPU 0 instructions: 386000000 cycles: 2448021434 heartbeat IPC: 0.154274 cumulative IPC: 0.157316 (Simulation time: 1 hr 17 min 10 sec) 
Heartbeat CPU 0 instructions: 387000002 cycles: 2454386008 heartbeat IPC: 0.15712 cumulative IPC: 0.157315 (Simulation time: 1 hr 17 min 21 sec) 
Heartbeat CPU 0 instructions: 388000000 cycles: 2460764902 heartbeat IPC: 0.156767 cumulative IPC: 0.157314 (Simulation time: 1 hr 17 min 32 sec) 
Heartbeat CPU 0 instructions: 389000001 cycles: 2467268609 heartbeat IPC: 0.153759 cumulative IPC: 0.157304 (Simulation time: 1 hr 17 min 43 sec) 
Heartbeat CPU 0 instructions: 390000003 cycles: 2473896981 heartbeat IPC: 0.150867 cumulative IPC: 0.157287 (Simulation time: 1 hr 17 min 53 sec) 
Heartbeat CPU 0 instructions: 391000000 cycles: 2480757927 heartbeat IPC: 0.145752 cumulative IPC: 0.157255 (Simulation time: 1 hr 18 min 4 sec) 
Heartbeat CPU 0 instructions: 392000001 cycles: 2487217110 heartbeat IPC: 0.154818 cumulative IPC: 0.157249 (Simulation time: 1 hr 18 min 15 sec) 
Heartbeat CPU 0 instructions: 393000002 cycles: 2493588402 heartbeat IPC: 0.156954 cumulative IPC: 0.157248 (Simulation time: 1 hr 18 min 25 sec) 
Heartbeat CPU 0 instructions: 394000003 cycles: 2499801757 heartbeat IPC: 0.160944 cumulative IPC: 0.157257 (Simulation time: 1 hr 18 min 36 sec) 
Heartbeat CPU 0 instructions: 395000001 cycles: 2506164041 heartbeat IPC: 0.157176 cumulative IPC: 0.157257 (Simulation time: 1 hr 18 min 46 sec) 
Heartbeat CPU 0 instructions: 396000000 cycles: 2512396161 heartbeat IPC: 0.160459 cumulative IPC: 0.157265 (Simulation time: 1 hr 18 min 57 sec) 
Heartbeat CPU 0 instructions: 397000000 cycles: 2519012440 heartbeat IPC: 0.151142 cumulative IPC: 0.157249 (Simulation time: 1 hr 19 min 7 sec) 
Heartbeat CPU 0 instructions: 398000000 cycles: 2525355511 heartbeat IPC: 0.157652 cumulative IPC: 0.15725 (Simulation time: 1 hr 19 min 18 sec) 
Heartbeat CPU 0 instructions: 399000000 cycles: 2531715306 heartbeat IPC: 0.157238 cumulative IPC: 0.15725 (Simulation time: 1 hr 19 min 28 sec) 
Heartbeat CPU 0 instructions: 400000000 cycles: 2537882127 heartbeat IPC: 0.162158 cumulative IPC: 0.157262 (Simulation time: 1 hr 19 min 39 sec) 
Heartbeat CPU 0 instructions: 401000003 cycles: 2544073525 heartbeat IPC: 0.161515 cumulative IPC: 0.157272 (Simulation time: 1 hr 19 min 50 sec) 
Heartbeat CPU 0 instructions: 402000000 cycles: 2550617338 heartbeat IPC: 0.152816 cumulative IPC: 0.157261 (Simulation time: 1 hr 20 min 0 sec) 
Heartbeat CPU 0 instructions: 403000001 cycles: 2556846428 heartbeat IPC: 0.160537 cumulative IPC: 0.157269 (Simulation time: 1 hr 20 min 11 sec) 
Heartbeat CPU 0 instructions: 404000000 cycles: 2563176617 heartbeat IPC: 0.157973 cumulative IPC: 0.157271 (Simulation time: 1 hr 20 min 21 sec) 
Heartbeat CPU 0 instructions: 405000000 cycles: 2569819780 heartbeat IPC: 0.150531 cumulative IPC: 0.157253 (Simulation time: 1 hr 20 min 32 sec) 
Heartbeat CPU 0 instructions: 406000001 cycles: 2575997628 heartbeat IPC: 0.161869 cumulative IPC: 0.157264 (Simulation time: 1 hr 20 min 43 sec) 
Heartbeat CPU 0 instructions: 407000000 cycles: 2582368125 heartbeat IPC: 0.156973 cumulative IPC: 0.157263 (Simulation time: 1 hr 20 min 53 sec) 
Heartbeat CPU 0 instructions: 408000000 cycles: 2588875711 heartbeat IPC: 0.153667 cumulative IPC: 0.157254 (Simulation time: 1 hr 21 min 4 sec) 
Heartbeat CPU 0 instructions: 409000000 cycles: 2595320148 heartbeat IPC: 0.155173 cumulative IPC: 0.157249 (Simulation time: 1 hr 21 min 15 sec) 
Heartbeat CPU 0 instructions: 410000000 cycles: 2601846827 heartbeat IPC: 0.153217 cumulative IPC: 0.157239 (Simulation time: 1 hr 21 min 25 sec) 
Heartbeat CPU 0 instructions: 411000000 cycles: 2608057800 heartbeat IPC: 0.161005 cumulative IPC: 0.157248 (Simulation time: 1 hr 21 min 36 sec) 
Heartbeat CPU 0 instructions: 412000000 cycles: 2614448074 heartbeat IPC: 0.156488 cumulative IPC: 0.157246 (Simulation time: 1 hr 21 min 46 sec) 
Heartbeat CPU 0 instructions: 413000003 cycles: 2620722441 heartbeat IPC: 0.159379 cumulative IPC: 0.157251 (Simulation time: 1 hr 21 min 57 sec) 
Heartbeat CPU 0 instructions: 414000002 cycles: 2627059418 heartbeat IPC: 0.157804 cumulative IPC: 0.157253 (Simulation time: 1 hr 22 min 8 sec) 
Heartbeat CPU 0 instructions: 415000000 cycles: 2633544230 heartbeat IPC: 0.154206 cumulative IPC: 0.157245 (Simulation time: 1 hr 22 min 18 sec) 
Heartbeat CPU 0 instructions: 416000000 cycles: 2639848365 heartbeat IPC: 0.158626 cumulative IPC: 0.157248 (Simulation time: 1 hr 22 min 29 sec) 
Heartbeat CPU 0 instructions: 417000002 cycles: 2646239997 heartbeat IPC: 0.156455 cumulative IPC: 0.157247 (Simulation time: 1 hr 22 min 40 sec) 
Heartbeat CPU 0 instructions: 418000000 cycles: 2652733729 heartbeat IPC: 0.153994 cumulative IPC: 0.157239 (Simulation time: 1 hr 22 min 50 sec) 
Heartbeat CPU 0 instructions: 419000000 cycles: 2658872059 heartbeat IPC: 0.162911 cumulative IPC: 0.157252 (Simulation time: 1 hr 23 min 1 sec) 
Heartbeat CPU 0 instructions: 420000000 cycles: 2665017645 heartbeat IPC: 0.162718 cumulative IPC: 0.157264 (Simulation time: 1 hr 23 min 12 sec) 
Heartbeat CPU 0 instructions: 421000003 cycles: 2671290197 heartbeat IPC: 0.159425 cumulative IPC: 0.157269 (Simulation time: 1 hr 23 min 23 sec) 
Heartbeat CPU 0 instructions: 422000003 cycles: 2677779399 heartbeat IPC: 0.154102 cumulative IPC: 0.157262 (Simulation time: 1 hr 23 min 34 sec) 
Heartbeat CPU 0 instructions: 423000000 cycles: 2683799507 heartbeat IPC: 0.166109 cumulative IPC: 0.157282 (Simulation time: 1 hr 23 min 45 sec) 
Heartbeat CPU 0 instructions: 424000001 cycles: 2689952750 heartbeat IPC: 0.162516 cumulative IPC: 0.157294 (Simulation time: 1 hr 23 min 56 sec) 
Heartbeat CPU 0 instructions: 425000001 cycles: 2696257625 heartbeat IPC: 0.158607 cumulative IPC: 0.157297 (Simulation time: 1 hr 24 min 6 sec) 
Heartbeat CPU 0 instructions: 426000002 cycles: 2702473615 heartbeat IPC: 0.160876 cumulative IPC: 0.157305 (Simulation time: 1 hr 24 min 17 sec) 
Heartbeat CPU 0 instructions: 427000001 cycles: 2708734682 heartbeat IPC: 0.159717 cumulative IPC: 0.15731 (Simulation time: 1 hr 24 min 28 sec) 
Heartbeat CPU 0 instructions: 428000002 cycles: 2715161409 heartbeat IPC: 0.1556 cumulative IPC: 0.157306 (Simulation time: 1 hr 24 min 39 sec) 
Heartbeat CPU 0 instructions: 429000000 cycles: 2721369733 heartbeat IPC: 0.161074 cumulative IPC: 0.157315 (Simulation time: 1 hr 24 min 49 sec) 
Heartbeat CPU 0 instructions: 430000002 cycles: 2727864544 heartbeat IPC: 0.153969 cumulative IPC: 0.157307 (Simulation time: 1 hr 25 min 0 sec) 
Heartbeat CPU 0 instructions: 431000003 cycles: 2734138964 heartbeat IPC: 0.159377 cumulative IPC: 0.157312 (Simulation time: 1 hr 25 min 11 sec) 
Heartbeat CPU 0 instructions: 432000000 cycles: 2740301285 heartbeat IPC: 0.162276 cumulative IPC: 0.157323 (Simulation time: 1 hr 25 min 21 sec) 
Heartbeat CPU 0 instructions: 433000003 cycles: 2746807780 heartbeat IPC: 0.153693 cumulative IPC: 0.157314 (Simulation time: 1 hr 25 min 32 sec) 
Heartbeat CPU 0 instructions: 434000002 cycles: 2752987441 heartbeat IPC: 0.161821 cumulative IPC: 0.157324 (Simulation time: 1 hr 25 min 42 sec) 
Heartbeat CPU 0 instructions: 435000000 cycles: 2759103490 heartbeat IPC: 0.163504 cumulative IPC: 0.157338 (Simulation time: 1 hr 25 min 53 sec) 
Heartbeat CPU 0 instructions: 436000003 cycles: 2765142734 heartbeat IPC: 0.165584 cumulative IPC: 0.157356 (Simulation time: 1 hr 26 min 4 sec) 
Heartbeat CPU 0 instructions: 437000003 cycles: 2771501860 heartbeat IPC: 0.157254 cumulative IPC: 0.157356 (Simulation time: 1 hr 26 min 15 sec) 
Heartbeat CPU 0 instructions: 438000002 cycles: 2777521334 heartbeat IPC: 0.166127 cumulative IPC: 0.157375 (Simulation time: 1 hr 26 min 27 sec) 
Heartbeat CPU 0 instructions: 439000002 cycles: 2783775143 heartbeat IPC: 0.159903 cumulative IPC: 0.157381 (Simulation time: 1 hr 26 min 37 sec) 
Heartbeat CPU 0 instructions: 440000000 cycles: 2790094086 heartbeat IPC: 0.158254 cumulative IPC: 0.157383 (Simulation time: 1 hr 26 min 48 sec) 
Heartbeat CPU 0 instructions: 441000002 cycles: 2796404246 heartbeat IPC: 0.158475 cumulative IPC: 0.157385 (Simulation time: 1 hr 26 min 59 sec) 
Heartbeat CPU 0 instructions: 442000001 cycles: 2802575283 heartbeat IPC: 0.162047 cumulative IPC: 0.157395 (Simulation time: 1 hr 27 min 10 sec) 
Heartbeat CPU 0 instructions: 443000000 cycles: 2808824307 heartbeat IPC: 0.160025 cumulative IPC: 0.157401 (Simulation time: 1 hr 27 min 22 sec) 
Heartbeat CPU 0 instructions: 444000002 cycles: 2818185067 heartbeat IPC: 0.106829 cumulative IPC: 0.157233 (Simulation time: 1 hr 27 min 33 sec) 
Heartbeat CPU 0 instructions: 445000000 cycles: 2829056790 heartbeat IPC: 0.0919816 cumulative IPC: 0.156982 (Simulation time: 1 hr 27 min 44 sec) 
Heartbeat CPU 0 instructions: 446000001 cycles: 2836946851 heartbeat IPC: 0.126742 cumulative IPC: 0.156898 (Simulation time: 1 hr 27 min 54 sec) 
Heartbeat CPU 0 instructions: 447000001 cycles: 2846481385 heartbeat IPC: 0.104882 cumulative IPC: 0.156724 (Simulation time: 1 hr 28 min 4 sec) 
Heartbeat CPU 0 instructions: 448000001 cycles: 2853146663 heartbeat IPC: 0.150031 cumulative IPC: 0.156708 (Simulation time: 1 hr 28 min 14 sec) 
Heartbeat CPU 0 instructions: 449000002 cycles: 2858875612 heartbeat IPC: 0.174552 cumulative IPC: 0.156744 (Simulation time: 1 hr 28 min 24 sec) 
Heartbeat CPU 0 instructions: 450000000 cycles: 2864605889 heartbeat IPC: 0.174511 cumulative IPC: 0.15678 (Simulation time: 1 hr 28 min 34 sec) 

Warmup complete CPU 0 instructions: 450000004 cycles: 2864605890 (Simulation time: 1 hr 28 min 34 sec) 

Heartbeat CPU 0 instructions: 451000000 cycles: 2870352595 heartbeat IPC: 0.174013 cumulative IPC: 0.174012 (Simulation time: 1 hr 28 min 45 sec) 
Heartbeat CPU 0 instructions: 452000001 cycles: 2876152292 heartbeat IPC: 0.172423 cumulative IPC: 0.173214 (Simulation time: 1 hr 28 min 55 sec) 
Heartbeat CPU 0 instructions: 453000000 cycles: 2881949671 heartbeat IPC: 0.172492 cumulative IPC: 0.172972 (Simulation time: 1 hr 29 min 5 sec) 
Heartbeat CPU 0 instructions: 454000001 cycles: 2887739806 heartbeat IPC: 0.172708 cumulative IPC: 0.172906 (Simulation time: 1 hr 29 min 15 sec) 
Heartbeat CPU 0 instructions: 455000003 cycles: 2893556421 heartbeat IPC: 0.171922 cumulative IPC: 0.172708 (Simulation time: 1 hr 29 min 26 sec) 
Heartbeat CPU 0 instructions: 456000002 cycles: 2899342766 heartbeat IPC: 0.17282 cumulative IPC: 0.172727 (Simulation time: 1 hr 29 min 36 sec) 
Heartbeat CPU 0 instructions: 457000003 cycles: 2905165088 heartbeat IPC: 0.171753 cumulative IPC: 0.172587 (Simulation time: 1 hr 29 min 46 sec) 
Heartbeat CPU 0 instructions: 458000000 cycles: 2910965451 heartbeat IPC: 0.172402 cumulative IPC: 0.172564 (Simulation time: 1 hr 29 min 57 sec) 
Heartbeat CPU 0 instructions: 459000001 cycles: 2916762007 heartbeat IPC: 0.172516 cumulative IPC: 0.172559 (Simulation time: 1 hr 30 min 8 sec) 
Heartbeat CPU 0 instructions: 460000003 cycles: 2918959158 heartbeat IPC: 0.455136 cumulative IPC: 0.183982 (Simulation time: 1 hr 30 min 14 sec) 
Heartbeat CPU 0 instructions: 461000003 cycles: 2921649109 heartbeat IPC: 0.371754 cumulative IPC: 0.192836 (Simulation time: 1 hr 30 min 23 sec) 
Heartbeat CPU 0 instructions: 462000000 cycles: 2923659445 heartbeat IPC: 0.497428 cumulative IPC: 0.203205 (Simulation time: 1 hr 30 min 30 sec) 
Heartbeat CPU 0 instructions: 463000003 cycles: 2925573596 heartbeat IPC: 0.522426 cumulative IPC: 0.213228 (Simulation time: 1 hr 30 min 37 sec) 
Heartbeat CPU 0 instructions: 464000000 cycles: 2927681378 heartbeat IPC: 0.474431 cumulative IPC: 0.221956 (Simulation time: 1 hr 30 min 45 sec) 
Heartbeat CPU 0 instructions: 465000002 cycles: 2929643894 heartbeat IPC: 0.509551 cumulative IPC: 0.230634 (Simulation time: 1 hr 30 min 53 sec) 
Heartbeat CPU 0 instructions: 466000003 cycles: 2931570196 heartbeat IPC: 0.51913 cumulative IPC: 0.238933 (Simulation time: 1 hr 31 min 0 sec) 
Heartbeat CPU 0 instructions: 467000002 cycles: 2933479769 heartbeat IPC: 0.523677 cumulative IPC: 0.246828 (Simulation time: 1 hr 31 min 7 sec) 
Heartbeat CPU 0 instructions: 468000003 cycles: 2935597873 heartbeat IPC: 0.472121 cumulative IPC: 0.25355 (Simulation time: 1 hr 31 min 15 sec) 
Heartbeat CPU 0 instructions: 469000001 cycles: 2937490112 heartbeat IPC: 0.528473 cumulative IPC: 0.260687 (Simulation time: 1 hr 31 min 22 sec) 
Heartbeat CPU 0 instructions: 470000003 cycles: 2939398102 heartbeat IPC: 0.524113 cumulative IPC: 0.267408 (Simulation time: 1 hr 31 min 28 sec) 
Heartbeat CPU 0 instructions: 471000002 cycles: 2941395918 heartbeat IPC: 0.500546 cumulative IPC: 0.273473 (Simulation time: 1 hr 31 min 35 sec) 
Heartbeat CPU 0 instructions: 472000000 cycles: 2943501352 heartbeat IPC: 0.474961 cumulative IPC: 0.27885 (Simulation time: 1 hr 31 min 42 sec) 
Heartbeat CPU 0 instructions: 473000000 cycles: 2945427489 heartbeat IPC: 0.519174 cumulative IPC: 0.284577 (Simulation time: 1 hr 31 min 48 sec) 
Heartbeat CPU 0 instructions: 474000002 cycles: 2947318558 heartbeat IPC: 0.528803 cumulative IPC: 0.290161 (Simulation time: 1 hr 31 min 55 sec) 
Heartbeat CPU 0 instructions: 475000001 cycles: 2949377578 heartbeat IPC: 0.485667 cumulative IPC: 0.29491 (Simulation time: 1 hr 32 min 2 sec) 
Heartbeat CPU 0 instructions: 476000000 cycles: 2951371865 heartbeat IPC: 0.501432 cumulative IPC: 0.299657 (Simulation time: 1 hr 32 min 8 sec) 
Heartbeat CPU 0 instructions: 477000003 cycles: 2953253101 heartbeat IPC: 0.531567 cumulative IPC: 0.304578 (Simulation time: 1 hr 32 min 15 sec) 
Heartbeat CPU 0 instructions: 478000003 cycles: 2955105875 heartbeat IPC: 0.539731 cumulative IPC: 0.309392 (Simulation time: 1 hr 32 min 21 sec) 
Heartbeat CPU 0 instructions: 479000001 cycles: 2956962416 heartbeat IPC: 0.538635 cumulative IPC: 0.314001 (Simulation time: 1 hr 32 min 27 sec) 
Heartbeat CPU 0 instructions: 480000001 cycles: 2958920785 heartbeat IPC: 0.510629 cumulative IPC: 0.318083 (Simulation time: 1 hr 32 min 34 sec) 
Heartbeat CPU 0 instructions: 481000002 cycles: 2961032707 heartbeat IPC: 0.473503 cumulative IPC: 0.321487 (Simulation time: 1 hr 32 min 40 sec) 
Heartbeat CPU 0 instructions: 482000002 cycles: 2962888126 heartbeat IPC: 0.538962 cumulative IPC: 0.325593 (Simulation time: 1 hr 32 min 47 sec) 
Heartbeat CPU 0 instructions: 483000002 cycles: 2964042895 heartbeat IPC: 0.865974 cumulative IPC: 0.331868 (Simulation time: 1 hr 32 min 52 sec) 
Heartbeat CPU 0 instructions: 484000000 cycles: 2964861943 heartbeat IPC: 1.22093 cumulative IPC: 0.339132 (Simulation time: 1 hr 32 min 56 sec) 
Heartbeat CPU 0 instructions: 485000000 cycles: 2966539515 heartbeat IPC: 0.5961 cumulative IPC: 0.343361 (Simulation time: 1 hr 33 min 2 sec) 
Heartbeat CPU 0 instructions: 486000003 cycles: 2967855058 heartbeat IPC: 0.760145 cumulative IPC: 0.348671 (Simulation time: 1 hr 33 min 7 sec) 
Heartbeat CPU 0 instructions: 487000001 cycles: 2969071909 heartbeat IPC: 0.821792 cumulative IPC: 0.354182 (Simulation time: 1 hr 33 min 12 sec) 
Heartbeat CPU 0 instructions: 488000001 cycles: 2969830769 heartbeat IPC: 1.31777 cumulative IPC: 0.361131 (Simulation time: 1 hr 33 min 16 sec) 
Heartbeat CPU 0 instructions: 489000000 cycles: 2971518921 heartbeat IPC: 0.592363 cumulative IPC: 0.364782 (Simulation time: 1 hr 33 min 22 sec) 
Heartbeat CPU 0 instructions: 490000000 cycles: 2972827915 heartbeat IPC: 0.763945 cumulative IPC: 0.36961 (Simulation time: 1 hr 33 min 28 sec) 
Heartbeat CPU 0 instructions: 491000000 cycles: 2973998660 heartbeat IPC: 0.854157 cumulative IPC: 0.374796 (Simulation time: 1 hr 33 min 33 sec) 
Heartbeat CPU 0 instructions: 492000000 cycles: 2975203687 heartbeat IPC: 0.829857 cumulative IPC: 0.379754 (Simulation time: 1 hr 33 min 37 sec) 
Heartbeat CPU 0 instructions: 493000001 cycles: 2976403754 heartbeat IPC: 0.833288 cumulative IPC: 0.384623 (Simulation time: 1 hr 33 min 42 sec) 
Heartbeat CPU 0 instructions: 494000000 cycles: 2977667275 heartbeat IPC: 0.791438 cumulative IPC: 0.389169 (Simulation time: 1 hr 33 min 47 sec) 
Heartbeat CPU 0 instructions: 495000000 cycles: 2978879942 heartbeat IPC: 0.824629 cumulative IPC: 0.39379 (Simulation time: 1 hr 33 min 52 sec) 
Heartbeat CPU 0 instructions: 496000001 cycles: 2980109614 heartbeat IPC: 0.813226 cumulative IPC: 0.398256 (Simulation time: 1 hr 33 min 58 sec) 
Heartbeat CPU 0 instructions: 497000002 cycles: 2981332406 heartbeat IPC: 0.817801 cumulative IPC: 0.402651 (Simulation time: 1 hr 34 min 3 sec) 
Heartbeat CPU 0 instructions: 498000003 cycles: 2982411652 heartbeat IPC: 0.926574 cumulative IPC: 0.40745 (Simulation time: 1 hr 34 min 7 sec) 
Heartbeat CPU 0 instructions: 499000000 cycles: 2983845094 heartbeat IPC: 0.697619 cumulative IPC: 0.410939 (Simulation time: 1 hr 34 min 13 sec) 
Heartbeat CPU 0 instructions: 500000003 cycles: 2985218776 heartbeat IPC: 0.727973 cumulative IPC: 0.414549 (Simulation time: 1 hr 34 min 19 sec) 
Heartbeat CPU 0 instructions: 501000003 cycles: 2987025154 heartbeat IPC: 0.553594 cumulative IPC: 0.416601 (Simulation time: 1 hr 34 min 25 sec) 
Heartbeat CPU 0 instructions: 502000001 cycles: 2988216287 heartbeat IPC: 0.839535 cumulative IPC: 0.420677 (Simulation time: 1 hr 34 min 30 sec) 
Heartbeat CPU 0 instructions: 503000002 cycles: 2989453903 heartbeat IPC: 0.808006 cumulative IPC: 0.424516 (Simulation time: 1 hr 34 min 35 sec) 
Heartbeat CPU 0 instructions: 504000001 cycles: 2991199354 heartbeat IPC: 0.572917 cumulative IPC: 0.426562 (Simulation time: 1 hr 34 min 41 sec) 
Heartbeat CPU 0 instructions: 505000000 cycles: 2993054388 heartbeat IPC: 0.539073 cumulative IPC: 0.428187 (Simulation time: 1 hr 34 min 48 sec) 
Heartbeat CPU 0 instructions: 506000000 cycles: 2994420641 heartbeat IPC: 0.731929 cumulative IPC: 0.431384 (Simulation time: 1 hr 34 min 53 sec) 
Heartbeat CPU 0 instructions: 507000000 cycles: 2995891855 heartbeat IPC: 0.679711 cumulative IPC: 0.434167 (Simulation time: 1 hr 34 min 58 sec) 
Heartbeat CPU 0 instructions: 508000001 cycles: 2997416177 heartbeat IPC: 0.65603 cumulative IPC: 0.436713 (Simulation time: 1 hr 35 min 4 sec) 
Heartbeat CPU 0 instructions: 509000002 cycles: 2998694301 heartbeat IPC: 0.782398 cumulative IPC: 0.440008 (Simulation time: 1 hr 35 min 9 sec) 
Heartbeat CPU 0 instructions: 510000001 cycles: 2999957201 heartbeat IPC: 0.791828 cumulative IPC: 0.443291 (Simulation time: 1 hr 35 min 15 sec) 
Heartbeat CPU 0 instructions: 511000000 cycles: 3001190421 heartbeat IPC: 0.810885 cumulative IPC: 0.44661 (Simulation time: 1 hr 35 min 20 sec) 
Heartbeat CPU 0 instructions: 512000002 cycles: 3002449570 heartbeat IPC: 0.794189 cumulative IPC: 0.449785 (Simulation time: 1 hr 35 min 25 sec) 
Heartbeat CPU 0 instructions: 513000000 cycles: 3003710828 heartbeat IPC: 0.792858 cumulative IPC: 0.452895 (Simulation time: 1 hr 35 min 30 sec) 
Heartbeat CPU 0 instructions: 514000001 cycles: 3005458235 heartbeat IPC: 0.572277 cumulative IPC: 0.454377 (Simulation time: 1 hr 35 min 37 sec) 
Heartbeat CPU 0 instructions: 515000000 cycles: 3006803333 heartbeat IPC: 0.743439 cumulative IPC: 0.457111 (Simulation time: 1 hr 35 min 42 sec) 
Heartbeat CPU 0 instructions: 516000000 cycles: 3008139561 heartbeat IPC: 0.748375 cumulative IPC: 0.459822 (Simulation time: 1 hr 35 min 47 sec) 
Heartbeat CPU 0 instructions: 517000000 cycles: 3009899946 heartbeat IPC: 0.568058 cumulative IPC: 0.461134 (Simulation time: 1 hr 35 min 54 sec) 
Heartbeat CPU 0 instructions: 518000000 cycles: 3011152151 heartbeat IPC: 0.798591 cumulative IPC: 0.464017 (Simulation time: 1 hr 35 min 59 sec) 
Heartbeat CPU 0 instructions: 519000002 cycles: 3012359023 heartbeat IPC: 0.82859 cumulative IPC: 0.466995 (Simulation time: 1 hr 36 min 4 sec) 
Heartbeat CPU 0 instructions: 520000000 cycles: 3013595203 heartbeat IPC: 0.808942 cumulative IPC: 0.469832 (Simulation time: 1 hr 36 min 9 sec) 
Heartbeat CPU 0 instructions: 521000000 cycles: 3014333382 heartbeat IPC: 1.35468 cumulative IPC: 0.474195 (Simulation time: 1 hr 36 min 13 sec) 
Heartbeat CPU 0 instructions: 522000001 cycles: 3015511560 heartbeat IPC: 0.848769 cumulative IPC: 0.477119 (Simulation time: 1 hr 36 min 18 sec) 
Heartbeat CPU 0 instructions: 523000000 cycles: 3016728013 heartbeat IPC: 0.822061 cumulative IPC: 0.479878 (Simulation time: 1 hr 36 min 23 sec) 
Heartbeat CPU 0 instructions: 524000002 cycles: 3017996306 heartbeat IPC: 0.788463 cumulative IPC: 0.482429 (Simulation time: 1 hr 36 min 28 sec) 
Heartbeat CPU 0 instructions: 525000002 cycles: 3019217456 heartbeat IPC: 0.8189 cumulative IPC: 0.485087 (Simulation time: 1 hr 36 min 33 sec) 
Heartbeat CPU 0 instructions: 526000001 cycles: 3020550094 heartbeat IPC: 0.750391 cumulative IPC: 0.487354 (Simulation time: 1 hr 36 min 39 sec) 
Heartbeat CPU 0 instructions: 527000002 cycles: 3021847801 heartbeat IPC: 0.770591 cumulative IPC: 0.489691 (Simulation time: 1 hr 36 min 44 sec) 
Heartbeat CPU 0 instructions: 528000000 cycles: 3023425806 heartbeat IPC: 0.63371 cumulative IPC: 0.491122 (Simulation time: 1 hr 36 min 50 sec) 
Heartbeat CPU 0 instructions: 529000003 cycles: 3024641039 heartbeat IPC: 0.82289 cumulative IPC: 0.493642 (Simulation time: 1 hr 36 min 55 sec) 
Heartbeat CPU 0 instructions: 530000001 cycles: 3025878646 heartbeat IPC: 0.808009 cumulative IPC: 0.496054 (Simulation time: 1 hr 37 min 0 sec) 
Heartbeat CPU 0 instructions: 531000000 cycles: 3027212710 heartbeat IPC: 0.749588 cumulative IPC: 0.498134 (Simulation time: 1 hr 37 min 5 sec) 
Heartbeat CPU 0 instructions: 532000000 cycles: 3028571540 heartbeat IPC: 0.735927 cumulative IPC: 0.500105 (Simulation time: 1 hr 37 min 11 sec) 
Heartbeat CPU 0 instructions: 533000002 cycles: 3029702432 heartbeat IPC: 0.88426 cumulative IPC: 0.502736 (Simulation time: 1 hr 37 min 15 sec) 
Heartbeat CPU 0 instructions: 534000001 cycles: 3031466795 heartbeat IPC: 0.566776 cumulative IPC: 0.503413 (Simulation time: 1 hr 37 min 21 sec) 
Heartbeat CPU 0 instructions: 535000002 cycles: 3032190695 heartbeat IPC: 1.38141 cumulative IPC: 0.507206 (Simulation time: 1 hr 37 min 25 sec) 
Heartbeat CPU 0 instructions: 536000000 cycles: 3033342400 heartbeat IPC: 0.868276 cumulative IPC: 0.50967 (Simulation time: 1 hr 37 min 30 sec) 
Heartbeat CPU 0 instructions: 537000001 cycles: 3034513003 heartbeat IPC: 0.854261 cumulative IPC: 0.512044 (Simulation time: 1 hr 37 min 35 sec) 
Heartbeat CPU 0 instructions: 538000001 cycles: 3035670044 heartbeat IPC: 0.864274 cumulative IPC: 0.514427 (Simulation time: 1 hr 37 min 40 sec) 
Heartbeat CPU 0 instructions: 539000000 cycles: 3036860981 heartbeat IPC: 0.839674 cumulative IPC: 0.516676 (Simulation time: 1 hr 37 min 45 sec) 
Heartbeat CPU 0 instructions: 540000000 cycles: 3037577149 heartbeat IPC: 1.39632 cumulative IPC: 0.520318 (Simulation time: 1 hr 37 min 49 sec) 
Heartbeat CPU 0 instructions: 541000003 cycles: 3039110223 heartbeat IPC: 0.652286 cumulative IPC: 0.521477 (Simulation time: 1 hr 37 min 55 sec) 
Heartbeat CPU 0 instructions: 542000002 cycles: 3040512650 heartbeat IPC: 0.713049 cumulative IPC: 0.523004 (Simulation time: 1 hr 38 min 1 sec) 
Heartbeat CPU 0 instructions: 543000001 cycles: 3041766160 heartbeat IPC: 0.797759 cumulative IPC: 0.524948 (Simulation time: 1 hr 38 min 6 sec) 
Heartbeat CPU 0 instructions: 544000003 cycles: 3042944842 heartbeat IPC: 0.848407 cumulative IPC: 0.527086 (Simulation time: 1 hr 38 min 11 sec) 
[...]
Heartbeat CPU 0 instructions: 835000000 cycles: 3378992803 heartbeat IPC: 0.820414 cumulative IPC: 0.748464 (Simulation time: 2 hr 0 min 17 sec) 
Heartbeat CPU 0 instructions: 836000000 cycles: 3379905382 heartbeat IPC: 1.0958 cumulative IPC: 0.749079 (Simulation time: 2 hr 0 min 19 sec) 
Heartbeat CPU 0 instructions: 837000000 cycles: 3381166301 heartbeat IPC: 0.793072 cumulative IPC: 0.749186 (Simulation time: 2 hr 0 min 22 sec) 
Heartbeat CPU 0 instructions: 838000001 cycles: 3382410267 heartbeat IPC: 0.803881 cumulative IPC: 0.749318 (Simulation time: 2 hr 0 min 25 sec) 
Heartbeat CPU 0 instructions: 839000003 cycles: 3383285536 heartbeat IPC: 1.14251 cumulative IPC: 0.749981 (Simulation time: 2 hr 0 min 28 sec) 
Heartbeat CPU 0 instructions: 840000000 cycles: 3384575861 heartbeat IPC: 0.774996 cumulative IPC: 0.750043 (Simulation time: 2 hr 0 min 31 sec) 
Heartbeat CPU 0 instructions: 841000001 cycles: 3385839971 heartbeat IPC: 0.791071 cumulative IPC: 0.750143 (Simulation time: 2 hr 0 min 34 sec) 
Heartbeat CPU 0 instructions: 842000002 cycles: 3386709233 heartbeat IPC: 1.1504 cumulative IPC: 0.750809 (Simulation time: 2 hr 0 min 37 sec) 
Heartbeat CPU 0 instructions: 843000003 cycles: 3387961115 heartbeat IPC: 0.798798 cumulative IPC: 0.750924 (Simulation time: 2 hr 0 min 40 sec) 
Heartbeat CPU 0 instructions: 844000000 cycles: 3389208430 heartbeat IPC: 0.80172 cumulative IPC: 0.751045 (Simulation time: 2 hr 0 min 43 sec) 
Heartbeat CPU 0 instructions: 845000003 cycles: 3390259781 heartbeat IPC: 0.95116 cumulative IPC: 0.751445 (Simulation time: 2 hr 0 min 46 sec) 
Heartbeat CPU 0 instructions: 846000003 cycles: 3391353267 heartbeat IPC: 0.914506 cumulative IPC: 0.751784 (Simulation time: 2 hr 0 min 48 sec) 
Heartbeat CPU 0 instructions: 847000000 cycles: 3392614284 heartbeat IPC: 0.793008 cumulative IPC: 0.751882 (Simulation time: 2 hr 0 min 52 sec) 
Heartbeat CPU 0 instructions: 848000003 cycles: 3393779174 heartbeat IPC: 0.858453 cumulative IPC: 0.752117 (Simulation time: 2 hr 0 min 55 sec) 
Heartbeat CPU 0 instructions: 849000000 cycles: 3394755085 heartbeat IPC: 1.02468 cumulative IPC: 0.752618 (Simulation time: 2 hr 0 min 57 sec) 
Heartbeat CPU 0 instructions: 850000000 cycles: 3396018277 heartbeat IPC: 0.791645 cumulative IPC: 0.752711 (Simulation time: 2 hr 1 min 0 sec) 
Heartbeat CPU 0 instructions: 851000001 cycles: 3397251147 heartbeat IPC: 0.811116 cumulative IPC: 0.752846 (Simulation time: 2 hr 1 min 3 sec) 
Heartbeat CPU 0 instructions: 852000000 cycles: 3398152121 heartbeat IPC: 1.10991 cumulative IPC: 0.753449 (Simulation time: 2 hr 1 min 6 sec) 
Heartbeat CPU 0 instructions: 853000002 cycles: 3399399952 heartbeat IPC: 0.801392 cumulative IPC: 0.753561 (Simulation time: 2 hr 1 min 9 sec) 
Heartbeat CPU 0 instructions: 854000003 cycles: 3400620901 heartbeat IPC: 0.819036 cumulative IPC: 0.75371 (Simulation time: 2 hr 1 min 12 sec) 
Heartbeat CPU 0 instructions: 855000003 cycles: 3401538185 heartbeat IPC: 1.09017 cumulative IPC: 0.754285 (Simulation time: 2 hr 1 min 15 sec) 
Heartbeat CPU 0 instructions: 856000001 cycles: 3402791128 heartbeat IPC: 0.798119 cumulative IPC: 0.754387 (Simulation time: 2 hr 1 min 18 sec) 
Heartbeat CPU 0 instructions: 857000001 cycles: 3404025273 heartbeat IPC: 0.810278 cumulative IPC: 0.754515 (Simulation time: 2 hr 1 min 21 sec) 
Heartbeat CPU 0 instructions: 858000000 cycles: 3404943832 heartbeat IPC: 1.08866 cumulative IPC: 0.755083 (Simulation time: 2 hr 1 min 23 sec) 
Heartbeat CPU 0 instructions: 859000000 cycles: 3406199021 heartbeat IPC: 0.796693 cumulative IPC: 0.755179 (Simulation time: 2 hr 1 min 26 sec) 
Heartbeat CPU 0 instructions: 860000001 cycles: 3407419130 heartbeat IPC: 0.8196 cumulative IPC: 0.755324 (Simulation time: 2 hr 1 min 29 sec) 
Heartbeat CPU 0 instructions: 861000000 cycles: 3408326813 heartbeat IPC: 1.10171 cumulative IPC: 0.755902 (Simulation time: 2 hr 1 min 32 sec) 
Heartbeat CPU 0 instructions: 862000000 cycles: 3409583240 heartbeat IPC: 0.795908 cumulative IPC: 0.755995 (Simulation time: 2 hr 1 min 35 sec) 
Heartbeat CPU 0 instructions: 863000000 cycles: 3410800420 heartbeat IPC: 0.821571 cumulative IPC: 0.756141 (Simulation time: 2 hr 1 min 38 sec) 
Heartbeat CPU 0 instructions: 864000000 cycles: 3411723510 heartbeat IPC: 1.08332 cumulative IPC: 0.756693 (Simulation time: 2 hr 1 min 41 sec) 
Heartbeat CPU 0 instructions: 865000001 cycles: 3412981617 heartbeat IPC: 0.794846 cumulative IPC: 0.75678 (Simulation time: 2 hr 1 min 44 sec) 
Heartbeat CPU 0 instructions: 866000003 cycles: 3414194160 heartbeat IPC: 0.824715 cumulative IPC: 0.75693 (Simulation time: 2 hr 1 min 47 sec) 
Heartbeat CPU 0 instructions: 867000002 cycles: 3415108253 heartbeat IPC: 1.09398 cumulative IPC: 0.75749 (Simulation time: 2 hr 1 min 49 sec) 
Heartbeat CPU 0 instructions: 868000002 cycles: 3416369312 heartbeat IPC: 0.792984 cumulative IPC: 0.757571 (Simulation time: 2 hr 1 min 52 sec) 
Heartbeat CPU 0 instructions: 869000000 cycles: 3417576663 heartbeat IPC: 0.828258 cumulative IPC: 0.757725 (Simulation time: 2 hr 1 min 55 sec) 
Heartbeat CPU 0 instructions: 870000001 cycles: 3418498991 heartbeat IPC: 1.08421 cumulative IPC: 0.758269 (Simulation time: 2 hr 1 min 58 sec) 
Heartbeat CPU 0 instructions: 871000003 cycles: 3419776821 heartbeat IPC: 0.782578 cumulative IPC: 0.758325 (Simulation time: 2 hr 2 min 1 sec) 
Heartbeat CPU 0 instructions: 872000001 cycles: 3421033050 heartbeat IPC: 0.796032 cumulative IPC: 0.75841 (Simulation time: 2 hr 2 min 4 sec) 
Heartbeat CPU 0 instructions: 873000001 cycles: 3421921411 heartbeat IPC: 1.12567 cumulative IPC: 0.758996 (Simulation time: 2 hr 2 min 7 sec) 
Heartbeat CPU 0 instructions: 874000002 cycles: 3423183195 heartbeat IPC: 0.792529 cumulative IPC: 0.759071 (Simulation time: 2 hr 2 min 10 sec) 
Heartbeat CPU 0 instructions: 875000001 cycles: 3424434233 heartbeat IPC: 0.799335 cumulative IPC: 0.759161 (Simulation time: 2 hr 2 min 13 sec) 
Heartbeat CPU 0 instructions: 876000003 cycles: 3425320991 heartbeat IPC: 1.12771 cumulative IPC: 0.759744 (Simulation time: 2 hr 2 min 15 sec) 
Heartbeat CPU 0 instructions: 877000001 cycles: 3426604799 heartbeat IPC: 0.778931 cumulative IPC: 0.759788 (Simulation time: 2 hr 2 min 19 sec) 
Heartbeat CPU 0 instructions: 878000001 cycles: 3427873431 heartbeat IPC: 0.788251 cumulative IPC: 0.759852 (Simulation time: 2 hr 2 min 22 sec) 
Heartbeat CPU 0 instructions: 879000002 cycles: 3428769589 heartbeat IPC: 1.11588 cumulative IPC: 0.760418 (Simulation time: 2 hr 2 min 24 sec) 
Heartbeat CPU 0 instructions: 880000000 cycles: 3430029325 heartbeat IPC: 0.793816 cumulative IPC: 0.760492 (Simulation time: 2 hr 2 min 27 sec) 
Heartbeat CPU 0 instructions: 881000001 cycles: 3431292420 heartbeat IPC: 0.791707 cumulative IPC: 0.760562 (Simulation time: 2 hr 2 min 30 sec) 
Heartbeat CPU 0 instructions: 882000002 cycles: 3432428986 heartbeat IPC: 0.879844 cumulative IPC: 0.7608 (Simulation time: 2 hr 2 min 33 sec) 
Heartbeat CPU 0 instructions: 883000000 cycles: 3433439747 heartbeat IPC: 0.989352 cumulative IPC: 0.761206 (Simulation time: 2 hr 2 min 36 sec) 
Heartbeat CPU 0 instructions: 884000002 cycles: 3434699610 heartbeat IPC: 0.793739 cumulative IPC: 0.761278 (Simulation time: 2 hr 2 min 39 sec) 
Heartbeat CPU 0 instructions: 885000001 cycles: 3435932605 heartbeat IPC: 0.811032 cumulative IPC: 0.761386 (Simulation time: 2 hr 2 min 42 sec) 
Heartbeat CPU 0 instructions: 886000000 cycles: 3436852447 heartbeat IPC: 1.08714 cumulative IPC: 0.761909 (Simulation time: 2 hr 2 min 45 sec) 
Heartbeat CPU 0 instructions: 887000000 cycles: 3438125146 heartbeat IPC: 0.785732 cumulative IPC: 0.761962 (Simulation time: 2 hr 2 min 48 sec) 
Heartbeat CPU 0 instructions: 888000003 cycles: 3439355824 heartbeat IPC: 0.812563 cumulative IPC: 0.762071 (Simulation time: 2 hr 2 min 51 sec) 
Heartbeat CPU 0 instructions: 889000003 cycles: 3440286335 heartbeat IPC: 1.07468 cumulative IPC: 0.762576 (Simulation time: 2 hr 2 min 53 sec) 
Heartbeat CPU 0 instructions: 890000003 cycles: 3441550718 heartbeat IPC: 0.7909 cumulative IPC: 0.762638 (Simulation time: 2 hr 2 min 56 sec) 
Heartbeat CPU 0 instructions: 891000000 cycles: 3442786101 heartbeat IPC: 0.809463 cumulative IPC: 0.762738 (Simulation time: 2 hr 2 min 59 sec) 
Heartbeat CPU 0 instructions: 892000000 cycles: 3443693479 heartbeat IPC: 1.10208 cumulative IPC: 0.76327 (Simulation time: 2 hr 3 min 2 sec) 
Heartbeat CPU 0 instructions: 893000002 cycles: 3444983724 heartbeat IPC: 0.775048 cumulative IPC: 0.763296 (Simulation time: 2 hr 3 min 5 sec) 
Heartbeat CPU 0 instructions: 894000003 cycles: 3446216654 heartbeat IPC: 0.811077 cumulative IPC: 0.763397 (Simulation time: 2 hr 3 min 8 sec) 
Heartbeat CPU 0 instructions: 895000002 cycles: 3447129185 heartbeat IPC: 1.09585 cumulative IPC: 0.763918 (Simulation time: 2 hr 3 min 11 sec) 
Heartbeat CPU 0 instructions: 896000003 cycles: 3448425321 heartbeat IPC: 0.771525 cumulative IPC: 0.763935 (Simulation time: 2 hr 3 min 14 sec) 
Heartbeat CPU 0 instructions: 897000002 cycles: 3449694466 heartbeat IPC: 0.787931 cumulative IPC: 0.763987 (Simulation time: 2 hr 3 min 17 sec) 
Heartbeat CPU 0 instructions: 898000003 cycles: 3450592534 heartbeat IPC: 1.1135 cumulative IPC: 0.764523 (Simulation time: 2 hr 3 min 19 sec) 
Heartbeat CPU 0 instructions: 899000001 cycles: 3452104533 heartbeat IPC: 0.661375 cumulative IPC: 0.764257 (Simulation time: 2 hr 3 min 22 sec) 
Heartbeat CPU 0 instructions: 900000001 cycles: 3453380740 heartbeat IPC: 0.783572 cumulative IPC: 0.764299 (Simulation time: 2 hr 3 min 25 sec) 
Heartbeat CPU 0 instructions: 901000002 cycles: 3454260256 heartbeat IPC: 1.13699 cumulative IPC: 0.764855 (Simulation time: 2 hr 3 min 28 sec) 
Heartbeat CPU 0 instructions: 902000000 cycles: 3455554872 heartbeat IPC: 0.772428 cumulative IPC: 0.764871 (Simulation time: 2 hr 3 min 31 sec) 
Heartbeat CPU 0 instructions: 903000001 cycles: 3456825127 heartbeat IPC: 0.787244 cumulative IPC: 0.764919 (Simulation time: 2 hr 3 min 34 sec) 
Heartbeat CPU 0 instructions: 904000001 cycles: 3457750984 heartbeat IPC: 1.08008 cumulative IPC: 0.765411 (Simulation time: 2 hr 3 min 37 sec) 
Heartbeat CPU 0 instructions: 905000000 cycles: 3458999570 heartbeat IPC: 0.800905 cumulative IPC: 0.765486 (Simulation time: 2 hr 3 min 40 sec) 
Heartbeat CPU 0 instructions: 906000003 cycles: 3460283158 heartbeat IPC: 0.779069 cumulative IPC: 0.765515 (Simulation time: 2 hr 3 min 43 sec) 
Heartbeat CPU 0 instructions: 907000003 cycles: 3461254158 heartbeat IPC: 1.02987 cumulative IPC: 0.765945 (Simulation time: 2 hr 3 min 45 sec) 
Heartbeat CPU 0 instructions: 908000001 cycles: 3462458013 heartbeat IPC: 0.830663 cumulative IPC: 0.766076 (Simulation time: 2 hr 3 min 48 sec) 
Heartbeat CPU 0 instructions: 909000000 cycles: 3463729621 heartbeat IPC: 0.786405 cumulative IPC: 0.766119 (Simulation time: 2 hr 3 min 51 sec) 
Heartbeat CPU 0 instructions: 910000003 cycles: 3464641732 heartbeat IPC: 1.09636 cumulative IPC: 0.766621 (Simulation time: 2 hr 3 min 54 sec) 
Heartbeat CPU 0 instructions: 911000002 cycles: 3465889874 heartbeat IPC: 0.80119 cumulative IPC: 0.766693 (Simulation time: 2 hr 3 min 57 sec) 
Heartbeat CPU 0 instructions: 912000003 cycles: 3467149570 heartbeat IPC: 0.793843 cumulative IPC: 0.766749 (Simulation time: 2 hr 4 min 0 sec) 
Heartbeat CPU 0 instructions: 913000000 cycles: 3468134853 heartbeat IPC: 1.01493 cumulative IPC: 0.767155 (Simulation time: 2 hr 4 min 2 sec) 
Heartbeat CPU 0 instructions: 914000003 cycles: 3469306563 heartbeat IPC: 0.853456 cumulative IPC: 0.767322 (Simulation time: 2 hr 4 min 5 sec) 
Heartbeat CPU 0 instructions: 915000002 cycles: 3470588916 heartbeat IPC: 0.779816 cumulative IPC: 0.767348 (Simulation time: 2 hr 4 min 8 sec) 
Heartbeat CPU 0 instructions: 916000000 cycles: 3471687827 heartbeat IPC: 0.90999 cumulative IPC: 0.767606 (Simulation time: 2 hr 4 min 11 sec) 
Heartbeat CPU 0 instructions: 917000000 cycles: 3472751672 heartbeat IPC: 0.939987 cumulative IPC: 0.767908 (Simulation time: 2 hr 4 min 14 sec) 
Heartbeat CPU 0 instructions: 918000001 cycles: 3474028699 heartbeat IPC: 0.78307 cumulative IPC: 0.76794 (Simulation time: 2 hr 4 min 17 sec) 
Heartbeat CPU 0 instructions: 919000000 cycles: 3474997630 heartbeat IPC: 1.03206 cumulative IPC: 0.768359 (Simulation time: 2 hr 4 min 20 sec) 
Heartbeat CPU 0 instructions: 920000002 cycles: 3476202055 heartbeat IPC: 0.830273 cumulative IPC: 0.768481 (Simulation time: 2 hr 4 min 22 sec) 
Heartbeat CPU 0 instructions: 921000003 cycles: 3477485768 heartbeat IPC: 0.778991 cumulative IPC: 0.768503 (Simulation time: 2 hr 4 min 25 sec) 
Heartbeat CPU 0 instructions: 922000001 cycles: 3478509535 heartbeat IPC: 0.976783 cumulative IPC: 0.76885 (Simulation time: 2 hr 4 min 28 sec) 
Heartbeat CPU 0 instructions: 923000003 cycles: 3479669824 heartbeat IPC: 0.861856 cumulative IPC: 0.769026 (Simulation time: 2 hr 4 min 31 sec) 
Heartbeat CPU 0 instructions: 924000000 cycles: 3480935412 heartbeat IPC: 0.790144 cumulative IPC: 0.769069 (Simulation time: 2 hr 4 min 34 sec) 
Heartbeat CPU 0 instructions: 925000003 cycles: 3482168899 heartbeat IPC: 0.810712 cumulative IPC: 0.769152 (Simulation time: 2 hr 4 min 37 sec) 
Heartbeat CPU 0 instructions: 926000001 cycles: 3483108189 heartbeat IPC: 1.06463 cumulative IPC: 0.769601 (Simulation time: 2 hr 4 min 40 sec) 
Heartbeat CPU 0 instructions: 927000003 cycles: 3484389007 heartbeat IPC: 0.780753 cumulative IPC: 0.769624 (Simulation time: 2 hr 4 min 43 sec) 
Heartbeat CPU 0 instructions: 928000001 cycles: 3485637686 heartbeat IPC: 0.800845 cumulative IPC: 0.769687 (Simulation time: 2 hr 4 min 46 sec) 
Heartbeat CPU 0 instructions: 929000001 cycles: 3486547567 heartbeat IPC: 1.09904 cumulative IPC: 0.770169 (Simulation time: 2 hr 4 min 48 sec) 
Heartbeat CPU 0 instructions: 930000003 cycles: 3487835728 heartbeat IPC: 0.776302 cumulative IPC: 0.770181 (Simulation time: 2 hr 4 min 51 sec) 
Heartbeat CPU 0 instructions: 931000003 cycles: 3489092239 heartbeat IPC: 0.795855 cumulative IPC: 0.770233 (Simulation time: 2 hr 4 min 54 sec) 
Heartbeat CPU 0 instructions: 932000001 cycles: 3490019624 heartbeat IPC: 1.0783 cumulative IPC: 0.77069 (Simulation time: 2 hr 4 min 57 sec) 
Heartbeat CPU 0 instructions: 933000002 cycles: 3491284953 heartbeat IPC: 0.790309 cumulative IPC: 0.770729 (Simulation time: 2 hr 5 min 0 sec) 
Heartbeat CPU 0 instructions: 934000001 cycles: 3492533136 heartbeat IPC: 0.801164 cumulative IPC: 0.77079 (Simulation time: 2 hr 5 min 3 sec) 
Heartbeat CPU 0 instructions: 935000000 cycles: 3493449702 heartbeat IPC: 1.09103 cumulative IPC: 0.771257 (Simulation time: 2 hr 5 min 6 sec) 
Heartbeat CPU 0 instructions: 936000002 cycles: 3494716677 heartbeat IPC: 0.789283 cumulative IPC: 0.771293 (Simulation time: 2 hr 5 min 9 sec) 
Heartbeat CPU 0 instructions: 937000001 cycles: 3495967894 heartbeat IPC: 0.799221 cumulative IPC: 0.771348 (Simulation time: 2 hr 5 min 12 sec) 
Heartbeat CPU 0 instructions: 938000000 cycles: 3496882232 heartbeat IPC: 1.09369 cumulative IPC: 0.771814 (Simulation time: 2 hr 5 min 14 sec) 
Heartbeat CPU 0 instructions: 939000002 cycles: 3498156793 heartbeat IPC: 0.784585 cumulative IPC: 0.77184 (Simulation time: 2 hr 5 min 17 sec) 
Heartbeat CPU 0 instructions: 940000001 cycles: 3499400386 heartbeat IPC: 0.804121 cumulative IPC: 0.771903 (Simulation time: 2 hr 5 min 20 sec) 
Heartbeat CPU 0 instructions: 941000002 cycles: 3500318040 heartbeat IPC: 1.08974 cumulative IPC: 0.772362 (Simulation time: 2 hr 5 min 23 sec) 
Heartbeat CPU 0 instructions: 942000003 cycles: 3501591985 heartbeat IPC: 0.784964 cumulative IPC: 0.772387 (Simulation time: 2 hr 5 min 26 sec) 
Heartbeat CPU 0 instructions: 943000003 cycles: 3502846951 heartbeat IPC: 0.796834 cumulative IPC: 0.772435 (Simulation time: 2 hr 5 min 29 sec) 
Heartbeat CPU 0 instructions: 944000001 cycles: 3503768339 heartbeat IPC: 1.08532 cumulative IPC: 0.772886 (Simulation time: 2 hr 5 min 31 sec) 
Heartbeat CPU 0 instructions: 945000003 cycles: 3505055481 heartbeat IPC: 0.776917 cumulative IPC: 0.772895 (Simulation time: 2 hr 5 min 34 sec) 
Heartbeat CPU 0 instructions: 946000000 cycles: 3506315890 heartbeat IPC: 0.793391 cumulative IPC: 0.772935 (Simulation time: 2 hr 5 min 38 sec) 
Heartbeat CPU 0 instructions: 947000003 cycles: 3507238832 heartbeat IPC: 1.08349 cumulative IPC: 0.773381 (Simulation time: 2 hr 5 min 40 sec) 
Heartbeat CPU 0 instructions: 948000003 cycles: 3508520535 heartbeat IPC: 0.780212 cumulative IPC: 0.773394 (Simulation time: 2 hr 5 min 43 sec) 
Heartbeat CPU 0 instructions: 949000001 cycles: 3509795590 heartbeat IPC: 0.784278 cumulative IPC: 0.773416 (Simulation time: 2 hr 5 min 46 sec) 
Heartbeat CPU 0 instructions: 950000000 cycles: 3510687355 heartbeat IPC: 1.12137 cumulative IPC: 0.773896 (Simulation time: 2 hr 5 min 49 sec) 
Finished CPU 0 instructions: 500000000 cycles: 646081466 cumulative IPC: 0.773896 (Simulation time: 2 hr 5 min 49 sec) 

ChampSim completed all CPUs

Region of Interest Statistics

CPU 0 cumulative IPC: 0.773896 instructions: 500000000 cycles: 646081466
L1D TOTAL     ACCESS:  182692679  HIT:  168411534  MISS:   14281145
L1D LOAD      ACCESS:  134512658  HIT:  122212642  MISS:   12300016
L1D RFO       ACCESS:   48180021  HIT:   46198892  MISS:    1981129
L1D PREFETCH  ACCESS:          0  HIT:          0  MISS:          0
L1D WRITEBACK ACCESS:          0  HIT:          0  MISS:          0
L1D PREFETCH  REQUESTED:          0  ISSUED:          0  USEFUL:          0  USELESS:          0
L1D AVERAGE MISS LATENCY: 67.6613 cycles
L1I TOTAL     ACCESS:  101477164  HIT:  101476943  MISS:        221
L1I LOAD      ACCESS:  101477164  HIT:  101476943  MISS:        221
L1I RFO       ACCESS:          0  HIT:          0  MISS:          0
L1I PREFETCH  ACCESS:          0  HIT:          0  MISS:          0
L1I WRITEBACK ACCESS:          0  HIT:          0  MISS:          0
L1I PREFETCH  REQUESTED:          0  ISSUED:          0  USEFUL:          0  USELESS:          0
L1I AVERAGE MISS LATENCY: 225.014 cycles
L2C TOTAL     ACCESS:   16691433  HIT:    9042157  MISS:    7649276
L2C LOAD      ACCESS:   12300183  HIT:    5595781  MISS:    6704402
L2C RFO       ACCESS:    1981016  HIT:    1037038  MISS:     943978
L2C PREFETCH  ACCESS:          0  HIT:          0  MISS:          0
L2C WRITEBACK ACCESS:    2410234  HIT:    2409338  MISS:        896
L2C PREFETCH  REQUESTED:          0  ISSUED:          0  USEFUL:          0  USELESS:          0
L2C AVERAGE MISS LATENCY: 98.8423 cycles
LLC TOTAL     ACCESS:   13518784  HIT:   10384928  MISS:    3133856
LLC LOAD      ACCESS:    6704381  HIT:    4123951  MISS:    2580430
LLC RFO       ACCESS:     943936  HIT:     663712  MISS:     280224
LLC PREFETCH  ACCESS:    4530107  HIT:    4278181  MISS:     251926
LLC WRITEBACK ACCESS:    1340360  HIT:    1319084  MISS:      21276
LLC PREFETCH  REQUESTED:    4550958  ISSUED:    4550958  USEFUL:      91798  USELESS:     158927
LLC AVERAGE MISS LATENCY: 183.814 cycles
Major fault: 0 Minor fault: 401563
performance stats:
mapping cache size: 13249089
divergence: 9507839

DRAM Statistics
 CHANNEL 0
 RQ ROW_BUFFER_HIT:     794689  ROW_BUFFER_MISS:     762104
 DBUS_CONGESTED:   37635859
 WQ ROW_BUFFER_HIT:     124507  ROW_BUFFER_MISS:      55381  FULL:          0

 CHANNEL 1
 RQ ROW_BUFFER_HIT:     794140  ROW_BUFFER_MISS:     761519
 DBUS_CONGESTED:   37635859
 WQ ROW_BUFFER_HIT:     123359  ROW_BUFFER_MISS:      55874  FULL:          0

 AVG_CONGESTED_CYCLE: 21

CPU 0 Branch Prediction Accuracy: 98.6718% MPKI: 3.32338 Average ROB Occupancy at Mispredict: 89.5184

Branch types
NOT_BRANCH: 374890824 74.9782%
BRANCH_DIRECT_JUMP: 10804313 2.16086%
BRANCH_INDIRECT: 4 8e-07%
BRANCH_CONDITIONAL: 82821824 16.5644%
BRANCH_DIRECT_CALL: 15136295 3.02726%
BRANCH_INDIRECT_CALL: 605078 0.121016%
BRANCH_RETURN: 15741368 3.14827%
BRANCH_OTHER: 0 0%

