
*** ChampSim Multicore Out-of-Order Simulator ***

Warmup Instructions: 1000000
Prefetch Warmup Instructions: 450000000
Simulation Instructions: 500000000
Stat Printing Period: 1000000
Number of CPUs: 1
LLC sets: 2048
LLC ways: 16
Off-chip DRAM Size: 32768 MB Channels: 2 Width: 64-bit Data Rate: 1024 MT/s

CPU 0 runs /scratch/cluster/cmolder/ML-DPC/ChampSimTraces/spec17/605.mcf-s7.trace.xz
Read seed: 227
Heartbeat CPU 0 instructions: 1000001 cycles: 452855 heartbeat IPC: 2.20821 cumulative IPC: 2.20821 (Simulation time: 0 hr 0 min 3 sec) 

Warmup complete CPU 0 instructions: 1000001 cycles: 452855 (Simulation time: 0 hr 0 min 3 sec) 

Heartbeat CPU 0 instructions: 2000001 cycles: 6579085 heartbeat IPC: 0.163233 cumulative IPC: 0.163233 (Simulation time: 0 hr 0 min 8 sec) 
Heartbeat CPU 0 instructions: 3000000 cycles: 12711642 heartbeat IPC: 0.163064 cumulative IPC: 0.163148 (Simulation time: 0 hr 0 min 13 sec) 
Heartbeat CPU 0 instructions: 4000001 cycles: 22908147 heartbeat IPC: 0.0980729 cumulative IPC: 0.133599 (Simulation time: 0 hr 0 min 19 sec) 
Heartbeat CPU 0 instructions: 5000000 cycles: 29432399 heartbeat IPC: 0.153274 cumulative IPC: 0.138028 (Simulation time: 0 hr 0 min 24 sec) 
Heartbeat CPU 0 instructions: 6000001 cycles: 35441882 heartbeat IPC: 0.166404 cumulative IPC: 0.142902 (Simulation time: 0 hr 0 min 29 sec) 
Heartbeat CPU 0 instructions: 7000001 cycles: 41351011 heartbeat IPC: 0.16923 cumulative IPC: 0.146706 (Simulation time: 0 hr 0 min 34 sec) 
Heartbeat CPU 0 instructions: 8000002 cycles: 47241790 heartbeat IPC: 0.169757 cumulative IPC: 0.149608 (Simulation time: 0 hr 0 min 39 sec) 
Heartbeat CPU 0 instructions: 9000001 cycles: 53245245 heartbeat IPC: 0.166571 cumulative IPC: 0.151537 (Simulation time: 0 hr 0 min 44 sec) 
Heartbeat CPU 0 instructions: 10000000 cycles: 59323866 heartbeat IPC: 0.164511 cumulative IPC: 0.152877 (Simulation time: 0 hr 0 min 49 sec) 
Heartbeat CPU 0 instructions: 11000000 cycles: 65222111 heartbeat IPC: 0.169542 cumulative IPC: 0.154394 (Simulation time: 0 hr 0 min 54 sec) 
Heartbeat CPU 0 instructions: 12000003 cycles: 71098847 heartbeat IPC: 0.170163 cumulative IPC: 0.155706 (Simulation time: 0 hr 0 min 59 sec) 
Heartbeat CPU 0 instructions: 13000000 cycles: 77155411 heartbeat IPC: 0.16511 cumulative IPC: 0.156448 (Simulation time: 0 hr 1 min 4 sec) 
Heartbeat CPU 0 instructions: 14000000 cycles: 83018454 heartbeat IPC: 0.17056 cumulative IPC: 0.157451 (Simulation time: 0 hr 1 min 9 sec) 
Heartbeat CPU 0 instructions: 15000000 cycles: 88885924 heartbeat IPC: 0.170431 cumulative IPC: 0.158312 (Simulation time: 0 hr 1 min 13 sec) 
Heartbeat CPU 0 instructions: 16000001 cycles: 94621253 heartbeat IPC: 0.174358 cumulative IPC: 0.159289 (Simulation time: 0 hr 1 min 18 sec) 
Heartbeat CPU 0 instructions: 17000001 cycles: 100596922 heartbeat IPC: 0.167345 cumulative IPC: 0.15977 (Simulation time: 0 hr 1 min 23 sec) 
Heartbeat CPU 0 instructions: 18000000 cycles: 106630789 heartbeat IPC: 0.165731 cumulative IPC: 0.160109 (Simulation time: 0 hr 1 min 28 sec) 
Heartbeat CPU 0 instructions: 19000003 cycles: 112669093 heartbeat IPC: 0.16561 cumulative IPC: 0.160405 (Simulation time: 0 hr 1 min 34 sec) 
Heartbeat CPU 0 instructions: 20000000 cycles: 119022189 heartbeat IPC: 0.157403 cumulative IPC: 0.160244 (Simulation time: 0 hr 1 min 39 sec) 
Heartbeat CPU 0 instructions: 21000000 cycles: 125590694 heartbeat IPC: 0.152242 cumulative IPC: 0.159824 (Simulation time: 0 hr 1 min 44 sec) 
Heartbeat CPU 0 instructions: 22000000 cycles: 134301865 heartbeat IPC: 0.114795 cumulative IPC: 0.156893 (Simulation time: 0 hr 1 min 50 sec) 
Heartbeat CPU 0 instructions: 23000002 cycles: 140779850 heartbeat IPC: 0.154369 cumulative IPC: 0.156777 (Simulation time: 0 hr 1 min 55 sec) 
Heartbeat CPU 0 instructions: 24000002 cycles: 147122730 heartbeat IPC: 0.157657 cumulative IPC: 0.156815 (Simulation time: 0 hr 2 min 0 sec) 
Heartbeat CPU 0 instructions: 25000000 cycles: 153394172 heartbeat IPC: 0.159453 cumulative IPC: 0.156923 (Simulation time: 0 hr 2 min 5 sec) 
Heartbeat CPU 0 instructions: 26000003 cycles: 159891315 heartbeat IPC: 0.153914 cumulative IPC: 0.1568 (Simulation time: 0 hr 2 min 10 sec) 
Heartbeat CPU 0 instructions: 27000002 cycles: 166359173 heartbeat IPC: 0.154611 cumulative IPC: 0.156715 (Simulation time: 0 hr 2 min 15 sec) 
Heartbeat CPU 0 instructions: 28000001 cycles: 172942072 heartbeat IPC: 0.151909 cumulative IPC: 0.156532 (Simulation time: 0 hr 2 min 21 sec) 
Heartbeat CPU 0 instructions: 29000002 cycles: 179572897 heartbeat IPC: 0.150811 cumulative IPC: 0.15632 (Simulation time: 0 hr 2 min 26 sec) 
Heartbeat CPU 0 instructions: 30000001 cycles: 186825503 heartbeat IPC: 0.137881 cumulative IPC: 0.155602 (Simulation time: 0 hr 2 min 31 sec) 
Heartbeat CPU 0 instructions: 31000001 cycles: 193662198 heartbeat IPC: 0.14627 cumulative IPC: 0.155272 (Simulation time: 0 hr 2 min 37 sec) 
Heartbeat CPU 0 instructions: 32000000 cycles: 199655759 heartbeat IPC: 0.166846 cumulative IPC: 0.15562 (Simulation time: 0 hr 2 min 42 sec) 
Heartbeat CPU 0 instructions: 33000000 cycles: 207150630 heartbeat IPC: 0.133425 cumulative IPC: 0.154815 (Simulation time: 0 hr 2 min 47 sec) 
Heartbeat CPU 0 instructions: 34000000 cycles: 213003768 heartbeat IPC: 0.170849 cumulative IPC: 0.155257 (Simulation time: 0 hr 2 min 52 sec) 
Heartbeat CPU 0 instructions: 35000002 cycles: 219866143 heartbeat IPC: 0.145722 cumulative IPC: 0.154959 (Simulation time: 0 hr 2 min 58 sec) 
Heartbeat CPU 0 instructions: 36000002 cycles: 227299060 heartbeat IPC: 0.134537 cumulative IPC: 0.15429 (Simulation time: 0 hr 3 min 3 sec) 
Heartbeat CPU 0 instructions: 37000001 cycles: 233815115 heartbeat IPC: 0.153467 cumulative IPC: 0.154267 (Simulation time: 0 hr 3 min 9 sec) 
Heartbeat CPU 0 instructions: 38000000 cycles: 240101404 heartbeat IPC: 0.159076 cumulative IPC: 0.154393 (Simulation time: 0 hr 3 min 14 sec) 
Heartbeat CPU 0 instructions: 39000003 cycles: 246858092 heartbeat IPC: 0.148002 cumulative IPC: 0.154218 (Simulation time: 0 hr 3 min 19 sec) 
Heartbeat CPU 0 instructions: 40000002 cycles: 253180577 heartbeat IPC: 0.158165 cumulative IPC: 0.154316 (Simulation time: 0 hr 3 min 25 sec) 
Heartbeat CPU 0 instructions: 41000001 cycles: 259580853 heartbeat IPC: 0.156243 cumulative IPC: 0.154364 (Simulation time: 0 hr 3 min 30 sec) 
Heartbeat CPU 0 instructions: 42000001 cycles: 270998219 heartbeat IPC: 0.0875859 cumulative IPC: 0.151546 (Simulation time: 0 hr 3 min 37 sec) 
Heartbeat CPU 0 instructions: 43000000 cycles: 277603305 heartbeat IPC: 0.151398 cumulative IPC: 0.151542 (Simulation time: 0 hr 3 min 42 sec) 
Heartbeat CPU 0 instructions: 44000000 cycles: 283777723 heartbeat IPC: 0.161959 cumulative IPC: 0.151769 (Simulation time: 0 hr 3 min 47 sec) 
Heartbeat CPU 0 instructions: 45000000 cycles: 290236665 heartbeat IPC: 0.154824 cumulative IPC: 0.151837 (Simulation time: 0 hr 3 min 52 sec) 
Heartbeat CPU 0 instructions: 46000002 cycles: 296808691 heartbeat IPC: 0.15216 cumulative IPC: 0.151844 (Simulation time: 0 hr 3 min 58 sec) 
Heartbeat CPU 0 instructions: 47000000 cycles: 303309651 heartbeat IPC: 0.153823 cumulative IPC: 0.151887 (Simulation time: 0 hr 4 min 3 sec) 
Heartbeat CPU 0 instructions: 48000001 cycles: 309722631 heartbeat IPC: 0.155934 cumulative IPC: 0.151971 (Simulation time: 0 hr 4 min 8 sec) 
Heartbeat CPU 0 instructions: 49000003 cycles: 316768998 heartbeat IPC: 0.141917 cumulative IPC: 0.151747 (Simulation time: 0 hr 4 min 13 sec) 
Heartbeat CPU 0 instructions: 50000000 cycles: 323099969 heartbeat IPC: 0.157953 cumulative IPC: 0.151869 (Simulation time: 0 hr 4 min 19 sec) 
Heartbeat CPU 0 instructions: 51000002 cycles: 329219532 heartbeat IPC: 0.163411 cumulative IPC: 0.152084 (Simulation time: 0 hr 4 min 24 sec) 
Heartbeat CPU 0 instructions: 52000000 cycles: 335077081 heartbeat IPC: 0.17072 cumulative IPC: 0.15241 (Simulation time: 0 hr 4 min 29 sec) 
Heartbeat CPU 0 instructions: 53000001 cycles: 341138373 heartbeat IPC: 0.164981 cumulative IPC: 0.152633 (Simulation time: 0 hr 4 min 34 sec) 
Heartbeat CPU 0 instructions: 54000003 cycles: 347593918 heartbeat IPC: 0.154906 cumulative IPC: 0.152676 (Simulation time: 0 hr 4 min 39 sec) 
Heartbeat CPU 0 instructions: 55000000 cycles: 354101455 heartbeat IPC: 0.153668 cumulative IPC: 0.152694 (Simulation time: 0 hr 4 min 44 sec) 
Heartbeat CPU 0 instructions: 56000001 cycles: 361132064 heartbeat IPC: 0.142235 cumulative IPC: 0.15249 (Simulation time: 0 hr 4 min 49 sec) 
Heartbeat CPU 0 instructions: 57000001 cycles: 367697027 heartbeat IPC: 0.152324 cumulative IPC: 0.152487 (Simulation time: 0 hr 4 min 55 sec) 
Heartbeat CPU 0 instructions: 58000000 cycles: 373788364 heartbeat IPC: 0.164167 cumulative IPC: 0.152678 (Simulation time: 0 hr 5 min 0 sec) 
Heartbeat CPU 0 instructions: 59000000 cycles: 379833633 heartbeat IPC: 0.165419 cumulative IPC: 0.152881 (Simulation time: 0 hr 5 min 5 sec) 
Heartbeat CPU 0 instructions: 60000000 cycles: 385898097 heartbeat IPC: 0.164895 cumulative IPC: 0.15307 (Simulation time: 0 hr 5 min 10 sec) 
Heartbeat CPU 0 instructions: 61000001 cycles: 392121507 heartbeat IPC: 0.160684 cumulative IPC: 0.153191 (Simulation time: 0 hr 5 min 16 sec) 
Heartbeat CPU 0 instructions: 62000002 cycles: 398235627 heartbeat IPC: 0.163556 cumulative IPC: 0.15335 (Simulation time: 0 hr 5 min 21 sec) 
Heartbeat CPU 0 instructions: 63000000 cycles: 404489892 heartbeat IPC: 0.159891 cumulative IPC: 0.153451 (Simulation time: 0 hr 5 min 26 sec) 
Heartbeat CPU 0 instructions: 64000001 cycles: 410855068 heartbeat IPC: 0.157105 cumulative IPC: 0.153508 (Simulation time: 0 hr 5 min 32 sec) 
Heartbeat CPU 0 instructions: 65000002 cycles: 417525614 heartbeat IPC: 0.149913 cumulative IPC: 0.15345 (Simulation time: 0 hr 5 min 37 sec) 
Heartbeat CPU 0 instructions: 66000000 cycles: 423700698 heartbeat IPC: 0.161941 cumulative IPC: 0.153574 (Simulation time: 0 hr 5 min 43 sec) 
Heartbeat CPU 0 instructions: 67000000 cycles: 429989703 heartbeat IPC: 0.159008 cumulative IPC: 0.153654 (Simulation time: 0 hr 5 min 48 sec) 
Heartbeat CPU 0 instructions: 68000001 cycles: 436011922 heartbeat IPC: 0.166052 cumulative IPC: 0.153825 (Simulation time: 0 hr 5 min 53 sec) 
Heartbeat CPU 0 instructions: 69000002 cycles: 442183184 heartbeat IPC: 0.162042 cumulative IPC: 0.15394 (Simulation time: 0 hr 5 min 59 sec) 
Heartbeat CPU 0 instructions: 70000002 cycles: 448272379 heartbeat IPC: 0.164225 cumulative IPC: 0.15408 (Simulation time: 0 hr 6 min 4 sec) 
Heartbeat CPU 0 instructions: 71000000 cycles: 454399305 heartbeat IPC: 0.163214 cumulative IPC: 0.154203 (Simulation time: 0 hr 6 min 9 sec) 
Heartbeat CPU 0 instructions: 72000001 cycles: 460523070 heartbeat IPC: 0.163298 cumulative IPC: 0.154324 (Simulation time: 0 hr 6 min 14 sec) 
Heartbeat CPU 0 instructions: 73000002 cycles: 466593812 heartbeat IPC: 0.164725 cumulative IPC: 0.15446 (Simulation time: 0 hr 6 min 19 sec) 
Heartbeat CPU 0 instructions: 74000000 cycles: 472823189 heartbeat IPC: 0.160529 cumulative IPC: 0.15454 (Simulation time: 0 hr 6 min 24 sec) 
Heartbeat CPU 0 instructions: 75000000 cycles: 479118868 heartbeat IPC: 0.158839 cumulative IPC: 0.154596 (Simulation time: 0 hr 6 min 30 sec) 
Heartbeat CPU 0 instructions: 76000000 cycles: 485421393 heartbeat IPC: 0.158667 cumulative IPC: 0.154649 (Simulation time: 0 hr 6 min 35 sec) 
Heartbeat CPU 0 instructions: 77000000 cycles: 491736113 heartbeat IPC: 0.15836 cumulative IPC: 0.154697 (Simulation time: 0 hr 6 min 40 sec) 
Heartbeat CPU 0 instructions: 78000000 cycles: 498079199 heartbeat IPC: 0.157652 cumulative IPC: 0.154735 (Simulation time: 0 hr 6 min 46 sec) 
Heartbeat CPU 0 instructions: 79000002 cycles: 504452023 heartbeat IPC: 0.156917 cumulative IPC: 0.154762 (Simulation time: 0 hr 6 min 51 sec) 
Heartbeat CPU 0 instructions: 80000002 cycles: 510707419 heartbeat IPC: 0.159862 cumulative IPC: 0.154825 (Simulation time: 0 hr 6 min 56 sec) 
Heartbeat CPU 0 instructions: 81000001 cycles: 517029728 heartbeat IPC: 0.15817 cumulative IPC: 0.154866 (Simulation time: 0 hr 7 min 1 sec) 
Heartbeat CPU 0 instructions: 82000003 cycles: 523515828 heartbeat IPC: 0.154176 cumulative IPC: 0.154857 (Simulation time: 0 hr 7 min 7 sec) 
Heartbeat CPU 0 instructions: 83000002 cycles: 530031512 heartbeat IPC: 0.153476 cumulative IPC: 0.15484 (Simulation time: 0 hr 7 min 12 sec) 
Heartbeat CPU 0 instructions: 84000001 cycles: 536779108 heartbeat IPC: 0.148201 cumulative IPC: 0.154757 (Simulation time: 0 hr 7 min 17 sec) 
Heartbeat CPU 0 instructions: 85000003 cycles: 543965066 heartbeat IPC: 0.139161 cumulative IPC: 0.15455 (Simulation time: 0 hr 7 min 23 sec) 
Heartbeat CPU 0 instructions: 86000000 cycles: 550607825 heartbeat IPC: 0.150539 cumulative IPC: 0.154502 (Simulation time: 0 hr 7 min 28 sec) 
Heartbeat CPU 0 instructions: 87000001 cycles: 558048815 heartbeat IPC: 0.134391 cumulative IPC: 0.154234 (Simulation time: 0 hr 7 min 33 sec) 
Heartbeat CPU 0 instructions: 88000000 cycles: 564921926 heartbeat IPC: 0.145494 cumulative IPC: 0.154127 (Simulation time: 0 hr 7 min 39 sec) 
Heartbeat CPU 0 instructions: 89000001 cycles: 571345782 heartbeat IPC: 0.15567 cumulative IPC: 0.154144 (Simulation time: 0 hr 7 min 44 sec) 
Heartbeat CPU 0 instructions: 90000000 cycles: 577729920 heartbeat IPC: 0.156638 cumulative IPC: 0.154172 (Simulation time: 0 hr 7 min 49 sec) 
Heartbeat CPU 0 instructions: 91000000 cycles: 588649318 heartbeat IPC: 0.0915801 cumulative IPC: 0.15301 (Simulation time: 0 hr 7 min 55 sec) 
Heartbeat CPU 0 instructions: 92000003 cycles: 594824284 heartbeat IPC: 0.161945 cumulative IPC: 0.153103 (Simulation time: 0 hr 8 min 0 sec) 
Heartbeat CPU 0 instructions: 93000000 cycles: 601237727 heartbeat IPC: 0.155922 cumulative IPC: 0.153133 (Simulation time: 0 hr 8 min 6 sec) 
Heartbeat CPU 0 instructions: 94000001 cycles: 608303083 heartbeat IPC: 0.141536 cumulative IPC: 0.152998 (Simulation time: 0 hr 8 min 11 sec) 
Heartbeat CPU 0 instructions: 95000000 cycles: 614668249 heartbeat IPC: 0.157105 cumulative IPC: 0.153041 (Simulation time: 0 hr 8 min 16 sec) 
Heartbeat CPU 0 instructions: 96000000 cycles: 621157504 heartbeat IPC: 0.154101 cumulative IPC: 0.153052 (Simulation time: 0 hr 8 min 21 sec) 
Heartbeat CPU 0 instructions: 97000001 cycles: 627571384 heartbeat IPC: 0.155912 cumulative IPC: 0.153081 (Simulation time: 0 hr 8 min 26 sec) 
Heartbeat CPU 0 instructions: 98000000 cycles: 634294306 heartbeat IPC: 0.148745 cumulative IPC: 0.153035 (Simulation time: 0 hr 8 min 32 sec) 
Heartbeat CPU 0 instructions: 99000000 cycles: 640988937 heartbeat IPC: 0.149373 cumulative IPC: 0.152997 (Simulation time: 0 hr 8 min 37 sec) 
Heartbeat CPU 0 instructions: 100000001 cycles: 647192015 heartbeat IPC: 0.16121 cumulative IPC: 0.153076 (Simulation time: 0 hr 8 min 42 sec) 
Heartbeat CPU 0 instructions: 101000000 cycles: 653334931 heartbeat IPC: 0.162789 cumulative IPC: 0.153167 (Simulation time: 0 hr 8 min 47 sec) 
Heartbeat CPU 0 instructions: 102000000 cycles: 659415587 heartbeat IPC: 0.164456 cumulative IPC: 0.153271 (Simulation time: 0 hr 8 min 52 sec) 
Heartbeat CPU 0 instructions: 103000002 cycles: 665674515 heartbeat IPC: 0.159772 cumulative IPC: 0.153332 (Simulation time: 0 hr 8 min 57 sec) 
Heartbeat CPU 0 instructions: 104000002 cycles: 671779637 heartbeat IPC: 0.163797 cumulative IPC: 0.153428 (Simulation time: 0 hr 9 min 2 sec) 
Heartbeat CPU 0 instructions: 105000000 cycles: 683315914 heartbeat IPC: 0.0866829 cumulative IPC: 0.1523 (Simulation time: 0 hr 9 min 9 sec) 
Heartbeat CPU 0 instructions: 106000002 cycles: 692433090 heartbeat IPC: 0.109683 cumulative IPC: 0.151738 (Simulation time: 0 hr 9 min 15 sec) 
Heartbeat CPU 0 instructions: 107000002 cycles: 698962041 heartbeat IPC: 0.153164 cumulative IPC: 0.151752 (Simulation time: 0 hr 9 min 20 sec) 
Heartbeat CPU 0 instructions: 108000000 cycles: 705269937 heartbeat IPC: 0.158531 cumulative IPC: 0.151812 (Simulation time: 0 hr 9 min 25 sec) 
Heartbeat CPU 0 instructions: 109000000 cycles: 711727375 heartbeat IPC: 0.15486 cumulative IPC: 0.15184 (Simulation time: 0 hr 9 min 30 sec) 
Heartbeat CPU 0 instructions: 110000000 cycles: 718438907 heartbeat IPC: 0.148997 cumulative IPC: 0.151814 (Simulation time: 0 hr 9 min 36 sec) 
Heartbeat CPU 0 instructions: 111000000 cycles: 726434788 heartbeat IPC: 0.125064 cumulative IPC: 0.151519 (Simulation time: 0 hr 9 min 41 sec) 
Heartbeat CPU 0 instructions: 112000000 cycles: 732967537 heartbeat IPC: 0.153075 cumulative IPC: 0.151533 (Simulation time: 0 hr 9 min 46 sec) 
Heartbeat CPU 0 instructions: 113000000 cycles: 739346147 heartbeat IPC: 0.156774 cumulative IPC: 0.151578 (Simulation time: 0 hr 9 min 51 sec) 
Heartbeat CPU 0 instructions: 114000000 cycles: 745694725 heartbeat IPC: 0.157516 cumulative IPC: 0.151629 (Simulation time: 0 hr 9 min 56 sec) 
Heartbeat CPU 0 instructions: 115000001 cycles: 752927189 heartbeat IPC: 0.138266 cumulative IPC: 0.1515 (Simulation time: 0 hr 10 min 1 sec) 
Heartbeat CPU 0 instructions: 116000001 cycles: 760403595 heartbeat IPC: 0.133754 cumulative IPC: 0.151326 (Simulation time: 0 hr 10 min 7 sec) 
Heartbeat CPU 0 instructions: 117000001 cycles: 766613390 heartbeat IPC: 0.161036 cumulative IPC: 0.151404 (Simulation time: 0 hr 10 min 12 sec) 
Heartbeat CPU 0 instructions: 118000000 cycles: 772832017 heartbeat IPC: 0.160807 cumulative IPC: 0.15148 (Simulation time: 0 hr 10 min 17 sec) 
Heartbeat CPU 0 instructions: 119000000 cycles: 779373867 heartbeat IPC: 0.152862 cumulative IPC: 0.151492 (Simulation time: 0 hr 10 min 22 sec) 
Heartbeat CPU 0 instructions: 120000000 cycles: 785612665 heartbeat IPC: 0.160287 cumulative IPC: 0.151561 (Simulation time: 0 hr 10 min 28 sec) 
Heartbeat CPU 0 instructions: 121000000 cycles: 791920672 heartbeat IPC: 0.158529 cumulative IPC: 0.151617 (Simulation time: 0 hr 10 min 33 sec) 
Heartbeat CPU 0 instructions: 122000001 cycles: 798107438 heartbeat IPC: 0.161636 cumulative IPC: 0.151695 (Simulation time: 0 hr 10 min 38 sec) 
Heartbeat CPU 0 instructions: 123000000 cycles: 804558550 heartbeat IPC: 0.155012 cumulative IPC: 0.151721 (Simulation time: 0 hr 10 min 44 sec) 
Heartbeat CPU 0 instructions: 124000001 cycles: 810889923 heartbeat IPC: 0.157944 cumulative IPC: 0.15177 (Simulation time: 0 hr 10 min 49 sec) 
Heartbeat CPU 0 instructions: 125000000 cycles: 817548520 heartbeat IPC: 0.150182 cumulative IPC: 0.151757 (Simulation time: 0 hr 10 min 55 sec) 
Heartbeat CPU 0 instructions: 126000000 cycles: 824252957 heartbeat IPC: 0.149155 cumulative IPC: 0.151736 (Simulation time: 0 hr 11 min 0 sec) 
Heartbeat CPU 0 instructions: 127000003 cycles: 831211775 heartbeat IPC: 0.143703 cumulative IPC: 0.151669 (Simulation time: 0 hr 11 min 6 sec) 
Heartbeat CPU 0 instructions: 128000002 cycles: 838295076 heartbeat IPC: 0.141177 cumulative IPC: 0.15158 (Simulation time: 0 hr 11 min 11 sec) 
Heartbeat CPU 0 instructions: 129000002 cycles: 844779923 heartbeat IPC: 0.154206 cumulative IPC: 0.1516 (Simulation time: 0 hr 11 min 16 sec) 
Heartbeat CPU 0 instructions: 130000000 cycles: 850951236 heartbeat IPC: 0.16204 cumulative IPC: 0.151676 (Simulation time: 0 hr 11 min 21 sec) 
Heartbeat CPU 0 instructions: 131000001 cycles: 856962227 heartbeat IPC: 0.166362 cumulative IPC: 0.151779 (Simulation time: 0 hr 11 min 26 sec) 
Heartbeat CPU 0 instructions: 132000000 cycles: 862965097 heartbeat IPC: 0.166587 cumulative IPC: 0.151882 (Simulation time: 0 hr 11 min 31 sec) 
Heartbeat CPU 0 instructions: 133000001 cycles: 869603432 heartbeat IPC: 0.15064 cumulative IPC: 0.151872 (Simulation time: 0 hr 11 min 37 sec) 
Heartbeat CPU 0 instructions: 134000001 cycles: 875675994 heartbeat IPC: 0.164675 cumulative IPC: 0.151961 (Simulation time: 0 hr 11 min 42 sec) 
Heartbeat CPU 0 instructions: 135000000 cycles: 881882637 heartbeat IPC: 0.161118 cumulative IPC: 0.152026 (Simulation time: 0 hr 11 min 47 sec) 
Heartbeat CPU 0 instructions: 136000000 cycles: 888132282 heartbeat IPC: 0.160009 cumulative IPC: 0.152082 (Simulation time: 0 hr 11 min 52 sec) 
Heartbeat CPU 0 instructions: 137000000 cycles: 894427327 heartbeat IPC: 0.158855 cumulative IPC: 0.15213 (Simulation time: 0 hr 11 min 57 sec) 
Heartbeat CPU 0 instructions: 138000000 cycles: 900685917 heartbeat IPC: 0.15978 cumulative IPC: 0.152183 (Simulation time: 0 hr 12 min 2 sec) 
Heartbeat CPU 0 instructions: 139000003 cycles: 906931751 heartbeat IPC: 0.160107 cumulative IPC: 0.152237 (Simulation time: 0 hr 12 min 7 sec) 
Heartbeat CPU 0 instructions: 140000001 cycles: 913889539 heartbeat IPC: 0.143724 cumulative IPC: 0.152173 (Simulation time: 0 hr 12 min 13 sec) 
Heartbeat CPU 0 instructions: 141000002 cycles: 920379156 heartbeat IPC: 0.154092 cumulative IPC: 0.152186 (Simulation time: 0 hr 12 min 19 sec) 
Heartbeat CPU 0 instructions: 142000000 cycles: 926497224 heartbeat IPC: 0.16345 cumulative IPC: 0.152261 (Simulation time: 0 hr 12 min 24 sec) 
Heartbeat CPU 0 instructions: 143000000 cycles: 932757525 heartbeat IPC: 0.159737 cumulative IPC: 0.152311 (Simulation time: 0 hr 12 min 29 sec) 
Heartbeat CPU 0 instructions: 144000001 cycles: 939146275 heartbeat IPC: 0.156525 cumulative IPC: 0.152339 (Simulation time: 0 hr 12 min 34 sec) 
Heartbeat CPU 0 instructions: 145000000 cycles: 945457399 heartbeat IPC: 0.15845 cumulative IPC: 0.15238 (Simulation time: 0 hr 12 min 39 sec) 
Heartbeat CPU 0 instructions: 146000002 cycles: 953352013 heartbeat IPC: 0.126669 cumulative IPC: 0.152167 (Simulation time: 0 hr 12 min 45 sec) 
Heartbeat CPU 0 instructions: 147000001 cycles: 959535935 heartbeat IPC: 0.16171 cumulative IPC: 0.152229 (Simulation time: 0 hr 12 min 50 sec) 
Heartbeat CPU 0 instructions: 148000000 cycles: 965598676 heartbeat IPC: 0.164942 cumulative IPC: 0.152309 (Simulation time: 0 hr 12 min 55 sec) 
Heartbeat CPU 0 instructions: 149000001 cycles: 971668379 heartbeat IPC: 0.164753 cumulative IPC: 0.152386 (Simulation time: 0 hr 13 min 0 sec) 
Heartbeat CPU 0 instructions: 150000000 cycles: 978013358 heartbeat IPC: 0.157605 cumulative IPC: 0.15242 (Simulation time: 0 hr 13 min 6 sec) 
Heartbeat CPU 0 instructions: 151000002 cycles: 984731270 heartbeat IPC: 0.148856 cumulative IPC: 0.152396 (Simulation time: 0 hr 13 min 11 sec) 
Heartbeat CPU 0 instructions: 152000001 cycles: 990938317 heartbeat IPC: 0.161107 cumulative IPC: 0.152451 (Simulation time: 0 hr 13 min 16 sec) 
Heartbeat CPU 0 instructions: 153000002 cycles: 997226692 heartbeat IPC: 0.159024 cumulative IPC: 0.152492 (Simulation time: 0 hr 13 min 21 sec) 
Heartbeat CPU 0 instructions: 154000000 cycles: 1003650320 heartbeat IPC: 0.155675 cumulative IPC: 0.152512 (Simulation time: 0 hr 13 min 26 sec) 
Heartbeat CPU 0 instructions: 155000003 cycles: 1010094702 heartbeat IPC: 0.155174 cumulative IPC: 0.152529 (Simulation time: 0 hr 13 min 31 sec) 
Heartbeat CPU 0 instructions: 156000000 cycles: 1016435921 heartbeat IPC: 0.157698 cumulative IPC: 0.152562 (Simulation time: 0 hr 13 min 37 sec) 
Heartbeat CPU 0 instructions: 157000003 cycles: 1023075182 heartbeat IPC: 0.15062 cumulative IPC: 0.152549 (Simulation time: 0 hr 13 min 42 sec) 
Heartbeat CPU 0 instructions: 158000000 cycles: 1030055643 heartbeat IPC: 0.143257 cumulative IPC: 0.152486 (Simulation time: 0 hr 13 min 47 sec) 
Heartbeat CPU 0 instructions: 159000000 cycles: 1036800841 heartbeat IPC: 0.148254 cumulative IPC: 0.152458 (Simulation time: 0 hr 13 min 53 sec) 
Heartbeat CPU 0 instructions: 160000002 cycles: 1043662209 heartbeat IPC: 0.145744 cumulative IPC: 0.152414 (Simulation time: 0 hr 13 min 58 sec) 
Heartbeat CPU 0 instructions: 161000001 cycles: 1050295552 heartbeat IPC: 0.150753 cumulative IPC: 0.152404 (Simulation time: 0 hr 14 min 3 sec) 
Heartbeat CPU 0 instructions: 162000001 cycles: 1057421855 heartbeat IPC: 0.140325 cumulative IPC: 0.152322 (Simulation time: 0 hr 14 min 9 sec) 
Heartbeat CPU 0 instructions: 163000002 cycles: 1064277576 heartbeat IPC: 0.145864 cumulative IPC: 0.152281 (Simulation time: 0 hr 14 min 14 sec) 
Heartbeat CPU 0 instructions: 164000000 cycles: 1071656997 heartbeat IPC: 0.135512 cumulative IPC: 0.152165 (Simulation time: 0 hr 14 min 20 sec) 
Heartbeat CPU 0 instructions: 165000000 cycles: 1078323805 heartbeat IPC: 0.149997 cumulative IPC: 0.152152 (Simulation time: 0 hr 14 min 25 sec) 
Heartbeat CPU 0 instructions: 166000002 cycles: 1084438468 heartbeat IPC: 0.163542 cumulative IPC: 0.152216 (Simulation time: 0 hr 14 min 30 sec) 
Heartbeat CPU 0 instructions: 167000001 cycles: 1091396078 heartbeat IPC: 0.143727 cumulative IPC: 0.152162 (Simulation time: 0 hr 14 min 36 sec) 
Heartbeat CPU 0 instructions: 168000002 cycles: 1097946388 heartbeat IPC: 0.152665 cumulative IPC: 0.152165 (Simulation time: 0 hr 14 min 41 sec) 
Heartbeat CPU 0 instructions: 169000000 cycles: 1104401532 heartbeat IPC: 0.154915 cumulative IPC: 0.152181 (Simulation time: 0 hr 14 min 46 sec) 
Heartbeat CPU 0 instructions: 170000001 cycles: 1110777121 heartbeat IPC: 0.156848 cumulative IPC: 0.152208 (Simulation time: 0 hr 14 min 51 sec) 
Heartbeat CPU 0 instructions: 171000000 cycles: 1116787932 heartbeat IPC: 0.166367 cumulative IPC: 0.152284 (Simulation time: 0 hr 14 min 56 sec) 
Heartbeat CPU 0 instructions: 172000003 cycles: 1123004894 heartbeat IPC: 0.160851 cumulative IPC: 0.152331 (Simulation time: 0 hr 15 min 2 sec) 
Heartbeat CPU 0 instructions: 173000000 cycles: 1129335443 heartbeat IPC: 0.157964 cumulative IPC: 0.152363 (Simulation time: 0 hr 15 min 7 sec) 
Heartbeat CPU 0 instructions: 174000000 cycles: 1136353763 heartbeat IPC: 0.142484 cumulative IPC: 0.152302 (Simulation time: 0 hr 15 min 12 sec) 
Heartbeat CPU 0 instructions: 175000003 cycles: 1143412126 heartbeat IPC: 0.141676 cumulative IPC: 0.152236 (Simulation time: 0 hr 15 min 18 sec) 
Heartbeat CPU 0 instructions: 176000000 cycles: 1150234765 heartbeat IPC: 0.14657 cumulative IPC: 0.152203 (Simulation time: 0 hr 15 min 23 sec) 
Heartbeat CPU 0 instructions: 177000002 cycles: 1156897069 heartbeat IPC: 0.150099 cumulative IPC: 0.152191 (Simulation time: 0 hr 15 min 28 sec) 
Heartbeat CPU 0 instructions: 178000000 cycles: 1163544051 heartbeat IPC: 0.150444 cumulative IPC: 0.152181 (Simulation time: 0 hr 15 min 34 sec) 
Heartbeat CPU 0 instructions: 179000003 cycles: 1169911856 heartbeat IPC: 0.15704 cumulative IPC: 0.152207 (Simulation time: 0 hr 15 min 39 sec) 
Heartbeat CPU 0 instructions: 180000002 cycles: 1176824528 heartbeat IPC: 0.144662 cumulative IPC: 0.152163 (Simulation time: 0 hr 15 min 44 sec) 
Heartbeat CPU 0 instructions: 181000001 cycles: 1183722777 heartbeat IPC: 0.144964 cumulative IPC: 0.152121 (Simulation time: 0 hr 15 min 50 sec) 
Heartbeat CPU 0 instructions: 182000000 cycles: 1190930243 heartbeat IPC: 0.138745 cumulative IPC: 0.15204 (Simulation time: 0 hr 15 min 55 sec) 
Heartbeat CPU 0 instructions: 183000001 cycles: 1197915406 heartbeat IPC: 0.143161 cumulative IPC: 0.151988 (Simulation time: 0 hr 16 min 0 sec) 
Heartbeat CPU 0 instructions: 184000002 cycles: 1205259324 heartbeat IPC: 0.136167 cumulative IPC: 0.151892 (Simulation time: 0 hr 16 min 6 sec) 
Heartbeat CPU 0 instructions: 185000000 cycles: 1212317189 heartbeat IPC: 0.141686 cumulative IPC: 0.151832 (Simulation time: 0 hr 16 min 11 sec) 
Heartbeat CPU 0 instructions: 186000000 cycles: 1219069905 heartbeat IPC: 0.148089 cumulative IPC: 0.151811 (Simulation time: 0 hr 16 min 17 sec) 
Heartbeat CPU 0 instructions: 187000000 cycles: 1225753665 heartbeat IPC: 0.149616 cumulative IPC: 0.151799 (Simulation time: 0 hr 16 min 22 sec) 
Heartbeat CPU 0 instructions: 188000000 cycles: 1232336644 heartbeat IPC: 0.151907 cumulative IPC: 0.1518 (Simulation time: 0 hr 16 min 27 sec) 
Heartbeat CPU 0 instructions: 189000000 cycles: 1243016619 heartbeat IPC: 0.0936332 cumulative IPC: 0.1513 (Simulation time: 0 hr 16 min 34 sec) 
Heartbeat CPU 0 instructions: 190000003 cycles: 1250568981 heartbeat IPC: 0.132409 cumulative IPC: 0.151186 (Simulation time: 0 hr 16 min 39 sec) 
Heartbeat CPU 0 instructions: 191000000 cycles: 1257979604 heartbeat IPC: 0.134941 cumulative IPC: 0.15109 (Simulation time: 0 hr 16 min 45 sec) 
Heartbeat CPU 0 instructions: 192000001 cycles: 1265512643 heartbeat IPC: 0.132749 cumulative IPC: 0.150981 (Simulation time: 0 hr 16 min 50 sec) 
Heartbeat CPU 0 instructions: 193000000 cycles: 1272284694 heartbeat IPC: 0.147666 cumulative IPC: 0.150963 (Simulation time: 0 hr 16 min 56 sec) 
Heartbeat CPU 0 instructions: 194000002 cycles: 1279232234 heartbeat IPC: 0.143936 cumulative IPC: 0.150925 (Simulation time: 0 hr 17 min 1 sec) 
Heartbeat CPU 0 instructions: 195000000 cycles: 1286245088 heartbeat IPC: 0.142595 cumulative IPC: 0.15088 (Simulation time: 0 hr 17 min 6 sec) 
Heartbeat CPU 0 instructions: 196000001 cycles: 1292614702 heartbeat IPC: 0.156996 cumulative IPC: 0.15091 (Simulation time: 0 hr 17 min 12 sec) 
Heartbeat CPU 0 instructions: 197000001 cycles: 1303518443 heartbeat IPC: 0.0917116 cumulative IPC: 0.150415 (Simulation time: 0 hr 17 min 18 sec) 
Heartbeat CPU 0 instructions: 198000000 cycles: 1310441417 heartbeat IPC: 0.144446 cumulative IPC: 0.150383 (Simulation time: 0 hr 17 min 24 sec) 
Heartbeat CPU 0 instructions: 199000000 cycles: 1317588894 heartbeat IPC: 0.13991 cumulative IPC: 0.150326 (Simulation time: 0 hr 17 min 29 sec) 
Heartbeat CPU 0 instructions: 200000002 cycles: 1324537490 heartbeat IPC: 0.143914 cumulative IPC: 0.150293 (Simulation time: 0 hr 17 min 34 sec) 
Heartbeat CPU 0 instructions: 201000000 cycles: 1331536578 heartbeat IPC: 0.142875 cumulative IPC: 0.150254 (Simulation time: 0 hr 17 min 40 sec) 
Heartbeat CPU 0 instructions: 202000001 cycles: 1338988771 heartbeat IPC: 0.134189 cumulative IPC: 0.150164 (Simulation time: 0 hr 17 min 45 sec) 
Heartbeat CPU 0 instructions: 203000001 cycles: 1346064364 heartbeat IPC: 0.141331 cumulative IPC: 0.150118 (Simulation time: 0 hr 17 min 51 sec) 
Heartbeat CPU 0 instructions: 204000000 cycles: 1353639289 heartbeat IPC: 0.132014 cumulative IPC: 0.150016 (Simulation time: 0 hr 17 min 56 sec) 
Heartbeat CPU 0 instructions: 205000001 cycles: 1360788984 heartbeat IPC: 0.139866 cumulative IPC: 0.149963 (Simulation time: 0 hr 18 min 2 sec) 
Heartbeat CPU 0 instructions: 206000001 cycles: 1367716161 heartbeat IPC: 0.144359 cumulative IPC: 0.149935 (Simulation time: 0 hr 18 min 7 sec) 
Heartbeat CPU 0 instructions: 207000001 cycles: 1374284308 heartbeat IPC: 0.15225 cumulative IPC: 0.149946 (Simulation time: 0 hr 18 min 12 sec) 
Heartbeat CPU 0 instructions: 208000000 cycles: 1381225090 heartbeat IPC: 0.144076 cumulative IPC: 0.149916 (Simulation time: 0 hr 18 min 17 sec) 
Heartbeat CPU 0 instructions: 209000000 cycles: 1388032538 heartbeat IPC: 0.146898 cumulative IPC: 0.149901 (Simulation time: 0 hr 18 min 23 sec) 
Heartbeat CPU 0 instructions: 210000003 cycles: 1396379436 heartbeat IPC: 0.119805 cumulative IPC: 0.149721 (Simulation time: 0 hr 18 min 29 sec) 
Heartbeat CPU 0 instructions: 211000000 cycles: 1403375692 heartbeat IPC: 0.142933 cumulative IPC: 0.149687 (Simulation time: 0 hr 18 min 34 sec) 
Heartbeat CPU 0 instructions: 212000000 cycles: 1410142834 heartbeat IPC: 0.147773 cumulative IPC: 0.149678 (Simulation time: 0 hr 18 min 39 sec) 
Heartbeat CPU 0 instructions: 213000001 cycles: 1417377069 heartbeat IPC: 0.138232 cumulative IPC: 0.14962 (Simulation time: 0 hr 18 min 45 sec) 
Heartbeat CPU 0 instructions: 214000002 cycles: 1424313818 heartbeat IPC: 0.14416 cumulative IPC: 0.149593 (Simulation time: 0 hr 18 min 50 sec) 
Heartbeat CPU 0 instructions: 215000001 cycles: 1431629189 heartbeat IPC: 0.136698 cumulative IPC: 0.149527 (Simulation time: 0 hr 18 min 55 sec) 
Heartbeat CPU 0 instructions: 216000000 cycles: 1438286025 heartbeat IPC: 0.150221 cumulative IPC: 0.149531 (Simulation time: 0 hr 19 min 1 sec) 
Heartbeat CPU 0 instructions: 217000000 cycles: 1445706231 heartbeat IPC: 0.134767 cumulative IPC: 0.149455 (Simulation time: 0 hr 19 min 6 sec) 
Heartbeat CPU 0 instructions: 218000000 cycles: 1452658547 heartbeat IPC: 0.143837 cumulative IPC: 0.149428 (Simulation time: 0 hr 19 min 11 sec) 
Heartbeat CPU 0 instructions: 219000000 cycles: 1459877634 heartbeat IPC: 0.138522 cumulative IPC: 0.149374 (Simulation time: 0 hr 19 min 17 sec) 
Heartbeat CPU 0 instructions: 220000000 cycles: 1466613344 heartbeat IPC: 0.148462 cumulative IPC: 0.14937 (Simulation time: 0 hr 19 min 22 sec) 
Heartbeat CPU 0 instructions: 221000000 cycles: 1472943176 heartbeat IPC: 0.157982 cumulative IPC: 0.149407 (Simulation time: 0 hr 19 min 27 sec) 
Heartbeat CPU 0 instructions: 222000000 cycles: 1479082321 heartbeat IPC: 0.162889 cumulative IPC: 0.149463 (Simulation time: 0 hr 19 min 32 sec) 
Heartbeat CPU 0 instructions: 223000001 cycles: 1485378386 heartbeat IPC: 0.15883 cumulative IPC: 0.149502 (Simulation time: 0 hr 19 min 37 sec) 
Heartbeat CPU 0 instructions: 224000001 cycles: 1492235881 heartbeat IPC: 0.145826 cumulative IPC: 0.149486 (Simulation time: 0 hr 19 min 42 sec) 
Heartbeat CPU 0 instructions: 225000001 cycles: 1499299414 heartbeat IPC: 0.141572 cumulative IPC: 0.149448 (Simulation time: 0 hr 19 min 48 sec) 
Heartbeat CPU 0 instructions: 226000003 cycles: 1506330212 heartbeat IPC: 0.142232 cumulative IPC: 0.149415 (Simulation time: 0 hr 19 min 53 sec) 
Heartbeat CPU 0 instructions: 227000003 cycles: 1514002633 heartbeat IPC: 0.130337 cumulative IPC: 0.149318 (Simulation time: 0 hr 19 min 59 sec) 
Heartbeat CPU 0 instructions: 228000000 cycles: 1521542623 heartbeat IPC: 0.132626 cumulative IPC: 0.149235 (Simulation time: 0 hr 20 min 4 sec) 
Heartbeat CPU 0 instructions: 229000000 cycles: 1529023167 heartbeat IPC: 0.13368 cumulative IPC: 0.149159 (Simulation time: 0 hr 20 min 10 sec) 
Heartbeat CPU 0 instructions: 230000001 cycles: 1536599860 heartbeat IPC: 0.131984 cumulative IPC: 0.149074 (Simulation time: 0 hr 20 min 16 sec) 
Heartbeat CPU 0 instructions: 231000000 cycles: 1544219081 heartbeat IPC: 0.131247 cumulative IPC: 0.148986 (Simulation time: 0 hr 20 min 21 sec) 
Heartbeat CPU 0 instructions: 232000000 cycles: 1551685310 heartbeat IPC: 0.133936 cumulative IPC: 0.148914 (Simulation time: 0 hr 20 min 27 sec) 
Heartbeat CPU 0 instructions: 233000000 cycles: 1558201630 heartbeat IPC: 0.153461 cumulative IPC: 0.148933 (Simulation time: 0 hr 20 min 32 sec) 
Heartbeat CPU 0 instructions: 234000000 cycles: 1564408139 heartbeat IPC: 0.161121 cumulative IPC: 0.148981 (Simulation time: 0 hr 20 min 37 sec) 
Heartbeat CPU 0 instructions: 235000001 cycles: 1571104685 heartbeat IPC: 0.149331 cumulative IPC: 0.148983 (Simulation time: 0 hr 20 min 42 sec) 
Heartbeat CPU 0 instructions: 236000003 cycles: 1578662034 heartbeat IPC: 0.132322 cumulative IPC: 0.148903 (Simulation time: 0 hr 20 min 48 sec) 
Heartbeat CPU 0 instructions: 237000000 cycles: 1585926879 heartbeat IPC: 0.137649 cumulative IPC: 0.148851 (Simulation time: 0 hr 20 min 53 sec) 
Heartbeat CPU 0 instructions: 238000000 cycles: 1592181416 heartbeat IPC: 0.159884 cumulative IPC: 0.148895 (Simulation time: 0 hr 20 min 58 sec) 
Heartbeat CPU 0 instructions: 239000000 cycles: 1598645954 heartbeat IPC: 0.15469 cumulative IPC: 0.148918 (Simulation time: 0 hr 21 min 3 sec) 
Heartbeat CPU 0 instructions: 240000003 cycles: 1605026696 heartbeat IPC: 0.156722 cumulative IPC: 0.148949 (Simulation time: 0 hr 21 min 8 sec) 
Heartbeat CPU 0 instructions: 241000001 cycles: 1611552666 heartbeat IPC: 0.153234 cumulative IPC: 0.148967 (Simulation time: 0 hr 21 min 14 sec) 
Heartbeat CPU 0 instructions: 242000000 cycles: 1617917841 heartbeat IPC: 0.157105 cumulative IPC: 0.148999 (Simulation time: 0 hr 21 min 19 sec) 
Heartbeat CPU 0 instructions: 243000000 cycles: 1624123905 heartbeat IPC: 0.161133 cumulative IPC: 0.149045 (Simulation time: 0 hr 21 min 24 sec) 
Heartbeat CPU 0 instructions: 244000000 cycles: 1630758284 heartbeat IPC: 0.15073 cumulative IPC: 0.149052 (Simulation time: 0 hr 21 min 29 sec) 
Heartbeat CPU 0 instructions: 245000002 cycles: 1637360582 heartbeat IPC: 0.151463 cumulative IPC: 0.149062 (Simulation time: 0 hr 21 min 34 sec) 
Heartbeat CPU 0 instructions: 246000000 cycles: 1644352655 heartbeat IPC: 0.143019 cumulative IPC: 0.149036 (Simulation time: 0 hr 21 min 39 sec) 
Heartbeat CPU 0 instructions: 247000002 cycles: 1651462499 heartbeat IPC: 0.14065 cumulative IPC: 0.149 (Simulation time: 0 hr 21 min 45 sec) 
Heartbeat CPU 0 instructions: 248000000 cycles: 1658734848 heartbeat IPC: 0.137507 cumulative IPC: 0.148949 (Simulation time: 0 hr 21 min 50 sec) 
Heartbeat CPU 0 instructions: 249000003 cycles: 1665366401 heartbeat IPC: 0.150795 cumulative IPC: 0.148957 (Simulation time: 0 hr 21 min 56 sec) 
Heartbeat CPU 0 instructions: 250000003 cycles: 1671558970 heartbeat IPC: 0.161484 cumulative IPC: 0.149003 (Simulation time: 0 hr 22 min 1 sec) 
Heartbeat CPU 0 instructions: 251000002 cycles: 1678936957 heartbeat IPC: 0.135538 cumulative IPC: 0.148944 (Simulation time: 0 hr 22 min 6 sec) 
Heartbeat CPU 0 instructions: 252000000 cycles: 1684990837 heartbeat IPC: 0.165183 cumulative IPC: 0.149002 (Simulation time: 0 hr 22 min 11 sec) 
Heartbeat CPU 0 instructions: 253000000 cycles: 1691001067 heartbeat IPC: 0.166383 cumulative IPC: 0.149064 (Simulation time: 0 hr 22 min 16 sec) 
Heartbeat CPU 0 instructions: 254000002 cycles: 1697053216 heartbeat IPC: 0.165231 cumulative IPC: 0.149122 (Simulation time: 0 hr 22 min 21 sec) 
Heartbeat CPU 0 instructions: 255000003 cycles: 1703335957 heartbeat IPC: 0.159166 cumulative IPC: 0.149159 (Simulation time: 0 hr 22 min 26 sec) 
Heartbeat CPU 0 instructions: 256000001 cycles: 1710354969 heartbeat IPC: 0.14247 cumulative IPC: 0.149131 (Simulation time: 0 hr 22 min 32 sec) 
Heartbeat CPU 0 instructions: 257000002 cycles: 1717164493 heartbeat IPC: 0.146853 cumulative IPC: 0.149122 (Simulation time: 0 hr 22 min 37 sec) 
Heartbeat CPU 0 instructions: 258000002 cycles: 1724179026 heartbeat IPC: 0.142561 cumulative IPC: 0.149096 (Simulation time: 0 hr 22 min 42 sec) 
Heartbeat CPU 0 instructions: 259000001 cycles: 1730811511 heartbeat IPC: 0.150773 cumulative IPC: 0.149102 (Simulation time: 0 hr 22 min 48 sec) 
Heartbeat CPU 0 instructions: 260000002 cycles: 1737404471 heartbeat IPC: 0.151677 cumulative IPC: 0.149112 (Simulation time: 0 hr 22 min 53 sec) 
Heartbeat CPU 0 instructions: 261000003 cycles: 1744353324 heartbeat IPC: 0.143909 cumulative IPC: 0.149091 (Simulation time: 0 hr 22 min 58 sec) 
Heartbeat CPU 0 instructions: 262000002 cycles: 1750445952 heartbeat IPC: 0.164133 cumulative IPC: 0.149143 (Simulation time: 0 hr 23 min 3 sec) 
Heartbeat CPU 0 instructions: 263000001 cycles: 1756865636 heartbeat IPC: 0.155771 cumulative IPC: 0.149168 (Simulation time: 0 hr 23 min 9 sec) 
Heartbeat CPU 0 instructions: 264000000 cycles: 1763720352 heartbeat IPC: 0.145885 cumulative IPC: 0.149155 (Simulation time: 0 hr 23 min 14 sec) 
Heartbeat CPU 0 instructions: 265000001 cycles: 1770423587 heartbeat IPC: 0.149182 cumulative IPC: 0.149155 (Simulation time: 0 hr 23 min 19 sec) 
Heartbeat CPU 0 instructions: 266000002 cycles: 1776561250 heartbeat IPC: 0.162929 cumulative IPC: 0.149203 (Simulation time: 0 hr 23 min 24 sec) 
Heartbeat CPU 0 instructions: 267000003 cycles: 1782823743 heartbeat IPC: 0.159681 cumulative IPC: 0.149239 (Simulation time: 0 hr 23 min 29 sec) 
Heartbeat CPU 0 instructions: 268000002 cycles: 1789151360 heartbeat IPC: 0.158037 cumulative IPC: 0.149271 (Simulation time: 0 hr 23 min 35 sec) 
Heartbeat CPU 0 instructions: 269000000 cycles: 1795531993 heartbeat IPC: 0.156724 cumulative IPC: 0.149297 (Simulation time: 0 hr 23 min 40 sec) 
Heartbeat CPU 0 instructions: 270000002 cycles: 1801972346 heartbeat IPC: 0.155271 cumulative IPC: 0.149318 (Simulation time: 0 hr 23 min 45 sec) 
Heartbeat CPU 0 instructions: 271000000 cycles: 1808088144 heartbeat IPC: 0.163511 cumulative IPC: 0.149366 (Simulation time: 0 hr 23 min 50 sec) 
Heartbeat CPU 0 instructions: 272000002 cycles: 1814457388 heartbeat IPC: 0.157005 cumulative IPC: 0.149393 (Simulation time: 0 hr 23 min 55 sec) 
Heartbeat CPU 0 instructions: 273000000 cycles: 1820872635 heartbeat IPC: 0.155878 cumulative IPC: 0.149416 (Simulation time: 0 hr 24 min 0 sec) 
Heartbeat CPU 0 instructions: 274000000 cycles: 1827547068 heartbeat IPC: 0.149825 cumulative IPC: 0.149418 (Simulation time: 0 hr 24 min 5 sec) 
Heartbeat CPU 0 instructions: 275000000 cycles: 1834016293 heartbeat IPC: 0.154578 cumulative IPC: 0.149436 (Simulation time: 0 hr 24 min 11 sec) 
Heartbeat CPU 0 instructions: 276000000 cycles: 1839825544 heartbeat IPC: 0.172139 cumulative IPC: 0.149507 (Simulation time: 0 hr 24 min 17 sec) 
Heartbeat CPU 0 instructions: 277000000 cycles: 1850208869 heartbeat IPC: 0.0963083 cumulative IPC: 0.149209 (Simulation time: 0 hr 24 min 24 sec) 
Heartbeat CPU 0 instructions: 278000000 cycles: 1856584745 heartbeat IPC: 0.156841 cumulative IPC: 0.149235 (Simulation time: 0 hr 24 min 29 sec) 
Heartbeat CPU 0 instructions: 279000002 cycles: 1862870161 heartbeat IPC: 0.159099 cumulative IPC: 0.149268 (Simulation time: 0 hr 24 min 34 sec) 
Heartbeat CPU 0 instructions: 280000001 cycles: 1869241539 heartbeat IPC: 0.156952 cumulative IPC: 0.149295 (Simulation time: 0 hr 24 min 39 sec) 
Heartbeat CPU 0 instructions: 281000001 cycles: 1875725468 heartbeat IPC: 0.154227 cumulative IPC: 0.149312 (Simulation time: 0 hr 24 min 45 sec) 
Heartbeat CPU 0 instructions: 282000001 cycles: 1882298051 heartbeat IPC: 0.152147 cumulative IPC: 0.149322 (Simulation time: 0 hr 24 min 50 sec) 
Heartbeat CPU 0 instructions: 283000000 cycles: 1889102719 heartbeat IPC: 0.146958 cumulative IPC: 0.149313 (Simulation time: 0 hr 24 min 55 sec) 
Heartbeat CPU 0 instructions: 284000003 cycles: 1895443029 heartbeat IPC: 0.157721 cumulative IPC: 0.149341 (Simulation time: 0 hr 25 min 0 sec) 
Heartbeat CPU 0 instructions: 285000001 cycles: 1902300627 heartbeat IPC: 0.145823 cumulative IPC: 0.149328 (Simulation time: 0 hr 25 min 6 sec) 
Heartbeat CPU 0 instructions: 286000000 cycles: 1909216475 heartbeat IPC: 0.144595 cumulative IPC: 0.149311 (Simulation time: 0 hr 25 min 11 sec) 
Heartbeat CPU 0 instructions: 287000000 cycles: 1915313324 heartbeat IPC: 0.164019 cumulative IPC: 0.149358 (Simulation time: 0 hr 25 min 16 sec) 
Heartbeat CPU 0 instructions: 288000001 cycles: 1921223425 heartbeat IPC: 0.169202 cumulative IPC: 0.149419 (Simulation time: 0 hr 25 min 21 sec) 
Heartbeat CPU 0 instructions: 289000001 cycles: 1927397196 heartbeat IPC: 0.161976 cumulative IPC: 0.149459 (Simulation time: 0 hr 25 min 26 sec) 
Heartbeat CPU 0 instructions: 290000002 cycles: 1933721623 heartbeat IPC: 0.158117 cumulative IPC: 0.149488 (Simulation time: 0 hr 25 min 31 sec) 
Heartbeat CPU 0 instructions: 291000001 cycles: 1940201478 heartbeat IPC: 0.154324 cumulative IPC: 0.149504 (Simulation time: 0 hr 25 min 36 sec) 
Heartbeat CPU 0 instructions: 292000000 cycles: 1946254122 heartbeat IPC: 0.165217 cumulative IPC: 0.149553 (Simulation time: 0 hr 25 min 41 sec) 
Heartbeat CPU 0 instructions: 293000001 cycles: 1952313346 heartbeat IPC: 0.165038 cumulative IPC: 0.149601 (Simulation time: 0 hr 25 min 45 sec) 
Heartbeat CPU 0 instructions: 294000000 cycles: 1958748553 heartbeat IPC: 0.155395 cumulative IPC: 0.14962 (Simulation time: 0 hr 25 min 51 sec) 
Heartbeat CPU 0 instructions: 295000002 cycles: 1965065228 heartbeat IPC: 0.158311 cumulative IPC: 0.149648 (Simulation time: 0 hr 25 min 56 sec) 
Heartbeat CPU 0 instructions: 296000003 cycles: 1971102433 heartbeat IPC: 0.16564 cumulative IPC: 0.149697 (Simulation time: 0 hr 26 min 0 sec) 
Heartbeat CPU 0 instructions: 297000000 cycles: 1977269904 heartbeat IPC: 0.162141 cumulative IPC: 0.149736 (Simulation time: 0 hr 26 min 5 sec) 
Heartbeat CPU 0 instructions: 298000001 cycles: 1983285438 heartbeat IPC: 0.166236 cumulative IPC: 0.149786 (Simulation time: 0 hr 26 min 10 sec) 
Heartbeat CPU 0 instructions: 299000002 cycles: 1989770671 heartbeat IPC: 0.154197 cumulative IPC: 0.1498 (Simulation time: 0 hr 26 min 15 sec) 
Heartbeat CPU 0 instructions: 300000001 cycles: 1998444492 heartbeat IPC: 0.115289 cumulative IPC: 0.14965 (Simulation time: 0 hr 26 min 21 sec) 
Heartbeat CPU 0 instructions: 301000001 cycles: 2005812023 heartbeat IPC: 0.135731 cumulative IPC: 0.149599 (Simulation time: 0 hr 26 min 26 sec) 
Heartbeat CPU 0 instructions: 302000001 cycles: 2011759283 heartbeat IPC: 0.168145 cumulative IPC: 0.149654 (Simulation time: 0 hr 26 min 31 sec) 
Heartbeat CPU 0 instructions: 303000002 cycles: 2017872973 heartbeat IPC: 0.163567 cumulative IPC: 0.149696 (Simulation time: 0 hr 26 min 36 sec) 
Heartbeat CPU 0 instructions: 304000000 cycles: 2024228003 heartbeat IPC: 0.157355 cumulative IPC: 0.14972 (Simulation time: 0 hr 26 min 41 sec) 
Heartbeat CPU 0 instructions: 305000000 cycles: 2030335659 heartbeat IPC: 0.163729 cumulative IPC: 0.149762 (Simulation time: 0 hr 26 min 46 sec) 
Heartbeat CPU 0 instructions: 306000002 cycles: 2036610402 heartbeat IPC: 0.159369 cumulative IPC: 0.149792 (Simulation time: 0 hr 26 min 51 sec) 
Heartbeat CPU 0 instructions: 307000001 cycles: 2042718677 heartbeat IPC: 0.163712 cumulative IPC: 0.149834 (Simulation time: 0 hr 26 min 56 sec) 
Heartbeat CPU 0 instructions: 308000000 cycles: 2048829286 heartbeat IPC: 0.16365 cumulative IPC: 0.149875 (Simulation time: 0 hr 27 min 1 sec) 
Heartbeat CPU 0 instructions: 309000000 cycles: 2055702952 heartbeat IPC: 0.145483 cumulative IPC: 0.14986 (Simulation time: 0 hr 27 min 6 sec) 
Heartbeat CPU 0 instructions: 310000000 cycles: 2061903022 heartbeat IPC: 0.161288 cumulative IPC: 0.149894 (Simulation time: 0 hr 27 min 11 sec) 
Heartbeat CPU 0 instructions: 311000001 cycles: 2068146265 heartbeat IPC: 0.160173 cumulative IPC: 0.149926 (Simulation time: 0 hr 27 min 16 sec) 
Heartbeat CPU 0 instructions: 312000001 cycles: 2074177846 heartbeat IPC: 0.165794 cumulative IPC: 0.149972 (Simulation time: 0 hr 27 min 21 sec) 
Heartbeat CPU 0 instructions: 313000002 cycles: 2080057211 heartbeat IPC: 0.170087 cumulative IPC: 0.150029 (Simulation time: 0 hr 27 min 26 sec) 
Heartbeat CPU 0 instructions: 314000002 cycles: 2086262108 heartbeat IPC: 0.161163 cumulative IPC: 0.150062 (Simulation time: 0 hr 27 min 31 sec) 
Heartbeat CPU 0 instructions: 315000001 cycles: 2092540673 heartbeat IPC: 0.159272 cumulative IPC: 0.150089 (Simulation time: 0 hr 27 min 36 sec) 
Heartbeat CPU 0 instructions: 316000000 cycles: 2098900070 heartbeat IPC: 0.157247 cumulative IPC: 0.150111 (Simulation time: 0 hr 27 min 41 sec) 
Heartbeat CPU 0 instructions: 317000003 cycles: 2104953646 heartbeat IPC: 0.165192 cumulative IPC: 0.150154 (Simulation time: 0 hr 27 min 46 sec) 
Heartbeat CPU 0 instructions: 318000002 cycles: 2111471048 heartbeat IPC: 0.153435 cumulative IPC: 0.150164 (Simulation time: 0 hr 27 min 51 sec) 
Heartbeat CPU 0 instructions: 319000000 cycles: 2117799251 heartbeat IPC: 0.158022 cumulative IPC: 0.150188 (Simulation time: 0 hr 27 min 56 sec) 
Heartbeat CPU 0 instructions: 320000002 cycles: 2124246821 heartbeat IPC: 0.155097 cumulative IPC: 0.150203 (Simulation time: 0 hr 28 min 1 sec) 
Heartbeat CPU 0 instructions: 321000002 cycles: 2130284263 heartbeat IPC: 0.165633 cumulative IPC: 0.150247 (Simulation time: 0 hr 28 min 6 sec) 
Heartbeat CPU 0 instructions: 322000000 cycles: 2136410222 heartbeat IPC: 0.163239 cumulative IPC: 0.150284 (Simulation time: 0 hr 28 min 11 sec) 
Heartbeat CPU 0 instructions: 323000000 cycles: 2142314407 heartbeat IPC: 0.169371 cumulative IPC: 0.150337 (Simulation time: 0 hr 28 min 16 sec) 
Heartbeat CPU 0 instructions: 324000000 cycles: 2148442261 heartbeat IPC: 0.163189 cumulative IPC: 0.150373 (Simulation time: 0 hr 28 min 21 sec) 
Heartbeat CPU 0 instructions: 325000002 cycles: 2155027690 heartbeat IPC: 0.151851 cumulative IPC: 0.150378 (Simulation time: 0 hr 28 min 26 sec) 
Heartbeat CPU 0 instructions: 326000001 cycles: 2161468430 heartbeat IPC: 0.155262 cumulative IPC: 0.150392 (Simulation time: 0 hr 28 min 31 sec) 
Heartbeat CPU 0 instructions: 327000001 cycles: 2167810982 heartbeat IPC: 0.157665 cumulative IPC: 0.150414 (Simulation time: 0 hr 28 min 36 sec) 
Heartbeat CPU 0 instructions: 328000000 cycles: 2173896325 heartbeat IPC: 0.164329 cumulative IPC: 0.150452 (Simulation time: 0 hr 28 min 41 sec) 
Heartbeat CPU 0 instructions: 329000000 cycles: 2180195571 heartbeat IPC: 0.158749 cumulative IPC: 0.150476 (Simulation time: 0 hr 28 min 46 sec) 
Heartbeat CPU 0 instructions: 330000000 cycles: 2186646962 heartbeat IPC: 0.155005 cumulative IPC: 0.15049 (Simulation time: 0 hr 28 min 51 sec) 
Heartbeat CPU 0 instructions: 331000003 cycles: 2192904725 heartbeat IPC: 0.159802 cumulative IPC: 0.150516 (Simulation time: 0 hr 28 min 57 sec) 
Heartbeat CPU 0 instructions: 332000002 cycles: 2199113590 heartbeat IPC: 0.16106 cumulative IPC: 0.150546 (Simulation time: 0 hr 29 min 2 sec) 
Heartbeat CPU 0 instructions: 333000002 cycles: 2205266908 heartbeat IPC: 0.162514 cumulative IPC: 0.15058 (Simulation time: 0 hr 29 min 7 sec) 
Heartbeat CPU 0 instructions: 334000000 cycles: 2216371427 heartbeat IPC: 0.0900532 cumulative IPC: 0.150276 (Simulation time: 0 hr 29 min 13 sec) 
Heartbeat CPU 0 instructions: 335000002 cycles: 2222730470 heartbeat IPC: 0.157257 cumulative IPC: 0.150296 (Simulation time: 0 hr 29 min 18 sec) 
Heartbeat CPU 0 instructions: 336000002 cycles: 2228697274 heartbeat IPC: 0.167594 cumulative IPC: 0.150343 (Simulation time: 0 hr 29 min 23 sec) 
Heartbeat CPU 0 instructions: 337000000 cycles: 2234729384 heartbeat IPC: 0.165779 cumulative IPC: 0.150384 (Simulation time: 0 hr 29 min 28 sec) 
Heartbeat CPU 0 instructions: 338000001 cycles: 2240822296 heartbeat IPC: 0.164125 cumulative IPC: 0.150422 (Simulation time: 0 hr 29 min 33 sec) 
Heartbeat CPU 0 instructions: 339000000 cycles: 2247301712 heartbeat IPC: 0.154335 cumulative IPC: 0.150433 (Simulation time: 0 hr 29 min 38 sec) 
Heartbeat CPU 0 instructions: 340000000 cycles: 2253834150 heartbeat IPC: 0.153082 cumulative IPC: 0.150441 (Simulation time: 0 hr 29 min 44 sec) 
Heartbeat CPU 0 instructions: 341000000 cycles: 2259672551 heartbeat IPC: 0.17128 cumulative IPC: 0.150494 (Simulation time: 0 hr 29 min 49 sec) 
Heartbeat CPU 0 instructions: 342000003 cycles: 2266089926 heartbeat IPC: 0.155827 cumulative IPC: 0.15051 (Simulation time: 0 hr 29 min 54 sec) 
Heartbeat CPU 0 instructions: 343000002 cycles: 2272352168 heartbeat IPC: 0.159687 cumulative IPC: 0.150535 (Simulation time: 0 hr 29 min 59 sec) 
Heartbeat CPU 0 instructions: 344000002 cycles: 2278857950 heartbeat IPC: 0.153709 cumulative IPC: 0.150544 (Simulation time: 0 hr 30 min 4 sec) 
Heartbeat CPU 0 instructions: 345000000 cycles: 2285272827 heartbeat IPC: 0.155887 cumulative IPC: 0.150559 (Simulation time: 0 hr 30 min 9 sec) 
Heartbeat CPU 0 instructions: 346000000 cycles: 2291689655 heartbeat IPC: 0.15584 cumulative IPC: 0.150574 (Simulation time: 0 hr 30 min 15 sec) 
Heartbeat CPU 0 instructions: 347000003 cycles: 2297957257 heartbeat IPC: 0.159551 cumulative IPC: 0.150598 (Simulation time: 0 hr 30 min 20 sec) 
Heartbeat CPU 0 instructions: 348000002 cycles: 2304187505 heartbeat IPC: 0.160507 cumulative IPC: 0.150625 (Simulation time: 0 hr 30 min 25 sec) 
Heartbeat CPU 0 instructions: 349000001 cycles: 2310429816 heartbeat IPC: 0.160197 cumulative IPC: 0.150651 (Simulation time: 0 hr 30 min 30 sec) 
Heartbeat CPU 0 instructions: 350000001 cycles: 2316953586 heartbeat IPC: 0.153286 cumulative IPC: 0.150658 (Simulation time: 0 hr 30 min 35 sec) 
Heartbeat CPU 0 instructions: 351000002 cycles: 2323579180 heartbeat IPC: 0.15093 cumulative IPC: 0.150659 (Simulation time: 0 hr 30 min 41 sec) 
Heartbeat CPU 0 instructions: 352000000 cycles: 2330045166 heartbeat IPC: 0.154655 cumulative IPC: 0.15067 (Simulation time: 0 hr 30 min 46 sec) 
Heartbeat CPU 0 instructions: 353000000 cycles: 2336487578 heartbeat IPC: 0.155221 cumulative IPC: 0.150683 (Simulation time: 0 hr 30 min 51 sec) 
Heartbeat CPU 0 instructions: 354000002 cycles: 2343044512 heartbeat IPC: 0.152511 cumulative IPC: 0.150688 (Simulation time: 0 hr 30 min 57 sec) 
Heartbeat CPU 0 instructions: 355000001 cycles: 2349309773 heartbeat IPC: 0.15961 cumulative IPC: 0.150712 (Simulation time: 0 hr 31 min 2 sec) 
Heartbeat CPU 0 instructions: 356000000 cycles: 2355392801 heartbeat IPC: 0.164392 cumulative IPC: 0.150747 (Simulation time: 0 hr 31 min 7 sec) 
Heartbeat CPU 0 instructions: 357000002 cycles: 2361719628 heartbeat IPC: 0.158057 cumulative IPC: 0.150767 (Simulation time: 0 hr 31 min 12 sec) 
Heartbeat CPU 0 instructions: 358000001 cycles: 2367980707 heartbeat IPC: 0.159717 cumulative IPC: 0.15079 (Simulation time: 0 hr 31 min 17 sec) 
Heartbeat CPU 0 instructions: 359000001 cycles: 2374145914 heartbeat IPC: 0.162201 cumulative IPC: 0.15082 (Simulation time: 0 hr 31 min 22 sec) 
Heartbeat CPU 0 instructions: 360000001 cycles: 2380144952 heartbeat IPC: 0.166693 cumulative IPC: 0.15086 (Simulation time: 0 hr 31 min 27 sec) 
Heartbeat CPU 0 instructions: 361000000 cycles: 2386185268 heartbeat IPC: 0.165554 cumulative IPC: 0.150897 (Simulation time: 0 hr 31 min 32 sec) 
Heartbeat CPU 0 instructions: 362000002 cycles: 2392328635 heartbeat IPC: 0.162778 cumulative IPC: 0.150928 (Simulation time: 0 hr 31 min 37 sec) 
Heartbeat CPU 0 instructions: 363000000 cycles: 2398491105 heartbeat IPC: 0.162272 cumulative IPC: 0.150957 (Simulation time: 0 hr 31 min 42 sec) 
Heartbeat CPU 0 instructions: 364000001 cycles: 2404692935 heartbeat IPC: 0.161243 cumulative IPC: 0.150983 (Simulation time: 0 hr 31 min 47 sec) 
Heartbeat CPU 0 instructions: 365000002 cycles: 2410813102 heartbeat IPC: 0.163394 cumulative IPC: 0.151015 (Simulation time: 0 hr 31 min 53 sec) 
Heartbeat CPU 0 instructions: 366000001 cycles: 2416880691 heartbeat IPC: 0.16481 cumulative IPC: 0.151049 (Simulation time: 0 hr 31 min 58 sec) 
Heartbeat CPU 0 instructions: 367000000 cycles: 2422927937 heartbeat IPC: 0.165364 cumulative IPC: 0.151085 (Simulation time: 0 hr 32 min 3 sec) 
Heartbeat CPU 0 instructions: 368000000 cycles: 2429553619 heartbeat IPC: 0.150928 cumulative IPC: 0.151085 (Simulation time: 0 hr 32 min 8 sec) 
Heartbeat CPU 0 instructions: 369000002 cycles: 2436199799 heartbeat IPC: 0.150463 cumulative IPC: 0.151083 (Simulation time: 0 hr 32 min 13 sec) 
Heartbeat CPU 0 instructions: 370000002 cycles: 2442689012 heartbeat IPC: 0.154102 cumulative IPC: 0.151091 (Simulation time: 0 hr 32 min 18 sec) 
Heartbeat CPU 0 instructions: 371000000 cycles: 2448794389 heartbeat IPC: 0.16379 cumulative IPC: 0.151123 (Simulation time: 0 hr 32 min 23 sec) 
Heartbeat CPU 0 instructions: 372000000 cycles: 2456181106 heartbeat IPC: 0.135378 cumulative IPC: 0.151075 (Simulation time: 0 hr 32 min 29 sec) 
Heartbeat CPU 0 instructions: 373000001 cycles: 2462538547 heartbeat IPC: 0.157296 cumulative IPC: 0.151091 (Simulation time: 0 hr 32 min 34 sec) 
Heartbeat CPU 0 instructions: 374000000 cycles: 2468571000 heartbeat IPC: 0.16577 cumulative IPC: 0.151127 (Simulation time: 0 hr 32 min 39 sec) 
Heartbeat CPU 0 instructions: 375000000 cycles: 2475064014 heartbeat IPC: 0.154012 cumulative IPC: 0.151135 (Simulation time: 0 hr 32 min 44 sec) 
Heartbeat CPU 0 instructions: 376000001 cycles: 2481566359 heartbeat IPC: 0.153791 cumulative IPC: 0.151142 (Simulation time: 0 hr 32 min 49 sec) 
Heartbeat CPU 0 instructions: 377000002 cycles: 2491432205 heartbeat IPC: 0.10136 cumulative IPC: 0.150945 (Simulation time: 0 hr 32 min 56 sec) 
Heartbeat CPU 0 instructions: 378000002 cycles: 2497820303 heartbeat IPC: 0.156541 cumulative IPC: 0.150959 (Simulation time: 0 hr 33 min 1 sec) 
Heartbeat CPU 0 instructions: 379000000 cycles: 2503902900 heartbeat IPC: 0.164403 cumulative IPC: 0.150992 (Simulation time: 0 hr 33 min 6 sec) 
Heartbeat CPU 0 instructions: 380000000 cycles: 2510046501 heartbeat IPC: 0.162771 cumulative IPC: 0.15102 (Simulation time: 0 hr 33 min 11 sec) 
Heartbeat CPU 0 instructions: 381000001 cycles: 2516160922 heartbeat IPC: 0.163548 cumulative IPC: 0.151051 (Simulation time: 0 hr 33 min 16 sec) 
Heartbeat CPU 0 instructions: 382000001 cycles: 2522284459 heartbeat IPC: 0.163304 cumulative IPC: 0.151081 (Simulation time: 0 hr 33 min 21 sec) 
Heartbeat CPU 0 instructions: 383000001 cycles: 2528692430 heartbeat IPC: 0.156056 cumulative IPC: 0.151093 (Simulation time: 0 hr 33 min 26 sec) 
Heartbeat CPU 0 instructions: 384000003 cycles: 2536013017 heartbeat IPC: 0.136601 cumulative IPC: 0.151051 (Simulation time: 0 hr 33 min 32 sec) 
Heartbeat CPU 0 instructions: 385000000 cycles: 2542430630 heartbeat IPC: 0.155821 cumulative IPC: 0.151063 (Simulation time: 0 hr 33 min 37 sec) 
Heartbeat CPU 0 instructions: 386000000 cycles: 2549105431 heartbeat IPC: 0.149817 cumulative IPC: 0.15106 (Simulation time: 0 hr 33 min 43 sec) 
Heartbeat CPU 0 instructions: 387000003 cycles: 2555590379 heartbeat IPC: 0.154204 cumulative IPC: 0.151068 (Simulation time: 0 hr 33 min 48 sec) 
Heartbeat CPU 0 instructions: 388000002 cycles: 2561750246 heartbeat IPC: 0.162341 cumulative IPC: 0.151095 (Simulation time: 0 hr 33 min 53 sec) 
Heartbeat CPU 0 instructions: 389000003 cycles: 2568089991 heartbeat IPC: 0.157735 cumulative IPC: 0.151112 (Simulation time: 0 hr 33 min 58 sec) 
Heartbeat CPU 0 instructions: 390000002 cycles: 2574844906 heartbeat IPC: 0.14804 cumulative IPC: 0.151104 (Simulation time: 0 hr 34 min 3 sec) 
Heartbeat CPU 0 instructions: 391000001 cycles: 2580390868 heartbeat IPC: 0.180311 cumulative IPC: 0.151166 (Simulation time: 0 hr 34 min 8 sec) 
Heartbeat CPU 0 instructions: 392000000 cycles: 2586263134 heartbeat IPC: 0.170292 cumulative IPC: 0.15121 (Simulation time: 0 hr 34 min 12 sec) 
Heartbeat CPU 0 instructions: 393000001 cycles: 2591735367 heartbeat IPC: 0.182741 cumulative IPC: 0.151276 (Simulation time: 0 hr 34 min 17 sec) 
Heartbeat CPU 0 instructions: 394000001 cycles: 2597476111 heartbeat IPC: 0.174193 cumulative IPC: 0.151327 (Simulation time: 0 hr 34 min 22 sec) 
Heartbeat CPU 0 instructions: 395000000 cycles: 2603664008 heartbeat IPC: 0.161606 cumulative IPC: 0.151352 (Simulation time: 0 hr 34 min 27 sec) 
Heartbeat CPU 0 instructions: 396000000 cycles: 2609372330 heartbeat IPC: 0.175183 cumulative IPC: 0.151404 (Simulation time: 0 hr 34 min 32 sec) 
Heartbeat CPU 0 instructions: 397000000 cycles: 2615508778 heartbeat IPC: 0.162961 cumulative IPC: 0.151431 (Simulation time: 0 hr 34 min 37 sec) 
Heartbeat CPU 0 instructions: 398000002 cycles: 2621622109 heartbeat IPC: 0.163577 cumulative IPC: 0.151459 (Simulation time: 0 hr 34 min 42 sec) 
Heartbeat CPU 0 instructions: 399000000 cycles: 2627386869 heartbeat IPC: 0.173467 cumulative IPC: 0.151507 (Simulation time: 0 hr 34 min 47 sec) 
Heartbeat CPU 0 instructions: 400000001 cycles: 2633279005 heartbeat IPC: 0.169718 cumulative IPC: 0.151548 (Simulation time: 0 hr 34 min 52 sec) 
Heartbeat CPU 0 instructions: 401000002 cycles: 2639285033 heartbeat IPC: 0.1665 cumulative IPC: 0.151582 (Simulation time: 0 hr 34 min 57 sec) 
Heartbeat CPU 0 instructions: 402000001 cycles: 2645615623 heartbeat IPC: 0.157963 cumulative IPC: 0.151597 (Simulation time: 0 hr 35 min 2 sec) 
Heartbeat CPU 0 instructions: 403000001 cycles: 2651728482 heartbeat IPC: 0.16359 cumulative IPC: 0.151625 (Simulation time: 0 hr 35 min 7 sec) 
Heartbeat CPU 0 instructions: 404000002 cycles: 2658025175 heartbeat IPC: 0.158814 cumulative IPC: 0.151642 (Simulation time: 0 hr 35 min 12 sec) 
Heartbeat CPU 0 instructions: 405000000 cycles: 2664094654 heartbeat IPC: 0.164758 cumulative IPC: 0.151672 (Simulation time: 0 hr 35 min 17 sec) 
Heartbeat CPU 0 instructions: 406000002 cycles: 2670270299 heartbeat IPC: 0.161927 cumulative IPC: 0.151696 (Simulation time: 0 hr 35 min 22 sec) 
Heartbeat CPU 0 instructions: 407000000 cycles: 2676530953 heartbeat IPC: 0.159727 cumulative IPC: 0.151715 (Simulation time: 0 hr 35 min 27 sec) 
Heartbeat CPU 0 instructions: 408000000 cycles: 2682712738 heartbeat IPC: 0.161766 cumulative IPC: 0.151738 (Simulation time: 0 hr 35 min 32 sec) 
Heartbeat CPU 0 instructions: 409000001 cycles: 2689039492 heartbeat IPC: 0.158059 cumulative IPC: 0.151753 (Simulation time: 0 hr 35 min 37 sec) 
Heartbeat CPU 0 instructions: 410000003 cycles: 2695072814 heartbeat IPC: 0.165746 cumulative IPC: 0.151784 (Simulation time: 0 hr 35 min 42 sec) 
Heartbeat CPU 0 instructions: 411000000 cycles: 2701023382 heartbeat IPC: 0.168051 cumulative IPC: 0.15182 (Simulation time: 0 hr 35 min 47 sec) 
Heartbeat CPU 0 instructions: 412000000 cycles: 2707151476 heartbeat IPC: 0.163183 cumulative IPC: 0.151845 (Simulation time: 0 hr 35 min 52 sec) 
Heartbeat CPU 0 instructions: 413000000 cycles: 2713061150 heartbeat IPC: 0.169214 cumulative IPC: 0.151883 (Simulation time: 0 hr 35 min 57 sec) 
Heartbeat CPU 0 instructions: 414000000 cycles: 2719002549 heartbeat IPC: 0.168311 cumulative IPC: 0.151919 (Simulation time: 0 hr 36 min 2 sec) 
Heartbeat CPU 0 instructions: 415000003 cycles: 2725286597 heartbeat IPC: 0.159134 cumulative IPC: 0.151936 (Simulation time: 0 hr 36 min 7 sec) 
Heartbeat CPU 0 instructions: 416000000 cycles: 2731258185 heartbeat IPC: 0.167459 cumulative IPC: 0.15197 (Simulation time: 0 hr 36 min 12 sec) 
Heartbeat CPU 0 instructions: 417000000 cycles: 2737183953 heartbeat IPC: 0.168755 cumulative IPC: 0.152006 (Simulation time: 0 hr 36 min 17 sec) 
Heartbeat CPU 0 instructions: 418000000 cycles: 2743132738 heartbeat IPC: 0.168102 cumulative IPC: 0.152041 (Simulation time: 0 hr 36 min 22 sec) 
Heartbeat CPU 0 instructions: 419000001 cycles: 2749191392 heartbeat IPC: 0.165053 cumulative IPC: 0.15207 (Simulation time: 0 hr 36 min 27 sec) 
Heartbeat CPU 0 instructions: 420000000 cycles: 2755592542 heartbeat IPC: 0.156222 cumulative IPC: 0.152079 (Simulation time: 0 hr 36 min 32 sec) 
Heartbeat CPU 0 instructions: 421000002 cycles: 2762283965 heartbeat IPC: 0.149445 cumulative IPC: 0.152073 (Simulation time: 0 hr 36 min 38 sec) 
Heartbeat CPU 0 instructions: 422000001 cycles: 2768881700 heartbeat IPC: 0.151567 cumulative IPC: 0.152072 (Simulation time: 0 hr 36 min 43 sec) 
Heartbeat CPU 0 instructions: 423000002 cycles: 2774793832 heartbeat IPC: 0.169144 cumulative IPC: 0.152108 (Simulation time: 0 hr 36 min 48 sec) 
Heartbeat CPU 0 instructions: 424000000 cycles: 2780631550 heartbeat IPC: 0.171299 cumulative IPC: 0.152149 (Simulation time: 0 hr 36 min 53 sec) 
Heartbeat CPU 0 instructions: 425000000 cycles: 2786388387 heartbeat IPC: 0.173707 cumulative IPC: 0.152193 (Simulation time: 0 hr 36 min 58 sec) 
Heartbeat CPU 0 instructions: 426000001 cycles: 2792686842 heartbeat IPC: 0.158769 cumulative IPC: 0.152208 (Simulation time: 0 hr 37 min 3 sec) 
Heartbeat CPU 0 instructions: 427000001 cycles: 2798922860 heartbeat IPC: 0.160359 cumulative IPC: 0.152226 (Simulation time: 0 hr 37 min 8 sec) 
Heartbeat CPU 0 instructions: 428000002 cycles: 2804540118 heartbeat IPC: 0.178023 cumulative IPC: 0.152278 (Simulation time: 0 hr 37 min 13 sec) 
Heartbeat CPU 0 instructions: 429000000 cycles: 2810115183 heartbeat IPC: 0.17937 cumulative IPC: 0.152331 (Simulation time: 0 hr 37 min 17 sec) 
Heartbeat CPU 0 instructions: 430000001 cycles: 2815736196 heartbeat IPC: 0.177904 cumulative IPC: 0.152383 (Simulation time: 0 hr 37 min 22 sec) 
Heartbeat CPU 0 instructions: 431000003 cycles: 2821363490 heartbeat IPC: 0.177706 cumulative IPC: 0.152433 (Simulation time: 0 hr 37 min 27 sec) 
Heartbeat CPU 0 instructions: 432000001 cycles: 2828333719 heartbeat IPC: 0.143467 cumulative IPC: 0.152411 (Simulation time: 0 hr 37 min 32 sec) 
Heartbeat CPU 0 instructions: 433000000 cycles: 2835430761 heartbeat IPC: 0.140904 cumulative IPC: 0.152382 (Simulation time: 0 hr 37 min 38 sec) 
Heartbeat CPU 0 instructions: 434000000 cycles: 2841604360 heartbeat IPC: 0.16198 cumulative IPC: 0.152403 (Simulation time: 0 hr 37 min 43 sec) 
Heartbeat CPU 0 instructions: 435000002 cycles: 2847356243 heartbeat IPC: 0.173856 cumulative IPC: 0.152446 (Simulation time: 0 hr 37 min 48 sec) 
Heartbeat CPU 0 instructions: 436000001 cycles: 2853347692 heartbeat IPC: 0.166904 cumulative IPC: 0.152477 (Simulation time: 0 hr 37 min 53 sec) 
Heartbeat CPU 0 instructions: 437000000 cycles: 2859269924 heartbeat IPC: 0.168855 cumulative IPC: 0.152511 (Simulation time: 0 hr 37 min 58 sec) 
Heartbeat CPU 0 instructions: 438000000 cycles: 2868966614 heartbeat IPC: 0.103128 cumulative IPC: 0.152344 (Simulation time: 0 hr 38 min 4 sec) 
Heartbeat CPU 0 instructions: 439000002 cycles: 2874964985 heartbeat IPC: 0.166712 cumulative IPC: 0.152374 (Simulation time: 0 hr 38 min 9 sec) 
Heartbeat CPU 0 instructions: 440000000 cycles: 2880903424 heartbeat IPC: 0.168394 cumulative IPC: 0.152407 (Simulation time: 0 hr 38 min 14 sec) 
Heartbeat CPU 0 instructions: 441000001 cycles: 2886768466 heartbeat IPC: 0.170502 cumulative IPC: 0.152443 (Simulation time: 0 hr 38 min 19 sec) 
Heartbeat CPU 0 instructions: 442000000 cycles: 2892704707 heartbeat IPC: 0.168457 cumulative IPC: 0.152476 (Simulation time: 0 hr 38 min 24 sec) 
Heartbeat CPU 0 instructions: 443000001 cycles: 2898581176 heartbeat IPC: 0.17017 cumulative IPC: 0.152512 (Simulation time: 0 hr 38 min 29 sec) 
Heartbeat CPU 0 instructions: 444000003 cycles: 2904338182 heartbeat IPC: 0.173702 cumulative IPC: 0.152554 (Simulation time: 0 hr 38 min 33 sec) 
Heartbeat CPU 0 instructions: 445000000 cycles: 2910317413 heartbeat IPC: 0.167245 cumulative IPC: 0.152584 (Simulation time: 0 hr 38 min 38 sec) 
Heartbeat CPU 0 instructions: 446000001 cycles: 2918492553 heartbeat IPC: 0.122322 cumulative IPC: 0.1525 (Simulation time: 0 hr 38 min 44 sec) 
Heartbeat CPU 0 instructions: 447000000 cycles: 2924271909 heartbeat IPC: 0.173029 cumulative IPC: 0.15254 (Simulation time: 0 hr 38 min 49 sec) 
Heartbeat CPU 0 instructions: 448000001 cycles: 2930236588 heartbeat IPC: 0.167654 cumulative IPC: 0.152571 (Simulation time: 0 hr 38 min 54 sec) 
Heartbeat CPU 0 instructions: 449000000 cycles: 2937610569 heartbeat IPC: 0.135612 cumulative IPC: 0.152528 (Simulation time: 0 hr 39 min 0 sec) 
Heartbeat CPU 0 instructions: 450000000 cycles: 2944300496 heartbeat IPC: 0.149478 cumulative IPC: 0.152521 (Simulation time: 0 hr 39 min 5 sec) 

Warmup complete CPU 0 instructions: 450000004 cycles: 2944300497 (Simulation time: 0 hr 39 min 5 sec) 

Heartbeat CPU 0 instructions: 451000000 cycles: 2949177717 heartbeat IPC: 0.205035 cumulative IPC: 0.205034 (Simulation time: 0 hr 39 min 9 sec) 
Heartbeat CPU 0 instructions: 452000000 cycles: 2953931042 heartbeat IPC: 0.210379 cumulative IPC: 0.207672 (Simulation time: 0 hr 39 min 14 sec) 
Heartbeat CPU 0 instructions: 453000001 cycles: 2958490147 heartbeat IPC: 0.219342 cumulative IPC: 0.211421 (Simulation time: 0 hr 39 min 19 sec) 
Heartbeat CPU 0 instructions: 454000000 cycles: 2963161570 heartbeat IPC: 0.214067 cumulative IPC: 0.212077 (Simulation time: 0 hr 39 min 23 sec) 
Heartbeat CPU 0 instructions: 455000001 cycles: 2967813025 heartbeat IPC: 0.214987 cumulative IPC: 0.212652 (Simulation time: 0 hr 39 min 28 sec) 
Heartbeat CPU 0 instructions: 456000001 cycles: 2972385735 heartbeat IPC: 0.218689 cumulative IPC: 0.213635 (Simulation time: 0 hr 39 min 32 sec) 
Heartbeat CPU 0 instructions: 457000000 cycles: 2977859116 heartbeat IPC: 0.182702 cumulative IPC: 0.20859 (Simulation time: 0 hr 39 min 37 sec) 
Heartbeat CPU 0 instructions: 458000000 cycles: 2982842796 heartbeat IPC: 0.200655 cumulative IPC: 0.207564 (Simulation time: 0 hr 39 min 42 sec) 
Heartbeat CPU 0 instructions: 459000001 cycles: 2987815674 heartbeat IPC: 0.201091 cumulative IPC: 0.206824 (Simulation time: 0 hr 39 min 47 sec) 
Heartbeat CPU 0 instructions: 460000001 cycles: 2992900595 heartbeat IPC: 0.19666 cumulative IPC: 0.205761 (Simulation time: 0 hr 39 min 52 sec) 
Heartbeat CPU 0 instructions: 461000000 cycles: 2998051553 heartbeat IPC: 0.194138 cumulative IPC: 0.204647 (Simulation time: 0 hr 39 min 56 sec) 
Heartbeat CPU 0 instructions: 462000000 cycles: 3003002575 heartbeat IPC: 0.201979 cumulative IPC: 0.204422 (Simulation time: 0 hr 40 min 1 sec) 
Heartbeat CPU 0 instructions: 463000001 cycles: 3008683504 heartbeat IPC: 0.176028 cumulative IPC: 0.201917 (Simulation time: 0 hr 40 min 6 sec) 
Heartbeat CPU 0 instructions: 464000001 cycles: 3014225306 heartbeat IPC: 0.180447 cumulative IPC: 0.200215 (Simulation time: 0 hr 40 min 11 sec) 
Heartbeat CPU 0 instructions: 465000002 cycles: 3019789472 heartbeat IPC: 0.179722 cumulative IPC: 0.198704 (Simulation time: 0 hr 40 min 16 sec) 
Heartbeat CPU 0 instructions: 466000002 cycles: 3025350624 heartbeat IPC: 0.179819 cumulative IPC: 0.197409 (Simulation time: 0 hr 40 min 22 sec) 
Heartbeat CPU 0 instructions: 467000001 cycles: 3030867392 heartbeat IPC: 0.181265 cumulative IPC: 0.19638 (Simulation time: 0 hr 40 min 27 sec) 
Heartbeat CPU 0 instructions: 468000002 cycles: 3036350843 heartbeat IPC: 0.182367 cumulative IPC: 0.195545 (Simulation time: 0 hr 40 min 32 sec) 
Heartbeat CPU 0 instructions: 469000002 cycles: 3041844530 heartbeat IPC: 0.182027 cumulative IPC: 0.194784 (Simulation time: 0 hr 40 min 37 sec) 
Heartbeat CPU 0 instructions: 470000000 cycles: 3046713691 heartbeat IPC: 0.205374 cumulative IPC: 0.195287 (Simulation time: 0 hr 40 min 42 sec) 
Heartbeat CPU 0 instructions: 471000002 cycles: 3051487259 heartbeat IPC: 0.209487 cumulative IPC: 0.19592 (Simulation time: 0 hr 40 min 47 sec) 
Heartbeat CPU 0 instructions: 472000000 cycles: 3057006353 heartbeat IPC: 0.181189 cumulative IPC: 0.195198 (Simulation time: 0 hr 40 min 52 sec) 
Heartbeat CPU 0 instructions: 473000000 cycles: 3061523057 heartbeat IPC: 0.2214 cumulative IPC: 0.196208 (Simulation time: 0 hr 40 min 57 sec) 
Heartbeat CPU 0 instructions: 474000001 cycles: 3066179309 heartbeat IPC: 0.214765 cumulative IPC: 0.196917 (Simulation time: 0 hr 41 min 2 sec) 
Heartbeat CPU 0 instructions: 475000000 cycles: 3070747965 heartbeat IPC: 0.218883 cumulative IPC: 0.197711 (Simulation time: 0 hr 41 min 6 sec) 
Heartbeat CPU 0 instructions: 476000003 cycles: 3075333529 heartbeat IPC: 0.218076 cumulative IPC: 0.198423 (Simulation time: 0 hr 41 min 11 sec) 
Heartbeat CPU 0 instructions: 477000001 cycles: 3080081059 heartbeat IPC: 0.210635 cumulative IPC: 0.19885 (Simulation time: 0 hr 41 min 16 sec) 
Heartbeat CPU 0 instructions: 478000000 cycles: 3084798020 heartbeat IPC: 0.212001 cumulative IPC: 0.199292 (Simulation time: 0 hr 41 min 21 sec) 
Heartbeat CPU 0 instructions: 479000000 cycles: 3089580160 heartbeat IPC: 0.209111 cumulative IPC: 0.199615 (Simulation time: 0 hr 41 min 26 sec) 
Heartbeat CPU 0 instructions: 480000002 cycles: 3094366243 heartbeat IPC: 0.20894 cumulative IPC: 0.199912 (Simulation time: 0 hr 41 min 30 sec) 
Heartbeat CPU 0 instructions: 481000003 cycles: 3098903338 heartbeat IPC: 0.220406 cumulative IPC: 0.200514 (Simulation time: 0 hr 41 min 35 sec) 
Heartbeat CPU 0 instructions: 482000001 cycles: 3103532937 heartbeat IPC: 0.216001 cumulative IPC: 0.200964 (Simulation time: 0 hr 41 min 40 sec) 
Heartbeat CPU 0 instructions: 483000001 cycles: 3108197756 heartbeat IPC: 0.214371 cumulative IPC: 0.201346 (Simulation time: 0 hr 41 min 45 sec) 
Heartbeat CPU 0 instructions: 484000000 cycles: 3112997105 heartbeat IPC: 0.208361 cumulative IPC: 0.201545 (Simulation time: 0 hr 41 min 49 sec) 
Heartbeat CPU 0 instructions: 485000000 cycles: 3117805694 heartbeat IPC: 0.207961 cumulative IPC: 0.201723 (Simulation time: 0 hr 41 min 54 sec) 
Heartbeat CPU 0 instructions: 486000002 cycles: 3122306174 heartbeat IPC: 0.222199 cumulative IPC: 0.202241 (Simulation time: 0 hr 41 min 59 sec) 
Heartbeat CPU 0 instructions: 487000000 cycles: 3126884455 heartbeat IPC: 0.218422 cumulative IPC: 0.202646 (Simulation time: 0 hr 42 min 3 sec) 
Heartbeat CPU 0 instructions: 488000003 cycles: 3131547090 heartbeat IPC: 0.214472 cumulative IPC: 0.202941 (Simulation time: 0 hr 42 min 8 sec) 
Heartbeat CPU 0 instructions: 489000002 cycles: 3136222633 heartbeat IPC: 0.213879 cumulative IPC: 0.203207 (Simulation time: 0 hr 42 min 13 sec) 
Heartbeat CPU 0 instructions: 490000000 cycles: 3140761686 heartbeat IPC: 0.22031 cumulative IPC: 0.203603 (Simulation time: 0 hr 42 min 17 sec) 
Heartbeat CPU 0 instructions: 491000002 cycles: 3145432675 heartbeat IPC: 0.214088 cumulative IPC: 0.203846 (Simulation time: 0 hr 42 min 22 sec) 
Heartbeat CPU 0 instructions: 492000000 cycles: 3149956314 heartbeat IPC: 0.221061 cumulative IPC: 0.204225 (Simulation time: 0 hr 42 min 27 sec) 
Heartbeat CPU 0 instructions: 493000001 cycles: 3156191571 heartbeat IPC: 0.160378 cumulative IPC: 0.202934 (Simulation time: 0 hr 42 min 32 sec) 
Heartbeat CPU 0 instructions: 494000003 cycles: 3160751421 heartbeat IPC: 0.219306 cumulative IPC: 0.203279 (Simulation time: 0 hr 42 min 37 sec) 
Heartbeat CPU 0 instructions: 495000000 cycles: 3165455807 heartbeat IPC: 0.212567 cumulative IPC: 0.203477 (Simulation time: 0 hr 42 min 41 sec) 
Heartbeat CPU 0 instructions: 496000000 cycles: 3170102504 heartbeat IPC: 0.215207 cumulative IPC: 0.203718 (Simulation time: 0 hr 42 min 46 sec) 
Heartbeat CPU 0 instructions: 497000000 cycles: 3174817263 heartbeat IPC: 0.2121 cumulative IPC: 0.20389 (Simulation time: 0 hr 42 min 51 sec) 
Heartbeat CPU 0 instructions: 498000000 cycles: 3179470171 heartbeat IPC: 0.214919 cumulative IPC: 0.204108 (Simulation time: 0 hr 42 min 56 sec) 
Heartbeat CPU 0 instructions: 499000002 cycles: 3184050055 heartbeat IPC: 0.218347 cumulative IPC: 0.20438 (Simulation time: 0 hr 43 min 0 sec) 
Heartbeat CPU 0 instructions: 500000001 cycles: 3188485934 heartbeat IPC: 0.225434 cumulative IPC: 0.204762 (Simulation time: 0 hr 43 min 5 sec) 
Heartbeat CPU 0 instructions: 501000002 cycles: 3193901356 heartbeat IPC: 0.184658 cumulative IPC: 0.204326 (Simulation time: 0 hr 43 min 10 sec) 
Heartbeat CPU 0 instructions: 502000001 cycles: 3198746271 heartbeat IPC: 0.206402 cumulative IPC: 0.204366 (Simulation time: 0 hr 43 min 15 sec) 
Heartbeat CPU 0 instructions: 503000001 cycles: 3204069804 heartbeat IPC: 0.187845 cumulative IPC: 0.204027 (Simulation time: 0 hr 43 min 20 sec) 
Heartbeat CPU 0 instructions: 504000000 cycles: 3208989976 heartbeat IPC: 0.203245 cumulative IPC: 0.204013 (Simulation time: 0 hr 43 min 25 sec) 
Heartbeat CPU 0 instructions: 505000002 cycles: 3214037135 heartbeat IPC: 0.198132 cumulative IPC: 0.203903 (Simulation time: 0 hr 43 min 30 sec) 
Heartbeat CPU 0 instructions: 506000000 cycles: 3219442448 heartbeat IPC: 0.185003 cumulative IPC: 0.203531 (Simulation time: 0 hr 43 min 35 sec) 
Heartbeat CPU 0 instructions: 507000000 cycles: 3224538973 heartbeat IPC: 0.196212 cumulative IPC: 0.203398 (Simulation time: 0 hr 43 min 40 sec) 
Heartbeat CPU 0 instructions: 508000000 cycles: 3229494819 heartbeat IPC: 0.201782 cumulative IPC: 0.20337 (Simulation time: 0 hr 43 min 44 sec) 
Heartbeat CPU 0 instructions: 509000000 cycles: 3234517608 heartbeat IPC: 0.199093 cumulative IPC: 0.203296 (Simulation time: 0 hr 43 min 49 sec) 
Heartbeat CPU 0 instructions: 510000000 cycles: 3239596150 heartbeat IPC: 0.196907 cumulative IPC: 0.203186 (Simulation time: 0 hr 43 min 54 sec) 
Heartbeat CPU 0 instructions: 511000000 cycles: 3244640416 heartbeat IPC: 0.198245 cumulative IPC: 0.203103 (Simulation time: 0 hr 43 min 59 sec) 
Heartbeat CPU 0 instructions: 512000000 cycles: 3249416787 heartbeat IPC: 0.209364 cumulative IPC: 0.203201 (Simulation time: 0 hr 44 min 4 sec) 
Heartbeat CPU 0 instructions: 513000000 cycles: 3254361421 heartbeat IPC: 0.202239 cumulative IPC: 0.203186 (Simulation time: 0 hr 44 min 9 sec) 
Heartbeat CPU 0 instructions: 514000000 cycles: 3259369114 heartbeat IPC: 0.199693 cumulative IPC: 0.20313 (Simulation time: 0 hr 44 min 13 sec) 
Heartbeat CPU 0 instructions: 515000002 cycles: 3264323971 heartbeat IPC: 0.201823 cumulative IPC: 0.20311 (Simulation time: 0 hr 44 min 18 sec) 
Heartbeat CPU 0 instructions: 516000001 cycles: 3269486693 heartbeat IPC: 0.193696 cumulative IPC: 0.202961 (Simulation time: 0 hr 44 min 23 sec) 
Heartbeat CPU 0 instructions: 517000000 cycles: 3274367833 heartbeat IPC: 0.20487 cumulative IPC: 0.202989 (Simulation time: 0 hr 44 min 28 sec) 
Heartbeat CPU 0 instructions: 518000002 cycles: 3279224476 heartbeat IPC: 0.205904 cumulative IPC: 0.203031 (Simulation time: 0 hr 44 min 33 sec) 
Heartbeat CPU 0 instructions: 519000000 cycles: 3284472886 heartbeat IPC: 0.190534 cumulative IPC: 0.202838 (Simulation time: 0 hr 44 min 38 sec) 
Heartbeat CPU 0 instructions: 520000000 cycles: 3289605420 heartbeat IPC: 0.194836 cumulative IPC: 0.202719 (Simulation time: 0 hr 44 min 43 sec) 
Heartbeat CPU 0 instructions: 521000002 cycles: 3294546774 heartbeat IPC: 0.202374 cumulative IPC: 0.202715 (Simulation time: 0 hr 44 min 47 sec) 
Heartbeat CPU 0 instructions: 522000000 cycles: 3299652200 heartbeat IPC: 0.19587 cumulative IPC: 0.202616 (Simulation time: 0 hr 44 min 52 sec) 
Heartbeat CPU 0 instructions: 523000000 cycles: 3305091067 heartbeat IPC: 0.183862 cumulative IPC: 0.202333 (Simulation time: 0 hr 44 min 57 sec) 
Heartbeat CPU 0 instructions: 524000001 cycles: 3311329745 heartbeat IPC: 0.160291 cumulative IPC: 0.201619 (Simulation time: 0 hr 45 min 2 sec) 
Heartbeat CPU 0 instructions: 525000000 cycles: 3317547476 heartbeat IPC: 0.16083 cumulative IPC: 0.200939 (Simulation time: 0 hr 45 min 8 sec) 
Heartbeat CPU 0 instructions: 526000000 cycles: 3323228127 heartbeat IPC: 0.176036 cumulative IPC: 0.200566 (Simulation time: 0 hr 45 min 13 sec) 
Heartbeat CPU 0 instructions: 527000001 cycles: 3328658479 heartbeat IPC: 0.18415 cumulative IPC: 0.200334 (Simulation time: 0 hr 45 min 17 sec) 
Heartbeat CPU 0 instructions: 528000000 cycles: 3334330927 heartbeat IPC: 0.176291 cumulative IPC: 0.199984 (Simulation time: 0 hr 45 min 22 sec) 
Heartbeat CPU 0 instructions: 529000000 cycles: 3340552881 heartbeat IPC: 0.160721 cumulative IPC: 0.199368 (Simulation time: 0 hr 45 min 27 sec) 
Heartbeat CPU 0 instructions: 530000000 cycles: 3347991228 heartbeat IPC: 0.134438 cumulative IPC: 0.198171 (Simulation time: 0 hr 45 min 33 sec) 
Heartbeat CPU 0 instructions: 531000002 cycles: 3353590515 heartbeat IPC: 0.178595 cumulative IPC: 0.197904 (Simulation time: 0 hr 45 min 38 sec) 
Heartbeat CPU 0 instructions: 532000000 cycles: 3358757765 heartbeat IPC: 0.193526 cumulative IPC: 0.197849 (Simulation time: 0 hr 45 min 43 sec) 
Heartbeat CPU 0 instructions: 533000002 cycles: 3364107432 heartbeat IPC: 0.186928 cumulative IPC: 0.19771 (Simulation time: 0 hr 45 min 47 sec) 
Heartbeat CPU 0 instructions: 534000001 cycles: 3369916515 heartbeat IPC: 0.172144 cumulative IPC: 0.197361 (Simulation time: 0 hr 45 min 52 sec) 
Heartbeat CPU 0 instructions: 535000001 cycles: 3375532934 heartbeat IPC: 0.178049 cumulative IPC: 0.197109 (Simulation time: 0 hr 45 min 57 sec) 
Heartbeat CPU 0 instructions: 536000000 cycles: 3381176943 heartbeat IPC: 0.177179 cumulative IPC: 0.196852 (Simulation time: 0 hr 46 min 2 sec) 
Heartbeat CPU 0 instructions: 537000002 cycles: 3387113035 heartbeat IPC: 0.168461 cumulative IPC: 0.196471 (Simulation time: 0 hr 46 min 7 sec) 
Heartbeat CPU 0 instructions: 538000003 cycles: 3392470004 heartbeat IPC: 0.186673 cumulative IPC: 0.196354 (Simulation time: 0 hr 46 min 12 sec) 
Heartbeat CPU 0 instructions: 539000000 cycles: 3397832640 heartbeat IPC: 0.186475 cumulative IPC: 0.196237 (Simulation time: 0 hr 46 min 17 sec) 
Heartbeat CPU 0 instructions: 540000000 cycles: 3403274654 heartbeat IPC: 0.183756 cumulative IPC: 0.196089 (Simulation time: 0 hr 46 min 22 sec) 
Heartbeat CPU 0 instructions: 541000001 cycles: 3408765007 heartbeat IPC: 0.182138 cumulative IPC: 0.195925 (Simulation time: 0 hr 46 min 26 sec) 
Heartbeat CPU 0 instructions: 542000002 cycles: 3414461290 heartbeat IPC: 0.175553 cumulative IPC: 0.195678 (Simulation time: 0 hr 46 min 31 sec) 
Heartbeat CPU 0 instructions: 543000002 cycles: 3419850767 heartbeat IPC: 0.185547 cumulative IPC: 0.195563 (Simulation time: 0 hr 46 min 36 sec) 
Heartbeat CPU 0 instructions: 544000002 cycles: 3425709866 heartbeat IPC: 0.170675 cumulative IPC: 0.19526 (Simulation time: 0 hr 46 min 41 sec) 
[...]
Heartbeat CPU 0 instructions: 836000000 cycles: 5027660747 heartbeat IPC: 0.183978 cumulative IPC: 0.185278 (Simulation time: 1 hr 11 min 14 sec) 
Heartbeat CPU 0 instructions: 837000002 cycles: 5032786821 heartbeat IPC: 0.195081 cumulative IPC: 0.185302 (Simulation time: 1 hr 11 min 19 sec) 
Heartbeat CPU 0 instructions: 838000002 cycles: 5037929731 heartbeat IPC: 0.194442 cumulative IPC: 0.185324 (Simulation time: 1 hr 11 min 23 sec) 
Heartbeat CPU 0 instructions: 839000001 cycles: 5043159111 heartbeat IPC: 0.191227 cumulative IPC: 0.185339 (Simulation time: 1 hr 11 min 28 sec) 
Heartbeat CPU 0 instructions: 840000000 cycles: 5048255986 heartbeat IPC: 0.196198 cumulative IPC: 0.185365 (Simulation time: 1 hr 11 min 33 sec) 
Heartbeat CPU 0 instructions: 841000002 cycles: 5053299202 heartbeat IPC: 0.198287 cumulative IPC: 0.185396 (Simulation time: 1 hr 11 min 38 sec) 
Heartbeat CPU 0 instructions: 842000000 cycles: 5058533286 heartbeat IPC: 0.191055 cumulative IPC: 0.18541 (Simulation time: 1 hr 11 min 43 sec) 
Heartbeat CPU 0 instructions: 843000000 cycles: 5063749082 heartbeat IPC: 0.191725 cumulative IPC: 0.185426 (Simulation time: 1 hr 11 min 48 sec) 
Heartbeat CPU 0 instructions: 844000000 cycles: 5069052465 heartbeat IPC: 0.188559 cumulative IPC: 0.185433 (Simulation time: 1 hr 11 min 53 sec) 
Heartbeat CPU 0 instructions: 845000001 cycles: 5074136137 heartbeat IPC: 0.196708 cumulative IPC: 0.18546 (Simulation time: 1 hr 11 min 58 sec) 
Heartbeat CPU 0 instructions: 846000003 cycles: 5079210374 heartbeat IPC: 0.197074 cumulative IPC: 0.185488 (Simulation time: 1 hr 12 min 2 sec) 
Heartbeat CPU 0 instructions: 847000000 cycles: 5084515643 heartbeat IPC: 0.188491 cumulative IPC: 0.185495 (Simulation time: 1 hr 12 min 7 sec) 
Heartbeat CPU 0 instructions: 848000002 cycles: 5089480074 heartbeat IPC: 0.201433 cumulative IPC: 0.185532 (Simulation time: 1 hr 12 min 12 sec) 
Heartbeat CPU 0 instructions: 849000001 cycles: 5094965888 heartbeat IPC: 0.182288 cumulative IPC: 0.185524 (Simulation time: 1 hr 12 min 17 sec) 
Heartbeat CPU 0 instructions: 850000000 cycles: 5100394825 heartbeat IPC: 0.184198 cumulative IPC: 0.185521 (Simulation time: 1 hr 12 min 22 sec) 
Heartbeat CPU 0 instructions: 851000002 cycles: 5105638580 heartbeat IPC: 0.190703 cumulative IPC: 0.185533 (Simulation time: 1 hr 12 min 27 sec) 
Heartbeat CPU 0 instructions: 852000000 cycles: 5110940725 heartbeat IPC: 0.188603 cumulative IPC: 0.185541 (Simulation time: 1 hr 12 min 32 sec) 
Heartbeat CPU 0 instructions: 853000003 cycles: 5116286439 heartbeat IPC: 0.187066 cumulative IPC: 0.185544 (Simulation time: 1 hr 12 min 37 sec) 
Heartbeat CPU 0 instructions: 854000001 cycles: 5122350353 heartbeat IPC: 0.16491 cumulative IPC: 0.185487 (Simulation time: 1 hr 12 min 42 sec) 
Heartbeat CPU 0 instructions: 855000000 cycles: 5127815668 heartbeat IPC: 0.182972 cumulative IPC: 0.185481 (Simulation time: 1 hr 12 min 47 sec) 
Heartbeat CPU 0 instructions: 856000000 cycles: 5133437523 heartbeat IPC: 0.177877 cumulative IPC: 0.185461 (Simulation time: 1 hr 12 min 52 sec) 
Heartbeat CPU 0 instructions: 857000003 cycles: 5139594358 heartbeat IPC: 0.162422 cumulative IPC: 0.185397 (Simulation time: 1 hr 12 min 58 sec) 
Heartbeat CPU 0 instructions: 858000000 cycles: 5145543358 heartbeat IPC: 0.168095 cumulative IPC: 0.18535 (Simulation time: 1 hr 13 min 3 sec) 
Heartbeat CPU 0 instructions: 859000000 cycles: 5151014860 heartbeat IPC: 0.182765 cumulative IPC: 0.185343 (Simulation time: 1 hr 13 min 8 sec) 
Heartbeat CPU 0 instructions: 860000000 cycles: 5156388191 heartbeat IPC: 0.186104 cumulative IPC: 0.185345 (Simulation time: 1 hr 13 min 12 sec) 
Heartbeat CPU 0 instructions: 861000003 cycles: 5161843674 heartbeat IPC: 0.183302 cumulative IPC: 0.18534 (Simulation time: 1 hr 13 min 17 sec) 
Heartbeat CPU 0 instructions: 862000000 cycles: 5167172891 heartbeat IPC: 0.187644 cumulative IPC: 0.185346 (Simulation time: 1 hr 13 min 22 sec) 
Heartbeat CPU 0 instructions: 863000001 cycles: 5172593912 heartbeat IPC: 0.184467 cumulative IPC: 0.185344 (Simulation time: 1 hr 13 min 27 sec) 
Heartbeat CPU 0 instructions: 864000000 cycles: 5178344600 heartbeat IPC: 0.173892 cumulative IPC: 0.185314 (Simulation time: 1 hr 13 min 32 sec) 
Heartbeat CPU 0 instructions: 865000001 cycles: 5184161362 heartbeat IPC: 0.171917 cumulative IPC: 0.185279 (Simulation time: 1 hr 13 min 37 sec) 
Heartbeat CPU 0 instructions: 866000000 cycles: 5189508694 heartbeat IPC: 0.187009 cumulative IPC: 0.185283 (Simulation time: 1 hr 13 min 42 sec) 
Heartbeat CPU 0 instructions: 867000001 cycles: 5194646299 heartbeat IPC: 0.194643 cumulative IPC: 0.185305 (Simulation time: 1 hr 13 min 46 sec) 
Heartbeat CPU 0 instructions: 868000001 cycles: 5199851764 heartbeat IPC: 0.192106 cumulative IPC: 0.185321 (Simulation time: 1 hr 13 min 51 sec) 
Heartbeat CPU 0 instructions: 869000000 cycles: 5205068336 heartbeat IPC: 0.191697 cumulative IPC: 0.185335 (Simulation time: 1 hr 13 min 56 sec) 
Heartbeat CPU 0 instructions: 870000001 cycles: 5210473823 heartbeat IPC: 0.184997 cumulative IPC: 0.185334 (Simulation time: 1 hr 14 min 1 sec) 
Heartbeat CPU 0 instructions: 871000003 cycles: 5216009241 heartbeat IPC: 0.180655 cumulative IPC: 0.185323 (Simulation time: 1 hr 14 min 6 sec) 
Heartbeat CPU 0 instructions: 872000000 cycles: 5221421628 heartbeat IPC: 0.184761 cumulative IPC: 0.185322 (Simulation time: 1 hr 14 min 11 sec) 
Heartbeat CPU 0 instructions: 873000001 cycles: 5226608335 heartbeat IPC: 0.192801 cumulative IPC: 0.185339 (Simulation time: 1 hr 14 min 15 sec) 
Heartbeat CPU 0 instructions: 874000001 cycles: 5232019145 heartbeat IPC: 0.184815 cumulative IPC: 0.185337 (Simulation time: 1 hr 14 min 20 sec) 
Heartbeat CPU 0 instructions: 875000003 cycles: 5237798935 heartbeat IPC: 0.173017 cumulative IPC: 0.185306 (Simulation time: 1 hr 14 min 25 sec) 
Heartbeat CPU 0 instructions: 876000000 cycles: 5243352235 heartbeat IPC: 0.180073 cumulative IPC: 0.185294 (Simulation time: 1 hr 14 min 30 sec) 
Heartbeat CPU 0 instructions: 877000000 cycles: 5248539087 heartbeat IPC: 0.192795 cumulative IPC: 0.185311 (Simulation time: 1 hr 14 min 35 sec) 
Heartbeat CPU 0 instructions: 878000002 cycles: 5254020553 heartbeat IPC: 0.182433 cumulative IPC: 0.185304 (Simulation time: 1 hr 14 min 40 sec) 
Heartbeat CPU 0 instructions: 879000002 cycles: 5259587969 heartbeat IPC: 0.179617 cumulative IPC: 0.18529 (Simulation time: 1 hr 14 min 45 sec) 
Heartbeat CPU 0 instructions: 880000000 cycles: 5265040031 heartbeat IPC: 0.183416 cumulative IPC: 0.185286 (Simulation time: 1 hr 14 min 50 sec) 
Heartbeat CPU 0 instructions: 881000002 cycles: 5270294236 heartbeat IPC: 0.190324 cumulative IPC: 0.185297 (Simulation time: 1 hr 14 min 55 sec) 
Heartbeat CPU 0 instructions: 882000002 cycles: 5275300604 heartbeat IPC: 0.199746 cumulative IPC: 0.185328 (Simulation time: 1 hr 15 min 0 sec) 
Heartbeat CPU 0 instructions: 883000002 cycles: 5280936063 heartbeat IPC: 0.177448 cumulative IPC: 0.185309 (Simulation time: 1 hr 15 min 5 sec) 
Heartbeat CPU 0 instructions: 884000002 cycles: 5286402110 heartbeat IPC: 0.182948 cumulative IPC: 0.185304 (Simulation time: 1 hr 15 min 10 sec) 
Heartbeat CPU 0 instructions: 885000000 cycles: 5291991888 heartbeat IPC: 0.178898 cumulative IPC: 0.185288 (Simulation time: 1 hr 15 min 15 sec) 
Heartbeat CPU 0 instructions: 886000001 cycles: 5297737759 heartbeat IPC: 0.174038 cumulative IPC: 0.185261 (Simulation time: 1 hr 15 min 20 sec) 
Heartbeat CPU 0 instructions: 887000000 cycles: 5303574269 heartbeat IPC: 0.171335 cumulative IPC: 0.185226 (Simulation time: 1 hr 15 min 25 sec) 
Heartbeat CPU 0 instructions: 888000001 cycles: 5309255206 heartbeat IPC: 0.176027 cumulative IPC: 0.185204 (Simulation time: 1 hr 15 min 30 sec) 
Heartbeat CPU 0 instructions: 889000001 cycles: 5315254847 heartbeat IPC: 0.166677 cumulative IPC: 0.185158 (Simulation time: 1 hr 15 min 36 sec) 
Heartbeat CPU 0 instructions: 890000000 cycles: 5320705341 heartbeat IPC: 0.183469 cumulative IPC: 0.185154 (Simulation time: 1 hr 15 min 41 sec) 
Heartbeat CPU 0 instructions: 891000000 cycles: 5325849966 heartbeat IPC: 0.194378 cumulative IPC: 0.185174 (Simulation time: 1 hr 15 min 45 sec) 
Heartbeat CPU 0 instructions: 892000003 cycles: 5334074992 heartbeat IPC: 0.121581 cumulative IPC: 0.184955 (Simulation time: 1 hr 15 min 51 sec) 
Heartbeat CPU 0 instructions: 893000002 cycles: 5341937254 heartbeat IPC: 0.12719 cumulative IPC: 0.184765 (Simulation time: 1 hr 15 min 57 sec) 
Heartbeat CPU 0 instructions: 894000001 cycles: 5347277098 heartbeat IPC: 0.187271 cumulative IPC: 0.184771 (Simulation time: 1 hr 16 min 2 sec) 
Heartbeat CPU 0 instructions: 895000001 cycles: 5352356793 heartbeat IPC: 0.196862 cumulative IPC: 0.184796 (Simulation time: 1 hr 16 min 7 sec) 
Heartbeat CPU 0 instructions: 896000000 cycles: 5357502889 heartbeat IPC: 0.194322 cumulative IPC: 0.184817 (Simulation time: 1 hr 16 min 12 sec) 
Heartbeat CPU 0 instructions: 897000000 cycles: 5362617924 heartbeat IPC: 0.195502 cumulative IPC: 0.184839 (Simulation time: 1 hr 16 min 17 sec) 
Heartbeat CPU 0 instructions: 898000001 cycles: 5367888326 heartbeat IPC: 0.189739 cumulative IPC: 0.18485 (Simulation time: 1 hr 16 min 21 sec) 
Heartbeat CPU 0 instructions: 899000002 cycles: 5373437820 heartbeat IPC: 0.180197 cumulative IPC: 0.184839 (Simulation time: 1 hr 16 min 27 sec) 
Heartbeat CPU 0 instructions: 900000002 cycles: 5379453595 heartbeat IPC: 0.16623 cumulative IPC: 0.184793 (Simulation time: 1 hr 16 min 32 sec) 
Heartbeat CPU 0 instructions: 901000000 cycles: 5385625092 heartbeat IPC: 0.162035 cumulative IPC: 0.184736 (Simulation time: 1 hr 16 min 37 sec) 
Heartbeat CPU 0 instructions: 902000000 cycles: 5392669584 heartbeat IPC: 0.141955 cumulative IPC: 0.184613 (Simulation time: 1 hr 16 min 42 sec) 
Heartbeat CPU 0 instructions: 903000001 cycles: 5398227881 heartbeat IPC: 0.179911 cumulative IPC: 0.184602 (Simulation time: 1 hr 16 min 48 sec) 
Heartbeat CPU 0 instructions: 904000001 cycles: 5403907400 heartbeat IPC: 0.176071 cumulative IPC: 0.184582 (Simulation time: 1 hr 16 min 53 sec) 
Heartbeat CPU 0 instructions: 905000001 cycles: 5409771685 heartbeat IPC: 0.170524 cumulative IPC: 0.184549 (Simulation time: 1 hr 16 min 58 sec) 
Heartbeat CPU 0 instructions: 906000000 cycles: 5415463915 heartbeat IPC: 0.175678 cumulative IPC: 0.184528 (Simulation time: 1 hr 17 min 3 sec) 
Heartbeat CPU 0 instructions: 907000001 cycles: 5420869042 heartbeat IPC: 0.18501 cumulative IPC: 0.18453 (Simulation time: 1 hr 17 min 8 sec) 
Heartbeat CPU 0 instructions: 908000000 cycles: 5426430021 heartbeat IPC: 0.179824 cumulative IPC: 0.184519 (Simulation time: 1 hr 17 min 13 sec) 
Heartbeat CPU 0 instructions: 909000000 cycles: 5432096682 heartbeat IPC: 0.176471 cumulative IPC: 0.184501 (Simulation time: 1 hr 17 min 18 sec) 
Heartbeat CPU 0 instructions: 910000000 cycles: 5437568742 heartbeat IPC: 0.182747 cumulative IPC: 0.184497 (Simulation time: 1 hr 17 min 23 sec) 
Heartbeat CPU 0 instructions: 911000002 cycles: 5443200558 heartbeat IPC: 0.177563 cumulative IPC: 0.184481 (Simulation time: 1 hr 17 min 28 sec) 
Heartbeat CPU 0 instructions: 912000000 cycles: 5448389426 heartbeat IPC: 0.19272 cumulative IPC: 0.184498 (Simulation time: 1 hr 17 min 33 sec) 
Heartbeat CPU 0 instructions: 913000000 cycles: 5454300072 heartbeat IPC: 0.169186 cumulative IPC: 0.184462 (Simulation time: 1 hr 17 min 38 sec) 
Heartbeat CPU 0 instructions: 914000000 cycles: 5459292294 heartbeat IPC: 0.200312 cumulative IPC: 0.184494 (Simulation time: 1 hr 17 min 43 sec) 
Heartbeat CPU 0 instructions: 915000000 cycles: 5464249858 heartbeat IPC: 0.201712 cumulative IPC: 0.184528 (Simulation time: 1 hr 17 min 48 sec) 
Heartbeat CPU 0 instructions: 916000003 cycles: 5469398588 heartbeat IPC: 0.194223 cumulative IPC: 0.184547 (Simulation time: 1 hr 17 min 53 sec) 
Heartbeat CPU 0 instructions: 917000003 cycles: 5474541478 heartbeat IPC: 0.194443 cumulative IPC: 0.184567 (Simulation time: 1 hr 17 min 58 sec) 
Heartbeat CPU 0 instructions: 918000001 cycles: 5480329713 heartbeat IPC: 0.172764 cumulative IPC: 0.18454 (Simulation time: 1 hr 18 min 3 sec) 
Heartbeat CPU 0 instructions: 919000002 cycles: 5486009891 heartbeat IPC: 0.176051 cumulative IPC: 0.184521 (Simulation time: 1 hr 18 min 8 sec) 
Heartbeat CPU 0 instructions: 920000001 cycles: 5491040986 heartbeat IPC: 0.198764 cumulative IPC: 0.18455 (Simulation time: 1 hr 18 min 13 sec) 
Heartbeat CPU 0 instructions: 921000002 cycles: 5496237321 heartbeat IPC: 0.192444 cumulative IPC: 0.184566 (Simulation time: 1 hr 18 min 18 sec) 
Heartbeat CPU 0 instructions: 922000002 cycles: 5501600884 heartbeat IPC: 0.186443 cumulative IPC: 0.18457 (Simulation time: 1 hr 18 min 23 sec) 
Heartbeat CPU 0 instructions: 923000001 cycles: 5507446570 heartbeat IPC: 0.171066 cumulative IPC: 0.184539 (Simulation time: 1 hr 18 min 28 sec) 
Heartbeat CPU 0 instructions: 924000000 cycles: 5513540962 heartbeat IPC: 0.164085 cumulative IPC: 0.18449 (Simulation time: 1 hr 18 min 33 sec) 
Heartbeat CPU 0 instructions: 925000002 cycles: 5519633447 heartbeat IPC: 0.164137 cumulative IPC: 0.184442 (Simulation time: 1 hr 18 min 38 sec) 
Heartbeat CPU 0 instructions: 926000000 cycles: 5525593009 heartbeat IPC: 0.167797 cumulative IPC: 0.184404 (Simulation time: 1 hr 18 min 44 sec) 
Heartbeat CPU 0 instructions: 927000000 cycles: 5531282990 heartbeat IPC: 0.175748 cumulative IPC: 0.184385 (Simulation time: 1 hr 18 min 49 sec) 
Heartbeat CPU 0 instructions: 928000000 cycles: 5536705158 heartbeat IPC: 0.184428 cumulative IPC: 0.184385 (Simulation time: 1 hr 18 min 54 sec) 
Heartbeat CPU 0 instructions: 929000002 cycles: 5541921571 heartbeat IPC: 0.191703 cumulative IPC: 0.184399 (Simulation time: 1 hr 18 min 59 sec) 
Heartbeat CPU 0 instructions: 930000000 cycles: 5547220431 heartbeat IPC: 0.188719 cumulative IPC: 0.184408 (Simulation time: 1 hr 19 min 4 sec) 
Heartbeat CPU 0 instructions: 931000000 cycles: 5554397675 heartbeat IPC: 0.139329 cumulative IPC: 0.184284 (Simulation time: 1 hr 19 min 10 sec) 
Heartbeat CPU 0 instructions: 932000002 cycles: 5560534540 heartbeat IPC: 0.16295 cumulative IPC: 0.184234 (Simulation time: 1 hr 19 min 15 sec) 
Heartbeat CPU 0 instructions: 933000002 cycles: 5566233462 heartbeat IPC: 0.175472 cumulative IPC: 0.184215 (Simulation time: 1 hr 19 min 20 sec) 
Heartbeat CPU 0 instructions: 934000001 cycles: 5571560645 heartbeat IPC: 0.187716 cumulative IPC: 0.184222 (Simulation time: 1 hr 19 min 25 sec) 
Heartbeat CPU 0 instructions: 935000000 cycles: 5576644582 heartbeat IPC: 0.196698 cumulative IPC: 0.184246 (Simulation time: 1 hr 19 min 30 sec) 
Heartbeat CPU 0 instructions: 936000000 cycles: 5581582598 heartbeat IPC: 0.20251 cumulative IPC: 0.184281 (Simulation time: 1 hr 19 min 35 sec) 
Heartbeat CPU 0 instructions: 937000001 cycles: 5586640904 heartbeat IPC: 0.197695 cumulative IPC: 0.184306 (Simulation time: 1 hr 19 min 40 sec) 
Heartbeat CPU 0 instructions: 938000002 cycles: 5591713682 heartbeat IPC: 0.197131 cumulative IPC: 0.184331 (Simulation time: 1 hr 19 min 45 sec) 
Heartbeat CPU 0 instructions: 939000000 cycles: 5596867705 heartbeat IPC: 0.194023 cumulative IPC: 0.18435 (Simulation time: 1 hr 19 min 49 sec) 
Heartbeat CPU 0 instructions: 940000002 cycles: 5602201866 heartbeat IPC: 0.187471 cumulative IPC: 0.184356 (Simulation time: 1 hr 19 min 54 sec) 
Heartbeat CPU 0 instructions: 941000002 cycles: 5607414092 heartbeat IPC: 0.191857 cumulative IPC: 0.184371 (Simulation time: 1 hr 19 min 59 sec) 
Heartbeat CPU 0 instructions: 942000000 cycles: 5612607180 heartbeat IPC: 0.192563 cumulative IPC: 0.184387 (Simulation time: 1 hr 20 min 4 sec) 
Heartbeat CPU 0 instructions: 943000000 cycles: 5618239794 heartbeat IPC: 0.177537 cumulative IPC: 0.184372 (Simulation time: 1 hr 20 min 9 sec) 
Heartbeat CPU 0 instructions: 944000001 cycles: 5623497992 heartbeat IPC: 0.190179 cumulative IPC: 0.184384 (Simulation time: 1 hr 20 min 14 sec) 
Heartbeat CPU 0 instructions: 945000002 cycles: 5628848579 heartbeat IPC: 0.186896 cumulative IPC: 0.184389 (Simulation time: 1 hr 20 min 19 sec) 
Heartbeat CPU 0 instructions: 946000000 cycles: 5634315585 heartbeat IPC: 0.182915 cumulative IPC: 0.184386 (Simulation time: 1 hr 20 min 24 sec) 
Heartbeat CPU 0 instructions: 947000001 cycles: 5639891264 heartbeat IPC: 0.179351 cumulative IPC: 0.184375 (Simulation time: 1 hr 20 min 29 sec) 
Heartbeat CPU 0 instructions: 948000001 cycles: 5645137468 heartbeat IPC: 0.190614 cumulative IPC: 0.184387 (Simulation time: 1 hr 20 min 34 sec) 
Heartbeat CPU 0 instructions: 949000002 cycles: 5650432504 heartbeat IPC: 0.188856 cumulative IPC: 0.184396 (Simulation time: 1 hr 20 min 39 sec) 
Heartbeat CPU 0 instructions: 950000002 cycles: 5655800703 heartbeat IPC: 0.186282 cumulative IPC: 0.1844 (Simulation time: 1 hr 20 min 44 sec) 
Finished CPU 0 instructions: 500000001 cycles: 2711500266 cumulative IPC: 0.1844 (Simulation time: 1 hr 20 min 44 sec) 

ChampSim completed all CPUs

Region of Interest Statistics

CPU 0 cumulative IPC: 0.1844 instructions: 500000001 cycles: 2711500266
L1D TOTAL     ACCESS:  109531964  HIT:   31848092  MISS:   77683872
L1D LOAD      ACCESS:  101656228  HIT:   24113540  MISS:   77542688
L1D RFO       ACCESS:    7875736  HIT:    7734552  MISS:     141184
L1D PREFETCH  ACCESS:          0  HIT:          0  MISS:          0
L1D WRITEBACK ACCESS:          0  HIT:          0  MISS:          0
L1D PREFETCH  REQUESTED:          0  ISSUED:          0  USEFUL:          0  USELESS:          0
L1D AVERAGE MISS LATENCY: 96.2321 cycles
L1I TOTAL     ACCESS:   84820325  HIT:   84820325  MISS:          0
L1I LOAD      ACCESS:   84820325  HIT:   84820325  MISS:          0
L1I RFO       ACCESS:          0  HIT:          0  MISS:          0
L1I PREFETCH  ACCESS:          0  HIT:          0  MISS:          0
L1I WRITEBACK ACCESS:          0  HIT:          0  MISS:          0
L1I PREFETCH  REQUESTED:          0  ISSUED:          0  USEFUL:          0  USELESS:          0
L1I AVERAGE MISS LATENCY: -nan cycles
L2C TOTAL     ACCESS:   78754623  HIT:    9182296  MISS:   69572327
L2C LOAD      ACCESS:   77542622  HIT:    8097107  MISS:   69445515
L2C RFO       ACCESS:     141182  HIT:      14378  MISS:     126804
L2C PREFETCH  ACCESS:          0  HIT:          0  MISS:          0
L2C WRITEBACK ACCESS:    1070819  HIT:    1070811  MISS:          8
L2C PREFETCH  REQUESTED:          0  ISSUED:          0  USEFUL:          0  USELESS:          0
L2C AVERAGE MISS LATENCY: 91.2506 cycles
LLC TOTAL     ACCESS:  122700996  HIT:   80356590  MISS:   42344406
LLC LOAD      ACCESS:   69445508  HIT:   43296054  MISS:   26149454
LLC RFO       ACCESS:     126804  HIT:     103431  MISS:      23373
LLC PREFETCH  ACCESS:   52140437  HIT:   35970951  MISS:   16169486
LLC WRITEBACK ACCESS:     988247  HIT:     986154  MISS:       2093
LLC PREFETCH  REQUESTED:   69442600  ISSUED:   68931285  USEFUL:   12804280  USELESS:    3362993
LLC AVERAGE MISS LATENCY: 159.931 cycles
Major fault: 0 Minor fault: 443600
performance stats:
mapping cache size: 28369311
divergence: 66236072

DRAM Statistics
 CHANNEL 0
 RQ ROW_BUFFER_HIT:   14445743  ROW_BUFFER_MISS:    6730267
 DBUS_CONGESTED:   26996243
 WQ ROW_BUFFER_HIT:      86401  ROW_BUFFER_MISS:      65616  FULL:          0

 CHANNEL 1
 RQ ROW_BUFFER_HIT:   14446454  ROW_BUFFER_MISS:    6719674
 DBUS_CONGESTED:   26996243
 WQ ROW_BUFFER_HIT:      87271  ROW_BUFFER_MISS:      66823  FULL:          0

 AVG_CONGESTED_CYCLE: 16

CPU 0 Branch Prediction Accuracy: 97.1406% MPKI: 8.73899 Average ROB Occupancy at Mispredict: 67.0322

Branch types
NOT_BRANCH: 347189818 69.438%
BRANCH_DIRECT_JUMP: 19013150 3.80263%
BRANCH_INDIRECT: 0 0%
BRANCH_CONDITIONAL: 130403403 26.0807%
BRANCH_DIRECT_CALL: 1563277 0.312655%
BRANCH_INDIRECT_CALL: 133422 0.0266844%
BRANCH_RETURN: 1696699 0.33934%
BRANCH_OTHER: 0 0%

