
*** ChampSim Multicore Out-of-Order Simulator ***

Warmup Instructions: 1000000
Prefetch Warmup Instructions: 450000000
Simulation Instructions: 500000000
Stat Printing Period: 1000000
Number of CPUs: 1
LLC sets: 2048
LLC ways: 16
Off-chip DRAM Size: 32768 MB Channels: 2 Width: 64-bit Data Rate: 1024 MT/s

CPU 0 runs /scratch/cluster/cmolder/ML-DPC/ChampSimTraces/spec17/605.mcf-s2.trace.xz
Read seed: 273
Heartbeat CPU 0 instructions: 1000000 cycles: 462200 heartbeat IPC: 2.16357 cumulative IPC: 2.16357 (Simulation time: 0 hr 0 min 4 sec) 

Warmup complete CPU 0 instructions: 1000004 cycles: 462201 (Simulation time: 0 hr 0 min 4 sec) 

Heartbeat CPU 0 instructions: 2000001 cycles: 7036776 heartbeat IPC: 0.152101 cumulative IPC: 0.152101 (Simulation time: 0 hr 0 min 10 sec) 
Heartbeat CPU 0 instructions: 3000002 cycles: 13242668 heartbeat IPC: 0.161137 cumulative IPC: 0.156489 (Simulation time: 0 hr 0 min 17 sec) 
Heartbeat CPU 0 instructions: 4000002 cycles: 19386352 heartbeat IPC: 0.162769 cumulative IPC: 0.158527 (Simulation time: 0 hr 0 min 23 sec) 
Heartbeat CPU 0 instructions: 5000001 cycles: 26170583 heartbeat IPC: 0.1474 cumulative IPC: 0.155591 (Simulation time: 0 hr 0 min 29 sec) 
Heartbeat CPU 0 instructions: 6000001 cycles: 31878850 heartbeat IPC: 0.175185 cumulative IPC: 0.159151 (Simulation time: 0 hr 0 min 37 sec) 
Heartbeat CPU 0 instructions: 7000002 cycles: 38560079 heartbeat IPC: 0.149673 cumulative IPC: 0.157489 (Simulation time: 0 hr 0 min 43 sec) 
Heartbeat CPU 0 instructions: 8000000 cycles: 44538080 heartbeat IPC: 0.16728 cumulative IPC: 0.158817 (Simulation time: 0 hr 0 min 50 sec) 
Heartbeat CPU 0 instructions: 9000001 cycles: 50975732 heartbeat IPC: 0.155336 cumulative IPC: 0.158373 (Simulation time: 0 hr 0 min 57 sec) 
Heartbeat CPU 0 instructions: 10000001 cycles: 57238063 heartbeat IPC: 0.159685 cumulative IPC: 0.158518 (Simulation time: 0 hr 1 min 3 sec) 
Heartbeat CPU 0 instructions: 11000000 cycles: 62897420 heartbeat IPC: 0.176698 cumulative IPC: 0.160166 (Simulation time: 0 hr 1 min 10 sec) 
Heartbeat CPU 0 instructions: 12000003 cycles: 69885703 heartbeat IPC: 0.143097 cumulative IPC: 0.158448 (Simulation time: 0 hr 1 min 17 sec) 
Heartbeat CPU 0 instructions: 13000000 cycles: 76707808 heartbeat IPC: 0.146582 cumulative IPC: 0.157386 (Simulation time: 0 hr 1 min 23 sec) 
Heartbeat CPU 0 instructions: 14000003 cycles: 82560196 heartbeat IPC: 0.170871 cumulative IPC: 0.158347 (Simulation time: 0 hr 1 min 30 sec) 
Heartbeat CPU 0 instructions: 15000002 cycles: 88391086 heartbeat IPC: 0.1715 cumulative IPC: 0.15922 (Simulation time: 0 hr 1 min 37 sec) 
Heartbeat CPU 0 instructions: 16000001 cycles: 94357948 heartbeat IPC: 0.167592 cumulative IPC: 0.159752 (Simulation time: 0 hr 1 min 44 sec) 
Heartbeat CPU 0 instructions: 17000001 cycles: 100873736 heartbeat IPC: 0.153473 cumulative IPC: 0.159344 (Simulation time: 0 hr 1 min 51 sec) 
Heartbeat CPU 0 instructions: 18000002 cycles: 107218209 heartbeat IPC: 0.157618 cumulative IPC: 0.159242 (Simulation time: 0 hr 1 min 57 sec) 
Heartbeat CPU 0 instructions: 19000000 cycles: 114196547 heartbeat IPC: 0.1433 cumulative IPC: 0.158264 (Simulation time: 0 hr 2 min 4 sec) 
Heartbeat CPU 0 instructions: 20000000 cycles: 119709314 heartbeat IPC: 0.181397 cumulative IPC: 0.159333 (Simulation time: 0 hr 2 min 11 sec) 
Heartbeat CPU 0 instructions: 21000000 cycles: 125640565 heartbeat IPC: 0.168599 cumulative IPC: 0.159772 (Simulation time: 0 hr 2 min 18 sec) 
Heartbeat CPU 0 instructions: 22000000 cycles: 132688145 heartbeat IPC: 0.141893 cumulative IPC: 0.158819 (Simulation time: 0 hr 2 min 24 sec) 
Heartbeat CPU 0 instructions: 23000000 cycles: 138438244 heartbeat IPC: 0.17391 cumulative IPC: 0.159448 (Simulation time: 0 hr 2 min 32 sec) 
Heartbeat CPU 0 instructions: 24000001 cycles: 144155065 heartbeat IPC: 0.174923 cumulative IPC: 0.160064 (Simulation time: 0 hr 2 min 39 sec) 
Heartbeat CPU 0 instructions: 25000000 cycles: 150750578 heartbeat IPC: 0.151618 cumulative IPC: 0.159693 (Simulation time: 0 hr 2 min 45 sec) 
Heartbeat CPU 0 instructions: 26000001 cycles: 156772571 heartbeat IPC: 0.166058 cumulative IPC: 0.159938 (Simulation time: 0 hr 2 min 52 sec) 
Heartbeat CPU 0 instructions: 27000001 cycles: 163484830 heartbeat IPC: 0.148981 cumulative IPC: 0.159487 (Simulation time: 0 hr 2 min 59 sec) 
Heartbeat CPU 0 instructions: 28000001 cycles: 169713364 heartbeat IPC: 0.160551 cumulative IPC: 0.159526 (Simulation time: 0 hr 3 min 6 sec) 
Heartbeat CPU 0 instructions: 29000000 cycles: 175743914 heartbeat IPC: 0.165822 cumulative IPC: 0.159743 (Simulation time: 0 hr 3 min 13 sec) 
Heartbeat CPU 0 instructions: 30000002 cycles: 181598549 heartbeat IPC: 0.170805 cumulative IPC: 0.1601 (Simulation time: 0 hr 3 min 20 sec) 
Heartbeat CPU 0 instructions: 31000002 cycles: 187385842 heartbeat IPC: 0.172792 cumulative IPC: 0.160493 (Simulation time: 0 hr 3 min 26 sec) 
Heartbeat CPU 0 instructions: 32000002 cycles: 193503571 heartbeat IPC: 0.163459 cumulative IPC: 0.160587 (Simulation time: 0 hr 3 min 33 sec) 
Heartbeat CPU 0 instructions: 33000000 cycles: 200327335 heartbeat IPC: 0.146546 cumulative IPC: 0.160108 (Simulation time: 0 hr 3 min 40 sec) 
Heartbeat CPU 0 instructions: 34000000 cycles: 206385746 heartbeat IPC: 0.16506 cumulative IPC: 0.160254 (Simulation time: 0 hr 3 min 47 sec) 
Heartbeat CPU 0 instructions: 35000003 cycles: 212250438 heartbeat IPC: 0.170512 cumulative IPC: 0.160538 (Simulation time: 0 hr 3 min 54 sec) 
Heartbeat CPU 0 instructions: 36000003 cycles: 218848674 heartbeat IPC: 0.151556 cumulative IPC: 0.160266 (Simulation time: 0 hr 4 min 1 sec) 
Heartbeat CPU 0 instructions: 37000000 cycles: 224861734 heartbeat IPC: 0.166304 cumulative IPC: 0.160428 (Simulation time: 0 hr 4 min 8 sec) 
Heartbeat CPU 0 instructions: 38000001 cycles: 231760018 heartbeat IPC: 0.144964 cumulative IPC: 0.159967 (Simulation time: 0 hr 4 min 14 sec) 
Heartbeat CPU 0 instructions: 39000000 cycles: 238116744 heartbeat IPC: 0.157314 cumulative IPC: 0.159896 (Simulation time: 0 hr 4 min 21 sec) 
Heartbeat CPU 0 instructions: 40000001 cycles: 244168233 heartbeat IPC: 0.165249 cumulative IPC: 0.160029 (Simulation time: 0 hr 4 min 28 sec) 
Heartbeat CPU 0 instructions: 41000000 cycles: 250147173 heartbeat IPC: 0.167254 cumulative IPC: 0.160202 (Simulation time: 0 hr 4 min 35 sec) 
Heartbeat CPU 0 instructions: 42000000 cycles: 256986337 heartbeat IPC: 0.146217 cumulative IPC: 0.159829 (Simulation time: 0 hr 4 min 42 sec) 
Heartbeat CPU 0 instructions: 43000003 cycles: 262675342 heartbeat IPC: 0.175778 cumulative IPC: 0.160175 (Simulation time: 0 hr 4 min 49 sec) 
Heartbeat CPU 0 instructions: 44000000 cycles: 268634555 heartbeat IPC: 0.167807 cumulative IPC: 0.160345 (Simulation time: 0 hr 4 min 56 sec) 
Heartbeat CPU 0 instructions: 45000000 cycles: 274814043 heartbeat IPC: 0.161826 cumulative IPC: 0.160378 (Simulation time: 0 hr 5 min 3 sec) 
Heartbeat CPU 0 instructions: 46000001 cycles: 281140411 heartbeat IPC: 0.158069 cumulative IPC: 0.160326 (Simulation time: 0 hr 5 min 9 sec) 
Heartbeat CPU 0 instructions: 47000003 cycles: 287177378 heartbeat IPC: 0.165646 cumulative IPC: 0.160438 (Simulation time: 0 hr 5 min 17 sec) 
Heartbeat CPU 0 instructions: 48000001 cycles: 293298268 heartbeat IPC: 0.163375 cumulative IPC: 0.160499 (Simulation time: 0 hr 5 min 23 sec) 
Heartbeat CPU 0 instructions: 49000000 cycles: 299682659 heartbeat IPC: 0.156632 cumulative IPC: 0.160417 (Simulation time: 0 hr 5 min 30 sec) 
Heartbeat CPU 0 instructions: 50000000 cycles: 306434218 heartbeat IPC: 0.148114 cumulative IPC: 0.160145 (Simulation time: 0 hr 5 min 37 sec) 
Heartbeat CPU 0 instructions: 51000001 cycles: 312163636 heartbeat IPC: 0.174538 cumulative IPC: 0.16041 (Simulation time: 0 hr 5 min 44 sec) 
Heartbeat CPU 0 instructions: 52000003 cycles: 318142314 heartbeat IPC: 0.167261 cumulative IPC: 0.160539 (Simulation time: 0 hr 5 min 51 sec) 
Heartbeat CPU 0 instructions: 53000002 cycles: 323899133 heartbeat IPC: 0.173707 cumulative IPC: 0.160773 (Simulation time: 0 hr 5 min 58 sec) 
Heartbeat CPU 0 instructions: 54000001 cycles: 330868180 heartbeat IPC: 0.143491 cumulative IPC: 0.160409 (Simulation time: 0 hr 6 min 5 sec) 
Heartbeat CPU 0 instructions: 55000000 cycles: 337164480 heartbeat IPC: 0.158823 cumulative IPC: 0.160379 (Simulation time: 0 hr 6 min 11 sec) 
Heartbeat CPU 0 instructions: 56000000 cycles: 343194366 heartbeat IPC: 0.165841 cumulative IPC: 0.160475 (Simulation time: 0 hr 6 min 18 sec) 
Heartbeat CPU 0 instructions: 57000000 cycles: 349167472 heartbeat IPC: 0.167417 cumulative IPC: 0.160594 (Simulation time: 0 hr 6 min 26 sec) 
Heartbeat CPU 0 instructions: 58000001 cycles: 355318243 heartbeat IPC: 0.162581 cumulative IPC: 0.160629 (Simulation time: 0 hr 6 min 33 sec) 
Heartbeat CPU 0 instructions: 59000003 cycles: 362153439 heartbeat IPC: 0.146302 cumulative IPC: 0.160358 (Simulation time: 0 hr 6 min 39 sec) 
Heartbeat CPU 0 instructions: 60000002 cycles: 368788495 heartbeat IPC: 0.150714 cumulative IPC: 0.160184 (Simulation time: 0 hr 6 min 46 sec) 
Heartbeat CPU 0 instructions: 61000001 cycles: 374754377 heartbeat IPC: 0.16762 cumulative IPC: 0.160303 (Simulation time: 0 hr 6 min 53 sec) 
Heartbeat CPU 0 instructions: 62000000 cycles: 381588629 heartbeat IPC: 0.146322 cumulative IPC: 0.160052 (Simulation time: 0 hr 7 min 0 sec) 
Heartbeat CPU 0 instructions: 63000000 cycles: 387999143 heartbeat IPC: 0.155994 cumulative IPC: 0.159985 (Simulation time: 0 hr 7 min 6 sec) 
Heartbeat CPU 0 instructions: 64000002 cycles: 393922215 heartbeat IPC: 0.168832 cumulative IPC: 0.160118 (Simulation time: 0 hr 7 min 14 sec) 
Heartbeat CPU 0 instructions: 65000001 cycles: 400048293 heartbeat IPC: 0.163236 cumulative IPC: 0.160166 (Simulation time: 0 hr 7 min 20 sec) 
Heartbeat CPU 0 instructions: 66000000 cycles: 406547499 heartbeat IPC: 0.153865 cumulative IPC: 0.160065 (Simulation time: 0 hr 7 min 27 sec) 
Heartbeat CPU 0 instructions: 67000000 cycles: 412412024 heartbeat IPC: 0.170517 cumulative IPC: 0.160214 (Simulation time: 0 hr 7 min 34 sec) 
Heartbeat CPU 0 instructions: 68000000 cycles: 418528150 heartbeat IPC: 0.163502 cumulative IPC: 0.160262 (Simulation time: 0 hr 7 min 41 sec) 
Heartbeat CPU 0 instructions: 69000003 cycles: 424913962 heartbeat IPC: 0.156598 cumulative IPC: 0.160207 (Simulation time: 0 hr 7 min 48 sec) 
Heartbeat CPU 0 instructions: 70000000 cycles: 432000671 heartbeat IPC: 0.141109 cumulative IPC: 0.159893 (Simulation time: 0 hr 7 min 55 sec) 
Heartbeat CPU 0 instructions: 71000000 cycles: 438891585 heartbeat IPC: 0.145119 cumulative IPC: 0.159661 (Simulation time: 0 hr 8 min 1 sec) 
Heartbeat CPU 0 instructions: 72000002 cycles: 445327588 heartbeat IPC: 0.155376 cumulative IPC: 0.159599 (Simulation time: 0 hr 8 min 8 sec) 
Heartbeat CPU 0 instructions: 73000002 cycles: 452184087 heartbeat IPC: 0.145847 cumulative IPC: 0.15939 (Simulation time: 0 hr 8 min 15 sec) 
Heartbeat CPU 0 instructions: 74000002 cycles: 458016619 heartbeat IPC: 0.171452 cumulative IPC: 0.159544 (Simulation time: 0 hr 8 min 22 sec) 
Heartbeat CPU 0 instructions: 75000003 cycles: 465247306 heartbeat IPC: 0.1383 cumulative IPC: 0.159213 (Simulation time: 0 hr 8 min 29 sec) 
Heartbeat CPU 0 instructions: 76000000 cycles: 472044637 heartbeat IPC: 0.147116 cumulative IPC: 0.159039 (Simulation time: 0 hr 8 min 36 sec) 
Heartbeat CPU 0 instructions: 77000000 cycles: 478374141 heartbeat IPC: 0.15799 cumulative IPC: 0.159025 (Simulation time: 0 hr 8 min 42 sec) 
Heartbeat CPU 0 instructions: 78000000 cycles: 484622770 heartbeat IPC: 0.160035 cumulative IPC: 0.159038 (Simulation time: 0 hr 8 min 49 sec) 
Heartbeat CPU 0 instructions: 79000001 cycles: 490335825 heartbeat IPC: 0.175038 cumulative IPC: 0.159225 (Simulation time: 0 hr 8 min 57 sec) 
Heartbeat CPU 0 instructions: 80000000 cycles: 496765426 heartbeat IPC: 0.15553 cumulative IPC: 0.159177 (Simulation time: 0 hr 9 min 4 sec) 
Heartbeat CPU 0 instructions: 81000000 cycles: 502639345 heartbeat IPC: 0.170244 cumulative IPC: 0.159306 (Simulation time: 0 hr 9 min 11 sec) 
Heartbeat CPU 0 instructions: 82000001 cycles: 509246569 heartbeat IPC: 0.15135 cumulative IPC: 0.159203 (Simulation time: 0 hr 9 min 18 sec) 
Heartbeat CPU 0 instructions: 83000003 cycles: 515736555 heartbeat IPC: 0.154084 cumulative IPC: 0.159139 (Simulation time: 0 hr 9 min 25 sec) 
Heartbeat CPU 0 instructions: 84000001 cycles: 522071082 heartbeat IPC: 0.157865 cumulative IPC: 0.159123 (Simulation time: 0 hr 9 min 32 sec) 
Heartbeat CPU 0 instructions: 85000000 cycles: 528222630 heartbeat IPC: 0.162561 cumulative IPC: 0.159163 (Simulation time: 0 hr 9 min 39 sec) 
Heartbeat CPU 0 instructions: 86000002 cycles: 534407981 heartbeat IPC: 0.161673 cumulative IPC: 0.159192 (Simulation time: 0 hr 9 min 46 sec) 
Heartbeat CPU 0 instructions: 87000003 cycles: 540662454 heartbeat IPC: 0.159886 cumulative IPC: 0.1592 (Simulation time: 0 hr 9 min 52 sec) 
Heartbeat CPU 0 instructions: 88000000 cycles: 547588735 heartbeat IPC: 0.144377 cumulative IPC: 0.159013 (Simulation time: 0 hr 9 min 59 sec) 
Heartbeat CPU 0 instructions: 89000002 cycles: 553830370 heartbeat IPC: 0.160215 cumulative IPC: 0.159026 (Simulation time: 0 hr 10 min 6 sec) 
Heartbeat CPU 0 instructions: 90000003 cycles: 560227168 heartbeat IPC: 0.156328 cumulative IPC: 0.158995 (Simulation time: 0 hr 10 min 13 sec) 
Heartbeat CPU 0 instructions: 91000002 cycles: 566527034 heartbeat IPC: 0.158733 cumulative IPC: 0.158992 (Simulation time: 0 hr 10 min 20 sec) 
Heartbeat CPU 0 instructions: 92000001 cycles: 572515424 heartbeat IPC: 0.16699 cumulative IPC: 0.159076 (Simulation time: 0 hr 10 min 27 sec) 
Heartbeat CPU 0 instructions: 93000002 cycles: 579280591 heartbeat IPC: 0.147816 cumulative IPC: 0.158945 (Simulation time: 0 hr 10 min 34 sec) 
Heartbeat CPU 0 instructions: 94000003 cycles: 585132052 heartbeat IPC: 0.170898 cumulative IPC: 0.159064 (Simulation time: 0 hr 10 min 41 sec) 
Heartbeat CPU 0 instructions: 95000002 cycles: 590873344 heartbeat IPC: 0.174177 cumulative IPC: 0.159211 (Simulation time: 0 hr 10 min 48 sec) 
Heartbeat CPU 0 instructions: 96000001 cycles: 597582649 heartbeat IPC: 0.149047 cumulative IPC: 0.159097 (Simulation time: 0 hr 10 min 55 sec) 
Heartbeat CPU 0 instructions: 97000000 cycles: 603515858 heartbeat IPC: 0.168543 cumulative IPC: 0.15919 (Simulation time: 0 hr 11 min 2 sec) 
Heartbeat CPU 0 instructions: 98000002 cycles: 609682575 heartbeat IPC: 0.162161 cumulative IPC: 0.15922 (Simulation time: 0 hr 11 min 9 sec) 
Heartbeat CPU 0 instructions: 99000000 cycles: 616313366 heartbeat IPC: 0.150811 cumulative IPC: 0.159129 (Simulation time: 0 hr 11 min 16 sec) 
Heartbeat CPU 0 instructions: 100000000 cycles: 622917616 heartbeat IPC: 0.151418 cumulative IPC: 0.159048 (Simulation time: 0 hr 11 min 23 sec) 
Heartbeat CPU 0 instructions: 101000000 cycles: 629240438 heartbeat IPC: 0.158157 cumulative IPC: 0.159039 (Simulation time: 0 hr 11 min 29 sec) 
Heartbeat CPU 0 instructions: 102000003 cycles: 635792278 heartbeat IPC: 0.152629 cumulative IPC: 0.158972 (Simulation time: 0 hr 11 min 36 sec) 
Heartbeat CPU 0 instructions: 103000001 cycles: 641782248 heartbeat IPC: 0.166945 cumulative IPC: 0.159047 (Simulation time: 0 hr 11 min 44 sec) 
Heartbeat CPU 0 instructions: 104000003 cycles: 648297728 heartbeat IPC: 0.153481 cumulative IPC: 0.158991 (Simulation time: 0 hr 11 min 51 sec) 
Heartbeat CPU 0 instructions: 105000001 cycles: 654437740 heartbeat IPC: 0.162866 cumulative IPC: 0.159027 (Simulation time: 0 hr 11 min 58 sec) 
Heartbeat CPU 0 instructions: 106000002 cycles: 661158755 heartbeat IPC: 0.148787 cumulative IPC: 0.158923 (Simulation time: 0 hr 12 min 4 sec) 
Heartbeat CPU 0 instructions: 107000000 cycles: 667401239 heartbeat IPC: 0.160192 cumulative IPC: 0.158935 (Simulation time: 0 hr 12 min 12 sec) 
Heartbeat CPU 0 instructions: 108000003 cycles: 673256423 heartbeat IPC: 0.170789 cumulative IPC: 0.159038 (Simulation time: 0 hr 12 min 19 sec) 
Heartbeat CPU 0 instructions: 109000002 cycles: 679802942 heartbeat IPC: 0.152753 cumulative IPC: 0.158978 (Simulation time: 0 hr 12 min 26 sec) 
Heartbeat CPU 0 instructions: 110000000 cycles: 686106452 heartbeat IPC: 0.158641 cumulative IPC: 0.158975 (Simulation time: 0 hr 12 min 33 sec) 
Heartbeat CPU 0 instructions: 111000000 cycles: 691891809 heartbeat IPC: 0.17285 cumulative IPC: 0.159091 (Simulation time: 0 hr 12 min 40 sec) 
Heartbeat CPU 0 instructions: 112000002 cycles: 697996540 heartbeat IPC: 0.163808 cumulative IPC: 0.159132 (Simulation time: 0 hr 12 min 47 sec) 
Heartbeat CPU 0 instructions: 113000002 cycles: 704459535 heartbeat IPC: 0.154727 cumulative IPC: 0.159092 (Simulation time: 0 hr 12 min 54 sec) 
Heartbeat CPU 0 instructions: 114000002 cycles: 710828420 heartbeat IPC: 0.157013 cumulative IPC: 0.159073 (Simulation time: 0 hr 13 min 1 sec) 
Heartbeat CPU 0 instructions: 115000001 cycles: 716800600 heartbeat IPC: 0.167443 cumulative IPC: 0.159143 (Simulation time: 0 hr 13 min 9 sec) 
Heartbeat CPU 0 instructions: 116000001 cycles: 722562517 heartbeat IPC: 0.173553 cumulative IPC: 0.159258 (Simulation time: 0 hr 13 min 16 sec) 
Heartbeat CPU 0 instructions: 117000002 cycles: 728946226 heartbeat IPC: 0.156649 cumulative IPC: 0.159235 (Simulation time: 0 hr 13 min 23 sec) 
Heartbeat CPU 0 instructions: 118000000 cycles: 734817221 heartbeat IPC: 0.170329 cumulative IPC: 0.159323 (Simulation time: 0 hr 13 min 30 sec) 
Heartbeat CPU 0 instructions: 119000001 cycles: 740580806 heartbeat IPC: 0.173503 cumulative IPC: 0.159434 (Simulation time: 0 hr 13 min 37 sec) 
Heartbeat CPU 0 instructions: 120000000 cycles: 747464420 heartbeat IPC: 0.145272 cumulative IPC: 0.159303 (Simulation time: 0 hr 13 min 44 sec) 
Heartbeat CPU 0 instructions: 121000000 cycles: 753833487 heartbeat IPC: 0.157009 cumulative IPC: 0.159284 (Simulation time: 0 hr 13 min 51 sec) 
Heartbeat CPU 0 instructions: 122000001 cycles: 759781849 heartbeat IPC: 0.168114 cumulative IPC: 0.159353 (Simulation time: 0 hr 13 min 58 sec) 
Heartbeat CPU 0 instructions: 123000003 cycles: 765995031 heartbeat IPC: 0.160948 cumulative IPC: 0.159366 (Simulation time: 0 hr 14 min 5 sec) 
Heartbeat CPU 0 instructions: 124000001 cycles: 772293155 heartbeat IPC: 0.158777 cumulative IPC: 0.159361 (Simulation time: 0 hr 14 min 13 sec) 
Heartbeat CPU 0 instructions: 125000001 cycles: 778641803 heartbeat IPC: 0.157514 cumulative IPC: 0.159346 (Simulation time: 0 hr 14 min 20 sec) 
Heartbeat CPU 0 instructions: 126000000 cycles: 784826288 heartbeat IPC: 0.161695 cumulative IPC: 0.159365 (Simulation time: 0 hr 14 min 27 sec) 
Heartbeat CPU 0 instructions: 127000003 cycles: 791123978 heartbeat IPC: 0.158789 cumulative IPC: 0.15936 (Simulation time: 0 hr 14 min 33 sec) 
Heartbeat CPU 0 instructions: 128000002 cycles: 797535860 heartbeat IPC: 0.15596 cumulative IPC: 0.159333 (Simulation time: 0 hr 14 min 40 sec) 
Heartbeat CPU 0 instructions: 129000000 cycles: 803670647 heartbeat IPC: 0.163005 cumulative IPC: 0.159361 (Simulation time: 0 hr 14 min 47 sec) 
Heartbeat CPU 0 instructions: 130000000 cycles: 809996769 heartbeat IPC: 0.158075 cumulative IPC: 0.159351 (Simulation time: 0 hr 14 min 55 sec) 
Heartbeat CPU 0 instructions: 131000001 cycles: 815682816 heartbeat IPC: 0.175869 cumulative IPC: 0.159466 (Simulation time: 0 hr 15 min 2 sec) 
Heartbeat CPU 0 instructions: 132000000 cycles: 822421823 heartbeat IPC: 0.14839 cumulative IPC: 0.159375 (Simulation time: 0 hr 15 min 9 sec) 
Heartbeat CPU 0 instructions: 133000002 cycles: 829220917 heartbeat IPC: 0.147079 cumulative IPC: 0.159274 (Simulation time: 0 hr 15 min 16 sec) 
Heartbeat CPU 0 instructions: 134000000 cycles: 836285245 heartbeat IPC: 0.141556 cumulative IPC: 0.159125 (Simulation time: 0 hr 15 min 22 sec) 
Heartbeat CPU 0 instructions: 135000001 cycles: 842618641 heartbeat IPC: 0.157893 cumulative IPC: 0.159115 (Simulation time: 0 hr 15 min 29 sec) 
Heartbeat CPU 0 instructions: 136000001 cycles: 849072262 heartbeat IPC: 0.154952 cumulative IPC: 0.159084 (Simulation time: 0 hr 15 min 37 sec) 
Heartbeat CPU 0 instructions: 137000001 cycles: 854987302 heartbeat IPC: 0.169061 cumulative IPC: 0.159153 (Simulation time: 0 hr 15 min 44 sec) 
Heartbeat CPU 0 instructions: 138000002 cycles: 861666822 heartbeat IPC: 0.149712 cumulative IPC: 0.159079 (Simulation time: 0 hr 15 min 51 sec) 
Heartbeat CPU 0 instructions: 139000002 cycles: 867672496 heartbeat IPC: 0.166509 cumulative IPC: 0.159131 (Simulation time: 0 hr 15 min 58 sec) 
Heartbeat CPU 0 instructions: 140000000 cycles: 873631933 heartbeat IPC: 0.167801 cumulative IPC: 0.15919 (Simulation time: 0 hr 16 min 6 sec) 
Heartbeat CPU 0 instructions: 141000000 cycles: 879855213 heartbeat IPC: 0.160687 cumulative IPC: 0.159201 (Simulation time: 0 hr 16 min 13 sec) 
Heartbeat CPU 0 instructions: 142000001 cycles: 886097412 heartbeat IPC: 0.1602 cumulative IPC: 0.159208 (Simulation time: 0 hr 16 min 20 sec) 
Heartbeat CPU 0 instructions: 143000000 cycles: 892625501 heartbeat IPC: 0.153184 cumulative IPC: 0.159164 (Simulation time: 0 hr 16 min 27 sec) 
Heartbeat CPU 0 instructions: 144000000 cycles: 898533568 heartbeat IPC: 0.16926 cumulative IPC: 0.15923 (Simulation time: 0 hr 16 min 34 sec) 
Heartbeat CPU 0 instructions: 145000000 cycles: 904948759 heartbeat IPC: 0.15588 cumulative IPC: 0.159206 (Simulation time: 0 hr 16 min 41 sec) 
Heartbeat CPU 0 instructions: 146000000 cycles: 911084666 heartbeat IPC: 0.162975 cumulative IPC: 0.159232 (Simulation time: 0 hr 16 min 48 sec) 
Heartbeat CPU 0 instructions: 147000000 cycles: 917049732 heartbeat IPC: 0.167643 cumulative IPC: 0.159286 (Simulation time: 0 hr 16 min 56 sec) 
Heartbeat CPU 0 instructions: 148000001 cycles: 923389659 heartbeat IPC: 0.157731 cumulative IPC: 0.159276 (Simulation time: 0 hr 17 min 3 sec) 
Heartbeat CPU 0 instructions: 149000000 cycles: 929999836 heartbeat IPC: 0.151282 cumulative IPC: 0.159219 (Simulation time: 0 hr 17 min 10 sec) 
Heartbeat CPU 0 instructions: 150000001 cycles: 936003870 heartbeat IPC: 0.166555 cumulative IPC: 0.159266 (Simulation time: 0 hr 17 min 17 sec) 
Heartbeat CPU 0 instructions: 151000001 cycles: 941767342 heartbeat IPC: 0.173507 cumulative IPC: 0.159353 (Simulation time: 0 hr 17 min 25 sec) 
Heartbeat CPU 0 instructions: 152000001 cycles: 947684485 heartbeat IPC: 0.169 cumulative IPC: 0.159413 (Simulation time: 0 hr 17 min 32 sec) 
Heartbeat CPU 0 instructions: 153000000 cycles: 953676986 heartbeat IPC: 0.166875 cumulative IPC: 0.15946 (Simulation time: 0 hr 17 min 39 sec) 
Heartbeat CPU 0 instructions: 154000000 cycles: 959549435 heartbeat IPC: 0.170287 cumulative IPC: 0.159527 (Simulation time: 0 hr 17 min 47 sec) 
Heartbeat CPU 0 instructions: 155000002 cycles: 965460524 heartbeat IPC: 0.169174 cumulative IPC: 0.159586 (Simulation time: 0 hr 17 min 54 sec) 
Heartbeat CPU 0 instructions: 156000003 cycles: 971230319 heartbeat IPC: 0.173317 cumulative IPC: 0.159667 (Simulation time: 0 hr 18 min 2 sec) 
Heartbeat CPU 0 instructions: 157000002 cycles: 978064792 heartbeat IPC: 0.146317 cumulative IPC: 0.159574 (Simulation time: 0 hr 18 min 9 sec) 
Heartbeat CPU 0 instructions: 158000002 cycles: 984635301 heartbeat IPC: 0.152195 cumulative IPC: 0.159525 (Simulation time: 0 hr 18 min 15 sec) 
Heartbeat CPU 0 instructions: 159000001 cycles: 990447929 heartbeat IPC: 0.172039 cumulative IPC: 0.159598 (Simulation time: 0 hr 18 min 23 sec) 
Heartbeat CPU 0 instructions: 160000000 cycles: 997013551 heartbeat IPC: 0.152308 cumulative IPC: 0.15955 (Simulation time: 0 hr 18 min 30 sec) 
Heartbeat CPU 0 instructions: 161000002 cycles: 1003464184 heartbeat IPC: 0.155024 cumulative IPC: 0.159521 (Simulation time: 0 hr 18 min 37 sec) 
Heartbeat CPU 0 instructions: 162000000 cycles: 1010181004 heartbeat IPC: 0.14888 cumulative IPC: 0.15945 (Simulation time: 0 hr 18 min 44 sec) 
Heartbeat CPU 0 instructions: 163000002 cycles: 1016992409 heartbeat IPC: 0.146813 cumulative IPC: 0.159366 (Simulation time: 0 hr 18 min 51 sec) 
Heartbeat CPU 0 instructions: 164000000 cycles: 1023024558 heartbeat IPC: 0.165778 cumulative IPC: 0.159403 (Simulation time: 0 hr 18 min 58 sec) 
Heartbeat CPU 0 instructions: 165000000 cycles: 1029294090 heartbeat IPC: 0.159502 cumulative IPC: 0.159404 (Simulation time: 0 hr 19 min 6 sec) 
Heartbeat CPU 0 instructions: 166000003 cycles: 1035207532 heartbeat IPC: 0.169107 cumulative IPC: 0.15946 (Simulation time: 0 hr 19 min 13 sec) 
Heartbeat CPU 0 instructions: 167000000 cycles: 1041171908 heartbeat IPC: 0.167662 cumulative IPC: 0.159507 (Simulation time: 0 hr 19 min 20 sec) 
Heartbeat CPU 0 instructions: 168000001 cycles: 1047061839 heartbeat IPC: 0.169781 cumulative IPC: 0.159564 (Simulation time: 0 hr 19 min 28 sec) 
Heartbeat CPU 0 instructions: 169000000 cycles: 1052887898 heartbeat IPC: 0.171642 cumulative IPC: 0.159631 (Simulation time: 0 hr 19 min 35 sec) 
Heartbeat CPU 0 instructions: 170000003 cycles: 1058774138 heartbeat IPC: 0.169888 cumulative IPC: 0.159688 (Simulation time: 0 hr 19 min 43 sec) 
Heartbeat CPU 0 instructions: 171000003 cycles: 1065278673 heartbeat IPC: 0.153739 cumulative IPC: 0.159652 (Simulation time: 0 hr 19 min 50 sec) 
Heartbeat CPU 0 instructions: 172000000 cycles: 1071434328 heartbeat IPC: 0.162452 cumulative IPC: 0.159668 (Simulation time: 0 hr 19 min 57 sec) 
Heartbeat CPU 0 instructions: 173000003 cycles: 1077673130 heartbeat IPC: 0.160288 cumulative IPC: 0.159672 (Simulation time: 0 hr 20 min 5 sec) 
Heartbeat CPU 0 instructions: 174000001 cycles: 1083519654 heartbeat IPC: 0.171041 cumulative IPC: 0.159733 (Simulation time: 0 hr 20 min 12 sec) 
Heartbeat CPU 0 instructions: 175000001 cycles: 1089947517 heartbeat IPC: 0.155573 cumulative IPC: 0.159708 (Simulation time: 0 hr 20 min 19 sec) 
Heartbeat CPU 0 instructions: 176000000 cycles: 1095758622 heartbeat IPC: 0.172084 cumulative IPC: 0.159774 (Simulation time: 0 hr 20 min 27 sec) 
Heartbeat CPU 0 instructions: 177000003 cycles: 1101973394 heartbeat IPC: 0.160907 cumulative IPC: 0.15978 (Simulation time: 0 hr 20 min 34 sec) 
Heartbeat CPU 0 instructions: 178000002 cycles: 1108561654 heartbeat IPC: 0.151785 cumulative IPC: 0.159733 (Simulation time: 0 hr 20 min 41 sec) 
Heartbeat CPU 0 instructions: 179000000 cycles: 1114529866 heartbeat IPC: 0.167554 cumulative IPC: 0.159775 (Simulation time: 0 hr 20 min 49 sec) 
Heartbeat CPU 0 instructions: 180000001 cycles: 1120987935 heartbeat IPC: 0.154845 cumulative IPC: 0.159746 (Simulation time: 0 hr 20 min 56 sec) 
Heartbeat CPU 0 instructions: 181000002 cycles: 1128003276 heartbeat IPC: 0.142545 cumulative IPC: 0.159639 (Simulation time: 0 hr 21 min 3 sec) 
Heartbeat CPU 0 instructions: 182000002 cycles: 1133844018 heartbeat IPC: 0.171211 cumulative IPC: 0.159699 (Simulation time: 0 hr 21 min 10 sec) 
Heartbeat CPU 0 instructions: 183000000 cycles: 1139779270 heartbeat IPC: 0.168485 cumulative IPC: 0.159745 (Simulation time: 0 hr 21 min 18 sec) 
Heartbeat CPU 0 instructions: 184000002 cycles: 1146046109 heartbeat IPC: 0.15957 cumulative IPC: 0.159744 (Simulation time: 0 hr 21 min 24 sec) 
Heartbeat CPU 0 instructions: 185000001 cycles: 1151972872 heartbeat IPC: 0.168726 cumulative IPC: 0.15979 (Simulation time: 0 hr 21 min 32 sec) 
Heartbeat CPU 0 instructions: 186000002 cycles: 1157925380 heartbeat IPC: 0.167997 cumulative IPC: 0.159832 (Simulation time: 0 hr 21 min 39 sec) 
Heartbeat CPU 0 instructions: 187000000 cycles: 1163958157 heartbeat IPC: 0.165761 cumulative IPC: 0.159863 (Simulation time: 0 hr 21 min 46 sec) 
Heartbeat CPU 0 instructions: 188000003 cycles: 1169751603 heartbeat IPC: 0.172609 cumulative IPC: 0.159926 (Simulation time: 0 hr 21 min 54 sec) 
Heartbeat CPU 0 instructions: 189000000 cycles: 1175787027 heartbeat IPC: 0.165688 cumulative IPC: 0.159956 (Simulation time: 0 hr 22 min 1 sec) 
Heartbeat CPU 0 instructions: 190000000 cycles: 1181766202 heartbeat IPC: 0.167247 cumulative IPC: 0.159993 (Simulation time: 0 hr 22 min 9 sec) 
Heartbeat CPU 0 instructions: 191000001 cycles: 1188186524 heartbeat IPC: 0.155756 cumulative IPC: 0.15997 (Simulation time: 0 hr 22 min 16 sec) 
Heartbeat CPU 0 instructions: 192000001 cycles: 1194258361 heartbeat IPC: 0.164695 cumulative IPC: 0.159994 (Simulation time: 0 hr 22 min 23 sec) 
Heartbeat CPU 0 instructions: 193000000 cycles: 1200550866 heartbeat IPC: 0.158919 cumulative IPC: 0.159988 (Simulation time: 0 hr 22 min 31 sec) 
Heartbeat CPU 0 instructions: 194000000 cycles: 1206741390 heartbeat IPC: 0.161537 cumulative IPC: 0.159996 (Simulation time: 0 hr 22 min 38 sec) 
Heartbeat CPU 0 instructions: 195000000 cycles: 1212778388 heartbeat IPC: 0.165645 cumulative IPC: 0.160024 (Simulation time: 0 hr 22 min 46 sec) 
Heartbeat CPU 0 instructions: 196000002 cycles: 1218733839 heartbeat IPC: 0.167914 cumulative IPC: 0.160063 (Simulation time: 0 hr 22 min 53 sec) 
Heartbeat CPU 0 instructions: 197000001 cycles: 1224623451 heartbeat IPC: 0.16979 cumulative IPC: 0.16011 (Simulation time: 0 hr 23 min 1 sec) 
Heartbeat CPU 0 instructions: 198000000 cycles: 1230956242 heartbeat IPC: 0.157908 cumulative IPC: 0.160098 (Simulation time: 0 hr 23 min 8 sec) 
Heartbeat CPU 0 instructions: 199000000 cycles: 1237340938 heartbeat IPC: 0.156625 cumulative IPC: 0.16008 (Simulation time: 0 hr 23 min 15 sec) 
Heartbeat CPU 0 instructions: 200000001 cycles: 1243861398 heartbeat IPC: 0.153364 cumulative IPC: 0.160045 (Simulation time: 0 hr 23 min 23 sec) 
Heartbeat CPU 0 instructions: 201000003 cycles: 1250296038 heartbeat IPC: 0.155409 cumulative IPC: 0.160021 (Simulation time: 0 hr 23 min 30 sec) 
Heartbeat CPU 0 instructions: 202000003 cycles: 1256199669 heartbeat IPC: 0.169387 cumulative IPC: 0.160065 (Simulation time: 0 hr 23 min 37 sec) 
Heartbeat CPU 0 instructions: 203000000 cycles: 1262069424 heartbeat IPC: 0.170364 cumulative IPC: 0.160113 (Simulation time: 0 hr 23 min 45 sec) 
Heartbeat CPU 0 instructions: 204000000 cycles: 1268139508 heartbeat IPC: 0.164742 cumulative IPC: 0.160135 (Simulation time: 0 hr 23 min 52 sec) 
Heartbeat CPU 0 instructions: 205000002 cycles: 1275087081 heartbeat IPC: 0.143935 cumulative IPC: 0.160047 (Simulation time: 0 hr 23 min 58 sec) 
Heartbeat CPU 0 instructions: 206000000 cycles: 1281321306 heartbeat IPC: 0.160405 cumulative IPC: 0.160049 (Simulation time: 0 hr 24 min 6 sec) 
Heartbeat CPU 0 instructions: 207000001 cycles: 1287303384 heartbeat IPC: 0.167166 cumulative IPC: 0.160082 (Simulation time: 0 hr 24 min 13 sec) 
Heartbeat CPU 0 instructions: 208000001 cycles: 1293321149 heartbeat IPC: 0.166175 cumulative IPC: 0.16011 (Simulation time: 0 hr 24 min 21 sec) 
Heartbeat CPU 0 instructions: 209000000 cycles: 1299517215 heartbeat IPC: 0.161393 cumulative IPC: 0.160116 (Simulation time: 0 hr 24 min 28 sec) 
Heartbeat CPU 0 instructions: 210000002 cycles: 1306121101 heartbeat IPC: 0.151426 cumulative IPC: 0.160072 (Simulation time: 0 hr 24 min 35 sec) 
Heartbeat CPU 0 instructions: 211000003 cycles: 1312156798 heartbeat IPC: 0.165681 cumulative IPC: 0.160098 (Simulation time: 0 hr 24 min 41 sec) 
Heartbeat CPU 0 instructions: 212000000 cycles: 1319284588 heartbeat IPC: 0.140296 cumulative IPC: 0.159991 (Simulation time: 0 hr 24 min 48 sec) 
Heartbeat CPU 0 instructions: 213000000 cycles: 1325398129 heartbeat IPC: 0.163571 cumulative IPC: 0.160008 (Simulation time: 0 hr 24 min 55 sec) 
Heartbeat CPU 0 instructions: 214000003 cycles: 1331648208 heartbeat IPC: 0.159998 cumulative IPC: 0.160008 (Simulation time: 0 hr 25 min 2 sec) 
Heartbeat CPU 0 instructions: 215000001 cycles: 1337921032 heartbeat IPC: 0.159418 cumulative IPC: 0.160005 (Simulation time: 0 hr 25 min 9 sec) 
Heartbeat CPU 0 instructions: 216000001 cycles: 1343849404 heartbeat IPC: 0.16868 cumulative IPC: 0.160043 (Simulation time: 0 hr 25 min 17 sec) 
Heartbeat CPU 0 instructions: 217000000 cycles: 1349742192 heartbeat IPC: 0.169699 cumulative IPC: 0.160085 (Simulation time: 0 hr 25 min 25 sec) 
Heartbeat CPU 0 instructions: 218000002 cycles: 1356163083 heartbeat IPC: 0.155742 cumulative IPC: 0.160065 (Simulation time: 0 hr 25 min 32 sec) 
Heartbeat CPU 0 instructions: 219000001 cycles: 1362046282 heartbeat IPC: 0.169975 cumulative IPC: 0.160108 (Simulation time: 0 hr 25 min 39 sec) 
Heartbeat CPU 0 instructions: 220000000 cycles: 1368247541 heartbeat IPC: 0.161257 cumulative IPC: 0.160113 (Simulation time: 0 hr 25 min 47 sec) 
Heartbeat CPU 0 instructions: 221000000 cycles: 1374424843 heartbeat IPC: 0.161883 cumulative IPC: 0.160121 (Simulation time: 0 hr 25 min 54 sec) 
Heartbeat CPU 0 instructions: 222000001 cycles: 1380863141 heartbeat IPC: 0.155321 cumulative IPC: 0.160098 (Simulation time: 0 hr 26 min 2 sec) 
Heartbeat CPU 0 instructions: 223000000 cycles: 1387857661 heartbeat IPC: 0.142969 cumulative IPC: 0.160012 (Simulation time: 0 hr 26 min 9 sec) 
Heartbeat CPU 0 instructions: 224000002 cycles: 1393807962 heartbeat IPC: 0.168059 cumulative IPC: 0.160046 (Simulation time: 0 hr 26 min 16 sec) 
Heartbeat CPU 0 instructions: 225000001 cycles: 1399725822 heartbeat IPC: 0.16898 cumulative IPC: 0.160084 (Simulation time: 0 hr 26 min 24 sec) 
Heartbeat CPU 0 instructions: 226000002 cycles: 1405889909 heartbeat IPC: 0.16223 cumulative IPC: 0.160094 (Simulation time: 0 hr 26 min 31 sec) 
Heartbeat CPU 0 instructions: 227000000 cycles: 1411985769 heartbeat IPC: 0.164045 cumulative IPC: 0.160111 (Simulation time: 0 hr 26 min 39 sec) 
Heartbeat CPU 0 instructions: 228000000 cycles: 1417995799 heartbeat IPC: 0.166389 cumulative IPC: 0.160137 (Simulation time: 0 hr 26 min 46 sec) 
Heartbeat CPU 0 instructions: 229000001 cycles: 1424143982 heartbeat IPC: 0.16265 cumulative IPC: 0.160148 (Simulation time: 0 hr 26 min 53 sec) 
Heartbeat CPU 0 instructions: 230000002 cycles: 1430226908 heartbeat IPC: 0.164395 cumulative IPC: 0.160166 (Simulation time: 0 hr 27 min 1 sec) 
Heartbeat CPU 0 instructions: 231000000 cycles: 1436266950 heartbeat IPC: 0.165561 cumulative IPC: 0.160189 (Simulation time: 0 hr 27 min 8 sec) 
Heartbeat CPU 0 instructions: 232000001 cycles: 1442603395 heartbeat IPC: 0.157817 cumulative IPC: 0.160178 (Simulation time: 0 hr 27 min 15 sec) 
Heartbeat CPU 0 instructions: 233000003 cycles: 1449303804 heartbeat IPC: 0.149245 cumulative IPC: 0.160128 (Simulation time: 0 hr 27 min 23 sec) 
Heartbeat CPU 0 instructions: 234000000 cycles: 1455493698 heartbeat IPC: 0.161553 cumulative IPC: 0.160134 (Simulation time: 0 hr 27 min 30 sec) 
Heartbeat CPU 0 instructions: 235000000 cycles: 1461619520 heartbeat IPC: 0.163243 cumulative IPC: 0.160147 (Simulation time: 0 hr 27 min 37 sec) 
Heartbeat CPU 0 instructions: 236000000 cycles: 1468742994 heartbeat IPC: 0.140381 cumulative IPC: 0.160051 (Simulation time: 0 hr 27 min 44 sec) 
Heartbeat CPU 0 instructions: 237000003 cycles: 1474761928 heartbeat IPC: 0.166143 cumulative IPC: 0.160076 (Simulation time: 0 hr 27 min 52 sec) 
Heartbeat CPU 0 instructions: 238000003 cycles: 1480971694 heartbeat IPC: 0.161037 cumulative IPC: 0.16008 (Simulation time: 0 hr 27 min 59 sec) 
Heartbeat CPU 0 instructions: 239000003 cycles: 1487069463 heartbeat IPC: 0.163994 cumulative IPC: 0.160096 (Simulation time: 0 hr 28 min 7 sec) 
Heartbeat CPU 0 instructions: 240000001 cycles: 1493421230 heartbeat IPC: 0.157436 cumulative IPC: 0.160085 (Simulation time: 0 hr 28 min 13 sec) 
Heartbeat CPU 0 instructions: 241000002 cycles: 1499584730 heartbeat IPC: 0.162246 cumulative IPC: 0.160094 (Simulation time: 0 hr 28 min 20 sec) 
Heartbeat CPU 0 instructions: 242000000 cycles: 1505581622 heartbeat IPC: 0.166753 cumulative IPC: 0.16012 (Simulation time: 0 hr 28 min 28 sec) 
Heartbeat CPU 0 instructions: 243000001 cycles: 1511540987 heartbeat IPC: 0.167803 cumulative IPC: 0.16015 (Simulation time: 0 hr 28 min 36 sec) 
Heartbeat CPU 0 instructions: 244000003 cycles: 1517689353 heartbeat IPC: 0.162645 cumulative IPC: 0.160161 (Simulation time: 0 hr 28 min 43 sec) 
Heartbeat CPU 0 instructions: 245000002 cycles: 1524214969 heartbeat IPC: 0.153242 cumulative IPC: 0.160131 (Simulation time: 0 hr 28 min 50 sec) 
Heartbeat CPU 0 instructions: 246000001 cycles: 1530533995 heartbeat IPC: 0.158252 cumulative IPC: 0.160123 (Simulation time: 0 hr 28 min 57 sec) 
Heartbeat CPU 0 instructions: 247000002 cycles: 1536722846 heartbeat IPC: 0.161581 cumulative IPC: 0.160129 (Simulation time: 0 hr 29 min 4 sec) 
Heartbeat CPU 0 instructions: 248000001 cycles: 1543357641 heartbeat IPC: 0.15072 cumulative IPC: 0.160089 (Simulation time: 0 hr 29 min 11 sec) 
Heartbeat CPU 0 instructions: 249000001 cycles: 1550134798 heartbeat IPC: 0.147555 cumulative IPC: 0.160034 (Simulation time: 0 hr 29 min 18 sec) 
Heartbeat CPU 0 instructions: 250000001 cycles: 1556652269 heartbeat IPC: 0.153434 cumulative IPC: 0.160006 (Simulation time: 0 hr 29 min 25 sec) 
Heartbeat CPU 0 instructions: 251000001 cycles: 1562663950 heartbeat IPC: 0.166343 cumulative IPC: 0.160031 (Simulation time: 0 hr 29 min 33 sec) 
Heartbeat CPU 0 instructions: 252000002 cycles: 1568855080 heartbeat IPC: 0.161522 cumulative IPC: 0.160036 (Simulation time: 0 hr 29 min 41 sec) 
Heartbeat CPU 0 instructions: 253000000 cycles: 1575078480 heartbeat IPC: 0.160684 cumulative IPC: 0.160039 (Simulation time: 0 hr 29 min 48 sec) 
Heartbeat CPU 0 instructions: 254000003 cycles: 1581311919 heartbeat IPC: 0.160426 cumulative IPC: 0.160041 (Simulation time: 0 hr 29 min 56 sec) 
Heartbeat CPU 0 instructions: 255000000 cycles: 1587351030 heartbeat IPC: 0.165587 cumulative IPC: 0.160062 (Simulation time: 0 hr 30 min 3 sec) 
Heartbeat CPU 0 instructions: 256000000 cycles: 1593590803 heartbeat IPC: 0.160262 cumulative IPC: 0.160062 (Simulation time: 0 hr 30 min 10 sec) 
Heartbeat CPU 0 instructions: 257000001 cycles: 1599698662 heartbeat IPC: 0.163724 cumulative IPC: 0.160076 (Simulation time: 0 hr 30 min 18 sec) 
Heartbeat CPU 0 instructions: 258000000 cycles: 1606494472 heartbeat IPC: 0.147149 cumulative IPC: 0.160022 (Simulation time: 0 hr 30 min 25 sec) 
Heartbeat CPU 0 instructions: 259000002 cycles: 1612721148 heartbeat IPC: 0.1606 cumulative IPC: 0.160024 (Simulation time: 0 hr 30 min 33 sec) 
Heartbeat CPU 0 instructions: 260000002 cycles: 1618839775 heartbeat IPC: 0.163435 cumulative IPC: 0.160037 (Simulation time: 0 hr 30 min 40 sec) 
Heartbeat CPU 0 instructions: 261000000 cycles: 1625581952 heartbeat IPC: 0.14832 cumulative IPC: 0.159988 (Simulation time: 0 hr 30 min 47 sec) 
Heartbeat CPU 0 instructions: 262000003 cycles: 1631723056 heartbeat IPC: 0.162838 cumulative IPC: 0.159999 (Simulation time: 0 hr 30 min 55 sec) 
Heartbeat CPU 0 instructions: 263000000 cycles: 1637842585 heartbeat IPC: 0.163411 cumulative IPC: 0.160012 (Simulation time: 0 hr 31 min 2 sec) 
Heartbeat CPU 0 instructions: 264000000 cycles: 1644300689 heartbeat IPC: 0.154844 cumulative IPC: 0.159991 (Simulation time: 0 hr 31 min 9 sec) 
Heartbeat CPU 0 instructions: 265000000 cycles: 1650756325 heartbeat IPC: 0.154903 cumulative IPC: 0.159971 (Simulation time: 0 hr 31 min 16 sec) 
Heartbeat CPU 0 instructions: 266000003 cycles: 1656852882 heartbeat IPC: 0.164027 cumulative IPC: 0.159986 (Simulation time: 0 hr 31 min 23 sec) 
Heartbeat CPU 0 instructions: 267000003 cycles: 1663160095 heartbeat IPC: 0.158549 cumulative IPC: 0.159981 (Simulation time: 0 hr 31 min 30 sec) 
Heartbeat CPU 0 instructions: 268000003 cycles: 1669673964 heartbeat IPC: 0.153519 cumulative IPC: 0.159956 (Simulation time: 0 hr 31 min 37 sec) 
Heartbeat CPU 0 instructions: 269000002 cycles: 1675762307 heartbeat IPC: 0.164248 cumulative IPC: 0.159971 (Simulation time: 0 hr 31 min 45 sec) 
Heartbeat CPU 0 instructions: 270000003 cycles: 1682416326 heartbeat IPC: 0.150285 cumulative IPC: 0.159933 (Simulation time: 0 hr 31 min 52 sec) 
Heartbeat CPU 0 instructions: 271000001 cycles: 1688660894 heartbeat IPC: 0.160139 cumulative IPC: 0.159934 (Simulation time: 0 hr 31 min 59 sec) 
Heartbeat CPU 0 instructions: 272000003 cycles: 1695255377 heartbeat IPC: 0.151642 cumulative IPC: 0.159902 (Simulation time: 0 hr 32 min 6 sec) 
Heartbeat CPU 0 instructions: 273000000 cycles: 1701641593 heartbeat IPC: 0.156587 cumulative IPC: 0.159889 (Simulation time: 0 hr 32 min 13 sec) 
Heartbeat CPU 0 instructions: 274000000 cycles: 1707990138 heartbeat IPC: 0.157516 cumulative IPC: 0.15988 (Simulation time: 0 hr 32 min 19 sec) 
Heartbeat CPU 0 instructions: 275000000 cycles: 1714380413 heartbeat IPC: 0.156488 cumulative IPC: 0.159868 (Simulation time: 0 hr 32 min 27 sec) 
Heartbeat CPU 0 instructions: 276000003 cycles: 1720738419 heartbeat IPC: 0.157282 cumulative IPC: 0.159858 (Simulation time: 0 hr 32 min 34 sec) 
Heartbeat CPU 0 instructions: 277000001 cycles: 1727408567 heartbeat IPC: 0.149921 cumulative IPC: 0.15982 (Simulation time: 0 hr 32 min 41 sec) 
Heartbeat CPU 0 instructions: 278000000 cycles: 1733531495 heartbeat IPC: 0.16332 cumulative IPC: 0.159832 (Simulation time: 0 hr 32 min 49 sec) 
Heartbeat CPU 0 instructions: 279000003 cycles: 1739581624 heartbeat IPC: 0.165286 cumulative IPC: 0.159851 (Simulation time: 0 hr 32 min 57 sec) 
Heartbeat CPU 0 instructions: 280000003 cycles: 1745962259 heartbeat IPC: 0.156724 cumulative IPC: 0.15984 (Simulation time: 0 hr 33 min 4 sec) 
Heartbeat CPU 0 instructions: 281000003 cycles: 1752196147 heartbeat IPC: 0.160414 cumulative IPC: 0.159842 (Simulation time: 0 hr 33 min 12 sec) 
Heartbeat CPU 0 instructions: 282000003 cycles: 1759023190 heartbeat IPC: 0.146476 cumulative IPC: 0.15979 (Simulation time: 0 hr 33 min 19 sec) 
Heartbeat CPU 0 instructions: 283000003 cycles: 1765525910 heartbeat IPC: 0.153782 cumulative IPC: 0.159768 (Simulation time: 0 hr 33 min 27 sec) 
Heartbeat CPU 0 instructions: 284000002 cycles: 1772067463 heartbeat IPC: 0.152869 cumulative IPC: 0.159742 (Simulation time: 0 hr 33 min 34 sec) 
Heartbeat CPU 0 instructions: 285000000 cycles: 1778440523 heartbeat IPC: 0.15691 cumulative IPC: 0.159732 (Simulation time: 0 hr 33 min 41 sec) 
Heartbeat CPU 0 instructions: 286000000 cycles: 1785259190 heartbeat IPC: 0.146656 cumulative IPC: 0.159682 (Simulation time: 0 hr 33 min 48 sec) 
Heartbeat CPU 0 instructions: 287000003 cycles: 1791437101 heartbeat IPC: 0.161867 cumulative IPC: 0.15969 (Simulation time: 0 hr 33 min 55 sec) 
Heartbeat CPU 0 instructions: 288000003 cycles: 1797503330 heartbeat IPC: 0.164847 cumulative IPC: 0.159707 (Simulation time: 0 hr 34 min 3 sec) 
Heartbeat CPU 0 instructions: 289000003 cycles: 1803638620 heartbeat IPC: 0.162991 cumulative IPC: 0.159718 (Simulation time: 0 hr 34 min 10 sec) 
Heartbeat CPU 0 instructions: 290000001 cycles: 1810471648 heartbeat IPC: 0.146348 cumulative IPC: 0.159668 (Simulation time: 0 hr 34 min 18 sec) 
Heartbeat CPU 0 instructions: 291000001 cycles: 1817189435 heartbeat IPC: 0.148859 cumulative IPC: 0.159628 (Simulation time: 0 hr 34 min 25 sec) 
Heartbeat CPU 0 instructions: 292000000 cycles: 1823334550 heartbeat IPC: 0.162731 cumulative IPC: 0.159638 (Simulation time: 0 hr 34 min 33 sec) 
Heartbeat CPU 0 instructions: 293000000 cycles: 1829438539 heartbeat IPC: 0.163827 cumulative IPC: 0.159652 (Simulation time: 0 hr 34 min 40 sec) 
Heartbeat CPU 0 instructions: 294000000 cycles: 1835484138 heartbeat IPC: 0.16541 cumulative IPC: 0.159671 (Simulation time: 0 hr 34 min 48 sec) 
Heartbeat CPU 0 instructions: 295000001 cycles: 1841522913 heartbeat IPC: 0.165597 cumulative IPC: 0.159691 (Simulation time: 0 hr 34 min 56 sec) 
Heartbeat CPU 0 instructions: 296000000 cycles: 1847854168 heartbeat IPC: 0.157946 cumulative IPC: 0.159685 (Simulation time: 0 hr 35 min 3 sec) 
Heartbeat CPU 0 instructions: 297000000 cycles: 1854163820 heartbeat IPC: 0.158487 cumulative IPC: 0.159681 (Simulation time: 0 hr 35 min 10 sec) 
Heartbeat CPU 0 instructions: 298000003 cycles: 1860507627 heartbeat IPC: 0.157635 cumulative IPC: 0.159674 (Simulation time: 0 hr 35 min 17 sec) 
Heartbeat CPU 0 instructions: 299000000 cycles: 1866679453 heartbeat IPC: 0.162026 cumulative IPC: 0.159681 (Simulation time: 0 hr 35 min 25 sec) 
Heartbeat CPU 0 instructions: 300000002 cycles: 1872884208 heartbeat IPC: 0.161167 cumulative IPC: 0.159686 (Simulation time: 0 hr 35 min 33 sec) 
Heartbeat CPU 0 instructions: 301000000 cycles: 1879256741 heartbeat IPC: 0.156923 cumulative IPC: 0.159677 (Simulation time: 0 hr 35 min 39 sec) 
Heartbeat CPU 0 instructions: 302000002 cycles: 1885659200 heartbeat IPC: 0.15619 cumulative IPC: 0.159665 (Simulation time: 0 hr 35 min 46 sec) 
Heartbeat CPU 0 instructions: 303000003 cycles: 1892136489 heartbeat IPC: 0.154386 cumulative IPC: 0.159647 (Simulation time: 0 hr 35 min 53 sec) 
Heartbeat CPU 0 instructions: 304000002 cycles: 1898317276 heartbeat IPC: 0.161792 cumulative IPC: 0.159654 (Simulation time: 0 hr 36 min 1 sec) 
Heartbeat CPU 0 instructions: 305000002 cycles: 1904984904 heartbeat IPC: 0.149978 cumulative IPC: 0.15962 (Simulation time: 0 hr 36 min 9 sec) 
Heartbeat CPU 0 instructions: 306000000 cycles: 1911424216 heartbeat IPC: 0.155296 cumulative IPC: 0.159605 (Simulation time: 0 hr 36 min 16 sec) 
Heartbeat CPU 0 instructions: 307000000 cycles: 1917842382 heartbeat IPC: 0.155808 cumulative IPC: 0.159593 (Simulation time: 0 hr 36 min 23 sec) 
Heartbeat CPU 0 instructions: 308000000 cycles: 1924166002 heartbeat IPC: 0.158137 cumulative IPC: 0.159588 (Simulation time: 0 hr 36 min 31 sec) 
Heartbeat CPU 0 instructions: 309000001 cycles: 1930363220 heartbeat IPC: 0.161363 cumulative IPC: 0.159594 (Simulation time: 0 hr 36 min 39 sec) 
Heartbeat CPU 0 instructions: 310000003 cycles: 1936449983 heartbeat IPC: 0.164291 cumulative IPC: 0.159608 (Simulation time: 0 hr 36 min 45 sec) 
Heartbeat CPU 0 instructions: 311000003 cycles: 1942872514 heartbeat IPC: 0.155702 cumulative IPC: 0.159596 (Simulation time: 0 hr 36 min 53 sec) 
Heartbeat CPU 0 instructions: 312000002 cycles: 1949678689 heartbeat IPC: 0.146925 cumulative IPC: 0.159551 (Simulation time: 0 hr 37 min 0 sec) 
Heartbeat CPU 0 instructions: 313000002 cycles: 1956078494 heartbeat IPC: 0.156255 cumulative IPC: 0.159541 (Simulation time: 0 hr 37 min 8 sec) 
Heartbeat CPU 0 instructions: 314000002 cycles: 1962353375 heartbeat IPC: 0.159366 cumulative IPC: 0.15954 (Simulation time: 0 hr 37 min 15 sec) 
Heartbeat CPU 0 instructions: 315000002 cycles: 1968517215 heartbeat IPC: 0.162237 cumulative IPC: 0.159548 (Simulation time: 0 hr 37 min 23 sec) 
Heartbeat CPU 0 instructions: 316000002 cycles: 1974659214 heartbeat IPC: 0.162813 cumulative IPC: 0.159559 (Simulation time: 0 hr 37 min 31 sec) 
Heartbeat CPU 0 instructions: 317000000 cycles: 1981187744 heartbeat IPC: 0.153174 cumulative IPC: 0.159537 (Simulation time: 0 hr 37 min 38 sec) 
Heartbeat CPU 0 instructions: 318000000 cycles: 1987468175 heartbeat IPC: 0.159225 cumulative IPC: 0.159537 (Simulation time: 0 hr 37 min 45 sec) 
Heartbeat CPU 0 instructions: 319000000 cycles: 1994148189 heartbeat IPC: 0.1497 cumulative IPC: 0.159504 (Simulation time: 0 hr 37 min 52 sec) 
Heartbeat CPU 0 instructions: 320000001 cycles: 2000621518 heartbeat IPC: 0.15448 cumulative IPC: 0.159487 (Simulation time: 0 hr 37 min 58 sec) 
Heartbeat CPU 0 instructions: 321000003 cycles: 2007436086 heartbeat IPC: 0.146745 cumulative IPC: 0.159444 (Simulation time: 0 hr 38 min 5 sec) 
Heartbeat CPU 0 instructions: 322000003 cycles: 2013925688 heartbeat IPC: 0.154093 cumulative IPC: 0.159427 (Simulation time: 0 hr 38 min 12 sec) 
Heartbeat CPU 0 instructions: 323000003 cycles: 2020271331 heartbeat IPC: 0.157588 cumulative IPC: 0.159421 (Simulation time: 0 hr 38 min 20 sec) 
Heartbeat CPU 0 instructions: 324000001 cycles: 2026533063 heartbeat IPC: 0.1597 cumulative IPC: 0.159422 (Simulation time: 0 hr 38 min 27 sec) 
Heartbeat CPU 0 instructions: 325000003 cycles: 2032769888 heartbeat IPC: 0.160338 cumulative IPC: 0.159425 (Simulation time: 0 hr 38 min 34 sec) 
Heartbeat CPU 0 instructions: 326000002 cycles: 2038973939 heartbeat IPC: 0.161185 cumulative IPC: 0.15943 (Simulation time: 0 hr 38 min 41 sec) 
Heartbeat CPU 0 instructions: 327000000 cycles: 2045316140 heartbeat IPC: 0.157674 cumulative IPC: 0.159425 (Simulation time: 0 hr 38 min 48 sec) 
Heartbeat CPU 0 instructions: 328000003 cycles: 2052036883 heartbeat IPC: 0.148794 cumulative IPC: 0.15939 (Simulation time: 0 hr 38 min 55 sec) 
Heartbeat CPU 0 instructions: 329000000 cycles: 2058498671 heartbeat IPC: 0.154755 cumulative IPC: 0.159375 (Simulation time: 0 hr 39 min 3 sec) 
Heartbeat CPU 0 instructions: 330000000 cycles: 2065549363 heartbeat IPC: 0.14183 cumulative IPC: 0.159315 (Simulation time: 0 hr 39 min 10 sec) 
Heartbeat CPU 0 instructions: 331000000 cycles: 2072045640 heartbeat IPC: 0.153934 cumulative IPC: 0.159298 (Simulation time: 0 hr 39 min 17 sec) 
Heartbeat CPU 0 instructions: 332000001 cycles: 2078626527 heartbeat IPC: 0.151955 cumulative IPC: 0.159275 (Simulation time: 0 hr 39 min 24 sec) 
Heartbeat CPU 0 instructions: 333000000 cycles: 2085813351 heartbeat IPC: 0.139143 cumulative IPC: 0.159206 (Simulation time: 0 hr 39 min 31 sec) 
Heartbeat CPU 0 instructions: 334000001 cycles: 2092485708 heartbeat IPC: 0.149872 cumulative IPC: 0.159176 (Simulation time: 0 hr 39 min 38 sec) 
Heartbeat CPU 0 instructions: 335000000 cycles: 2098993794 heartbeat IPC: 0.153655 cumulative IPC: 0.159159 (Simulation time: 0 hr 39 min 45 sec) 
Heartbeat CPU 0 instructions: 336000003 cycles: 2105689654 heartbeat IPC: 0.149346 cumulative IPC: 0.159128 (Simulation time: 0 hr 39 min 52 sec) 
Heartbeat CPU 0 instructions: 337000001 cycles: 2112336544 heartbeat IPC: 0.150446 cumulative IPC: 0.1591 (Simulation time: 0 hr 39 min 59 sec) 
Heartbeat CPU 0 instructions: 338000002 cycles: 2118661433 heartbeat IPC: 0.158106 cumulative IPC: 0.159097 (Simulation time: 0 hr 40 min 6 sec) 
Heartbeat CPU 0 instructions: 339000000 cycles: 2125188766 heartbeat IPC: 0.153202 cumulative IPC: 0.159079 (Simulation time: 0 hr 40 min 14 sec) 
Heartbeat CPU 0 instructions: 340000000 cycles: 2131154948 heartbeat IPC: 0.167611 cumulative IPC: 0.159103 (Simulation time: 0 hr 40 min 20 sec) 
Heartbeat CPU 0 instructions: 341000000 cycles: 2137767778 heartbeat IPC: 0.151221 cumulative IPC: 0.159079 (Simulation time: 0 hr 40 min 28 sec) 
Heartbeat CPU 0 instructions: 342000000 cycles: 2144380213 heartbeat IPC: 0.15123 cumulative IPC: 0.159055 (Simulation time: 0 hr 40 min 35 sec) 
Heartbeat CPU 0 instructions: 343000002 cycles: 2151155862 heartbeat IPC: 0.147588 cumulative IPC: 0.159018 (Simulation time: 0 hr 40 min 42 sec) 
Heartbeat CPU 0 instructions: 344000002 cycles: 2157942775 heartbeat IPC: 0.147342 cumulative IPC: 0.158982 (Simulation time: 0 hr 40 min 49 sec) 
Heartbeat CPU 0 instructions: 345000000 cycles: 2164081424 heartbeat IPC: 0.162902 cumulative IPC: 0.158993 (Simulation time: 0 hr 40 min 56 sec) 
Heartbeat CPU 0 instructions: 346000002 cycles: 2170556124 heartbeat IPC: 0.154448 cumulative IPC: 0.158979 (Simulation time: 0 hr 41 min 3 sec) 
Heartbeat CPU 0 instructions: 347000003 cycles: 2177160309 heartbeat IPC: 0.151419 cumulative IPC: 0.158956 (Simulation time: 0 hr 41 min 9 sec) 
Heartbeat CPU 0 instructions: 348000003 cycles: 2183584582 heartbeat IPC: 0.15566 cumulative IPC: 0.158947 (Simulation time: 0 hr 41 min 17 sec) 
Heartbeat CPU 0 instructions: 349000000 cycles: 2190046722 heartbeat IPC: 0.154747 cumulative IPC: 0.158934 (Simulation time: 0 hr 41 min 24 sec) 
Heartbeat CPU 0 instructions: 350000000 cycles: 2196526910 heartbeat IPC: 0.154317 cumulative IPC: 0.158921 (Simulation time: 0 hr 41 min 32 sec) 
Heartbeat CPU 0 instructions: 351000000 cycles: 2202983409 heartbeat IPC: 0.154883 cumulative IPC: 0.158909 (Simulation time: 0 hr 41 min 39 sec) 
Heartbeat CPU 0 instructions: 352000000 cycles: 2209247972 heartbeat IPC: 0.159628 cumulative IPC: 0.158911 (Simulation time: 0 hr 41 min 45 sec) 
Heartbeat CPU 0 instructions: 353000001 cycles: 2215597881 heartbeat IPC: 0.157483 cumulative IPC: 0.158907 (Simulation time: 0 hr 41 min 53 sec) 
Heartbeat CPU 0 instructions: 354000000 cycles: 2221801589 heartbeat IPC: 0.161194 cumulative IPC: 0.158913 (Simulation time: 0 hr 42 min 0 sec) 
Heartbeat CPU 0 instructions: 355000001 cycles: 2227955340 heartbeat IPC: 0.162503 cumulative IPC: 0.158923 (Simulation time: 0 hr 42 min 8 sec) 
Heartbeat CPU 0 instructions: 356000000 cycles: 2234753776 heartbeat IPC: 0.147093 cumulative IPC: 0.158887 (Simulation time: 0 hr 42 min 15 sec) 
Heartbeat CPU 0 instructions: 357000001 cycles: 2241906601 heartbeat IPC: 0.139805 cumulative IPC: 0.158826 (Simulation time: 0 hr 42 min 21 sec) 
Heartbeat CPU 0 instructions: 358000003 cycles: 2248521517 heartbeat IPC: 0.151174 cumulative IPC: 0.158804 (Simulation time: 0 hr 42 min 29 sec) 
Heartbeat CPU 0 instructions: 359000003 cycles: 2255009420 heartbeat IPC: 0.154133 cumulative IPC: 0.15879 (Simulation time: 0 hr 42 min 37 sec) 
Heartbeat CPU 0 instructions: 360000000 cycles: 2261767988 heartbeat IPC: 0.14796 cumulative IPC: 0.158758 (Simulation time: 0 hr 42 min 43 sec) 
Heartbeat CPU 0 instructions: 361000002 cycles: 2268442067 heartbeat IPC: 0.149834 cumulative IPC: 0.158732 (Simulation time: 0 hr 42 min 50 sec) 
Heartbeat CPU 0 instructions: 362000003 cycles: 2274875380 heartbeat IPC: 0.155441 cumulative IPC: 0.158722 (Simulation time: 0 hr 42 min 57 sec) 
Heartbeat CPU 0 instructions: 363000000 cycles: 2281150657 heartbeat IPC: 0.159355 cumulative IPC: 0.158724 (Simulation time: 0 hr 43 min 5 sec) 
Heartbeat CPU 0 instructions: 364000003 cycles: 2287357201 heartbeat IPC: 0.161121 cumulative IPC: 0.158731 (Simulation time: 0 hr 43 min 13 sec) 
Heartbeat CPU 0 instructions: 365000002 cycles: 2293787502 heartbeat IPC: 0.155514 cumulative IPC: 0.158721 (Simulation time: 0 hr 43 min 20 sec) 
Heartbeat CPU 0 instructions: 366000003 cycles: 2300359343 heartbeat IPC: 0.152165 cumulative IPC: 0.158703 (Simulation time: 0 hr 43 min 27 sec) 
Heartbeat CPU 0 instructions: 367000001 cycles: 2306765027 heartbeat IPC: 0.156111 cumulative IPC: 0.158696 (Simulation time: 0 hr 43 min 35 sec) 
Heartbeat CPU 0 instructions: 368000000 cycles: 2313430409 heartbeat IPC: 0.150029 cumulative IPC: 0.158671 (Simulation time: 0 hr 43 min 42 sec) 
Heartbeat CPU 0 instructions: 369000003 cycles: 2320411526 heartbeat IPC: 0.143244 cumulative IPC: 0.158624 (Simulation time: 0 hr 43 min 49 sec) 
Heartbeat CPU 0 instructions: 370000000 cycles: 2326473315 heartbeat IPC: 0.164967 cumulative IPC: 0.158641 (Simulation time: 0 hr 43 min 56 sec) 
Heartbeat CPU 0 instructions: 371000003 cycles: 2333466491 heartbeat IPC: 0.142997 cumulative IPC: 0.158594 (Simulation time: 0 hr 44 min 4 sec) 
Heartbeat CPU 0 instructions: 372000001 cycles: 2340001591 heartbeat IPC: 0.15302 cumulative IPC: 0.158578 (Simulation time: 0 hr 44 min 11 sec) 
Heartbeat CPU 0 instructions: 373000000 cycles: 2346336797 heartbeat IPC: 0.157848 cumulative IPC: 0.158576 (Simulation time: 0 hr 44 min 18 sec) 
Heartbeat CPU 0 instructions: 374000000 cycles: 2352675209 heartbeat IPC: 0.157768 cumulative IPC: 0.158574 (Simulation time: 0 hr 44 min 26 sec) 
Heartbeat CPU 0 instructions: 375000001 cycles: 2359522114 heartbeat IPC: 0.146052 cumulative IPC: 0.158538 (Simulation time: 0 hr 44 min 33 sec) 
Heartbeat CPU 0 instructions: 376000001 cycles: 2365764226 heartbeat IPC: 0.160202 cumulative IPC: 0.158542 (Simulation time: 0 hr 44 min 41 sec) 
Heartbeat CPU 0 instructions: 377000001 cycles: 2372250976 heartbeat IPC: 0.15416 cumulative IPC: 0.15853 (Simulation time: 0 hr 44 min 48 sec) 
Heartbeat CPU 0 instructions: 378000003 cycles: 2379052244 heartbeat IPC: 0.147032 cumulative IPC: 0.158497 (Simulation time: 0 hr 44 min 56 sec) 
Heartbeat CPU 0 instructions: 379000003 cycles: 2385449531 heartbeat IPC: 0.156316 cumulative IPC: 0.158491 (Simulation time: 0 hr 45 min 3 sec) 
Heartbeat CPU 0 instructions: 380000003 cycles: 2391898014 heartbeat IPC: 0.155075 cumulative IPC: 0.158482 (Simulation time: 0 hr 45 min 11 sec) 
Heartbeat CPU 0 instructions: 381000000 cycles: 2398799736 heartbeat IPC: 0.144891 cumulative IPC: 0.158443 (Simulation time: 0 hr 45 min 18 sec) 
Heartbeat CPU 0 instructions: 382000000 cycles: 2405264450 heartbeat IPC: 0.154686 cumulative IPC: 0.158433 (Simulation time: 0 hr 45 min 25 sec) 
Heartbeat CPU 0 instructions: 383000002 cycles: 2411457827 heartbeat IPC: 0.161463 cumulative IPC: 0.158441 (Simulation time: 0 hr 45 min 33 sec) 
Heartbeat CPU 0 instructions: 384000001 cycles: 2417634590 heartbeat IPC: 0.161897 cumulative IPC: 0.15845 (Simulation time: 0 hr 45 min 40 sec) 
Heartbeat CPU 0 instructions: 385000000 cycles: 2423944532 heartbeat IPC: 0.15848 cumulative IPC: 0.15845 (Simulation time: 0 hr 45 min 48 sec) 
Heartbeat CPU 0 instructions: 386000001 cycles: 2430364009 heartbeat IPC: 0.155776 cumulative IPC: 0.158443 (Simulation time: 0 hr 45 min 55 sec) 
Heartbeat CPU 0 instructions: 387000000 cycles: 2436797828 heartbeat IPC: 0.155429 cumulative IPC: 0.158435 (Simulation time: 0 hr 46 min 2 sec) 
Heartbeat CPU 0 instructions: 388000003 cycles: 2443133961 heartbeat IPC: 0.157825 cumulative IPC: 0.158433 (Simulation time: 0 hr 46 min 10 sec) 
Heartbeat CPU 0 instructions: 389000003 cycles: 2449408154 heartbeat IPC: 0.159383 cumulative IPC: 0.158436 (Simulation time: 0 hr 46 min 17 sec) 
Heartbeat CPU 0 instructions: 390000002 cycles: 2455630913 heartbeat IPC: 0.1607 cumulative IPC: 0.158441 (Simulation time: 0 hr 46 min 25 sec) 
Heartbeat CPU 0 instructions: 391000000 cycles: 2461833074 heartbeat IPC: 0.161234 cumulative IPC: 0.158448 (Simulation time: 0 hr 46 min 32 sec) 
Heartbeat CPU 0 instructions: 392000001 cycles: 2468015837 heartbeat IPC: 0.16174 cumulative IPC: 0.158457 (Simulation time: 0 hr 46 min 40 sec) 
Heartbeat CPU 0 instructions: 393000000 cycles: 2474303627 heartbeat IPC: 0.159038 cumulative IPC: 0.158458 (Simulation time: 0 hr 46 min 47 sec) 
Heartbeat CPU 0 instructions: 394000002 cycles: 2480873471 heartbeat IPC: 0.152211 cumulative IPC: 0.158441 (Simulation time: 0 hr 46 min 54 sec) 
Heartbeat CPU 0 instructions: 395000002 cycles: 2487395400 heartbeat IPC: 0.153329 cumulative IPC: 0.158428 (Simulation time: 0 hr 47 min 1 sec) 
Heartbeat CPU 0 instructions: 396000000 cycles: 2493790652 heartbeat IPC: 0.156366 cumulative IPC: 0.158423 (Simulation time: 0 hr 47 min 9 sec) 
Heartbeat CPU 0 instructions: 397000001 cycles: 2500418508 heartbeat IPC: 0.150879 cumulative IPC: 0.158403 (Simulation time: 0 hr 47 min 16 sec) 
Heartbeat CPU 0 instructions: 398000002 cycles: 2506931875 heartbeat IPC: 0.153531 cumulative IPC: 0.15839 (Simulation time: 0 hr 47 min 23 sec) 
Heartbeat CPU 0 instructions: 399000000 cycles: 2513789960 heartbeat IPC: 0.145813 cumulative IPC: 0.158356 (Simulation time: 0 hr 47 min 30 sec) 
Heartbeat CPU 0 instructions: 400000003 cycles: 2520732632 heartbeat IPC: 0.144037 cumulative IPC: 0.158316 (Simulation time: 0 hr 47 min 37 sec) 
Heartbeat CPU 0 instructions: 401000001 cycles: 2527165261 heartbeat IPC: 0.155457 cumulative IPC: 0.158309 (Simulation time: 0 hr 47 min 45 sec) 
Heartbeat CPU 0 instructions: 402000002 cycles: 2533489325 heartbeat IPC: 0.158126 cumulative IPC: 0.158309 (Simulation time: 0 hr 47 min 52 sec) 
Heartbeat CPU 0 instructions: 403000002 cycles: 2540225908 heartbeat IPC: 0.148443 cumulative IPC: 0.158282 (Simulation time: 0 hr 48 min 0 sec) 
Heartbeat CPU 0 instructions: 404000002 cycles: 2546751334 heartbeat IPC: 0.153247 cumulative IPC: 0.15827 (Simulation time: 0 hr 48 min 7 sec) 
Heartbeat CPU 0 instructions: 405000002 cycles: 2553255779 heartbeat IPC: 0.153741 cumulative IPC: 0.158258 (Simulation time: 0 hr 48 min 14 sec) 
Heartbeat CPU 0 instructions: 406000000 cycles: 2559737181 heartbeat IPC: 0.154287 cumulative IPC: 0.158248 (Simulation time: 0 hr 48 min 21 sec) 
Heartbeat CPU 0 instructions: 407000000 cycles: 2566085989 heartbeat IPC: 0.15751 cumulative IPC: 0.158246 (Simulation time: 0 hr 48 min 29 sec) 
Heartbeat CPU 0 instructions: 408000000 cycles: 2572966116 heartbeat IPC: 0.145346 cumulative IPC: 0.158212 (Simulation time: 0 hr 48 min 36 sec) 
Heartbeat CPU 0 instructions: 409000000 cycles: 2579243426 heartbeat IPC: 0.159304 cumulative IPC: 0.158214 (Simulation time: 0 hr 48 min 44 sec) 
Heartbeat CPU 0 instructions: 410000000 cycles: 2585594169 heartbeat IPC: 0.157462 cumulative IPC: 0.158212 (Simulation time: 0 hr 48 min 51 sec) 
Heartbeat CPU 0 instructions: 411000003 cycles: 2592191423 heartbeat IPC: 0.151579 cumulative IPC: 0.158196 (Simulation time: 0 hr 48 min 59 sec) 
Heartbeat CPU 0 instructions: 412000003 cycles: 2598620724 heartbeat IPC: 0.155538 cumulative IPC: 0.158189 (Simulation time: 0 hr 49 min 6 sec) 
Heartbeat CPU 0 instructions: 413000000 cycles: 2605261060 heartbeat IPC: 0.150594 cumulative IPC: 0.15817 (Simulation time: 0 hr 49 min 13 sec) 
Heartbeat CPU 0 instructions: 414000003 cycles: 2611796956 heartbeat IPC: 0.153002 cumulative IPC: 0.158157 (Simulation time: 0 hr 49 min 21 sec) 
Heartbeat CPU 0 instructions: 415000003 cycles: 2618246211 heartbeat IPC: 0.155057 cumulative IPC: 0.158149 (Simulation time: 0 hr 49 min 28 sec) 
Heartbeat CPU 0 instructions: 416000001 cycles: 2624796760 heartbeat IPC: 0.152659 cumulative IPC: 0.158135 (Simulation time: 0 hr 49 min 35 sec) 
Heartbeat CPU 0 instructions: 417000001 cycles: 2631379635 heartbeat IPC: 0.151909 cumulative IPC: 0.15812 (Simulation time: 0 hr 49 min 43 sec) 
Heartbeat CPU 0 instructions: 418000000 cycles: 2638343183 heartbeat IPC: 0.143605 cumulative IPC: 0.158081 (Simulation time: 0 hr 49 min 50 sec) 
Heartbeat CPU 0 instructions: 419000000 cycles: 2645112026 heartbeat IPC: 0.147736 cumulative IPC: 0.158055 (Simulation time: 0 hr 49 min 57 sec) 
Heartbeat CPU 0 instructions: 420000002 cycles: 2651578887 heartbeat IPC: 0.154635 cumulative IPC: 0.158047 (Simulation time: 0 hr 50 min 4 sec) 
Heartbeat CPU 0 instructions: 421000003 cycles: 2658579584 heartbeat IPC: 0.142843 cumulative IPC: 0.158007 (Simulation time: 0 hr 50 min 11 sec) 
Heartbeat CPU 0 instructions: 422000001 cycles: 2664707254 heartbeat IPC: 0.163194 cumulative IPC: 0.158018 (Simulation time: 0 hr 50 min 18 sec) 
Heartbeat CPU 0 instructions: 423000002 cycles: 2671152739 heartbeat IPC: 0.155148 cumulative IPC: 0.158012 (Simulation time: 0 hr 50 min 26 sec) 
Heartbeat CPU 0 instructions: 424000001 cycles: 2677569609 heartbeat IPC: 0.155839 cumulative IPC: 0.158006 (Simulation time: 0 hr 50 min 33 sec) 
Heartbeat CPU 0 instructions: 425000000 cycles: 2684744528 heartbeat IPC: 0.139374 cumulative IPC: 0.157957 (Simulation time: 0 hr 50 min 40 sec) 
Heartbeat CPU 0 instructions: 426000002 cycles: 2691021578 heartbeat IPC: 0.159311 cumulative IPC: 0.15796 (Simulation time: 0 hr 50 min 48 sec) 
Heartbeat CPU 0 instructions: 427000002 cycles: 2697249030 heartbeat IPC: 0.160579 cumulative IPC: 0.157966 (Simulation time: 0 hr 50 min 55 sec) 
Heartbeat CPU 0 instructions: 428000000 cycles: 2703395297 heartbeat IPC: 0.1627 cumulative IPC: 0.157977 (Simulation time: 0 hr 51 min 2 sec) 
Heartbeat CPU 0 instructions: 429000000 cycles: 2709948710 heartbeat IPC: 0.152592 cumulative IPC: 0.157964 (Simulation time: 0 hr 51 min 10 sec) 
Heartbeat CPU 0 instructions: 430000001 cycles: 2716407960 heartbeat IPC: 0.154817 cumulative IPC: 0.157956 (Simulation time: 0 hr 51 min 17 sec) 
Heartbeat CPU 0 instructions: 431000003 cycles: 2722819013 heartbeat IPC: 0.155981 cumulative IPC: 0.157951 (Simulation time: 0 hr 51 min 25 sec) 
Heartbeat CPU 0 instructions: 432000000 cycles: 2729170566 heartbeat IPC: 0.157441 cumulative IPC: 0.15795 (Simulation time: 0 hr 51 min 32 sec) 
Heartbeat CPU 0 instructions: 433000001 cycles: 2735487591 heartbeat IPC: 0.158303 cumulative IPC: 0.157951 (Simulation time: 0 hr 51 min 40 sec) 
Heartbeat CPU 0 instructions: 434000002 cycles: 2742499388 heartbeat IPC: 0.142617 cumulative IPC: 0.157912 (Simulation time: 0 hr 51 min 47 sec) 
Heartbeat CPU 0 instructions: 435000000 cycles: 2749306400 heartbeat IPC: 0.146907 cumulative IPC: 0.157885 (Simulation time: 0 hr 51 min 54 sec) 
Heartbeat CPU 0 instructions: 436000000 cycles: 2755899883 heartbeat IPC: 0.151665 cumulative IPC: 0.15787 (Simulation time: 0 hr 52 min 2 sec) 
Heartbeat CPU 0 instructions: 437000002 cycles: 2762925105 heartbeat IPC: 0.142345 cumulative IPC: 0.15783 (Simulation time: 0 hr 52 min 11 sec) 
Heartbeat CPU 0 instructions: 438000000 cycles: 2769323404 heartbeat IPC: 0.156291 cumulative IPC: 0.157827 (Simulation time: 0 hr 52 min 26 sec) 
Heartbeat CPU 0 instructions: 439000001 cycles: 2775620351 heartbeat IPC: 0.158807 cumulative IPC: 0.157829 (Simulation time: 0 hr 52 min 42 sec) 
Heartbeat CPU 0 instructions: 440000000 cycles: 2782097180 heartbeat IPC: 0.154396 cumulative IPC: 0.157821 (Simulation time: 0 hr 52 min 59 sec) 
Heartbeat CPU 0 instructions: 441000003 cycles: 2788648199 heartbeat IPC: 0.152648 cumulative IPC: 0.157809 (Simulation time: 0 hr 53 min 17 sec) 
Heartbeat CPU 0 instructions: 442000003 cycles: 2795471807 heartbeat IPC: 0.14655 cumulative IPC: 0.157781 (Simulation time: 0 hr 53 min 33 sec) 
Heartbeat CPU 0 instructions: 443000001 cycles: 2802135053 heartbeat IPC: 0.150077 cumulative IPC: 0.157763 (Simulation time: 0 hr 53 min 51 sec) 
Heartbeat CPU 0 instructions: 444000000 cycles: 2808509881 heartbeat IPC: 0.156867 cumulative IPC: 0.157761 (Simulation time: 0 hr 54 min 9 sec) 
Heartbeat CPU 0 instructions: 445000000 cycles: 2814866096 heartbeat IPC: 0.157326 cumulative IPC: 0.15776 (Simulation time: 0 hr 54 min 26 sec) 
Heartbeat CPU 0 instructions: 446000002 cycles: 2821492538 heartbeat IPC: 0.150911 cumulative IPC: 0.157744 (Simulation time: 0 hr 54 min 43 sec) 
Heartbeat CPU 0 instructions: 447000002 cycles: 2827907201 heartbeat IPC: 0.155893 cumulative IPC: 0.15774 (Simulation time: 0 hr 55 min 0 sec) 
Heartbeat CPU 0 instructions: 448000003 cycles: 2834368330 heartbeat IPC: 0.154772 cumulative IPC: 0.157733 (Simulation time: 0 hr 55 min 17 sec) 
Heartbeat CPU 0 instructions: 449000000 cycles: 2840812747 heartbeat IPC: 0.155173 cumulative IPC: 0.157727 (Simulation time: 0 hr 55 min 34 sec) 
Heartbeat CPU 0 instructions: 450000001 cycles: 2847201987 heartbeat IPC: 0.156513 cumulative IPC: 0.157724 (Simulation time: 0 hr 55 min 51 sec) 

Warmup complete CPU 0 instructions: 450000001 cycles: 2847201987 (Simulation time: 0 hr 55 min 51 sec) 

Heartbeat CPU 0 instructions: 451000000 cycles: 2851120444 heartbeat IPC: 0.255202 cumulative IPC: 0.255202 (Simulation time: 0 hr 56 min 6 sec) 
Heartbeat CPU 0 instructions: 452000003 cycles: 2855171653 heartbeat IPC: 0.246841 cumulative IPC: 0.250952 (Simulation time: 0 hr 56 min 20 sec) 
Heartbeat CPU 0 instructions: 453000001 cycles: 2859180918 heartbeat IPC: 0.249422 cumulative IPC: 0.25044 (Simulation time: 0 hr 56 min 34 sec) 
Heartbeat CPU 0 instructions: 454000002 cycles: 2863160086 heartbeat IPC: 0.251309 cumulative IPC: 0.250656 (Simulation time: 0 hr 56 min 48 sec) 
Heartbeat CPU 0 instructions: 455000000 cycles: 2867105443 heartbeat IPC: 0.253462 cumulative IPC: 0.251213 (Simulation time: 0 hr 57 min 2 sec) 
Heartbeat CPU 0 instructions: 456000001 cycles: 2871029374 heartbeat IPC: 0.254847 cumulative IPC: 0.251811 (Simulation time: 0 hr 57 min 16 sec) 
Heartbeat CPU 0 instructions: 457000001 cycles: 2874942705 heartbeat IPC: 0.255537 cumulative IPC: 0.252337 (Simulation time: 0 hr 57 min 31 sec) 
Heartbeat CPU 0 instructions: 458000003 cycles: 2878831221 heartbeat IPC: 0.257168 cumulative IPC: 0.252931 (Simulation time: 0 hr 57 min 45 sec) 
Heartbeat CPU 0 instructions: 459000000 cycles: 2882885466 heartbeat IPC: 0.246654 cumulative IPC: 0.252218 (Simulation time: 0 hr 57 min 59 sec) 
Heartbeat CPU 0 instructions: 460000001 cycles: 2886781607 heartbeat IPC: 0.256664 cumulative IPC: 0.252655 (Simulation time: 0 hr 58 min 13 sec) 
Heartbeat CPU 0 instructions: 461000000 cycles: 2890749675 heartbeat IPC: 0.252012 cumulative IPC: 0.252597 (Simulation time: 0 hr 58 min 27 sec) 
Heartbeat CPU 0 instructions: 462000000 cycles: 2894666455 heartbeat IPC: 0.255312 cumulative IPC: 0.252821 (Simulation time: 0 hr 58 min 42 sec) 
Heartbeat CPU 0 instructions: 463000001 cycles: 2898586037 heartbeat IPC: 0.255129 cumulative IPC: 0.252997 (Simulation time: 0 hr 58 min 56 sec) 
Heartbeat CPU 0 instructions: 464000002 cycles: 2902403515 heartbeat IPC: 0.261953 cumulative IPC: 0.253616 (Simulation time: 0 hr 59 min 9 sec) 
Heartbeat CPU 0 instructions: 465000002 cycles: 2906302838 heartbeat IPC: 0.256455 cumulative IPC: 0.253803 (Simulation time: 0 hr 59 min 23 sec) 
Heartbeat CPU 0 instructions: 466000002 cycles: 2910354501 heartbeat IPC: 0.246812 cumulative IPC: 0.253355 (Simulation time: 0 hr 59 min 37 sec) 
Heartbeat CPU 0 instructions: 467000002 cycles: 2914378639 heartbeat IPC: 0.2485 cumulative IPC: 0.253064 (Simulation time: 0 hr 59 min 51 sec) 
Heartbeat CPU 0 instructions: 468000002 cycles: 2918346436 heartbeat IPC: 0.252029 cumulative IPC: 0.253006 (Simulation time: 1 hr 0 min 6 sec) 
Heartbeat CPU 0 instructions: 469000000 cycles: 2922444154 heartbeat IPC: 0.244038 cumulative IPC: 0.252518 (Simulation time: 1 hr 0 min 21 sec) 
Heartbeat CPU 0 instructions: 470000000 cycles: 2926394583 heartbeat IPC: 0.253137 cumulative IPC: 0.252549 (Simulation time: 1 hr 0 min 35 sec) 
Heartbeat CPU 0 instructions: 471000001 cycles: 2930410123 heartbeat IPC: 0.249033 cumulative IPC: 0.252379 (Simulation time: 1 hr 0 min 49 sec) 
Heartbeat CPU 0 instructions: 472000001 cycles: 2934379347 heartbeat IPC: 0.251938 cumulative IPC: 0.252359 (Simulation time: 1 hr 1 min 4 sec) 
Heartbeat CPU 0 instructions: 473000000 cycles: 2938314115 heartbeat IPC: 0.254144 cumulative IPC: 0.252436 (Simulation time: 1 hr 1 min 18 sec) 
Heartbeat CPU 0 instructions: 474000001 cycles: 2942201804 heartbeat IPC: 0.257222 cumulative IPC: 0.252632 (Simulation time: 1 hr 1 min 33 sec) 
Heartbeat CPU 0 instructions: 475000000 cycles: 2946032680 heartbeat IPC: 0.261037 cumulative IPC: 0.252958 (Simulation time: 1 hr 1 min 48 sec) 
Heartbeat CPU 0 instructions: 476000003 cycles: 2950278975 heartbeat IPC: 0.2355 cumulative IPC: 0.252239 (Simulation time: 1 hr 2 min 2 sec) 
Heartbeat CPU 0 instructions: 477000003 cycles: 2954169072 heartbeat IPC: 0.257063 cumulative IPC: 0.252414 (Simulation time: 1 hr 2 min 16 sec) 
Heartbeat CPU 0 instructions: 478000002 cycles: 2958201538 heartbeat IPC: 0.247987 cumulative IPC: 0.252253 (Simulation time: 1 hr 2 min 30 sec) 
Heartbeat CPU 0 instructions: 479000000 cycles: 2962083731 heartbeat IPC: 0.257586 cumulative IPC: 0.252433 (Simulation time: 1 hr 2 min 44 sec) 
Heartbeat CPU 0 instructions: 480000000 cycles: 2966036856 heartbeat IPC: 0.252964 cumulative IPC: 0.252451 (Simulation time: 1 hr 2 min 58 sec) 
Heartbeat CPU 0 instructions: 481000002 cycles: 2969975900 heartbeat IPC: 0.253869 cumulative IPC: 0.252497 (Simulation time: 1 hr 3 min 13 sec) 
Heartbeat CPU 0 instructions: 482000003 cycles: 2973591377 heartbeat IPC: 0.276589 cumulative IPC: 0.253186 (Simulation time: 1 hr 3 min 25 sec) 
Heartbeat CPU 0 instructions: 483000001 cycles: 2977671023 heartbeat IPC: 0.245119 cumulative IPC: 0.252934 (Simulation time: 1 hr 3 min 40 sec) 
Heartbeat CPU 0 instructions: 484000000 cycles: 2981956488 heartbeat IPC: 0.233347 cumulative IPC: 0.252311 (Simulation time: 1 hr 3 min 55 sec) 
Heartbeat CPU 0 instructions: 485000002 cycles: 2985999329 heartbeat IPC: 0.247351 cumulative IPC: 0.252166 (Simulation time: 1 hr 4 min 9 sec) 
Heartbeat CPU 0 instructions: 486000002 cycles: 2990145571 heartbeat IPC: 0.241182 cumulative IPC: 0.251848 (Simulation time: 1 hr 4 min 25 sec) 
Heartbeat CPU 0 instructions: 487000000 cycles: 2993992242 heartbeat IPC: 0.259965 cumulative IPC: 0.25206 (Simulation time: 1 hr 4 min 39 sec) 
Heartbeat CPU 0 instructions: 488000001 cycles: 2997918919 heartbeat IPC: 0.254669 cumulative IPC: 0.252128 (Simulation time: 1 hr 4 min 53 sec) 
Heartbeat CPU 0 instructions: 489000000 cycles: 3001839673 heartbeat IPC: 0.255053 cumulative IPC: 0.252202 (Simulation time: 1 hr 5 min 8 sec) 
Heartbeat CPU 0 instructions: 490000002 cycles: 3005754450 heartbeat IPC: 0.255443 cumulative IPC: 0.252282 (Simulation time: 1 hr 5 min 23 sec) 
Heartbeat CPU 0 instructions: 491000002 cycles: 3009653167 heartbeat IPC: 0.256495 cumulative IPC: 0.252384 (Simulation time: 1 hr 5 min 38 sec) 
Heartbeat CPU 0 instructions: 492000002 cycles: 3013299492 heartbeat IPC: 0.274249 cumulative IPC: 0.252864 (Simulation time: 1 hr 5 min 51 sec) 
Heartbeat CPU 0 instructions: 493000002 cycles: 3017585455 heartbeat IPC: 0.23332 cumulative IPC: 0.252372 (Simulation time: 1 hr 6 min 5 sec) 
Heartbeat CPU 0 instructions: 494000001 cycles: 3021666567 heartbeat IPC: 0.245031 cumulative IPC: 0.2522 (Simulation time: 1 hr 6 min 19 sec) 
Heartbeat CPU 0 instructions: 495000000 cycles: 3025558796 heartbeat IPC: 0.256922 cumulative IPC: 0.252303 (Simulation time: 1 hr 6 min 33 sec) 
Heartbeat CPU 0 instructions: 496000001 cycles: 3029820040 heartbeat IPC: 0.234673 cumulative IPC: 0.251892 (Simulation time: 1 hr 6 min 46 sec) 
Heartbeat CPU 0 instructions: 497000000 cycles: 3033680960 heartbeat IPC: 0.259005 cumulative IPC: 0.252039 (Simulation time: 1 hr 7 min 0 sec) 
Heartbeat CPU 0 instructions: 498000000 cycles: 3037578453 heartbeat IPC: 0.256575 cumulative IPC: 0.252132 (Simulation time: 1 hr 7 min 14 sec) 
Heartbeat CPU 0 instructions: 499000000 cycles: 3041431761 heartbeat IPC: 0.259517 cumulative IPC: 0.252279 (Simulation time: 1 hr 7 min 29 sec) 
Heartbeat CPU 0 instructions: 500000003 cycles: 3045390502 heartbeat IPC: 0.252606 cumulative IPC: 0.252285 (Simulation time: 1 hr 7 min 44 sec) 
Heartbeat CPU 0 instructions: 501000000 cycles: 3049412523 heartbeat IPC: 0.24863 cumulative IPC: 0.252212 (Simulation time: 1 hr 7 min 59 sec) 
Heartbeat CPU 0 instructions: 502000003 cycles: 3053371351 heartbeat IPC: 0.252601 cumulative IPC: 0.25222 (Simulation time: 1 hr 8 min 13 sec) 
Heartbeat CPU 0 instructions: 503000002 cycles: 3057305125 heartbeat IPC: 0.254209 cumulative IPC: 0.252257 (Simulation time: 1 hr 8 min 28 sec) 
Heartbeat CPU 0 instructions: 504000000 cycles: 3061214627 heartbeat IPC: 0.255787 cumulative IPC: 0.252322 (Simulation time: 1 hr 8 min 42 sec) 
Heartbeat CPU 0 instructions: 505000002 cycles: 3065113758 heartbeat IPC: 0.256468 cumulative IPC: 0.252396 (Simulation time: 1 hr 8 min 56 sec) 
Heartbeat CPU 0 instructions: 506000000 cycles: 3068994839 heartbeat IPC: 0.25766 cumulative IPC: 0.252488 (Simulation time: 1 hr 9 min 10 sec) 
Heartbeat CPU 0 instructions: 507000000 cycles: 3072980624 heartbeat IPC: 0.250892 cumulative IPC: 0.25246 (Simulation time: 1 hr 9 min 24 sec) 
Heartbeat CPU 0 instructions: 508000000 cycles: 3077034289 heartbeat IPC: 0.24669 cumulative IPC: 0.252358 (Simulation time: 1 hr 9 min 38 sec) 
Heartbeat CPU 0 instructions: 509000000 cycles: 3081015953 heartbeat IPC: 0.251151 cumulative IPC: 0.252337 (Simulation time: 1 hr 9 min 53 sec) 
Heartbeat CPU 0 instructions: 510000001 cycles: 3084960967 heartbeat IPC: 0.253485 cumulative IPC: 0.252356 (Simulation time: 1 hr 10 min 8 sec) 
Heartbeat CPU 0 instructions: 511000000 cycles: 3088903256 heartbeat IPC: 0.253659 cumulative IPC: 0.252378 (Simulation time: 1 hr 10 min 22 sec) 
Heartbeat CPU 0 instructions: 512000000 cycles: 3092801364 heartbeat IPC: 0.256535 cumulative IPC: 0.252444 (Simulation time: 1 hr 10 min 36 sec) 
Heartbeat CPU 0 instructions: 513000001 cycles: 3096804588 heartbeat IPC: 0.249799 cumulative IPC: 0.252401 (Simulation time: 1 hr 10 min 50 sec) 
Heartbeat CPU 0 instructions: 514000000 cycles: 3100829472 heartbeat IPC: 0.248454 cumulative IPC: 0.252339 (Simulation time: 1 hr 11 min 5 sec) 
Heartbeat CPU 0 instructions: 515000002 cycles: 3104779751 heartbeat IPC: 0.253147 cumulative IPC: 0.252351 (Simulation time: 1 hr 11 min 19 sec) 
Heartbeat CPU 0 instructions: 516000003 cycles: 3108702623 heartbeat IPC: 0.254916 cumulative IPC: 0.252389 (Simulation time: 1 hr 11 min 33 sec) 
Heartbeat CPU 0 instructions: 517000000 cycles: 3112612594 heartbeat IPC: 0.255756 cumulative IPC: 0.252439 (Simulation time: 1 hr 11 min 47 sec) 
Heartbeat CPU 0 instructions: 518000003 cycles: 3116495325 heartbeat IPC: 0.257551 cumulative IPC: 0.252513 (Simulation time: 1 hr 12 min 2 sec) 
Heartbeat CPU 0 instructions: 519000000 cycles: 3120310090 heartbeat IPC: 0.262139 cumulative IPC: 0.252647 (Simulation time: 1 hr 12 min 16 sec) 
Heartbeat CPU 0 instructions: 520000000 cycles: 3124381220 heartbeat IPC: 0.245632 cumulative IPC: 0.252544 (Simulation time: 1 hr 12 min 31 sec) 
Heartbeat CPU 0 instructions: 521000001 cycles: 3128403218 heartbeat IPC: 0.248633 cumulative IPC: 0.252488 (Simulation time: 1 hr 12 min 45 sec) 
Heartbeat CPU 0 instructions: 522000002 cycles: 3132566977 heartbeat IPC: 0.240168 cumulative IPC: 0.252308 (Simulation time: 1 hr 12 min 59 sec) 
Heartbeat CPU 0 instructions: 523000003 cycles: 3136618365 heartbeat IPC: 0.246829 cumulative IPC: 0.252232 (Simulation time: 1 hr 13 min 14 sec) 
Heartbeat CPU 0 instructions: 524000003 cycles: 3140578682 heartbeat IPC: 0.252505 cumulative IPC: 0.252235 (Simulation time: 1 hr 13 min 30 sec) 
Heartbeat CPU 0 instructions: 525000003 cycles: 3144468943 heartbeat IPC: 0.257052 cumulative IPC: 0.252298 (Simulation time: 1 hr 13 min 44 sec) 
Heartbeat CPU 0 instructions: 526000001 cycles: 3148364350 heartbeat IPC: 0.256712 cumulative IPC: 0.252356 (Simulation time: 1 hr 13 min 59 sec) 
Heartbeat CPU 0 instructions: 527000002 cycles: 3152249502 heartbeat IPC: 0.25739 cumulative IPC: 0.25242 (Simulation time: 1 hr 14 min 15 sec) 
Heartbeat CPU 0 instructions: 528000000 cycles: 3156050507 heartbeat IPC: 0.263088 cumulative IPC: 0.252551 (Simulation time: 1 hr 14 min 30 sec) 
Heartbeat CPU 0 instructions: 529000002 cycles: 3160065113 heartbeat IPC: 0.249091 cumulative IPC: 0.252507 (Simulation time: 1 hr 14 min 44 sec) 
Heartbeat CPU 0 instructions: 530000001 cycles: 3164184512 heartbeat IPC: 0.242754 cumulative IPC: 0.25238 (Simulation time: 1 hr 14 min 59 sec) 
Heartbeat CPU 0 instructions: 531000001 cycles: 3168253120 heartbeat IPC: 0.245784 cumulative IPC: 0.252296 (Simulation time: 1 hr 15 min 13 sec) 
Heartbeat CPU 0 instructions: 532000003 cycles: 3172307658 heartbeat IPC: 0.246638 cumulative IPC: 0.252226 (Simulation time: 1 hr 15 min 28 sec) 
Heartbeat CPU 0 instructions: 533000001 cycles: 3176235915 heartbeat IPC: 0.254565 cumulative IPC: 0.252254 (Simulation time: 1 hr 15 min 42 sec) 
Heartbeat CPU 0 instructions: 534000001 cycles: 3180174286 heartbeat IPC: 0.253912 cumulative IPC: 0.252273 (Simulation time: 1 hr 15 min 56 sec) 
Heartbeat CPU 0 instructions: 535000000 cycles: 3184286980 heartbeat IPC: 0.243149 cumulative IPC: 0.252162 (Simulation time: 1 hr 16 min 11 sec) 
Heartbeat CPU 0 instructions: 536000002 cycles: 3188373292 heartbeat IPC: 0.24472 cumulative IPC: 0.252073 (Simulation time: 1 hr 16 min 25 sec) 
Heartbeat CPU 0 instructions: 537000002 cycles: 3192373876 heartbeat IPC: 0.249964 cumulative IPC: 0.252048 (Simulation time: 1 hr 16 min 39 sec) 
Heartbeat CPU 0 instructions: 538000001 cycles: 3196333062 heartbeat IPC: 0.252577 cumulative IPC: 0.252054 (Simulation time: 1 hr 16 min 53 sec) 
Heartbeat CPU 0 instructions: 539000000 cycles: 3200328614 heartbeat IPC: 0.250278 cumulative IPC: 0.252034 (Simulation time: 1 hr 17 min 7 sec) 
Heartbeat CPU 0 instructions: 540000002 cycles: 3204409656 heartbeat IPC: 0.245036 cumulative IPC: 0.251954 (Simulation time: 1 hr 17 min 21 sec) 
Heartbeat CPU 0 instructions: 541000002 cycles: 3208424682 heartbeat IPC: 0.249064 cumulative IPC: 0.251922 (Simulation time: 1 hr 17 min 35 sec) 
Heartbeat CPU 0 instructions: 542000002 cycles: 3212502648 heartbeat IPC: 0.24522 cumulative IPC: 0.251847 (Simulation time: 1 hr 17 min 50 sec) 
Heartbeat CPU 0 instructions: 543000001 cycles: 3216496803 heartbeat IPC: 0.250366 cumulative IPC: 0.251831 (Simulation time: 1 hr 18 min 4 sec) 
Heartbeat CPU 0 instructions: 544000001 cycles: 3220416583 heartbeat IPC: 0.255116 cumulative IPC: 0.251866 (Simulation time: 1 hr 18 min 19 sec) 
[...]
Heartbeat CPU 0 instructions: 836000000 cycles: 4396967482 heartbeat IPC: 0.244904 cumulative IPC: 0.24907 (Simulation time: 2 hr 27 min 48 sec) 
Heartbeat CPU 0 instructions: 837000000 cycles: 4400926200 heartbeat IPC: 0.252607 cumulative IPC: 0.249079 (Simulation time: 2 hr 28 min 0 sec) 
Heartbeat CPU 0 instructions: 838000002 cycles: 4404689361 heartbeat IPC: 0.265735 cumulative IPC: 0.249119 (Simulation time: 2 hr 28 min 12 sec) 
Heartbeat CPU 0 instructions: 839000003 cycles: 4408749082 heartbeat IPC: 0.246323 cumulative IPC: 0.249112 (Simulation time: 2 hr 28 min 26 sec) 
Heartbeat CPU 0 instructions: 840000003 cycles: 4412467557 heartbeat IPC: 0.268927 cumulative IPC: 0.249159 (Simulation time: 2 hr 28 min 37 sec) 
Heartbeat CPU 0 instructions: 841000002 cycles: 4416696989 heartbeat IPC: 0.236438 cumulative IPC: 0.249125 (Simulation time: 2 hr 28 min 52 sec) 
Heartbeat CPU 0 instructions: 842000000 cycles: 4420653555 heartbeat IPC: 0.252744 cumulative IPC: 0.249134 (Simulation time: 2 hr 29 min 6 sec) 
Heartbeat CPU 0 instructions: 843000000 cycles: 4424948630 heartbeat IPC: 0.232825 cumulative IPC: 0.249089 (Simulation time: 2 hr 29 min 19 sec) 
Heartbeat CPU 0 instructions: 844000003 cycles: 4429003382 heartbeat IPC: 0.246625 cumulative IPC: 0.249083 (Simulation time: 2 hr 29 min 33 sec) 
Heartbeat CPU 0 instructions: 845000001 cycles: 4433198913 heartbeat IPC: 0.238348 cumulative IPC: 0.249055 (Simulation time: 2 hr 29 min 47 sec) 
Heartbeat CPU 0 instructions: 846000003 cycles: 4437194394 heartbeat IPC: 0.250283 cumulative IPC: 0.249058 (Simulation time: 2 hr 30 min 1 sec) 
Heartbeat CPU 0 instructions: 847000000 cycles: 4441329997 heartbeat IPC: 0.241802 cumulative IPC: 0.249039 (Simulation time: 2 hr 30 min 16 sec) 
Heartbeat CPU 0 instructions: 848000000 cycles: 4445310010 heartbeat IPC: 0.251255 cumulative IPC: 0.249044 (Simulation time: 2 hr 30 min 30 sec) 
Heartbeat CPU 0 instructions: 849000000 cycles: 4449313366 heartbeat IPC: 0.24979 cumulative IPC: 0.249046 (Simulation time: 2 hr 30 min 45 sec) 
Heartbeat CPU 0 instructions: 850000003 cycles: 4453252932 heartbeat IPC: 0.253836 cumulative IPC: 0.249058 (Simulation time: 2 hr 30 min 59 sec) 
Heartbeat CPU 0 instructions: 851000002 cycles: 4457378333 heartbeat IPC: 0.2424 cumulative IPC: 0.249041 (Simulation time: 2 hr 31 min 12 sec) 
Heartbeat CPU 0 instructions: 852000001 cycles: 4461420025 heartbeat IPC: 0.247421 cumulative IPC: 0.249037 (Simulation time: 2 hr 31 min 26 sec) 
Heartbeat CPU 0 instructions: 853000003 cycles: 4465607073 heartbeat IPC: 0.238832 cumulative IPC: 0.249011 (Simulation time: 2 hr 31 min 40 sec) 
Heartbeat CPU 0 instructions: 854000000 cycles: 4469000380 heartbeat IPC: 0.294697 cumulative IPC: 0.249106 (Simulation time: 2 hr 31 min 50 sec) 
Heartbeat CPU 0 instructions: 855000003 cycles: 4473194467 heartbeat IPC: 0.238432 cumulative IPC: 0.249079 (Simulation time: 2 hr 32 min 3 sec) 
Heartbeat CPU 0 instructions: 856000002 cycles: 4477431295 heartbeat IPC: 0.236025 cumulative IPC: 0.249045 (Simulation time: 2 hr 32 min 17 sec) 
Heartbeat CPU 0 instructions: 857000001 cycles: 4481391934 heartbeat IPC: 0.252484 cumulative IPC: 0.249053 (Simulation time: 2 hr 32 min 30 sec) 
Heartbeat CPU 0 instructions: 858000000 cycles: 4485448882 heartbeat IPC: 0.24649 cumulative IPC: 0.249047 (Simulation time: 2 hr 32 min 45 sec) 
Heartbeat CPU 0 instructions: 859000003 cycles: 4489372802 heartbeat IPC: 0.254848 cumulative IPC: 0.249061 (Simulation time: 2 hr 32 min 59 sec) 
Heartbeat CPU 0 instructions: 860000002 cycles: 4493547545 heartbeat IPC: 0.239535 cumulative IPC: 0.249036 (Simulation time: 2 hr 33 min 12 sec) 
Heartbeat CPU 0 instructions: 861000003 cycles: 4497393635 heartbeat IPC: 0.260005 cumulative IPC: 0.249062 (Simulation time: 2 hr 33 min 25 sec) 
Heartbeat CPU 0 instructions: 862000003 cycles: 4501438455 heartbeat IPC: 0.24723 cumulative IPC: 0.249058 (Simulation time: 2 hr 33 min 39 sec) 
Heartbeat CPU 0 instructions: 863000000 cycles: 4505483562 heartbeat IPC: 0.247212 cumulative IPC: 0.249053 (Simulation time: 2 hr 33 min 53 sec) 
Heartbeat CPU 0 instructions: 864000001 cycles: 4509627057 heartbeat IPC: 0.241342 cumulative IPC: 0.249034 (Simulation time: 2 hr 34 min 7 sec) 
Heartbeat CPU 0 instructions: 865000001 cycles: 4513598984 heartbeat IPC: 0.251767 cumulative IPC: 0.24904 (Simulation time: 2 hr 34 min 21 sec) 
Heartbeat CPU 0 instructions: 866000003 cycles: 4517393336 heartbeat IPC: 0.26355 cumulative IPC: 0.249073 (Simulation time: 2 hr 34 min 33 sec) 
Heartbeat CPU 0 instructions: 867000002 cycles: 4521418194 heartbeat IPC: 0.248456 cumulative IPC: 0.249072 (Simulation time: 2 hr 34 min 48 sec) 
Heartbeat CPU 0 instructions: 868000000 cycles: 4525510904 heartbeat IPC: 0.244336 cumulative IPC: 0.24906 (Simulation time: 2 hr 35 min 2 sec) 
Heartbeat CPU 0 instructions: 869000000 cycles: 4529699519 heartbeat IPC: 0.238742 cumulative IPC: 0.249035 (Simulation time: 2 hr 35 min 16 sec) 
Heartbeat CPU 0 instructions: 870000000 cycles: 4533700293 heartbeat IPC: 0.249952 cumulative IPC: 0.249037 (Simulation time: 2 hr 35 min 30 sec) 
Heartbeat CPU 0 instructions: 871000003 cycles: 4537869440 heartbeat IPC: 0.239858 cumulative IPC: 0.249014 (Simulation time: 2 hr 35 min 43 sec) 
Heartbeat CPU 0 instructions: 872000000 cycles: 4541610381 heartbeat IPC: 0.267312 cumulative IPC: 0.249054 (Simulation time: 2 hr 35 min 56 sec) 
Heartbeat CPU 0 instructions: 873000000 cycles: 4545648914 heartbeat IPC: 0.247615 cumulative IPC: 0.249051 (Simulation time: 2 hr 36 min 10 sec) 
Heartbeat CPU 0 instructions: 874000002 cycles: 4549528946 heartbeat IPC: 0.25773 cumulative IPC: 0.249071 (Simulation time: 2 hr 36 min 23 sec) 
Heartbeat CPU 0 instructions: 875000000 cycles: 4553273856 heartbeat IPC: 0.267029 cumulative IPC: 0.24911 (Simulation time: 2 hr 36 min 34 sec) 
Heartbeat CPU 0 instructions: 876000001 cycles: 4557394441 heartbeat IPC: 0.242684 cumulative IPC: 0.249095 (Simulation time: 2 hr 36 min 48 sec) 
Heartbeat CPU 0 instructions: 877000002 cycles: 4561537078 heartbeat IPC: 0.241392 cumulative IPC: 0.249076 (Simulation time: 2 hr 37 min 2 sec) 
Heartbeat CPU 0 instructions: 878000003 cycles: 4565626951 heartbeat IPC: 0.244507 cumulative IPC: 0.249065 (Simulation time: 2 hr 37 min 15 sec) 
Heartbeat CPU 0 instructions: 879000000 cycles: 4569596622 heartbeat IPC: 0.251909 cumulative IPC: 0.249072 (Simulation time: 2 hr 37 min 28 sec) 
Heartbeat CPU 0 instructions: 880000000 cycles: 4573306994 heartbeat IPC: 0.269515 cumulative IPC: 0.249116 (Simulation time: 2 hr 37 min 40 sec) 
Heartbeat CPU 0 instructions: 881000000 cycles: 4577401027 heartbeat IPC: 0.244258 cumulative IPC: 0.249104 (Simulation time: 2 hr 37 min 54 sec) 
Heartbeat CPU 0 instructions: 882000001 cycles: 4581333850 heartbeat IPC: 0.254271 cumulative IPC: 0.249116 (Simulation time: 2 hr 38 min 8 sec) 
Heartbeat CPU 0 instructions: 883000002 cycles: 4585516144 heartbeat IPC: 0.239103 cumulative IPC: 0.249092 (Simulation time: 2 hr 38 min 22 sec) 
Heartbeat CPU 0 instructions: 884000000 cycles: 4589457174 heartbeat IPC: 0.25374 cumulative IPC: 0.249102 (Simulation time: 2 hr 38 min 37 sec) 
Heartbeat CPU 0 instructions: 885000001 cycles: 4593706301 heartbeat IPC: 0.235343 cumulative IPC: 0.249069 (Simulation time: 2 hr 38 min 51 sec) 
Heartbeat CPU 0 instructions: 886000002 cycles: 4597722203 heartbeat IPC: 0.24901 cumulative IPC: 0.249069 (Simulation time: 2 hr 39 min 5 sec) 
Heartbeat CPU 0 instructions: 887000001 cycles: 4601855053 heartbeat IPC: 0.241964 cumulative IPC: 0.249052 (Simulation time: 2 hr 39 min 19 sec) 
Heartbeat CPU 0 instructions: 888000000 cycles: 4605814919 heartbeat IPC: 0.252534 cumulative IPC: 0.24906 (Simulation time: 2 hr 39 min 32 sec) 
Heartbeat CPU 0 instructions: 889000000 cycles: 4609873721 heartbeat IPC: 0.246378 cumulative IPC: 0.249054 (Simulation time: 2 hr 39 min 46 sec) 
Heartbeat CPU 0 instructions: 890000000 cycles: 4613683054 heartbeat IPC: 0.262513 cumulative IPC: 0.249083 (Simulation time: 2 hr 40 min 0 sec) 
Heartbeat CPU 0 instructions: 891000000 cycles: 4617559374 heartbeat IPC: 0.257977 cumulative IPC: 0.249102 (Simulation time: 2 hr 40 min 13 sec) 
Heartbeat CPU 0 instructions: 892000003 cycles: 4621570912 heartbeat IPC: 0.249282 cumulative IPC: 0.249103 (Simulation time: 2 hr 40 min 24 sec) 
Heartbeat CPU 0 instructions: 893000002 cycles: 4625728761 heartbeat IPC: 0.240509 cumulative IPC: 0.249083 (Simulation time: 2 hr 40 min 38 sec) 
Heartbeat CPU 0 instructions: 894000000 cycles: 4629511534 heartbeat IPC: 0.264356 cumulative IPC: 0.249115 (Simulation time: 2 hr 40 min 51 sec) 
Heartbeat CPU 0 instructions: 895000002 cycles: 4633636069 heartbeat IPC: 0.242452 cumulative IPC: 0.2491 (Simulation time: 2 hr 41 min 5 sec) 
Heartbeat CPU 0 instructions: 896000000 cycles: 4637606892 heartbeat IPC: 0.251836 cumulative IPC: 0.249106 (Simulation time: 2 hr 41 min 18 sec) 
Heartbeat CPU 0 instructions: 897000002 cycles: 4641628037 heartbeat IPC: 0.248686 cumulative IPC: 0.249105 (Simulation time: 2 hr 41 min 32 sec) 
Heartbeat CPU 0 instructions: 898000003 cycles: 4645261275 heartbeat IPC: 0.275237 cumulative IPC: 0.249158 (Simulation time: 2 hr 41 min 43 sec) 
Heartbeat CPU 0 instructions: 899000002 cycles: 4649290644 heartbeat IPC: 0.248178 cumulative IPC: 0.249155 (Simulation time: 2 hr 41 min 56 sec) 
Heartbeat CPU 0 instructions: 900000001 cycles: 4653031146 heartbeat IPC: 0.267344 cumulative IPC: 0.249193 (Simulation time: 2 hr 42 min 8 sec) 
Heartbeat CPU 0 instructions: 901000002 cycles: 4656747286 heartbeat IPC: 0.269097 cumulative IPC: 0.249234 (Simulation time: 2 hr 42 min 20 sec) 
Heartbeat CPU 0 instructions: 902000000 cycles: 4661034076 heartbeat IPC: 0.233274 cumulative IPC: 0.249196 (Simulation time: 2 hr 42 min 35 sec) 
Heartbeat CPU 0 instructions: 903000001 cycles: 4665157005 heartbeat IPC: 0.242546 cumulative IPC: 0.249181 (Simulation time: 2 hr 42 min 49 sec) 
Heartbeat CPU 0 instructions: 904000003 cycles: 4669107296 heartbeat IPC: 0.253146 cumulative IPC: 0.24919 (Simulation time: 2 hr 43 min 3 sec) 
Heartbeat CPU 0 instructions: 905000000 cycles: 4673253074 heartbeat IPC: 0.241209 cumulative IPC: 0.249172 (Simulation time: 2 hr 43 min 17 sec) 
Heartbeat CPU 0 instructions: 906000000 cycles: 4677216142 heartbeat IPC: 0.25233 cumulative IPC: 0.249178 (Simulation time: 2 hr 43 min 31 sec) 
Heartbeat CPU 0 instructions: 907000000 cycles: 4680925514 heartbeat IPC: 0.269587 cumulative IPC: 0.24922 (Simulation time: 2 hr 43 min 43 sec) 
Heartbeat CPU 0 instructions: 908000002 cycles: 4684753095 heartbeat IPC: 0.261262 cumulative IPC: 0.249245 (Simulation time: 2 hr 43 min 55 sec) 
Heartbeat CPU 0 instructions: 909000000 cycles: 4689182904 heartbeat IPC: 0.225743 cumulative IPC: 0.249188 (Simulation time: 2 hr 44 min 9 sec) 
Heartbeat CPU 0 instructions: 910000000 cycles: 4693389025 heartbeat IPC: 0.237749 cumulative IPC: 0.249162 (Simulation time: 2 hr 44 min 23 sec) 
Heartbeat CPU 0 instructions: 911000002 cycles: 4697369721 heartbeat IPC: 0.251213 cumulative IPC: 0.249167 (Simulation time: 2 hr 44 min 37 sec) 
Heartbeat CPU 0 instructions: 912000001 cycles: 4701436919 heartbeat IPC: 0.245869 cumulative IPC: 0.249159 (Simulation time: 2 hr 44 min 51 sec) 
Heartbeat CPU 0 instructions: 913000000 cycles: 4705390260 heartbeat IPC: 0.25295 cumulative IPC: 0.249167 (Simulation time: 2 hr 45 min 4 sec) 
Heartbeat CPU 0 instructions: 914000000 cycles: 4709392610 heartbeat IPC: 0.249853 cumulative IPC: 0.249169 (Simulation time: 2 hr 45 min 17 sec) 
Heartbeat CPU 0 instructions: 915000003 cycles: 4712722906 heartbeat IPC: 0.300275 cumulative IPC: 0.24926 (Simulation time: 2 hr 45 min 27 sec) 
Heartbeat CPU 0 instructions: 916000000 cycles: 4716986970 heartbeat IPC: 0.234517 cumulative IPC: 0.249227 (Simulation time: 2 hr 45 min 40 sec) 
Heartbeat CPU 0 instructions: 917000000 cycles: 4720698550 heartbeat IPC: 0.269427 cumulative IPC: 0.249267 (Simulation time: 2 hr 45 min 53 sec) 
Heartbeat CPU 0 instructions: 918000001 cycles: 4724941544 heartbeat IPC: 0.235683 cumulative IPC: 0.249236 (Simulation time: 2 hr 46 min 6 sec) 
Heartbeat CPU 0 instructions: 919000000 cycles: 4728978390 heartbeat IPC: 0.247718 cumulative IPC: 0.249233 (Simulation time: 2 hr 46 min 20 sec) 
Heartbeat CPU 0 instructions: 920000000 cycles: 4733102272 heartbeat IPC: 0.24249 cumulative IPC: 0.249218 (Simulation time: 2 hr 46 min 33 sec) 
Heartbeat CPU 0 instructions: 921000002 cycles: 4736961926 heartbeat IPC: 0.259091 cumulative IPC: 0.249238 (Simulation time: 2 hr 46 min 45 sec) 
Heartbeat CPU 0 instructions: 922000002 cycles: 4740644239 heartbeat IPC: 0.271568 cumulative IPC: 0.249281 (Simulation time: 2 hr 46 min 56 sec) 
Heartbeat CPU 0 instructions: 923000001 cycles: 4744413326 heartbeat IPC: 0.265316 cumulative IPC: 0.249313 (Simulation time: 2 hr 47 min 9 sec) 
Heartbeat CPU 0 instructions: 924000000 cycles: 4748541908 heartbeat IPC: 0.242214 cumulative IPC: 0.249298 (Simulation time: 2 hr 47 min 22 sec) 
Heartbeat CPU 0 instructions: 925000003 cycles: 4752050815 heartbeat IPC: 0.28499 cumulative IPC: 0.249364 (Simulation time: 2 hr 47 min 34 sec) 
Heartbeat CPU 0 instructions: 926000001 cycles: 4756224903 heartbeat IPC: 0.239573 cumulative IPC: 0.249342 (Simulation time: 2 hr 47 min 48 sec) 
Heartbeat CPU 0 instructions: 927000003 cycles: 4759961105 heartbeat IPC: 0.267652 cumulative IPC: 0.249378 (Simulation time: 2 hr 48 min 0 sec) 
Heartbeat CPU 0 instructions: 928000000 cycles: 4764316108 heartbeat IPC: 0.22962 cumulative IPC: 0.249333 (Simulation time: 2 hr 48 min 14 sec) 
Heartbeat CPU 0 instructions: 929000000 cycles: 4768034977 heartbeat IPC: 0.268899 cumulative IPC: 0.249371 (Simulation time: 2 hr 48 min 27 sec) 
Heartbeat CPU 0 instructions: 930000003 cycles: 4772080400 heartbeat IPC: 0.247194 cumulative IPC: 0.249366 (Simulation time: 2 hr 48 min 41 sec) 
Heartbeat CPU 0 instructions: 931000000 cycles: 4775943825 heartbeat IPC: 0.258837 cumulative IPC: 0.249385 (Simulation time: 2 hr 48 min 53 sec) 
Heartbeat CPU 0 instructions: 932000003 cycles: 4779887756 heartbeat IPC: 0.253555 cumulative IPC: 0.249394 (Simulation time: 2 hr 49 min 7 sec) 
Heartbeat CPU 0 instructions: 933000000 cycles: 4784058672 heartbeat IPC: 0.239755 cumulative IPC: 0.249373 (Simulation time: 2 hr 49 min 21 sec) 
Heartbeat CPU 0 instructions: 934000000 cycles: 4787996544 heartbeat IPC: 0.253944 cumulative IPC: 0.249382 (Simulation time: 2 hr 49 min 34 sec) 
Heartbeat CPU 0 instructions: 935000000 cycles: 4792176154 heartbeat IPC: 0.239257 cumulative IPC: 0.249361 (Simulation time: 2 hr 49 min 48 sec) 
Heartbeat CPU 0 instructions: 936000000 cycles: 4796202642 heartbeat IPC: 0.248355 cumulative IPC: 0.249359 (Simulation time: 2 hr 50 min 2 sec) 
Heartbeat CPU 0 instructions: 937000003 cycles: 4799989868 heartbeat IPC: 0.264046 cumulative IPC: 0.249387 (Simulation time: 2 hr 50 min 14 sec) 
Heartbeat CPU 0 instructions: 938000001 cycles: 4804135279 heartbeat IPC: 0.24123 cumulative IPC: 0.24937 (Simulation time: 2 hr 50 min 29 sec) 
Heartbeat CPU 0 instructions: 939000001 cycles: 4808115354 heartbeat IPC: 0.251252 cumulative IPC: 0.249374 (Simulation time: 2 hr 50 min 42 sec) 
Heartbeat CPU 0 instructions: 940000001 cycles: 4812239975 heartbeat IPC: 0.242447 cumulative IPC: 0.249359 (Simulation time: 2 hr 50 min 56 sec) 
Heartbeat CPU 0 instructions: 941000000 cycles: 4816304403 heartbeat IPC: 0.246037 cumulative IPC: 0.249352 (Simulation time: 2 hr 51 min 10 sec) 
Heartbeat CPU 0 instructions: 942000001 cycles: 4820307918 heartbeat IPC: 0.249781 cumulative IPC: 0.249353 (Simulation time: 2 hr 51 min 24 sec) 
Heartbeat CPU 0 instructions: 943000002 cycles: 4824420740 heartbeat IPC: 0.243142 cumulative IPC: 0.24934 (Simulation time: 2 hr 51 min 38 sec) 
Heartbeat CPU 0 instructions: 944000003 cycles: 4828449301 heartbeat IPC: 0.248228 cumulative IPC: 0.249338 (Simulation time: 2 hr 51 min 52 sec) 
Heartbeat CPU 0 instructions: 945000001 cycles: 4832681955 heartbeat IPC: 0.236258 cumulative IPC: 0.24931 (Simulation time: 2 hr 52 min 6 sec) 
Heartbeat CPU 0 instructions: 946000000 cycles: 4836732424 heartbeat IPC: 0.246885 cumulative IPC: 0.249305 (Simulation time: 2 hr 52 min 20 sec) 
Heartbeat CPU 0 instructions: 947000000 cycles: 4840823372 heartbeat IPC: 0.244442 cumulative IPC: 0.249295 (Simulation time: 2 hr 52 min 34 sec) 
Heartbeat CPU 0 instructions: 948000003 cycles: 4844952527 heartbeat IPC: 0.242181 cumulative IPC: 0.24928 (Simulation time: 2 hr 52 min 48 sec) 
Heartbeat CPU 0 instructions: 949000000 cycles: 4848937881 heartbeat IPC: 0.250918 cumulative IPC: 0.249284 (Simulation time: 2 hr 53 min 2 sec) 
Heartbeat CPU 0 instructions: 950000000 cycles: 4853007945 heartbeat IPC: 0.245696 cumulative IPC: 0.249276 (Simulation time: 2 hr 53 min 16 sec) 
Finished CPU 0 instructions: 500000000 cycles: 2005806199 cumulative IPC: 0.249276 (Simulation time: 2 hr 53 min 16 sec) 

ChampSim completed all CPUs

Region of Interest Statistics

CPU 0 cumulative IPC: 0.249276 instructions: 500000000 cycles: 2005806199
L1D TOTAL     ACCESS:  193260871  HIT:  114559390  MISS:   78701481
L1D LOAD      ACCESS:  163709928  HIT:   85617975  MISS:   78091953
L1D RFO       ACCESS:   29550943  HIT:   28941415  MISS:     609528
L1D PREFETCH  ACCESS:          0  HIT:          0  MISS:          0
L1D WRITEBACK ACCESS:          0  HIT:          0  MISS:          0
L1D PREFETCH  REQUESTED:          0  ISSUED:          0  USEFUL:          0  USELESS:          0
L1D AVERAGE MISS LATENCY: 110.088 cycles
L1I TOTAL     ACCESS:  138822215  HIT:  138822215  MISS:          0
L1I LOAD      ACCESS:  138822215  HIT:  138822215  MISS:          0
L1I RFO       ACCESS:          0  HIT:          0  MISS:          0
L1I PREFETCH  ACCESS:          0  HIT:          0  MISS:          0
L1I WRITEBACK ACCESS:          0  HIT:          0  MISS:          0
L1I PREFETCH  REQUESTED:          0  ISSUED:          0  USEFUL:          0  USELESS:          0
L1I AVERAGE MISS LATENCY: -nan cycles
L2C TOTAL     ACCESS:   79648649  HIT:     951567  MISS:   78697082
L2C LOAD      ACCESS:   78091953  HIT:       5603  MISS:   78086350
L2C RFO       ACCESS:     609527  HIT:       1107  MISS:     608420
L2C PREFETCH  ACCESS:          0  HIT:          0  MISS:          0
L2C WRITEBACK ACCESS:     947169  HIT:     944857  MISS:       2312
L2C PREFETCH  REQUESTED:          0  ISSUED:          0  USEFUL:          0  USELESS:          0
L2C AVERAGE MISS LATENCY: 95.9251 cycles
LLC TOTAL     ACCESS:  103163869  HIT:   25169585  MISS:   77994284
LLC LOAD      ACCESS:   78086351  HIT:   22612841  MISS:   55473510
LLC RFO       ACCESS:     608420  HIT:         40  MISS:     608380
LLC PREFETCH  ACCESS:   23525001  HIT:    1614383  MISS:   21910618
LLC WRITEBACK ACCESS:     944097  HIT:     942321  MISS:       1776
LLC PREFETCH  REQUESTED:   78086349  ISSUED:   77652768  USEFUL:   21910353  USELESS:        264
LLC AVERAGE MISS LATENCY: 110.687 cycles
Major fault: 0 Minor fault: 44901
performance stats:
mapping cache size: 1065736
divergence: 24946578

DRAM Statistics
 CHANNEL 0
 RQ ROW_BUFFER_HIT:   34731386  ROW_BUFFER_MISS:    4364102
 DBUS_CONGESTED:   57397762
 WQ ROW_BUFFER_HIT:     447988  ROW_BUFFER_MISS:      22969  FULL:          0

 CHANNEL 1
 RQ ROW_BUFFER_HIT:   34520798  ROW_BUFFER_MISS:    4376202
 DBUS_CONGESTED:   57397762
 WQ ROW_BUFFER_HIT:     449810  ROW_BUFFER_MISS:      23086  FULL:          0

 AVG_CONGESTED_CYCLE: 16

CPU 0 Branch Prediction Accuracy: 99.3641% MPKI: 1.17127 Average ROB Occupancy at Mispredict: 94.0036

Branch types
NOT_BRANCH: 407900577 81.5801%
BRANCH_DIRECT_JUMP: 21456098 4.29122%
BRANCH_INDIRECT: 0 0%
BRANCH_CONDITIONAL: 70636473 14.1273%
BRANCH_DIRECT_CALL: 3428 0.0006856%
BRANCH_INDIRECT_CALL: 0 0%
BRANCH_RETURN: 3428 0.0006856%
BRANCH_OTHER: 0 0%

