
*** ChampSim Multicore Out-of-Order Simulator ***

Warmup Instructions: 1000000
Prefetch Warmup Instructions: 450000000
Simulation Instructions: 500000000
Stat Printing Period: 1000000
Number of CPUs: 1
LLC sets: 2048
LLC ways: 16
Off-chip DRAM Size: 32768 MB Channels: 2 Width: 64-bit Data Rate: 1024 MT/s

CPU 0 runs /scratch/cluster/cmolder/ML-DPC/ChampSimTraces/spec17/605.mcf-s4.trace.xz
Read seed: 223
Heartbeat CPU 0 instructions: 1000002 cycles: 415473 heartbeat IPC: 2.4069 cumulative IPC: 2.4069 (Simulation time: 0 hr 0 min 6 sec) 

Warmup complete CPU 0 instructions: 1000002 cycles: 415473 (Simulation time: 0 hr 0 min 6 sec) 

Heartbeat CPU 0 instructions: 2000000 cycles: 4209893 heartbeat IPC: 0.263544 cumulative IPC: 0.263544 (Simulation time: 0 hr 0 min 17 sec) 
Heartbeat CPU 0 instructions: 3000000 cycles: 6109865 heartbeat IPC: 0.526324 cumulative IPC: 0.351222 (Simulation time: 0 hr 0 min 24 sec) 
Heartbeat CPU 0 instructions: 4000000 cycles: 8521478 heartbeat IPC: 0.41466 cumulative IPC: 0.370096 (Simulation time: 0 hr 0 min 32 sec) 
Heartbeat CPU 0 instructions: 5000000 cycles: 12370585 heartbeat IPC: 0.259801 cumulative IPC: 0.334585 (Simulation time: 0 hr 0 min 42 sec) 
Heartbeat CPU 0 instructions: 6000001 cycles: 14141270 heartbeat IPC: 0.564754 cumulative IPC: 0.364278 (Simulation time: 0 hr 0 min 50 sec) 
Heartbeat CPU 0 instructions: 7000002 cycles: 17180131 heartbeat IPC: 0.329071 cumulative IPC: 0.357896 (Simulation time: 0 hr 0 min 59 sec) 
Heartbeat CPU 0 instructions: 8000000 cycles: 19783201 heartbeat IPC: 0.384161 cumulative IPC: 0.361426 (Simulation time: 0 hr 1 min 7 sec) 
Heartbeat CPU 0 instructions: 9000001 cycles: 22034946 heartbeat IPC: 0.4441 cumulative IPC: 0.370037 (Simulation time: 0 hr 1 min 15 sec) 
Heartbeat CPU 0 instructions: 10000001 cycles: 25324400 heartbeat IPC: 0.304002 cumulative IPC: 0.361316 (Simulation time: 0 hr 1 min 24 sec) 
Heartbeat CPU 0 instructions: 11000000 cycles: 27449162 heartbeat IPC: 0.47064 cumulative IPC: 0.369909 (Simulation time: 0 hr 1 min 31 sec) 
Heartbeat CPU 0 instructions: 12000002 cycles: 33405975 heartbeat IPC: 0.167875 cumulative IPC: 0.333429 (Simulation time: 0 hr 1 min 45 sec) 
Heartbeat CPU 0 instructions: 13000001 cycles: 35377304 heartbeat IPC: 0.507271 cumulative IPC: 0.343231 (Simulation time: 0 hr 1 min 52 sec) 
Heartbeat CPU 0 instructions: 14000002 cycles: 39521030 heartbeat IPC: 0.241329 cumulative IPC: 0.332434 (Simulation time: 0 hr 2 min 2 sec) 
Heartbeat CPU 0 instructions: 15000000 cycles: 43916824 heartbeat IPC: 0.22749 cumulative IPC: 0.321829 (Simulation time: 0 hr 2 min 13 sec) 
Heartbeat CPU 0 instructions: 16000000 cycles: 46247588 heartbeat IPC: 0.429044 cumulative IPC: 0.327281 (Simulation time: 0 hr 2 min 22 sec) 
Heartbeat CPU 0 instructions: 17000001 cycles: 51435995 heartbeat IPC: 0.192738 cumulative IPC: 0.313599 (Simulation time: 0 hr 2 min 35 sec) 
Heartbeat CPU 0 instructions: 18000003 cycles: 57869766 heartbeat IPC: 0.15543 cumulative IPC: 0.295887 (Simulation time: 0 hr 2 min 50 sec) 
Heartbeat CPU 0 instructions: 19000000 cycles: 63623174 heartbeat IPC: 0.173809 cumulative IPC: 0.284775 (Simulation time: 0 hr 3 min 4 sec) 
Heartbeat CPU 0 instructions: 20000000 cycles: 65403024 heartbeat IPC: 0.561845 cumulative IPC: 0.292364 (Simulation time: 0 hr 3 min 12 sec) 
Heartbeat CPU 0 instructions: 21000000 cycles: 68013480 heartbeat IPC: 0.383075 cumulative IPC: 0.295867 (Simulation time: 0 hr 3 min 21 sec) 
Heartbeat CPU 0 instructions: 22000000 cycles: 72936299 heartbeat IPC: 0.203136 cumulative IPC: 0.289572 (Simulation time: 0 hr 3 min 34 sec) 
Heartbeat CPU 0 instructions: 23000000 cycles: 79114239 heartbeat IPC: 0.161866 cumulative IPC: 0.279547 (Simulation time: 0 hr 3 min 49 sec) 
Heartbeat CPU 0 instructions: 24000002 cycles: 85223971 heartbeat IPC: 0.163674 cumulative IPC: 0.271199 (Simulation time: 0 hr 4 min 4 sec) 
Heartbeat CPU 0 instructions: 25000000 cycles: 91419993 heartbeat IPC: 0.161394 cumulative IPC: 0.263723 (Simulation time: 0 hr 4 min 19 sec) 
Heartbeat CPU 0 instructions: 26000000 cycles: 97530836 heartbeat IPC: 0.163644 cumulative IPC: 0.257426 (Simulation time: 0 hr 4 min 34 sec) 
Heartbeat CPU 0 instructions: 27000000 cycles: 103615170 heartbeat IPC: 0.164357 cumulative IPC: 0.251939 (Simulation time: 0 hr 4 min 50 sec) 
Heartbeat CPU 0 instructions: 28000001 cycles: 105806882 heartbeat IPC: 0.456265 cumulative IPC: 0.256188 (Simulation time: 0 hr 4 min 58 sec) 
Heartbeat CPU 0 instructions: 29000001 cycles: 107593351 heartbeat IPC: 0.559763 cumulative IPC: 0.261248 (Simulation time: 0 hr 5 min 7 sec) 
Heartbeat CPU 0 instructions: 30000002 cycles: 110920921 heartbeat IPC: 0.30052 cumulative IPC: 0.26243 (Simulation time: 0 hr 5 min 17 sec) 
Heartbeat CPU 0 instructions: 31000003 cycles: 113276697 heartbeat IPC: 0.424489 cumulative IPC: 0.265813 (Simulation time: 0 hr 5 min 26 sec) 
Heartbeat CPU 0 instructions: 32000000 cycles: 115205876 heartbeat IPC: 0.518354 cumulative IPC: 0.270057 (Simulation time: 0 hr 5 min 34 sec) 
Heartbeat CPU 0 instructions: 33000000 cycles: 119274306 heartbeat IPC: 0.245795 cumulative IPC: 0.269227 (Simulation time: 0 hr 5 min 45 sec) 
Heartbeat CPU 0 instructions: 34000000 cycles: 121743868 heartbeat IPC: 0.40493 cumulative IPC: 0.271989 (Simulation time: 0 hr 5 min 54 sec) 
Heartbeat CPU 0 instructions: 35000001 cycles: 124103139 heartbeat IPC: 0.42386 cumulative IPC: 0.274886 (Simulation time: 0 hr 6 min 3 sec) 
Heartbeat CPU 0 instructions: 36000000 cycles: 128021348 heartbeat IPC: 0.255218 cumulative IPC: 0.274282 (Simulation time: 0 hr 6 min 14 sec) 
Heartbeat CPU 0 instructions: 37000001 cycles: 129622798 heartbeat IPC: 0.624435 cumulative IPC: 0.278622 (Simulation time: 0 hr 6 min 22 sec) 
Heartbeat CPU 0 instructions: 38000000 cycles: 132679183 heartbeat IPC: 0.327184 cumulative IPC: 0.279744 (Simulation time: 0 hr 6 min 32 sec) 
Heartbeat CPU 0 instructions: 39000000 cycles: 137138220 heartbeat IPC: 0.224264 cumulative IPC: 0.277935 (Simulation time: 0 hr 6 min 44 sec) 
Heartbeat CPU 0 instructions: 40000000 cycles: 139357681 heartbeat IPC: 0.45056 cumulative IPC: 0.280692 (Simulation time: 0 hr 6 min 52 sec) 
Heartbeat CPU 0 instructions: 41000001 cycles: 141987771 heartbeat IPC: 0.380215 cumulative IPC: 0.282541 (Simulation time: 0 hr 7 min 2 sec) 
Heartbeat CPU 0 instructions: 42000003 cycles: 145958340 heartbeat IPC: 0.251854 cumulative IPC: 0.281704 (Simulation time: 0 hr 7 min 13 sec) 
Heartbeat CPU 0 instructions: 43000000 cycles: 147601336 heartbeat IPC: 0.608642 cumulative IPC: 0.285353 (Simulation time: 0 hr 7 min 21 sec) 
Heartbeat CPU 0 instructions: 44000000 cycles: 151247878 heartbeat IPC: 0.274232 cumulative IPC: 0.285085 (Simulation time: 0 hr 7 min 31 sec) 
Heartbeat CPU 0 instructions: 45000002 cycles: 152780981 heartbeat IPC: 0.652273 cumulative IPC: 0.288779 (Simulation time: 0 hr 7 min 38 sec) 
Heartbeat CPU 0 instructions: 46000002 cycles: 156276603 heartbeat IPC: 0.286072 cumulative IPC: 0.288719 (Simulation time: 0 hr 7 min 49 sec) 
Heartbeat CPU 0 instructions: 47000000 cycles: 158783694 heartbeat IPC: 0.398868 cumulative IPC: 0.290462 (Simulation time: 0 hr 7 min 57 sec) 
Heartbeat CPU 0 instructions: 48000003 cycles: 160361350 heartbeat IPC: 0.633854 cumulative IPC: 0.293849 (Simulation time: 0 hr 8 min 4 sec) 
Heartbeat CPU 0 instructions: 49000001 cycles: 164183010 heartbeat IPC: 0.261666 cumulative IPC: 0.293098 (Simulation time: 0 hr 8 min 15 sec) 
Heartbeat CPU 0 instructions: 50000001 cycles: 170101747 heartbeat IPC: 0.168955 cumulative IPC: 0.288768 (Simulation time: 0 hr 8 min 30 sec) 
Heartbeat CPU 0 instructions: 51000002 cycles: 171929038 heartbeat IPC: 0.547259 cumulative IPC: 0.291522 (Simulation time: 0 hr 8 min 37 sec) 
Heartbeat CPU 0 instructions: 52000000 cycles: 173530316 heartbeat IPC: 0.6245 cumulative IPC: 0.294602 (Simulation time: 0 hr 8 min 45 sec) 
Heartbeat CPU 0 instructions: 53000000 cycles: 177149882 heartbeat IPC: 0.276276 cumulative IPC: 0.294227 (Simulation time: 0 hr 8 min 55 sec) 
Heartbeat CPU 0 instructions: 54000000 cycles: 178799060 heartbeat IPC: 0.606363 cumulative IPC: 0.297113 (Simulation time: 0 hr 9 min 2 sec) 
Heartbeat CPU 0 instructions: 55000000 cycles: 180466391 heartbeat IPC: 0.599761 cumulative IPC: 0.299915 (Simulation time: 0 hr 9 min 10 sec) 
Heartbeat CPU 0 instructions: 56000000 cycles: 185752716 heartbeat IPC: 0.189167 cumulative IPC: 0.296756 (Simulation time: 0 hr 9 min 23 sec) 
Heartbeat CPU 0 instructions: 57000003 cycles: 190241680 heartbeat IPC: 0.222769 cumulative IPC: 0.295007 (Simulation time: 0 hr 9 min 35 sec) 
Heartbeat CPU 0 instructions: 58000000 cycles: 191865655 heartbeat IPC: 0.615771 cumulative IPC: 0.297728 (Simulation time: 0 hr 9 min 42 sec) 
Heartbeat CPU 0 instructions: 59000000 cycles: 195971441 heartbeat IPC: 0.243559 cumulative IPC: 0.29659 (Simulation time: 0 hr 9 min 53 sec) 
Heartbeat CPU 0 instructions: 60000001 cycles: 200244972 heartbeat IPC: 0.233999 cumulative IPC: 0.295252 (Simulation time: 0 hr 10 min 4 sec) 
Heartbeat CPU 0 instructions: 61000002 cycles: 202169899 heartbeat IPC: 0.519501 cumulative IPC: 0.297391 (Simulation time: 0 hr 10 min 12 sec) 
Heartbeat CPU 0 instructions: 62000000 cycles: 206076300 heartbeat IPC: 0.25599 cumulative IPC: 0.296605 (Simulation time: 0 hr 10 min 22 sec) 
Heartbeat CPU 0 instructions: 63000003 cycles: 207950161 heartbeat IPC: 0.533659 cumulative IPC: 0.298745 (Simulation time: 0 hr 10 min 30 sec) 
Heartbeat CPU 0 instructions: 64000001 cycles: 211815674 heartbeat IPC: 0.258697 cumulative IPC: 0.298013 (Simulation time: 0 hr 10 min 40 sec) 
Heartbeat CPU 0 instructions: 65000001 cycles: 213777418 heartbeat IPC: 0.50975 cumulative IPC: 0.29996 (Simulation time: 0 hr 10 min 48 sec) 
Heartbeat CPU 0 instructions: 66000000 cycles: 217519562 heartbeat IPC: 0.267226 cumulative IPC: 0.299396 (Simulation time: 0 hr 10 min 58 sec) 
Heartbeat CPU 0 instructions: 67000000 cycles: 219210122 heartbeat IPC: 0.59152 cumulative IPC: 0.301653 (Simulation time: 0 hr 11 min 5 sec) 
Heartbeat CPU 0 instructions: 68000000 cycles: 224013430 heartbeat IPC: 0.20819 cumulative IPC: 0.299645 (Simulation time: 0 hr 11 min 18 sec) 
Heartbeat CPU 0 instructions: 69000000 cycles: 226803359 heartbeat IPC: 0.358432 cumulative IPC: 0.300369 (Simulation time: 0 hr 11 min 27 sec) 
Heartbeat CPU 0 instructions: 70000002 cycles: 228445142 heartbeat IPC: 0.609095 cumulative IPC: 0.302592 (Simulation time: 0 hr 11 min 35 sec) 
Heartbeat CPU 0 instructions: 71000000 cycles: 231724051 heartbeat IPC: 0.304979 cumulative IPC: 0.302626 (Simulation time: 0 hr 11 min 45 sec) 
Heartbeat CPU 0 instructions: 72000000 cycles: 234377759 heartbeat IPC: 0.376831 cumulative IPC: 0.303468 (Simulation time: 0 hr 11 min 54 sec) 
Heartbeat CPU 0 instructions: 73000000 cycles: 237436801 heartbeat IPC: 0.3269 cumulative IPC: 0.30377 (Simulation time: 0 hr 12 min 3 sec) 
Heartbeat CPU 0 instructions: 74000002 cycles: 243546878 heartbeat IPC: 0.163664 cumulative IPC: 0.300249 (Simulation time: 0 hr 12 min 18 sec) 
Heartbeat CPU 0 instructions: 75000001 cycles: 246611781 heartbeat IPC: 0.326274 cumulative IPC: 0.300573 (Simulation time: 0 hr 12 min 27 sec) 
Heartbeat CPU 0 instructions: 76000000 cycles: 249747005 heartbeat IPC: 0.318956 cumulative IPC: 0.300804 (Simulation time: 0 hr 12 min 37 sec) 
Heartbeat CPU 0 instructions: 77000000 cycles: 254967872 heartbeat IPC: 0.191539 cumulative IPC: 0.298563 (Simulation time: 0 hr 12 min 50 sec) 
Heartbeat CPU 0 instructions: 78000003 cycles: 256816932 heartbeat IPC: 0.540817 cumulative IPC: 0.30031 (Simulation time: 0 hr 12 min 57 sec) 
Heartbeat CPU 0 instructions: 79000003 cycles: 261154488 heartbeat IPC: 0.230545 cumulative IPC: 0.29915 (Simulation time: 0 hr 13 min 9 sec) 
Heartbeat CPU 0 instructions: 80000002 cycles: 266791462 heartbeat IPC: 0.1774 cumulative IPC: 0.296573 (Simulation time: 0 hr 13 min 22 sec) 
Heartbeat CPU 0 instructions: 81000000 cycles: 268342240 heartbeat IPC: 0.644836 cumulative IPC: 0.298589 (Simulation time: 0 hr 13 min 29 sec) 
Heartbeat CPU 0 instructions: 82000000 cycles: 269863590 heartbeat IPC: 0.657311 cumulative IPC: 0.300614 (Simulation time: 0 hr 13 min 36 sec) 
Heartbeat CPU 0 instructions: 83000001 cycles: 275001636 heartbeat IPC: 0.194627 cumulative IPC: 0.298631 (Simulation time: 0 hr 13 min 49 sec) 
Heartbeat CPU 0 instructions: 84000002 cycles: 277116994 heartbeat IPC: 0.472734 cumulative IPC: 0.299962 (Simulation time: 0 hr 13 min 57 sec) 
Heartbeat CPU 0 instructions: 85000000 cycles: 280005518 heartbeat IPC: 0.346197 cumulative IPC: 0.30044 (Simulation time: 0 hr 14 min 6 sec) 
Heartbeat CPU 0 instructions: 86000000 cycles: 282386706 heartbeat IPC: 0.419958 cumulative IPC: 0.301449 (Simulation time: 0 hr 14 min 15 sec) 
Heartbeat CPU 0 instructions: 87000000 cycles: 285005811 heartbeat IPC: 0.38181 cumulative IPC: 0.302189 (Simulation time: 0 hr 14 min 23 sec) 
Heartbeat CPU 0 instructions: 88000000 cycles: 290382536 heartbeat IPC: 0.185987 cumulative IPC: 0.300034 (Simulation time: 0 hr 14 min 36 sec) 
Heartbeat CPU 0 instructions: 89000000 cycles: 292306933 heartbeat IPC: 0.519643 cumulative IPC: 0.301482 (Simulation time: 0 hr 14 min 43 sec) 
Heartbeat CPU 0 instructions: 90000000 cycles: 293985809 heartbeat IPC: 0.595637 cumulative IPC: 0.303164 (Simulation time: 0 hr 14 min 51 sec) 
Heartbeat CPU 0 instructions: 91000000 cycles: 297458325 heartbeat IPC: 0.287976 cumulative IPC: 0.302987 (Simulation time: 0 hr 15 min 1 sec) 
Heartbeat CPU 0 instructions: 92000002 cycles: 299012440 heartbeat IPC: 0.643454 cumulative IPC: 0.304759 (Simulation time: 0 hr 15 min 8 sec) 
Heartbeat CPU 0 instructions: 93000000 cycles: 303891421 heartbeat IPC: 0.20496 cumulative IPC: 0.303154 (Simulation time: 0 hr 15 min 20 sec) 
Heartbeat CPU 0 instructions: 94000001 cycles: 308926535 heartbeat IPC: 0.198605 cumulative IPC: 0.301448 (Simulation time: 0 hr 15 min 32 sec) 
Heartbeat CPU 0 instructions: 95000001 cycles: 310670544 heartbeat IPC: 0.573392 cumulative IPC: 0.302977 (Simulation time: 0 hr 15 min 40 sec) 
Heartbeat CPU 0 instructions: 96000002 cycles: 315125793 heartbeat IPC: 0.224455 cumulative IPC: 0.301865 (Simulation time: 0 hr 15 min 51 sec) 
Heartbeat CPU 0 instructions: 97000000 cycles: 320757629 heartbeat IPC: 0.177562 cumulative IPC: 0.29968 (Simulation time: 0 hr 16 min 4 sec) 
Heartbeat CPU 0 instructions: 98000003 cycles: 322708253 heartbeat IPC: 0.512658 cumulative IPC: 0.300969 (Simulation time: 0 hr 16 min 12 sec) 
Heartbeat CPU 0 instructions: 99000000 cycles: 324826978 heartbeat IPC: 0.471981 cumulative IPC: 0.302085 (Simulation time: 0 hr 16 min 20 sec) 
Heartbeat CPU 0 instructions: 100000002 cycles: 328656134 heartbeat IPC: 0.261155 cumulative IPC: 0.301608 (Simulation time: 0 hr 16 min 31 sec) 
Heartbeat CPU 0 instructions: 101000003 cycles: 331148729 heartbeat IPC: 0.401189 cumulative IPC: 0.302358 (Simulation time: 0 hr 16 min 39 sec) 
Heartbeat CPU 0 instructions: 102000000 cycles: 333400027 heartbeat IPC: 0.444187 cumulative IPC: 0.303317 (Simulation time: 0 hr 16 min 47 sec) 
Heartbeat CPU 0 instructions: 103000000 cycles: 337315269 heartbeat IPC: 0.255412 cumulative IPC: 0.302761 (Simulation time: 0 hr 16 min 58 sec) 
Heartbeat CPU 0 instructions: 104000001 cycles: 339156574 heartbeat IPC: 0.543094 cumulative IPC: 0.304067 (Simulation time: 0 hr 17 min 5 sec) 
Heartbeat CPU 0 instructions: 105000000 cycles: 342890633 heartbeat IPC: 0.267805 cumulative IPC: 0.303672 (Simulation time: 0 hr 17 min 16 sec) 
Heartbeat CPU 0 instructions: 106000000 cycles: 344593794 heartbeat IPC: 0.587144 cumulative IPC: 0.305074 (Simulation time: 0 hr 17 min 24 sec) 
Heartbeat CPU 0 instructions: 107000003 cycles: 346094280 heartbeat IPC: 0.666453 cumulative IPC: 0.306643 (Simulation time: 0 hr 17 min 31 sec) 
Heartbeat CPU 0 instructions: 108000001 cycles: 349704998 heartbeat IPC: 0.276953 cumulative IPC: 0.306336 (Simulation time: 0 hr 17 min 42 sec) 
Heartbeat CPU 0 instructions: 109000003 cycles: 353662705 heartbeat IPC: 0.252672 cumulative IPC: 0.305735 (Simulation time: 0 hr 17 min 53 sec) 
Heartbeat CPU 0 instructions: 110000000 cycles: 355851881 heartbeat IPC: 0.456791 cumulative IPC: 0.306665 (Simulation time: 0 hr 18 min 0 sec) 
Heartbeat CPU 0 instructions: 111000001 cycles: 360609718 heartbeat IPC: 0.21018 cumulative IPC: 0.305391 (Simulation time: 0 hr 18 min 13 sec) 
Heartbeat CPU 0 instructions: 112000002 cycles: 363490166 heartbeat IPC: 0.347169 cumulative IPC: 0.305722 (Simulation time: 0 hr 18 min 22 sec) 
Heartbeat CPU 0 instructions: 113000002 cycles: 365319065 heartbeat IPC: 0.546777 cumulative IPC: 0.30693 (Simulation time: 0 hr 18 min 29 sec) 
Heartbeat CPU 0 instructions: 114000000 cycles: 368880047 heartbeat IPC: 0.280821 cumulative IPC: 0.306678 (Simulation time: 0 hr 18 min 39 sec) 
Heartbeat CPU 0 instructions: 115000001 cycles: 370571568 heartbeat IPC: 0.591184 cumulative IPC: 0.307978 (Simulation time: 0 hr 18 min 46 sec) 
Heartbeat CPU 0 instructions: 116000003 cycles: 374893028 heartbeat IPC: 0.231404 cumulative IPC: 0.307095 (Simulation time: 0 hr 18 min 57 sec) 
Heartbeat CPU 0 instructions: 117000000 cycles: 376666584 heartbeat IPC: 0.563837 cumulative IPC: 0.308305 (Simulation time: 0 hr 19 min 4 sec) 
Heartbeat CPU 0 instructions: 118000002 cycles: 380651979 heartbeat IPC: 0.250917 cumulative IPC: 0.307703 (Simulation time: 0 hr 19 min 15 sec) 
Heartbeat CPU 0 instructions: 119000000 cycles: 385334969 heartbeat IPC: 0.213538 cumulative IPC: 0.306558 (Simulation time: 0 hr 19 min 26 sec) 
Heartbeat CPU 0 instructions: 120000002 cycles: 387369451 heartbeat IPC: 0.491527 cumulative IPC: 0.30753 (Simulation time: 0 hr 19 min 34 sec) 
Heartbeat CPU 0 instructions: 121000000 cycles: 390138400 heartbeat IPC: 0.361147 cumulative IPC: 0.307911 (Simulation time: 0 hr 19 min 43 sec) 
Heartbeat CPU 0 instructions: 122000001 cycles: 395226376 heartbeat IPC: 0.196542 cumulative IPC: 0.306476 (Simulation time: 0 hr 19 min 55 sec) 
Heartbeat CPU 0 instructions: 123000000 cycles: 396690434 heartbeat IPC: 0.683032 cumulative IPC: 0.307867 (Simulation time: 0 hr 20 min 2 sec) 
Heartbeat CPU 0 instructions: 124000000 cycles: 398192255 heartbeat IPC: 0.665858 cumulative IPC: 0.309219 (Simulation time: 0 hr 20 min 10 sec) 
Heartbeat CPU 0 instructions: 125000002 cycles: 403444365 heartbeat IPC: 0.1904 cumulative IPC: 0.30767 (Simulation time: 0 hr 20 min 22 sec) 
Heartbeat CPU 0 instructions: 126000001 cycles: 407945338 heartbeat IPC: 0.222174 cumulative IPC: 0.306726 (Simulation time: 0 hr 20 min 34 sec) 
Heartbeat CPU 0 instructions: 127000001 cycles: 409979445 heartbeat IPC: 0.491616 cumulative IPC: 0.307644 (Simulation time: 0 hr 20 min 42 sec) 
Heartbeat CPU 0 instructions: 128000000 cycles: 412591880 heartbeat IPC: 0.382784 cumulative IPC: 0.30812 (Simulation time: 0 hr 20 min 50 sec) 
Heartbeat CPU 0 instructions: 129000003 cycles: 418040468 heartbeat IPC: 0.183534 cumulative IPC: 0.306495 (Simulation time: 0 hr 21 min 4 sec) 
Heartbeat CPU 0 instructions: 130000003 cycles: 420756387 heartbeat IPC: 0.368199 cumulative IPC: 0.306894 (Simulation time: 0 hr 21 min 12 sec) 
Heartbeat CPU 0 instructions: 131000000 cycles: 423414310 heartbeat IPC: 0.376233 cumulative IPC: 0.307329 (Simulation time: 0 hr 21 min 21 sec) 
Heartbeat CPU 0 instructions: 132000000 cycles: 427248524 heartbeat IPC: 0.26081 cumulative IPC: 0.306912 (Simulation time: 0 hr 21 min 31 sec) 
Heartbeat CPU 0 instructions: 133000001 cycles: 429076871 heartbeat IPC: 0.546943 cumulative IPC: 0.307935 (Simulation time: 0 hr 21 min 38 sec) 
Heartbeat CPU 0 instructions: 134000003 cycles: 434309423 heartbeat IPC: 0.191112 cumulative IPC: 0.306527 (Simulation time: 0 hr 21 min 51 sec) 
Heartbeat CPU 0 instructions: 135000000 cycles: 438957810 heartbeat IPC: 0.215128 cumulative IPC: 0.305558 (Simulation time: 0 hr 22 min 3 sec) 
Heartbeat CPU 0 instructions: 136000003 cycles: 440546107 heartbeat IPC: 0.629607 cumulative IPC: 0.306727 (Simulation time: 0 hr 22 min 10 sec) 
Heartbeat CPU 0 instructions: 137000000 cycles: 444006413 heartbeat IPC: 0.288991 cumulative IPC: 0.306589 (Simulation time: 0 hr 22 min 20 sec) 
Heartbeat CPU 0 instructions: 138000001 cycles: 449919076 heartbeat IPC: 0.169129 cumulative IPC: 0.304781 (Simulation time: 0 hr 22 min 33 sec) 
Heartbeat CPU 0 instructions: 139000001 cycles: 452678795 heartbeat IPC: 0.362356 cumulative IPC: 0.305132 (Simulation time: 0 hr 22 min 42 sec) 
Heartbeat CPU 0 instructions: 140000002 cycles: 455126937 heartbeat IPC: 0.408473 cumulative IPC: 0.305688 (Simulation time: 0 hr 22 min 50 sec) 
Heartbeat CPU 0 instructions: 141000000 cycles: 458146834 heartbeat IPC: 0.331136 cumulative IPC: 0.305856 (Simulation time: 0 hr 22 min 59 sec) 
Heartbeat CPU 0 instructions: 142000003 cycles: 460073257 heartbeat IPC: 0.519098 cumulative IPC: 0.30675 (Simulation time: 0 hr 23 min 7 sec) 
Heartbeat CPU 0 instructions: 143000000 cycles: 465605610 heartbeat IPC: 0.180754 cumulative IPC: 0.305252 (Simulation time: 0 hr 23 min 20 sec) 
Heartbeat CPU 0 instructions: 144000001 cycles: 469692136 heartbeat IPC: 0.244707 cumulative IPC: 0.304724 (Simulation time: 0 hr 23 min 31 sec) 
Heartbeat CPU 0 instructions: 145000001 cycles: 471560894 heartbeat IPC: 0.535115 cumulative IPC: 0.305638 (Simulation time: 0 hr 23 min 38 sec) 
Heartbeat CPU 0 instructions: 146000002 cycles: 476478083 heartbeat IPC: 0.203368 cumulative IPC: 0.304582 (Simulation time: 0 hr 23 min 50 sec) 
Heartbeat CPU 0 instructions: 147000000 cycles: 479050843 heartbeat IPC: 0.388687 cumulative IPC: 0.305034 (Simulation time: 0 hr 23 min 59 sec) 
Heartbeat CPU 0 instructions: 148000000 cycles: 481645087 heartbeat IPC: 0.385469 cumulative IPC: 0.305467 (Simulation time: 0 hr 24 min 7 sec) 
Heartbeat CPU 0 instructions: 149000003 cycles: 487424160 heartbeat IPC: 0.173039 cumulative IPC: 0.303896 (Simulation time: 0 hr 24 min 21 sec) 
Heartbeat CPU 0 instructions: 150000001 cycles: 489450734 heartbeat IPC: 0.493443 cumulative IPC: 0.304682 (Simulation time: 0 hr 24 min 29 sec) 
Heartbeat CPU 0 instructions: 151000001 cycles: 491600293 heartbeat IPC: 0.465212 cumulative IPC: 0.305384 (Simulation time: 0 hr 24 min 37 sec) 
Heartbeat CPU 0 instructions: 152000002 cycles: 495811674 heartbeat IPC: 0.237452 cumulative IPC: 0.304807 (Simulation time: 0 hr 24 min 48 sec) 
Heartbeat CPU 0 instructions: 153000002 cycles: 499701550 heartbeat IPC: 0.257078 cumulative IPC: 0.304435 (Simulation time: 0 hr 24 min 58 sec) 
Heartbeat CPU 0 instructions: 154000000 cycles: 501534534 heartbeat IPC: 0.545557 cumulative IPC: 0.305317 (Simulation time: 0 hr 25 min 6 sec) 
Heartbeat CPU 0 instructions: 155000003 cycles: 506556232 heartbeat IPC: 0.199136 cumulative IPC: 0.304263 (Simulation time: 0 hr 25 min 18 sec) 
Heartbeat CPU 0 instructions: 156000001 cycles: 509179825 heartbeat IPC: 0.381156 cumulative IPC: 0.30466 (Simulation time: 0 hr 25 min 27 sec) 
Heartbeat CPU 0 instructions: 157000000 cycles: 512018340 heartbeat IPC: 0.352297 cumulative IPC: 0.304924 (Simulation time: 0 hr 25 min 36 sec) 
Heartbeat CPU 0 instructions: 158000002 cycles: 514612401 heartbeat IPC: 0.385497 cumulative IPC: 0.30533 (Simulation time: 0 hr 25 min 44 sec) 
Heartbeat CPU 0 instructions: 159000000 cycles: 517512537 heartbeat IPC: 0.344811 cumulative IPC: 0.305552 (Simulation time: 0 hr 25 min 53 sec) 
Heartbeat CPU 0 instructions: 160000002 cycles: 520756215 heartbeat IPC: 0.308293 cumulative IPC: 0.305569 (Simulation time: 0 hr 26 min 3 sec) 
Heartbeat CPU 0 instructions: 161000002 cycles: 525607513 heartbeat IPC: 0.20613 cumulative IPC: 0.30465 (Simulation time: 0 hr 26 min 15 sec) 
Heartbeat CPU 0 instructions: 162000001 cycles: 527147059 heartbeat IPC: 0.649541 cumulative IPC: 0.305659 (Simulation time: 0 hr 26 min 22 sec) 
Heartbeat CPU 0 instructions: 163000000 cycles: 530507733 heartbeat IPC: 0.297559 cumulative IPC: 0.305607 (Simulation time: 0 hr 26 min 32 sec) 
Heartbeat CPU 0 instructions: 164000000 cycles: 533338032 heartbeat IPC: 0.35332 cumulative IPC: 0.305861 (Simulation time: 0 hr 26 min 41 sec) 
Heartbeat CPU 0 instructions: 165000000 cycles: 535946393 heartbeat IPC: 0.383383 cumulative IPC: 0.306238 (Simulation time: 0 hr 26 min 49 sec) 
Heartbeat CPU 0 instructions: 166000002 cycles: 539019814 heartbeat IPC: 0.325371 cumulative IPC: 0.306347 (Simulation time: 0 hr 26 min 59 sec) 
Heartbeat CPU 0 instructions: 167000000 cycles: 540991802 heartbeat IPC: 0.507101 cumulative IPC: 0.30708 (Simulation time: 0 hr 27 min 7 sec) 
Heartbeat CPU 0 instructions: 168000000 cycles: 544674111 heartbeat IPC: 0.271569 cumulative IPC: 0.306839 (Simulation time: 0 hr 27 min 17 sec) 
Heartbeat CPU 0 instructions: 169000003 cycles: 547086306 heartbeat IPC: 0.414561 cumulative IPC: 0.307315 (Simulation time: 0 hr 27 min 25 sec) 
Heartbeat CPU 0 instructions: 170000001 cycles: 549606600 heartbeat IPC: 0.396778 cumulative IPC: 0.307725 (Simulation time: 0 hr 27 min 33 sec) 
Heartbeat CPU 0 instructions: 171000000 cycles: 553086243 heartbeat IPC: 0.287386 cumulative IPC: 0.307597 (Simulation time: 0 hr 27 min 43 sec) 
Heartbeat CPU 0 instructions: 172000000 cycles: 555077708 heartbeat IPC: 0.502143 cumulative IPC: 0.308296 (Simulation time: 0 hr 27 min 51 sec) 
Heartbeat CPU 0 instructions: 173000002 cycles: 558571544 heartbeat IPC: 0.286219 cumulative IPC: 0.308158 (Simulation time: 0 hr 28 min 1 sec) 
Heartbeat CPU 0 instructions: 174000001 cycles: 560341218 heartbeat IPC: 0.565075 cumulative IPC: 0.30897 (Simulation time: 0 hr 28 min 8 sec) 
Heartbeat CPU 0 instructions: 175000002 cycles: 563947399 heartbeat IPC: 0.277302 cumulative IPC: 0.308767 (Simulation time: 0 hr 28 min 19 sec) 
Heartbeat CPU 0 instructions: 176000000 cycles: 565727493 heartbeat IPC: 0.561767 cumulative IPC: 0.309564 (Simulation time: 0 hr 28 min 27 sec) 
Heartbeat CPU 0 instructions: 177000003 cycles: 569285149 heartbeat IPC: 0.281085 cumulative IPC: 0.309385 (Simulation time: 0 hr 28 min 38 sec) 
Heartbeat CPU 0 instructions: 178000001 cycles: 570934622 heartbeat IPC: 0.606253 cumulative IPC: 0.310244 (Simulation time: 0 hr 28 min 46 sec) 
Heartbeat CPU 0 instructions: 179000000 cycles: 574524830 heartbeat IPC: 0.278535 cumulative IPC: 0.310045 (Simulation time: 0 hr 28 min 57 sec) 
Heartbeat CPU 0 instructions: 180000000 cycles: 576244090 heartbeat IPC: 0.581646 cumulative IPC: 0.310856 (Simulation time: 0 hr 29 min 4 sec) 
Heartbeat CPU 0 instructions: 181000001 cycles: 579353581 heartbeat IPC: 0.321596 cumulative IPC: 0.310914 (Simulation time: 0 hr 29 min 14 sec) 
Heartbeat CPU 0 instructions: 182000003 cycles: 585365781 heartbeat IPC: 0.166329 cumulative IPC: 0.309428 (Simulation time: 0 hr 29 min 29 sec) 
Heartbeat CPU 0 instructions: 183000003 cycles: 591366574 heartbeat IPC: 0.166645 cumulative IPC: 0.307978 (Simulation time: 0 hr 29 min 44 sec) 
Heartbeat CPU 0 instructions: 184000000 cycles: 594299015 heartbeat IPC: 0.341012 cumulative IPC: 0.308141 (Simulation time: 0 hr 29 min 53 sec) 
Heartbeat CPU 0 instructions: 185000001 cycles: 596226205 heartbeat IPC: 0.518891 cumulative IPC: 0.308823 (Simulation time: 0 hr 30 min 0 sec) 
Heartbeat CPU 0 instructions: 186000000 cycles: 600178905 heartbeat IPC: 0.252991 cumulative IPC: 0.308455 (Simulation time: 0 hr 30 min 11 sec) 
Heartbeat CPU 0 instructions: 187000000 cycles: 602711864 heartbeat IPC: 0.394795 cumulative IPC: 0.308818 (Simulation time: 0 hr 30 min 20 sec) 
Heartbeat CPU 0 instructions: 188000000 cycles: 604581398 heartbeat IPC: 0.534893 cumulative IPC: 0.309518 (Simulation time: 0 hr 30 min 27 sec) 
Heartbeat CPU 0 instructions: 189000003 cycles: 610357532 heartbeat IPC: 0.173127 cumulative IPC: 0.308226 (Simulation time: 0 hr 30 min 42 sec) 
Heartbeat CPU 0 instructions: 190000000 cycles: 616235763 heartbeat IPC: 0.170119 cumulative IPC: 0.306908 (Simulation time: 0 hr 30 min 56 sec) 
Heartbeat CPU 0 instructions: 191000000 cycles: 618302337 heartbeat IPC: 0.483893 cumulative IPC: 0.3075 (Simulation time: 0 hr 31 min 4 sec) 
Heartbeat CPU 0 instructions: 192000001 cycles: 621119084 heartbeat IPC: 0.35502 cumulative IPC: 0.307715 (Simulation time: 0 hr 31 min 13 sec) 
Heartbeat CPU 0 instructions: 193000000 cycles: 623676921 heartbeat IPC: 0.390955 cumulative IPC: 0.308057 (Simulation time: 0 hr 31 min 21 sec) 
Heartbeat CPU 0 instructions: 194000003 cycles: 626486176 heartbeat IPC: 0.355967 cumulative IPC: 0.308272 (Simulation time: 0 hr 31 min 30 sec) 
Heartbeat CPU 0 instructions: 195000001 cycles: 632071356 heartbeat IPC: 0.179045 cumulative IPC: 0.307129 (Simulation time: 0 hr 31 min 43 sec) 
Heartbeat CPU 0 instructions: 196000000 cycles: 633715629 heartbeat IPC: 0.608171 cumulative IPC: 0.307911 (Simulation time: 0 hr 31 min 51 sec) 
Heartbeat CPU 0 instructions: 197000001 cycles: 635300906 heartbeat IPC: 0.630805 cumulative IPC: 0.308717 (Simulation time: 0 hr 31 min 58 sec) 
Heartbeat CPU 0 instructions: 198000000 cycles: 640357507 heartbeat IPC: 0.197761 cumulative IPC: 0.30784 (Simulation time: 0 hr 32 min 11 sec) 
Heartbeat CPU 0 instructions: 199000003 cycles: 645313824 heartbeat IPC: 0.201763 cumulative IPC: 0.307025 (Simulation time: 0 hr 32 min 23 sec) 
Heartbeat CPU 0 instructions: 200000001 cycles: 647111901 heartbeat IPC: 0.556149 cumulative IPC: 0.307718 (Simulation time: 0 hr 32 min 31 sec) 
Heartbeat CPU 0 instructions: 201000000 cycles: 651407177 heartbeat IPC: 0.232814 cumulative IPC: 0.307224 (Simulation time: 0 hr 32 min 42 sec) 
Heartbeat CPU 0 instructions: 202000002 cycles: 655083177 heartbeat IPC: 0.272035 cumulative IPC: 0.307026 (Simulation time: 0 hr 32 min 52 sec) 
Heartbeat CPU 0 instructions: 203000000 cycles: 657469978 heartbeat IPC: 0.41897 cumulative IPC: 0.307433 (Simulation time: 0 hr 33 min 1 sec) 
Heartbeat CPU 0 instructions: 204000000 cycles: 660068688 heartbeat IPC: 0.384806 cumulative IPC: 0.307737 (Simulation time: 0 hr 33 min 10 sec) 
Heartbeat CPU 0 instructions: 205000000 cycles: 663097212 heartbeat IPC: 0.330194 cumulative IPC: 0.30784 (Simulation time: 0 hr 33 min 19 sec) 
Heartbeat CPU 0 instructions: 206000003 cycles: 665048809 heartbeat IPC: 0.512402 cumulative IPC: 0.308441 (Simulation time: 0 hr 33 min 27 sec) 
Heartbeat CPU 0 instructions: 207000000 cycles: 667671566 heartbeat IPC: 0.381277 cumulative IPC: 0.308727 (Simulation time: 0 hr 33 min 36 sec) 
Heartbeat CPU 0 instructions: 208000000 cycles: 670608653 heartbeat IPC: 0.340473 cumulative IPC: 0.308866 (Simulation time: 0 hr 33 min 45 sec) 
Heartbeat CPU 0 instructions: 209000000 cycles: 672683003 heartbeat IPC: 0.482079 cumulative IPC: 0.309401 (Simulation time: 0 hr 33 min 53 sec) 
Heartbeat CPU 0 instructions: 210000001 cycles: 676538197 heartbeat IPC: 0.259391 cumulative IPC: 0.309115 (Simulation time: 0 hr 34 min 4 sec) 
Heartbeat CPU 0 instructions: 211000001 cycles: 678753774 heartbeat IPC: 0.45135 cumulative IPC: 0.30958 (Simulation time: 0 hr 34 min 12 sec) 
Heartbeat CPU 0 instructions: 212000000 cycles: 683022697 heartbeat IPC: 0.234251 cumulative IPC: 0.309109 (Simulation time: 0 hr 34 min 23 sec) 
Heartbeat CPU 0 instructions: 213000001 cycles: 689288364 heartbeat IPC: 0.1596 cumulative IPC: 0.307749 (Simulation time: 0 hr 34 min 38 sec) 
Heartbeat CPU 0 instructions: 214000002 cycles: 694970328 heartbeat IPC: 0.175996 cumulative IPC: 0.306671 (Simulation time: 0 hr 34 min 52 sec) 
Heartbeat CPU 0 instructions: 215000003 cycles: 696673585 heartbeat IPC: 0.587111 cumulative IPC: 0.307357 (Simulation time: 0 hr 34 min 59 sec) 
Heartbeat CPU 0 instructions: 216000003 cycles: 699934074 heartbeat IPC: 0.306702 cumulative IPC: 0.307354 (Simulation time: 0 hr 35 min 9 sec) 
Heartbeat CPU 0 instructions: 217000001 cycles: 702524162 heartbeat IPC: 0.386086 cumulative IPC: 0.307645 (Simulation time: 0 hr 35 min 17 sec) 
Heartbeat CPU 0 instructions: 218000002 cycles: 704474870 heartbeat IPC: 0.512635 cumulative IPC: 0.308213 (Simulation time: 0 hr 35 min 25 sec) 
Heartbeat CPU 0 instructions: 219000001 cycles: 707925134 heartbeat IPC: 0.289833 cumulative IPC: 0.308123 (Simulation time: 0 hr 35 min 35 sec) 
Heartbeat CPU 0 instructions: 220000000 cycles: 709658002 heartbeat IPC: 0.577077 cumulative IPC: 0.30878 (Simulation time: 0 hr 35 min 42 sec) 
Heartbeat CPU 0 instructions: 221000001 cycles: 714254177 heartbeat IPC: 0.217572 cumulative IPC: 0.308193 (Simulation time: 0 hr 35 min 54 sec) 
Heartbeat CPU 0 instructions: 222000001 cycles: 717153882 heartbeat IPC: 0.344863 cumulative IPC: 0.308341 (Simulation time: 0 hr 36 min 3 sec) 
Heartbeat CPU 0 instructions: 223000000 cycles: 718846387 heartbeat IPC: 0.59084 cumulative IPC: 0.309007 (Simulation time: 0 hr 36 min 11 sec) 
Heartbeat CPU 0 instructions: 224000000 cycles: 722039187 heartbeat IPC: 0.313205 cumulative IPC: 0.309025 (Simulation time: 0 hr 36 min 20 sec) 
Heartbeat CPU 0 instructions: 225000001 cycles: 726307106 heartbeat IPC: 0.234306 cumulative IPC: 0.308586 (Simulation time: 0 hr 36 min 32 sec) 
Heartbeat CPU 0 instructions: 226000000 cycles: 728065504 heartbeat IPC: 0.568699 cumulative IPC: 0.309215 (Simulation time: 0 hr 36 min 39 sec) 
Heartbeat CPU 0 instructions: 227000003 cycles: 731629024 heartbeat IPC: 0.280622 cumulative IPC: 0.309075 (Simulation time: 0 hr 36 min 49 sec) 
Heartbeat CPU 0 instructions: 228000001 cycles: 734112892 heartbeat IPC: 0.402597 cumulative IPC: 0.309392 (Simulation time: 0 hr 36 min 57 sec) 
Heartbeat CPU 0 instructions: 229000003 cycles: 736520369 heartbeat IPC: 0.415373 cumulative IPC: 0.309738 (Simulation time: 0 hr 37 min 6 sec) 
Heartbeat CPU 0 instructions: 230000002 cycles: 741814895 heartbeat IPC: 0.188874 cumulative IPC: 0.308875 (Simulation time: 0 hr 37 min 19 sec) 
Heartbeat CPU 0 instructions: 231000000 cycles: 748029399 heartbeat IPC: 0.160914 cumulative IPC: 0.307645 (Simulation time: 0 hr 37 min 34 sec) 
Heartbeat CPU 0 instructions: 232000000 cycles: 750339638 heartbeat IPC: 0.432856 cumulative IPC: 0.308031 (Simulation time: 0 hr 37 min 42 sec) 
Heartbeat CPU 0 instructions: 233000002 cycles: 752591386 heartbeat IPC: 0.4441 cumulative IPC: 0.308438 (Simulation time: 0 hr 37 min 50 sec) 
Heartbeat CPU 0 instructions: 234000001 cycles: 756889680 heartbeat IPC: 0.23265 cumulative IPC: 0.308008 (Simulation time: 0 hr 38 min 1 sec) 
Heartbeat CPU 0 instructions: 235000000 cycles: 759385180 heartbeat IPC: 0.400721 cumulative IPC: 0.308313 (Simulation time: 0 hr 38 min 9 sec) 
Heartbeat CPU 0 instructions: 236000000 cycles: 762975330 heartbeat IPC: 0.27854 cumulative IPC: 0.308173 (Simulation time: 0 hr 38 min 20 sec) 
Heartbeat CPU 0 instructions: 237000001 cycles: 767350037 heartbeat IPC: 0.228587 cumulative IPC: 0.307719 (Simulation time: 0 hr 38 min 32 sec) 
Heartbeat CPU 0 instructions: 238000003 cycles: 769178742 heartbeat IPC: 0.546836 cumulative IPC: 0.308287 (Simulation time: 0 hr 38 min 40 sec) 
Heartbeat CPU 0 instructions: 239000001 cycles: 771012387 heartbeat IPC: 0.545361 cumulative IPC: 0.308851 (Simulation time: 0 hr 38 min 49 sec) 
Heartbeat CPU 0 instructions: 240000002 cycles: 772844630 heartbeat IPC: 0.54578 cumulative IPC: 0.309413 (Simulation time: 0 hr 38 min 57 sec) 
Heartbeat CPU 0 instructions: 241000002 cycles: 774686659 heartbeat IPC: 0.54288 cumulative IPC: 0.309969 (Simulation time: 0 hr 39 min 5 sec) 
Heartbeat CPU 0 instructions: 242000000 cycles: 776515737 heartbeat IPC: 0.546722 cumulative IPC: 0.310527 (Simulation time: 0 hr 39 min 14 sec) 
Heartbeat CPU 0 instructions: 243000003 cycles: 778346937 heartbeat IPC: 0.546092 cumulative IPC: 0.311081 (Simulation time: 0 hr 39 min 22 sec) 
Heartbeat CPU 0 instructions: 244000000 cycles: 780184914 heartbeat IPC: 0.544075 cumulative IPC: 0.311631 (Simulation time: 0 hr 39 min 31 sec) 
Heartbeat CPU 0 instructions: 245000000 cycles: 782017234 heartbeat IPC: 0.545756 cumulative IPC: 0.312179 (Simulation time: 0 hr 39 min 39 sec) 
Heartbeat CPU 0 instructions: 246000000 cycles: 783873722 heartbeat IPC: 0.538651 cumulative IPC: 0.312716 (Simulation time: 0 hr 39 min 47 sec) 
Heartbeat CPU 0 instructions: 247000000 cycles: 785769939 heartbeat IPC: 0.527366 cumulative IPC: 0.313234 (Simulation time: 0 hr 39 min 56 sec) 
Heartbeat CPU 0 instructions: 248000001 cycles: 787596656 heartbeat IPC: 0.547431 cumulative IPC: 0.313778 (Simulation time: 0 hr 40 min 4 sec) 
Heartbeat CPU 0 instructions: 249000000 cycles: 789514695 heartbeat IPC: 0.521365 cumulative IPC: 0.314282 (Simulation time: 0 hr 40 min 12 sec) 
Heartbeat CPU 0 instructions: 250000000 cycles: 791370138 heartbeat IPC: 0.538955 cumulative IPC: 0.314809 (Simulation time: 0 hr 40 min 20 sec) 
Heartbeat CPU 0 instructions: 251000000 cycles: 793309649 heartbeat IPC: 0.515594 cumulative IPC: 0.315301 (Simulation time: 0 hr 40 min 28 sec) 
Heartbeat CPU 0 instructions: 252000003 cycles: 795157468 heartbeat IPC: 0.54118 cumulative IPC: 0.315826 (Simulation time: 0 hr 40 min 36 sec) 
Heartbeat CPU 0 instructions: 253000000 cycles: 797015261 heartbeat IPC: 0.538271 cumulative IPC: 0.316345 (Simulation time: 0 hr 40 min 44 sec) 
Heartbeat CPU 0 instructions: 254000000 cycles: 798882860 heartbeat IPC: 0.535447 cumulative IPC: 0.316857 (Simulation time: 0 hr 40 min 52 sec) 
Heartbeat CPU 0 instructions: 255000002 cycles: 800731957 heartbeat IPC: 0.540806 cumulative IPC: 0.317374 (Simulation time: 0 hr 41 min 0 sec) 
Heartbeat CPU 0 instructions: 256000003 cycles: 802944259 heartbeat IPC: 0.452018 cumulative IPC: 0.317746 (Simulation time: 0 hr 41 min 8 sec) 
Heartbeat CPU 0 instructions: 257000001 cycles: 804821005 heartbeat IPC: 0.532836 cumulative IPC: 0.318247 (Simulation time: 0 hr 41 min 17 sec) 
Heartbeat CPU 0 instructions: 258000000 cycles: 806711493 heartbeat IPC: 0.528963 cumulative IPC: 0.318742 (Simulation time: 0 hr 41 min 26 sec) 
Heartbeat CPU 0 instructions: 259000000 cycles: 808626924 heartbeat IPC: 0.522076 cumulative IPC: 0.319223 (Simulation time: 0 hr 41 min 35 sec) 
Heartbeat CPU 0 instructions: 260000000 cycles: 810822466 heartbeat IPC: 0.455468 cumulative IPC: 0.319593 (Simulation time: 0 hr 41 min 43 sec) 
Heartbeat CPU 0 instructions: 261000001 cycles: 812752330 heartbeat IPC: 0.518172 cumulative IPC: 0.320064 (Simulation time: 0 hr 41 min 51 sec) 
Heartbeat CPU 0 instructions: 262000002 cycles: 814700374 heartbeat IPC: 0.513336 cumulative IPC: 0.320527 (Simulation time: 0 hr 42 min 0 sec) 
Heartbeat CPU 0 instructions: 263000000 cycles: 816694850 heartbeat IPC: 0.501384 cumulative IPC: 0.320969 (Simulation time: 0 hr 42 min 8 sec) 
Heartbeat CPU 0 instructions: 264000000 cycles: 819697426 heartbeat IPC: 0.333047 cumulative IPC: 0.321013 (Simulation time: 0 hr 42 min 15 sec) 
Heartbeat CPU 0 instructions: 265000001 cycles: 822506820 heartbeat IPC: 0.355949 cumulative IPC: 0.321132 (Simulation time: 0 hr 42 min 22 sec) 
Heartbeat CPU 0 instructions: 266000001 cycles: 825528714 heartbeat IPC: 0.330918 cumulative IPC: 0.321168 (Simulation time: 0 hr 42 min 30 sec) 
Heartbeat CPU 0 instructions: 267000002 cycles: 828213935 heartbeat IPC: 0.372409 cumulative IPC: 0.321334 (Simulation time: 0 hr 42 min 37 sec) 
Heartbeat CPU 0 instructions: 268000001 cycles: 831084879 heartbeat IPC: 0.348317 cumulative IPC: 0.321428 (Simulation time: 0 hr 42 min 44 sec) 
Heartbeat CPU 0 instructions: 269000001 cycles: 833824713 heartbeat IPC: 0.364986 cumulative IPC: 0.321571 (Simulation time: 0 hr 42 min 52 sec) 
Heartbeat CPU 0 instructions: 270000001 cycles: 836292901 heartbeat IPC: 0.405156 cumulative IPC: 0.321818 (Simulation time: 0 hr 42 min 59 sec) 
Heartbeat CPU 0 instructions: 271000001 cycles: 839028385 heartbeat IPC: 0.365566 cumulative IPC: 0.32196 (Simulation time: 0 hr 43 min 6 sec) 
Heartbeat CPU 0 instructions: 272000002 cycles: 841691714 heartbeat IPC: 0.37547 cumulative IPC: 0.32213 (Simulation time: 0 hr 43 min 14 sec) 
Heartbeat CPU 0 instructions: 273000000 cycles: 844420638 heartbeat IPC: 0.366444 cumulative IPC: 0.322273 (Simulation time: 0 hr 43 min 22 sec) 
Heartbeat CPU 0 instructions: 274000000 cycles: 847713628 heartbeat IPC: 0.303675 cumulative IPC: 0.322201 (Simulation time: 0 hr 43 min 29 sec) 
Heartbeat CPU 0 instructions: 275000000 cycles: 850330548 heartbeat IPC: 0.382129 cumulative IPC: 0.322385 (Simulation time: 0 hr 43 min 37 sec) 
Heartbeat CPU 0 instructions: 276000000 cycles: 853672362 heartbeat IPC: 0.299239 cumulative IPC: 0.322295 (Simulation time: 0 hr 43 min 45 sec) 
Heartbeat CPU 0 instructions: 277000000 cycles: 856535581 heartbeat IPC: 0.349257 cumulative IPC: 0.322385 (Simulation time: 0 hr 43 min 53 sec) 
Heartbeat CPU 0 instructions: 278000000 cycles: 859112736 heartbeat IPC: 0.388025 cumulative IPC: 0.322582 (Simulation time: 0 hr 44 min 0 sec) 
Heartbeat CPU 0 instructions: 279000002 cycles: 862190284 heartbeat IPC: 0.324935 cumulative IPC: 0.32259 (Simulation time: 0 hr 44 min 8 sec) 
Heartbeat CPU 0 instructions: 280000000 cycles: 864884543 heartbeat IPC: 0.371159 cumulative IPC: 0.322741 (Simulation time: 0 hr 44 min 16 sec) 
Heartbeat CPU 0 instructions: 281000000 cycles: 867714920 heartbeat IPC: 0.35331 cumulative IPC: 0.322841 (Simulation time: 0 hr 44 min 23 sec) 
Heartbeat CPU 0 instructions: 282000002 cycles: 870705972 heartbeat IPC: 0.334331 cumulative IPC: 0.322881 (Simulation time: 0 hr 44 min 31 sec) 
Heartbeat CPU 0 instructions: 283000001 cycles: 873355019 heartbeat IPC: 0.377494 cumulative IPC: 0.323046 (Simulation time: 0 hr 44 min 38 sec) 
Heartbeat CPU 0 instructions: 284000001 cycles: 876811439 heartbeat IPC: 0.289317 cumulative IPC: 0.322913 (Simulation time: 0 hr 44 min 45 sec) 
Heartbeat CPU 0 instructions: 285000001 cycles: 879505384 heartbeat IPC: 0.371203 cumulative IPC: 0.323061 (Simulation time: 0 hr 44 min 53 sec) 
Heartbeat CPU 0 instructions: 286000000 cycles: 882394081 heartbeat IPC: 0.346177 cumulative IPC: 0.323137 (Simulation time: 0 hr 45 min 0 sec) 
Heartbeat CPU 0 instructions: 287000000 cycles: 884375679 heartbeat IPC: 0.504643 cumulative IPC: 0.323544 (Simulation time: 0 hr 45 min 8 sec) 
Heartbeat CPU 0 instructions: 288000001 cycles: 887979429 heartbeat IPC: 0.277489 cumulative IPC: 0.323357 (Simulation time: 0 hr 45 min 19 sec) 
Heartbeat CPU 0 instructions: 289000002 cycles: 890720745 heartbeat IPC: 0.364789 cumulative IPC: 0.323485 (Simulation time: 0 hr 45 min 28 sec) 
Heartbeat CPU 0 instructions: 290000000 cycles: 892998789 heartbeat IPC: 0.438972 cumulative IPC: 0.323779 (Simulation time: 0 hr 45 min 36 sec) 
Heartbeat CPU 0 instructions: 291000000 cycles: 896686797 heartbeat IPC: 0.271149 cumulative IPC: 0.323563 (Simulation time: 0 hr 45 min 46 sec) 
Heartbeat CPU 0 instructions: 292000001 cycles: 901380949 heartbeat IPC: 0.213031 cumulative IPC: 0.322987 (Simulation time: 0 hr 45 min 58 sec) 
Heartbeat CPU 0 instructions: 293000000 cycles: 903424190 heartbeat IPC: 0.489418 cumulative IPC: 0.323363 (Simulation time: 0 hr 46 min 5 sec) 
Heartbeat CPU 0 instructions: 294000000 cycles: 907228793 heartbeat IPC: 0.26284 cumulative IPC: 0.32311 (Simulation time: 0 hr 46 min 16 sec) 
Heartbeat CPU 0 instructions: 295000003 cycles: 908930623 heartbeat IPC: 0.587605 cumulative IPC: 0.323605 (Simulation time: 0 hr 46 min 23 sec) 
Heartbeat CPU 0 instructions: 296000002 cycles: 912661323 heartbeat IPC: 0.268046 cumulative IPC: 0.323378 (Simulation time: 0 hr 46 min 33 sec) 
Heartbeat CPU 0 instructions: 297000000 cycles: 916770665 heartbeat IPC: 0.243347 cumulative IPC: 0.323019 (Simulation time: 0 hr 46 min 44 sec) 
Heartbeat CPU 0 instructions: 298000000 cycles: 918729804 heartbeat IPC: 0.510428 cumulative IPC: 0.323419 (Simulation time: 0 hr 46 min 51 sec) 
Heartbeat CPU 0 instructions: 299000001 cycles: 922373567 heartbeat IPC: 0.274442 cumulative IPC: 0.323225 (Simulation time: 0 hr 47 min 1 sec) 
Heartbeat CPU 0 instructions: 300000002 cycles: 924110432 heartbeat IPC: 0.575751 cumulative IPC: 0.3237 (Simulation time: 0 hr 47 min 8 sec) 
Heartbeat CPU 0 instructions: 301000003 cycles: 927801986 heartbeat IPC: 0.270889 cumulative IPC: 0.32349 (Simulation time: 0 hr 47 min 19 sec) 
Heartbeat CPU 0 instructions: 302000002 cycles: 929669343 heartbeat IPC: 0.535516 cumulative IPC: 0.323916 (Simulation time: 0 hr 47 min 26 sec) 
Heartbeat CPU 0 instructions: 303000002 cycles: 933072668 heartbeat IPC: 0.29383 cumulative IPC: 0.323806 (Simulation time: 0 hr 47 min 36 sec) 
Heartbeat CPU 0 instructions: 304000002 cycles: 939510501 heartbeat IPC: 0.155332 cumulative IPC: 0.322651 (Simulation time: 0 hr 47 min 50 sec) 
Heartbeat CPU 0 instructions: 305000000 cycles: 941368198 heartbeat IPC: 0.5383 cumulative IPC: 0.323077 (Simulation time: 0 hr 47 min 57 sec) 
Heartbeat CPU 0 instructions: 306000000 cycles: 944264887 heartbeat IPC: 0.345222 cumulative IPC: 0.323145 (Simulation time: 0 hr 48 min 6 sec) 
Heartbeat CPU 0 instructions: 307000002 cycles: 950261191 heartbeat IPC: 0.16677 cumulative IPC: 0.322158 (Simulation time: 0 hr 48 min 20 sec) 
Heartbeat CPU 0 instructions: 308000000 cycles: 955341860 heartbeat IPC: 0.196824 cumulative IPC: 0.321491 (Simulation time: 0 hr 48 min 33 sec) 
Heartbeat CPU 0 instructions: 309000001 cycles: 957439052 heartbeat IPC: 0.476829 cumulative IPC: 0.321831 (Simulation time: 0 hr 48 min 40 sec) 
Heartbeat CPU 0 instructions: 310000002 cycles: 961199889 heartbeat IPC: 0.265899 cumulative IPC: 0.321612 (Simulation time: 0 hr 48 min 51 sec) 
Heartbeat CPU 0 instructions: 311000002 cycles: 962980067 heartbeat IPC: 0.561742 cumulative IPC: 0.322056 (Simulation time: 0 hr 48 min 58 sec) 
Heartbeat CPU 0 instructions: 312000002 cycles: 964790287 heartbeat IPC: 0.552419 cumulative IPC: 0.322489 (Simulation time: 0 hr 49 min 6 sec) 
Heartbeat CPU 0 instructions: 313000002 cycles: 968618718 heartbeat IPC: 0.261204 cumulative IPC: 0.322246 (Simulation time: 0 hr 49 min 17 sec) 
Heartbeat CPU 0 instructions: 314000001 cycles: 974634210 heartbeat IPC: 0.166237 cumulative IPC: 0.321283 (Simulation time: 0 hr 49 min 31 sec) 
Heartbeat CPU 0 instructions: 315000000 cycles: 980667378 heartbeat IPC: 0.16575 cumulative IPC: 0.320326 (Simulation time: 0 hr 49 min 45 sec) 
Heartbeat CPU 0 instructions: 316000000 cycles: 985563893 heartbeat IPC: 0.204227 cumulative IPC: 0.319749 (Simulation time: 0 hr 49 min 57 sec) 
Heartbeat CPU 0 instructions: 317000002 cycles: 987528263 heartbeat IPC: 0.50907 cumulative IPC: 0.320126 (Simulation time: 0 hr 50 min 4 sec) 
Heartbeat CPU 0 instructions: 318000000 cycles: 992140369 heartbeat IPC: 0.21682 cumulative IPC: 0.319645 (Simulation time: 0 hr 50 min 16 sec) 
Heartbeat CPU 0 instructions: 319000000 cycles: 998161123 heartbeat IPC: 0.166092 cumulative IPC: 0.318718 (Simulation time: 0 hr 50 min 30 sec) 
Heartbeat CPU 0 instructions: 320000002 cycles: 1001848314 heartbeat IPC: 0.27121 cumulative IPC: 0.318544 (Simulation time: 0 hr 50 min 40 sec) 
Heartbeat CPU 0 instructions: 321000002 cycles: 1003852809 heartbeat IPC: 0.498879 cumulative IPC: 0.318904 (Simulation time: 0 hr 50 min 48 sec) 
Heartbeat CPU 0 instructions: 322000000 cycles: 1009475322 heartbeat IPC: 0.177856 cumulative IPC: 0.318118 (Simulation time: 0 hr 51 min 1 sec) 
Heartbeat CPU 0 instructions: 323000000 cycles: 1011207425 heartbeat IPC: 0.577333 cumulative IPC: 0.318562 (Simulation time: 0 hr 51 min 9 sec) 
Heartbeat CPU 0 instructions: 324000000 cycles: 1013815153 heartbeat IPC: 0.383476 cumulative IPC: 0.318729 (Simulation time: 0 hr 51 min 17 sec) 
Heartbeat CPU 0 instructions: 325000001 cycles: 1016946768 heartbeat IPC: 0.319324 cumulative IPC: 0.318731 (Simulation time: 0 hr 51 min 26 sec) 
Heartbeat CPU 0 instructions: 326000000 cycles: 1019459756 heartbeat IPC: 0.397932 cumulative IPC: 0.318926 (Simulation time: 0 hr 51 min 35 sec) 
Heartbeat CPU 0 instructions: 327000002 cycles: 1025223742 heartbeat IPC: 0.173491 cumulative IPC: 0.318108 (Simulation time: 0 hr 51 min 48 sec) 
Heartbeat CPU 0 instructions: 328000001 cycles: 1028891278 heartbeat IPC: 0.272662 cumulative IPC: 0.317946 (Simulation time: 0 hr 51 min 59 sec) 
Heartbeat CPU 0 instructions: 329000003 cycles: 1031354284 heartbeat IPC: 0.406009 cumulative IPC: 0.318157 (Simulation time: 0 hr 52 min 7 sec) 
Heartbeat CPU 0 instructions: 330000000 cycles: 1035841686 heartbeat IPC: 0.222845 cumulative IPC: 0.317744 (Simulation time: 0 hr 52 min 18 sec) 
Heartbeat CPU 0 instructions: 331000001 cycles: 1038061612 heartbeat IPC: 0.450466 cumulative IPC: 0.318027 (Simulation time: 0 hr 52 min 27 sec) 
Heartbeat CPU 0 instructions: 332000001 cycles: 1039961181 heartbeat IPC: 0.526435 cumulative IPC: 0.318408 (Simulation time: 0 hr 52 min 34 sec) 
Heartbeat CPU 0 instructions: 333000000 cycles: 1043880010 heartbeat IPC: 0.255178 cumulative IPC: 0.318171 (Simulation time: 0 hr 52 min 45 sec) 
Heartbeat CPU 0 instructions: 334000000 cycles: 1045631033 heartbeat IPC: 0.571095 cumulative IPC: 0.318595 (Simulation time: 0 hr 52 min 53 sec) 
Heartbeat CPU 0 instructions: 335000000 cycles: 1047416964 heartbeat IPC: 0.559932 cumulative IPC: 0.319006 (Simulation time: 0 hr 53 min 0 sec) 
Heartbeat CPU 0 instructions: 336000002 cycles: 1051038366 heartbeat IPC: 0.276137 cumulative IPC: 0.318858 (Simulation time: 0 hr 53 min 11 sec) 
Heartbeat CPU 0 instructions: 337000000 cycles: 1053245110 heartbeat IPC: 0.453155 cumulative IPC: 0.31914 (Simulation time: 0 hr 53 min 19 sec) 
Heartbeat CPU 0 instructions: 338000002 cycles: 1057717763 heartbeat IPC: 0.223581 cumulative IPC: 0.318736 (Simulation time: 0 hr 53 min 30 sec) 
Heartbeat CPU 0 instructions: 339000000 cycles: 1059891357 heartbeat IPC: 0.460067 cumulative IPC: 0.319026 (Simulation time: 0 hr 53 min 38 sec) 
Heartbeat CPU 0 instructions: 340000001 cycles: 1062159633 heartbeat IPC: 0.440864 cumulative IPC: 0.319286 (Simulation time: 0 hr 53 min 46 sec) 
Heartbeat CPU 0 instructions: 341000000 cycles: 1067922782 heartbeat IPC: 0.173516 cumulative IPC: 0.318499 (Simulation time: 0 hr 54 min 0 sec) 
Heartbeat CPU 0 instructions: 342000001 cycles: 1074141875 heartbeat IPC: 0.160795 cumulative IPC: 0.317586 (Simulation time: 0 hr 54 min 14 sec) 
Heartbeat CPU 0 instructions: 343000002 cycles: 1080111522 heartbeat IPC: 0.167514 cumulative IPC: 0.316756 (Simulation time: 0 hr 54 min 29 sec) 
Heartbeat CPU 0 instructions: 344000000 cycles: 1086001613 heartbeat IPC: 0.169776 cumulative IPC: 0.315958 (Simulation time: 0 hr 54 min 43 sec) 
Heartbeat CPU 0 instructions: 345000001 cycles: 1087959477 heartbeat IPC: 0.510761 cumulative IPC: 0.316309 (Simulation time: 0 hr 54 min 50 sec) 
Heartbeat CPU 0 instructions: 346000000 cycles: 1089501621 heartbeat IPC: 0.648447 cumulative IPC: 0.316779 (Simulation time: 0 hr 54 min 58 sec) 
Heartbeat CPU 0 instructions: 347000002 cycles: 1092693802 heartbeat IPC: 0.313266 cumulative IPC: 0.316769 (Simulation time: 0 hr 55 min 7 sec) 
Heartbeat CPU 0 instructions: 348000001 cycles: 1097322076 heartbeat IPC: 0.216063 cumulative IPC: 0.316344 (Simulation time: 0 hr 55 min 19 sec) 
Heartbeat CPU 0 instructions: 349000002 cycles: 1099084745 heartbeat IPC: 0.567322 cumulative IPC: 0.316747 (Simulation time: 0 hr 55 min 26 sec) 
Heartbeat CPU 0 instructions: 350000000 cycles: 1103333546 heartbeat IPC: 0.23536 cumulative IPC: 0.316433 (Simulation time: 0 hr 55 min 38 sec) 
Heartbeat CPU 0 instructions: 351000002 cycles: 1109465930 heartbeat IPC: 0.163069 cumulative IPC: 0.315585 (Simulation time: 0 hr 55 min 52 sec) 
Heartbeat CPU 0 instructions: 352000000 cycles: 1115395735 heartbeat IPC: 0.168639 cumulative IPC: 0.314804 (Simulation time: 0 hr 56 min 6 sec) 
Heartbeat CPU 0 instructions: 353000002 cycles: 1117870917 heartbeat IPC: 0.404012 cumulative IPC: 0.315001 (Simulation time: 0 hr 56 min 14 sec) 
Heartbeat CPU 0 instructions: 354000002 cycles: 1119929305 heartbeat IPC: 0.485817 cumulative IPC: 0.315315 (Simulation time: 0 hr 56 min 22 sec) 
Heartbeat CPU 0 instructions: 355000001 cycles: 1123182625 heartbeat IPC: 0.307378 cumulative IPC: 0.315292 (Simulation time: 0 hr 56 min 32 sec) 
Heartbeat CPU 0 instructions: 356000000 cycles: 1125321525 heartbeat IPC: 0.46753 cumulative IPC: 0.315582 (Simulation time: 0 hr 56 min 40 sec) 
Heartbeat CPU 0 instructions: 357000000 cycles: 1127228311 heartbeat IPC: 0.524443 cumulative IPC: 0.315935 (Simulation time: 0 hr 56 min 47 sec) 
Heartbeat CPU 0 instructions: 358000000 cycles: 1133076124 heartbeat IPC: 0.171004 cumulative IPC: 0.315187 (Simulation time: 0 hr 57 min 1 sec) 
Heartbeat CPU 0 instructions: 359000001 cycles: 1138934566 heartbeat IPC: 0.170694 cumulative IPC: 0.314444 (Simulation time: 0 hr 57 min 15 sec) 
Heartbeat CPU 0 instructions: 360000000 cycles: 1143082992 heartbeat IPC: 0.241055 cumulative IPC: 0.314177 (Simulation time: 0 hr 57 min 26 sec) 
Heartbeat CPU 0 instructions: 361000000 cycles: 1144844339 heartbeat IPC: 0.567747 cumulative IPC: 0.314567 (Simulation time: 0 hr 57 min 33 sec) 
Heartbeat CPU 0 instructions: 362000001 cycles: 1148604902 heartbeat IPC: 0.265918 cumulative IPC: 0.314408 (Simulation time: 0 hr 57 min 43 sec) 
Heartbeat CPU 0 instructions: 363000000 cycles: 1150415358 heartbeat IPC: 0.552346 cumulative IPC: 0.314783 (Simulation time: 0 hr 57 min 51 sec) 
Heartbeat CPU 0 instructions: 364000003 cycles: 1154063569 heartbeat IPC: 0.274108 cumulative IPC: 0.314654 (Simulation time: 0 hr 58 min 1 sec) 
Heartbeat CPU 0 instructions: 365000000 cycles: 1159945450 heartbeat IPC: 0.170013 cumulative IPC: 0.31392 (Simulation time: 0 hr 58 min 15 sec) 
Heartbeat CPU 0 instructions: 366000001 cycles: 1162131369 heartbeat IPC: 0.457474 cumulative IPC: 0.31419 (Simulation time: 0 hr 58 min 23 sec) 
Heartbeat CPU 0 instructions: 367000002 cycles: 1164242234 heartbeat IPC: 0.47374 cumulative IPC: 0.31448 (Simulation time: 0 hr 58 min 30 sec) 
Heartbeat CPU 0 instructions: 368000001 cycles: 1170011967 heartbeat IPC: 0.173318 cumulative IPC: 0.313783 (Simulation time: 0 hr 58 min 45 sec) 
Heartbeat CPU 0 instructions: 369000000 cycles: 1172105715 heartbeat IPC: 0.477612 cumulative IPC: 0.314076 (Simulation time: 0 hr 58 min 52 sec) 
Heartbeat CPU 0 instructions: 370000003 cycles: 1175345042 heartbeat IPC: 0.308707 cumulative IPC: 0.314061 (Simulation time: 0 hr 59 min 2 sec) 
Heartbeat CPU 0 instructions: 371000003 cycles: 1177400396 heartbeat IPC: 0.486534 cumulative IPC: 0.314363 (Simulation time: 0 hr 59 min 9 sec) 
Heartbeat CPU 0 instructions: 372000003 cycles: 1179488953 heartbeat IPC: 0.478799 cumulative IPC: 0.314654 (Simulation time: 0 hr 59 min 17 sec) 
Heartbeat CPU 0 instructions: 373000000 cycles: 1183601902 heartbeat IPC: 0.243134 cumulative IPC: 0.314405 (Simulation time: 0 hr 59 min 28 sec) 
Heartbeat CPU 0 instructions: 374000000 cycles: 1185535836 heartbeat IPC: 0.517081 cumulative IPC: 0.314736 (Simulation time: 0 hr 59 min 36 sec) 
Heartbeat CPU 0 instructions: 375000003 cycles: 1188407166 heartbeat IPC: 0.348272 cumulative IPC: 0.314817 (Simulation time: 0 hr 59 min 45 sec) 
Heartbeat CPU 0 instructions: 376000000 cycles: 1194526354 heartbeat IPC: 0.16342 cumulative IPC: 0.314041 (Simulation time: 0 hr 59 min 59 sec) 
Heartbeat CPU 0 instructions: 377000000 cycles: 1197595580 heartbeat IPC: 0.325815 cumulative IPC: 0.314071 (Simulation time: 1 hr 0 min 8 sec) 
Heartbeat CPU 0 instructions: 378000001 cycles: 1199260704 heartbeat IPC: 0.600556 cumulative IPC: 0.314469 (Simulation time: 1 hr 0 min 16 sec) 
Heartbeat CPU 0 instructions: 379000001 cycles: 1201504219 heartbeat IPC: 0.445729 cumulative IPC: 0.314714 (Simulation time: 1 hr 0 min 24 sec) 
Heartbeat CPU 0 instructions: 380000001 cycles: 1207270512 heartbeat IPC: 0.173422 cumulative IPC: 0.314039 (Simulation time: 1 hr 0 min 38 sec) 
Heartbeat CPU 0 instructions: 381000001 cycles: 1210684905 heartbeat IPC: 0.292878 cumulative IPC: 0.31398 (Simulation time: 1 hr 0 min 48 sec) 
Heartbeat CPU 0 instructions: 382000000 cycles: 1212357624 heartbeat IPC: 0.597828 cumulative IPC: 0.314371 (Simulation time: 1 hr 0 min 55 sec) 
Heartbeat CPU 0 instructions: 383000001 cycles: 1217484366 heartbeat IPC: 0.195056 cumulative IPC: 0.313869 (Simulation time: 1 hr 1 min 8 sec) 
Heartbeat CPU 0 instructions: 384000002 cycles: 1219981370 heartbeat IPC: 0.40048 cumulative IPC: 0.314046 (Simulation time: 1 hr 1 min 16 sec) 
Heartbeat CPU 0 instructions: 385000000 cycles: 1222306796 heartbeat IPC: 0.430028 cumulative IPC: 0.314267 (Simulation time: 1 hr 1 min 24 sec) 
Heartbeat CPU 0 instructions: 386000001 cycles: 1225553409 heartbeat IPC: 0.308014 cumulative IPC: 0.31425 (Simulation time: 1 hr 1 min 34 sec) 
Heartbeat CPU 0 instructions: 387000001 cycles: 1227422467 heartbeat IPC: 0.535029 cumulative IPC: 0.314587 (Simulation time: 1 hr 1 min 41 sec) 
Heartbeat CPU 0 instructions: 388000000 cycles: 1231767740 heartbeat IPC: 0.230135 cumulative IPC: 0.314289 (Simulation time: 1 hr 1 min 52 sec) 
Heartbeat CPU 0 instructions: 389000000 cycles: 1237750431 heartbeat IPC: 0.167149 cumulative IPC: 0.313577 (Simulation time: 1 hr 2 min 7 sec) 
Heartbeat CPU 0 instructions: 390000000 cycles: 1241330017 heartbeat IPC: 0.279362 cumulative IPC: 0.313478 (Simulation time: 1 hr 2 min 17 sec) 
Heartbeat CPU 0 instructions: 391000000 cycles: 1243201772 heartbeat IPC: 0.534258 cumulative IPC: 0.313811 (Simulation time: 1 hr 2 min 25 sec) 
Heartbeat CPU 0 instructions: 392000000 cycles: 1245745194 heartbeat IPC: 0.393171 cumulative IPC: 0.313973 (Simulation time: 1 hr 2 min 33 sec) 
Heartbeat CPU 0 instructions: 393000002 cycles: 1249053112 heartbeat IPC: 0.302306 cumulative IPC: 0.313942 (Simulation time: 1 hr 2 min 43 sec) 
Heartbeat CPU 0 instructions: 394000001 cycles: 1250880814 heartbeat IPC: 0.547135 cumulative IPC: 0.314283 (Simulation time: 1 hr 2 min 50 sec) 
Heartbeat CPU 0 instructions: 395000003 cycles: 1255601402 heartbeat IPC: 0.211838 cumulative IPC: 0.313898 (Simulation time: 1 hr 3 min 2 sec) 
Heartbeat CPU 0 instructions: 396000000 cycles: 1259132353 heartbeat IPC: 0.283209 cumulative IPC: 0.313812 (Simulation time: 1 hr 3 min 12 sec) 
Heartbeat CPU 0 instructions: 397000001 cycles: 1261111271 heartbeat IPC: 0.505327 cumulative IPC: 0.314112 (Simulation time: 1 hr 3 min 20 sec) 
Heartbeat CPU 0 instructions: 398000003 cycles: 1265703432 heartbeat IPC: 0.217763 cumulative IPC: 0.313763 (Simulation time: 1 hr 3 min 32 sec) 
Heartbeat CPU 0 instructions: 399000002 cycles: 1271497081 heartbeat IPC: 0.172603 cumulative IPC: 0.313119 (Simulation time: 1 hr 3 min 46 sec) 
Heartbeat CPU 0 instructions: 400000002 cycles: 1277274361 heartbeat IPC: 0.173092 cumulative IPC: 0.312486 (Simulation time: 1 hr 4 min 0 sec) 
Heartbeat CPU 0 instructions: 401000002 cycles: 1278881681 heartbeat IPC: 0.622154 cumulative IPC: 0.312875 (Simulation time: 1 hr 4 min 7 sec) 
Heartbeat CPU 0 instructions: 402000001 cycles: 1281115500 heartbeat IPC: 0.447663 cumulative IPC: 0.31311 (Simulation time: 1 hr 4 min 15 sec) 
Heartbeat CPU 0 instructions: 403000000 cycles: 1284144509 heartbeat IPC: 0.330141 cumulative IPC: 0.31315 (Simulation time: 1 hr 4 min 24 sec) 
Heartbeat CPU 0 instructions: 404000001 cycles: 1285843024 heartbeat IPC: 0.58875 cumulative IPC: 0.313514 (Simulation time: 1 hr 4 min 31 sec) 
Heartbeat CPU 0 instructions: 405000000 cycles: 1289411456 heartbeat IPC: 0.280235 cumulative IPC: 0.313422 (Simulation time: 1 hr 4 min 41 sec) 
Heartbeat CPU 0 instructions: 406000000 cycles: 1291000068 heartbeat IPC: 0.62948 cumulative IPC: 0.313811 (Simulation time: 1 hr 4 min 48 sec) 
Heartbeat CPU 0 instructions: 407000000 cycles: 1294424666 heartbeat IPC: 0.292005 cumulative IPC: 0.313754 (Simulation time: 1 hr 4 min 58 sec) 
Heartbeat CPU 0 instructions: 408000001 cycles: 1296309343 heartbeat IPC: 0.530595 cumulative IPC: 0.314069 (Simulation time: 1 hr 5 min 6 sec) 
Heartbeat CPU 0 instructions: 409000000 cycles: 1299620584 heartbeat IPC: 0.302001 cumulative IPC: 0.314038 (Simulation time: 1 hr 5 min 15 sec) 
Heartbeat CPU 0 instructions: 410000000 cycles: 1304526643 heartbeat IPC: 0.20383 cumulative IPC: 0.313624 (Simulation time: 1 hr 5 min 27 sec) 
Heartbeat CPU 0 instructions: 411000001 cycles: 1306425551 heartbeat IPC: 0.526619 cumulative IPC: 0.313933 (Simulation time: 1 hr 5 min 35 sec) 
Heartbeat CPU 0 instructions: 412000001 cycles: 1308190970 heartbeat IPC: 0.566438 cumulative IPC: 0.314274 (Simulation time: 1 hr 5 min 43 sec) 
Heartbeat CPU 0 instructions: 413000003 cycles: 1312055967 heartbeat IPC: 0.258733 cumulative IPC: 0.31411 (Simulation time: 1 hr 5 min 53 sec) 
Heartbeat CPU 0 instructions: 414000002 cycles: 1313813827 heartbeat IPC: 0.568873 cumulative IPC: 0.314451 (Simulation time: 1 hr 6 min 1 sec) 
Heartbeat CPU 0 instructions: 415000003 cycles: 1317712040 heartbeat IPC: 0.256528 cumulative IPC: 0.31428 (Simulation time: 1 hr 6 min 11 sec) 
Heartbeat CPU 0 instructions: 416000001 cycles: 1319378079 heartbeat IPC: 0.600225 cumulative IPC: 0.314641 (Simulation time: 1 hr 6 min 18 sec) 
Heartbeat CPU 0 instructions: 417000000 cycles: 1321882352 heartbeat IPC: 0.399317 cumulative IPC: 0.314802 (Simulation time: 1 hr 6 min 27 sec) 
Heartbeat CPU 0 instructions: 418000000 cycles: 1327058037 heartbeat IPC: 0.193211 cumulative IPC: 0.314327 (Simulation time: 1 hr 6 min 39 sec) 
Heartbeat CPU 0 instructions: 419000003 cycles: 1328676883 heartbeat IPC: 0.617726 cumulative IPC: 0.314697 (Simulation time: 1 hr 6 min 46 sec) 
Heartbeat CPU 0 instructions: 420000002 cycles: 1332027616 heartbeat IPC: 0.298442 cumulative IPC: 0.314656 (Simulation time: 1 hr 6 min 56 sec) 
Heartbeat CPU 0 instructions: 421000001 cycles: 1338262863 heartbeat IPC: 0.160378 cumulative IPC: 0.313937 (Simulation time: 1 hr 7 min 11 sec) 
Heartbeat CPU 0 instructions: 422000003 cycles: 1340483643 heartbeat IPC: 0.450293 cumulative IPC: 0.314163 (Simulation time: 1 hr 7 min 19 sec) 
Heartbeat CPU 0 instructions: 423000000 cycles: 1342815287 heartbeat IPC: 0.428881 cumulative IPC: 0.314362 (Simulation time: 1 hr 7 min 27 sec) 
Heartbeat CPU 0 instructions: 424000001 cycles: 1346711444 heartbeat IPC: 0.256663 cumulative IPC: 0.314195 (Simulation time: 1 hr 7 min 37 sec) 
Heartbeat CPU 0 instructions: 425000001 cycles: 1348310307 heartbeat IPC: 0.625444 cumulative IPC: 0.314565 (Simulation time: 1 hr 7 min 45 sec) 
Heartbeat CPU 0 instructions: 426000003 cycles: 1350858777 heartbeat IPC: 0.392393 cumulative IPC: 0.314711 (Simulation time: 1 hr 7 min 53 sec) 
Heartbeat CPU 0 instructions: 427000001 cycles: 1356535769 heartbeat IPC: 0.176149 cumulative IPC: 0.314131 (Simulation time: 1 hr 8 min 7 sec) 
Heartbeat CPU 0 instructions: 428000003 cycles: 1362654308 heartbeat IPC: 0.163438 cumulative IPC: 0.313455 (Simulation time: 1 hr 8 min 21 sec) 
Heartbeat CPU 0 instructions: 429000000 cycles: 1366671798 heartbeat IPC: 0.248911 cumulative IPC: 0.313265 (Simulation time: 1 hr 8 min 32 sec) 
Heartbeat CPU 0 instructions: 430000003 cycles: 1368456531 heartbeat IPC: 0.56031 cumulative IPC: 0.313587 (Simulation time: 1 hr 8 min 39 sec) 
Heartbeat CPU 0 instructions: 431000000 cycles: 1372133549 heartbeat IPC: 0.271959 cumulative IPC: 0.313475 (Simulation time: 1 hr 8 min 50 sec) 
Heartbeat CPU 0 instructions: 432000000 cycles: 1373759963 heartbeat IPC: 0.61485 cumulative IPC: 0.313832 (Simulation time: 1 hr 8 min 57 sec) 
Heartbeat CPU 0 instructions: 433000001 cycles: 1376732804 heartbeat IPC: 0.336379 cumulative IPC: 0.313881 (Simulation time: 1 hr 9 min 6 sec) 
Heartbeat CPU 0 instructions: 434000000 cycles: 1379013796 heartbeat IPC: 0.438405 cumulative IPC: 0.314087 (Simulation time: 1 hr 9 min 14 sec) 
Heartbeat CPU 0 instructions: 435000001 cycles: 1381059027 heartbeat IPC: 0.488943 cumulative IPC: 0.314346 (Simulation time: 1 hr 9 min 22 sec) 
Heartbeat CPU 0 instructions: 436000002 cycles: 1386822166 heartbeat IPC: 0.173517 cumulative IPC: 0.313761 (Simulation time: 1 hr 9 min 36 sec) 
Heartbeat CPU 0 instructions: 437000003 cycles: 1390735935 heartbeat IPC: 0.255508 cumulative IPC: 0.313597 (Simulation time: 1 hr 9 min 47 sec) 
Heartbeat CPU 0 instructions: 438000002 cycles: 1392246936 heartbeat IPC: 0.661812 cumulative IPC: 0.313975 (Simulation time: 1 hr 9 min 54 sec) 
Heartbeat CPU 0 instructions: 439000001 cycles: 1396017499 heartbeat IPC: 0.265212 cumulative IPC: 0.313843 (Simulation time: 1 hr 10 min 4 sec) 
Heartbeat CPU 0 instructions: 440000000 cycles: 1401879133 heartbeat IPC: 0.170601 cumulative IPC: 0.313244 (Simulation time: 1 hr 10 min 18 sec) 
Heartbeat CPU 0 instructions: 441000002 cycles: 1406213629 heartbeat IPC: 0.230708 cumulative IPC: 0.312989 (Simulation time: 1 hr 10 min 30 sec) 
Heartbeat CPU 0 instructions: 442000002 cycles: 1407997553 heartbeat IPC: 0.560562 cumulative IPC: 0.313303 (Simulation time: 1 hr 10 min 38 sec) 
Heartbeat CPU 0 instructions: 443000001 cycles: 1411386714 heartbeat IPC: 0.295058 cumulative IPC: 0.313259 (Simulation time: 1 hr 10 min 48 sec) 
Heartbeat CPU 0 instructions: 444000001 cycles: 1415857055 heartbeat IPC: 0.223697 cumulative IPC: 0.312977 (Simulation time: 1 hr 10 min 59 sec) 
Heartbeat CPU 0 instructions: 445000001 cycles: 1417696391 heartbeat IPC: 0.543674 cumulative IPC: 0.313276 (Simulation time: 1 hr 11 min 7 sec) 
Heartbeat CPU 0 instructions: 446000000 cycles: 1421454059 heartbeat IPC: 0.266122 cumulative IPC: 0.313151 (Simulation time: 1 hr 11 min 17 sec) 
Heartbeat CPU 0 instructions: 447000000 cycles: 1425438582 heartbeat IPC: 0.250971 cumulative IPC: 0.312977 (Simulation time: 1 hr 11 min 29 sec) 
Heartbeat CPU 0 instructions: 448000000 cycles: 1427460076 heartbeat IPC: 0.494684 cumulative IPC: 0.313235 (Simulation time: 1 hr 11 min 37 sec) 
Heartbeat CPU 0 instructions: 449000000 cycles: 1429436794 heartbeat IPC: 0.505889 cumulative IPC: 0.313501 (Simulation time: 1 hr 11 min 45 sec) 
Heartbeat CPU 0 instructions: 450000000 cycles: 1433364274 heartbeat IPC: 0.254616 cumulative IPC: 0.31334 (Simulation time: 1 hr 11 min 56 sec) 

Warmup complete CPU 0 instructions: 450000004 cycles: 1433364275 (Simulation time: 1 hr 11 min 56 sec) 

Heartbeat CPU 0 instructions: 451000000 cycles: 1434569881 heartbeat IPC: 0.829458 cumulative IPC: 0.829455 (Simulation time: 1 hr 12 min 3 sec) 
Heartbeat CPU 0 instructions: 452000003 cycles: 1437059103 heartbeat IPC: 0.401733 cumulative IPC: 0.541297 (Simulation time: 1 hr 12 min 12 sec) 
Heartbeat CPU 0 instructions: 453000003 cycles: 1438388457 heartbeat IPC: 0.752245 cumulative IPC: 0.597112 (Simulation time: 1 hr 12 min 19 sec) 
Heartbeat CPU 0 instructions: 454000000 cycles: 1440248901 heartbeat IPC: 0.537504 cumulative IPC: 0.581004 (Simulation time: 1 hr 12 min 27 sec) 
Heartbeat CPU 0 instructions: 455000001 cycles: 1442746171 heartbeat IPC: 0.400438 cumulative IPC: 0.532941 (Simulation time: 1 hr 12 min 36 sec) 
Heartbeat CPU 0 instructions: 456000003 cycles: 1444044288 heartbeat IPC: 0.770348 cumulative IPC: 0.561797 (Simulation time: 1 hr 12 min 43 sec) 
Heartbeat CPU 0 instructions: 457000000 cycles: 1445708597 heartbeat IPC: 0.600848 cumulative IPC: 0.567062 (Simulation time: 1 hr 12 min 51 sec) 
Heartbeat CPU 0 instructions: 458000001 cycles: 1448530945 heartbeat IPC: 0.354315 cumulative IPC: 0.527472 (Simulation time: 1 hr 13 min 1 sec) 
Heartbeat CPU 0 instructions: 459000000 cycles: 1450136490 heartbeat IPC: 0.622841 cumulative IPC: 0.536602 (Simulation time: 1 hr 13 min 8 sec) 
Heartbeat CPU 0 instructions: 460000001 cycles: 1451720969 heartbeat IPC: 0.631123 cumulative IPC: 0.54476 (Simulation time: 1 hr 13 min 16 sec) 
Heartbeat CPU 0 instructions: 461000002 cycles: 1454275231 heartbeat IPC: 0.391503 cumulative IPC: 0.52604 (Simulation time: 1 hr 13 min 26 sec) 
Heartbeat CPU 0 instructions: 462000000 cycles: 1455776409 heartbeat IPC: 0.666142 cumulative IPC: 0.535424 (Simulation time: 1 hr 13 min 33 sec) 
Heartbeat CPU 0 instructions: 463000002 cycles: 1457481495 heartbeat IPC: 0.586482 cumulative IPC: 0.539034 (Simulation time: 1 hr 13 min 40 sec) 
Heartbeat CPU 0 instructions: 464000002 cycles: 1459909311 heartbeat IPC: 0.411893 cumulative IPC: 0.527406 (Simulation time: 1 hr 13 min 50 sec) 
Heartbeat CPU 0 instructions: 465000001 cycles: 1461240915 heartbeat IPC: 0.750973 cumulative IPC: 0.538085 (Simulation time: 1 hr 13 min 56 sec) 
Heartbeat CPU 0 instructions: 466000002 cycles: 1463887598 heartbeat IPC: 0.377832 cumulative IPC: 0.524189 (Simulation time: 1 hr 14 min 6 sec) 
Heartbeat CPU 0 instructions: 467000000 cycles: 1465529255 heartbeat IPC: 0.609139 cumulative IPC: 0.528525 (Simulation time: 1 hr 14 min 13 sec) 
Heartbeat CPU 0 instructions: 468000002 cycles: 1467195874 heartbeat IPC: 0.600018 cumulative IPC: 0.532047 (Simulation time: 1 hr 14 min 20 sec) 
Heartbeat CPU 0 instructions: 469000001 cycles: 1470970677 heartbeat IPC: 0.264914 cumulative IPC: 0.505233 (Simulation time: 1 hr 14 min 32 sec) 
Heartbeat CPU 0 instructions: 470000000 cycles: 1472431293 heartbeat IPC: 0.684642 cumulative IPC: 0.511941 (Simulation time: 1 hr 14 min 39 sec) 
Heartbeat CPU 0 instructions: 471000002 cycles: 1474494283 heartbeat IPC: 0.484734 cumulative IPC: 0.510576 (Simulation time: 1 hr 14 min 47 sec) 
Heartbeat CPU 0 instructions: 472000001 cycles: 1478135293 heartbeat IPC: 0.274649 cumulative IPC: 0.491389 (Simulation time: 1 hr 14 min 59 sec) 
Heartbeat CPU 0 instructions: 473000000 cycles: 1482074184 heartbeat IPC: 0.253878 cumulative IPC: 0.472183 (Simulation time: 1 hr 15 min 11 sec) 
Heartbeat CPU 0 instructions: 474000000 cycles: 1486026515 heartbeat IPC: 0.253015 cumulative IPC: 0.455734 (Simulation time: 1 hr 15 min 23 sec) 
Heartbeat CPU 0 instructions: 475000000 cycles: 1489763488 heartbeat IPC: 0.267596 cumulative IPC: 0.443269 (Simulation time: 1 hr 15 min 35 sec) 
Heartbeat CPU 0 instructions: 476000000 cycles: 1492678079 heartbeat IPC: 0.343101 cumulative IPC: 0.438346 (Simulation time: 1 hr 15 min 45 sec) 
Heartbeat CPU 0 instructions: 477000000 cycles: 1494248807 heartbeat IPC: 0.636647 cumulative IPC: 0.443462 (Simulation time: 1 hr 15 min 52 sec) 
Heartbeat CPU 0 instructions: 478000002 cycles: 1496887767 heartbeat IPC: 0.378938 cumulative IPC: 0.440782 (Simulation time: 1 hr 16 min 2 sec) 
Heartbeat CPU 0 instructions: 479000001 cycles: 1498056330 heartbeat IPC: 0.855751 cumulative IPC: 0.448278 (Simulation time: 1 hr 16 min 8 sec) 
Heartbeat CPU 0 instructions: 480000000 cycles: 1499807192 heartbeat IPC: 0.571147 cumulative IPC: 0.451515 (Simulation time: 1 hr 16 min 16 sec) 
Heartbeat CPU 0 instructions: 481000002 cycles: 1501723629 heartbeat IPC: 0.521803 cumulative IPC: 0.453486 (Simulation time: 1 hr 16 min 24 sec) 
Heartbeat CPU 0 instructions: 482000002 cycles: 1503445729 heartbeat IPC: 0.580686 cumulative IPC: 0.456612 (Simulation time: 1 hr 16 min 31 sec) 
Heartbeat CPU 0 instructions: 483000000 cycles: 1506783467 heartbeat IPC: 0.299603 cumulative IPC: 0.449474 (Simulation time: 1 hr 16 min 42 sec) 
Heartbeat CPU 0 instructions: 484000000 cycles: 1508918470 heartbeat IPC: 0.468383 cumulative IPC: 0.450008 (Simulation time: 1 hr 16 min 51 sec) 
Heartbeat CPU 0 instructions: 485000003 cycles: 1510186486 heartbeat IPC: 0.788636 cumulative IPC: 0.455597 (Simulation time: 1 hr 16 min 58 sec) 
Heartbeat CPU 0 instructions: 486000000 cycles: 1512358335 heartbeat IPC: 0.460436 cumulative IPC: 0.45573 (Simulation time: 1 hr 17 min 6 sec) 
Heartbeat CPU 0 instructions: 487000001 cycles: 1516247572 heartbeat IPC: 0.25712 cumulative IPC: 0.446411 (Simulation time: 1 hr 17 min 18 sec) 
Heartbeat CPU 0 instructions: 488000000 cycles: 1519313212 heartbeat IPC: 0.326196 cumulative IPC: 0.442123 (Simulation time: 1 hr 17 min 29 sec) 
Heartbeat CPU 0 instructions: 489000001 cycles: 1520672725 heartbeat IPC: 0.735558 cumulative IPC: 0.446692 (Simulation time: 1 hr 17 min 36 sec) 
Heartbeat CPU 0 instructions: 490000002 cycles: 1523742893 heartbeat IPC: 0.325715 cumulative IPC: 0.442583 (Simulation time: 1 hr 17 min 46 sec) 
Heartbeat CPU 0 instructions: 491000000 cycles: 1525493790 heartbeat IPC: 0.571135 cumulative IPC: 0.445026 (Simulation time: 1 hr 17 min 53 sec) 
Heartbeat CPU 0 instructions: 492000002 cycles: 1528267193 heartbeat IPC: 0.360569 cumulative IPC: 0.442557 (Simulation time: 1 hr 18 min 3 sec) 
Heartbeat CPU 0 instructions: 493000001 cycles: 1531047880 heartbeat IPC: 0.359623 cumulative IPC: 0.440197 (Simulation time: 1 hr 18 min 13 sec) 
Heartbeat CPU 0 instructions: 494000001 cycles: 1532286358 heartbeat IPC: 0.807443 cumulative IPC: 0.444794 (Simulation time: 1 hr 18 min 20 sec) 
Heartbeat CPU 0 instructions: 495000000 cycles: 1533659953 heartbeat IPC: 0.728016 cumulative IPC: 0.448673 (Simulation time: 1 hr 18 min 27 sec) 
Heartbeat CPU 0 instructions: 496000000 cycles: 1536593406 heartbeat IPC: 0.340895 cumulative IPC: 0.445611 (Simulation time: 1 hr 18 min 36 sec) 
Heartbeat CPU 0 instructions: 497000001 cycles: 1538991673 heartbeat IPC: 0.416968 cumulative IPC: 0.44496 (Simulation time: 1 hr 18 min 45 sec) 
Heartbeat CPU 0 instructions: 498000000 cycles: 1541515450 heartbeat IPC: 0.396231 cumulative IPC: 0.443823 (Simulation time: 1 hr 18 min 53 sec) 
Heartbeat CPU 0 instructions: 499000003 cycles: 1545625362 heartbeat IPC: 0.243315 cumulative IPC: 0.436482 (Simulation time: 1 hr 19 min 6 sec) 
Heartbeat CPU 0 instructions: 500000000 cycles: 1548691737 heartbeat IPC: 0.326117 cumulative IPC: 0.433548 (Simulation time: 1 hr 19 min 16 sec) 
Heartbeat CPU 0 instructions: 501000002 cycles: 1550432781 heartbeat IPC: 0.574369 cumulative IPC: 0.435642 (Simulation time: 1 hr 19 min 23 sec) 
Heartbeat CPU 0 instructions: 502000000 cycles: 1553050439 heartbeat IPC: 0.38202 cumulative IPC: 0.43447 (Simulation time: 1 hr 19 min 32 sec) 
Heartbeat CPU 0 instructions: 503000003 cycles: 1554869528 heartbeat IPC: 0.549727 cumulative IPC: 0.436195 (Simulation time: 1 hr 19 min 40 sec) 
Heartbeat CPU 0 instructions: 504000003 cycles: 1557650847 heartbeat IPC: 0.359542 cumulative IPC: 0.43448 (Simulation time: 1 hr 19 min 49 sec) 
Heartbeat CPU 0 instructions: 505000001 cycles: 1561091826 heartbeat IPC: 0.290614 cumulative IPC: 0.430604 (Simulation time: 1 hr 20 min 0 sec) 
Heartbeat CPU 0 instructions: 506000000 cycles: 1562472487 heartbeat IPC: 0.72429 cumulative IPC: 0.433745 (Simulation time: 1 hr 20 min 7 sec) 
Heartbeat CPU 0 instructions: 507000002 cycles: 1565092496 heartbeat IPC: 0.381679 cumulative IPC: 0.432709 (Simulation time: 1 hr 20 min 16 sec) 
Heartbeat CPU 0 instructions: 508000000 cycles: 1568945072 heartbeat IPC: 0.259566 cumulative IPC: 0.427789 (Simulation time: 1 hr 20 min 28 sec) 
Heartbeat CPU 0 instructions: 509000000 cycles: 1570539415 heartbeat IPC: 0.627218 cumulative IPC: 0.430107 (Simulation time: 1 hr 20 min 35 sec) 
Heartbeat CPU 0 instructions: 510000000 cycles: 1572484693 heartbeat IPC: 0.514065 cumulative IPC: 0.431281 (Simulation time: 1 hr 20 min 43 sec) 
Heartbeat CPU 0 instructions: 511000000 cycles: 1576108142 heartbeat IPC: 0.27598 cumulative IPC: 0.427339 (Simulation time: 1 hr 20 min 55 sec) 
Heartbeat CPU 0 instructions: 512000003 cycles: 1580061091 heartbeat IPC: 0.252976 cumulative IPC: 0.42264 (Simulation time: 1 hr 21 min 7 sec) 
Heartbeat CPU 0 instructions: 513000002 cycles: 1584001726 heartbeat IPC: 0.253766 cumulative IPC: 0.418223 (Simulation time: 1 hr 21 min 19 sec) 
Heartbeat CPU 0 instructions: 514000000 cycles: 1587870864 heartbeat IPC: 0.258455 cumulative IPC: 0.414222 (Simulation time: 1 hr 21 min 32 sec) 
Heartbeat CPU 0 instructions: 515000000 cycles: 1589546220 heartbeat IPC: 0.596888 cumulative IPC: 0.416181 (Simulation time: 1 hr 21 min 39 sec) 
Heartbeat CPU 0 instructions: 516000001 cycles: 1590883595 heartbeat IPC: 0.747734 cumulative IPC: 0.418996 (Simulation time: 1 hr 21 min 46 sec) 
Heartbeat CPU 0 instructions: 517000000 cycles: 1593413542 heartbeat IPC: 0.395265 cumulative IPC: 0.418621 (Simulation time: 1 hr 21 min 56 sec) 
Heartbeat CPU 0 instructions: 518000001 cycles: 1594701266 heartbeat IPC: 0.776565 cumulative IPC: 0.421478 (Simulation time: 1 hr 22 min 3 sec) 
Heartbeat CPU 0 instructions: 519000000 cycles: 1595949536 heartbeat IPC: 0.801108 cumulative IPC: 0.424393 (Simulation time: 1 hr 22 min 11 sec) 
Heartbeat CPU 0 instructions: 520000002 cycles: 1598836439 heartbeat IPC: 0.346393 cumulative IPC: 0.423032 (Simulation time: 1 hr 22 min 21 sec) 
Heartbeat CPU 0 instructions: 521000001 cycles: 1601169636 heartbeat IPC: 0.428596 cumulative IPC: 0.423109 (Simulation time: 1 hr 22 min 30 sec) 
Heartbeat CPU 0 instructions: 522000000 cycles: 1602469711 heartbeat IPC: 0.769186 cumulative IPC: 0.42577 (Simulation time: 1 hr 22 min 37 sec) 
Heartbeat CPU 0 instructions: 523000003 cycles: 1605321056 heartbeat IPC: 0.350713 cumulative IPC: 0.424525 (Simulation time: 1 hr 22 min 48 sec) 
Heartbeat CPU 0 instructions: 524000003 cycles: 1607814190 heartbeat IPC: 0.401102 cumulative IPC: 0.424191 (Simulation time: 1 hr 22 min 57 sec) 
Heartbeat CPU 0 instructions: 525000002 cycles: 1609290526 heartbeat IPC: 0.677352 cumulative IPC: 0.426315 (Simulation time: 1 hr 23 min 4 sec) 
Heartbeat CPU 0 instructions: 526000002 cycles: 1611877857 heartbeat IPC: 0.386499 cumulative IPC: 0.425738 (Simulation time: 1 hr 23 min 14 sec) 
Heartbeat CPU 0 instructions: 527000000 cycles: 1613128908 heartbeat IPC: 0.799326 cumulative IPC: 0.428338 (Simulation time: 1 hr 23 min 21 sec) 
Heartbeat CPU 0 instructions: 528000000 cycles: 1614267276 heartbeat IPC: 0.878451 cumulative IPC: 0.43117 (Simulation time: 1 hr 23 min 28 sec) 
Heartbeat CPU 0 instructions: 529000002 cycles: 1616533815 heartbeat IPC: 0.441202 cumulative IPC: 0.431294 (Simulation time: 1 hr 23 min 37 sec) 
Heartbeat CPU 0 instructions: 530000000 cycles: 1619547213 heartbeat IPC: 0.331851 cumulative IPC: 0.429685 (Simulation time: 1 hr 23 min 48 sec) 
Heartbeat CPU 0 instructions: 531000001 cycles: 1621107106 heartbeat IPC: 0.64107 cumulative IPC: 0.431441 (Simulation time: 1 hr 23 min 56 sec) 
Heartbeat CPU 0 instructions: 532000003 cycles: 1622720211 heartbeat IPC: 0.619924 cumulative IPC: 0.433047 (Simulation time: 1 hr 24 min 4 sec) 
Heartbeat CPU 0 instructions: 533000002 cycles: 1625438374 heartbeat IPC: 0.367895 cumulative IPC: 0.432125 (Simulation time: 1 hr 24 min 13 sec) 
Heartbeat CPU 0 instructions: 534000001 cycles: 1626642774 heartbeat IPC: 0.830288 cumulative IPC: 0.434606 (Simulation time: 1 hr 24 min 20 sec) 
Heartbeat CPU 0 instructions: 535000000 cycles: 1628647421 heartbeat IPC: 0.49884 cumulative IPC: 0.435265 (Simulation time: 1 hr 24 min 29 sec) 
Heartbeat CPU 0 instructions: 536000003 cycles: 1630217373 heartbeat IPC: 0.636964 cumulative IPC: 0.436874 (Simulation time: 1 hr 24 min 36 sec) 
Heartbeat CPU 0 instructions: 537000000 cycles: 1631522250 heartbeat IPC: 0.766353 cumulative IPC: 0.439044 (Simulation time: 1 hr 24 min 44 sec) 
Heartbeat CPU 0 instructions: 538000000 cycles: 1633853006 heartbeat IPC: 0.429045 cumulative IPC: 0.438927 (Simulation time: 1 hr 24 min 53 sec) 
Heartbeat CPU 0 instructions: 539000000 cycles: 1635354861 heartbeat IPC: 0.665843 cumulative IPC: 0.440615 (Simulation time: 1 hr 25 min 0 sec) 
Heartbeat CPU 0 instructions: 540000000 cycles: 1638004421 heartbeat IPC: 0.377421 cumulative IPC: 0.439796 (Simulation time: 1 hr 25 min 9 sec) 
Heartbeat CPU 0 instructions: 541000001 cycles: 1641942611 heartbeat IPC: 0.253924 cumulative IPC: 0.436287 (Simulation time: 1 hr 25 min 22 sec) 
Heartbeat CPU 0 instructions: 542000000 cycles: 1646052501 heartbeat IPC: 0.243315 cumulative IPC: 0.432558 (Simulation time: 1 hr 25 min 35 sec) 
Heartbeat CPU 0 instructions: 543000003 cycles: 1648375038 heartbeat IPC: 0.430565 cumulative IPC: 0.432536 (Simulation time: 1 hr 25 min 43 sec) 
Heartbeat CPU 0 instructions: 544000000 cycles: 1649897051 heartbeat IPC: 0.657023 cumulative IPC: 0.434114 (Simulation time: 1 hr 25 min 51 sec) 
Heartbeat CPU 0 instructions: 545000002 cycles: 1652251433 heartbeat IPC: 0.424741 cumulative IPC: 0.434014 (Simulation time: 1 hr 26 min 0 sec) 
[...]
Heartbeat CPU 0 instructions: 835000001 cycles: 2289419369 heartbeat IPC: 0.633686 cumulative IPC: 0.449737 (Simulation time: 2 hr 5 min 10 sec) 
Heartbeat CPU 0 instructions: 836000000 cycles: 2291230733 heartbeat IPC: 0.55207 cumulative IPC: 0.449953 (Simulation time: 2 hr 5 min 17 sec) 
Heartbeat CPU 0 instructions: 837000000 cycles: 2293240855 heartbeat IPC: 0.497482 cumulative IPC: 0.450065 (Simulation time: 2 hr 5 min 24 sec) 
Heartbeat CPU 0 instructions: 838000000 cycles: 2295425155 heartbeat IPC: 0.457813 cumulative IPC: 0.450084 (Simulation time: 2 hr 5 min 31 sec) 
Heartbeat CPU 0 instructions: 839000003 cycles: 2297211288 heartbeat IPC: 0.55987 cumulative IPC: 0.450311 (Simulation time: 2 hr 5 min 37 sec) 
Heartbeat CPU 0 instructions: 840000000 cycles: 2300381436 heartbeat IPC: 0.315442 cumulative IPC: 0.449818 (Simulation time: 2 hr 5 min 45 sec) 
Heartbeat CPU 0 instructions: 841000002 cycles: 2303178878 heartbeat IPC: 0.35747 cumulative IPC: 0.449521 (Simulation time: 2 hr 5 min 54 sec) 
Heartbeat CPU 0 instructions: 842000000 cycles: 2304453137 heartbeat IPC: 0.784768 cumulative IPC: 0.450011 (Simulation time: 2 hr 6 min 0 sec) 
Heartbeat CPU 0 instructions: 843000000 cycles: 2305632682 heartbeat IPC: 0.847785 cumulative IPC: 0.450549 (Simulation time: 2 hr 6 min 5 sec) 
Heartbeat CPU 0 instructions: 844000003 cycles: 2308155606 heartbeat IPC: 0.396367 cumulative IPC: 0.450393 (Simulation time: 2 hr 6 min 13 sec) 
Heartbeat CPU 0 instructions: 845000002 cycles: 2312025641 heartbeat IPC: 0.258395 cumulative IPC: 0.449547 (Simulation time: 2 hr 6 min 23 sec) 
Heartbeat CPU 0 instructions: 846000000 cycles: 2313923006 heartbeat IPC: 0.527046 cumulative IPC: 0.449714 (Simulation time: 2 hr 6 min 30 sec) 
Heartbeat CPU 0 instructions: 847000000 cycles: 2315422131 heartbeat IPC: 0.667056 cumulative IPC: 0.450084 (Simulation time: 2 hr 6 min 36 sec) 
Heartbeat CPU 0 instructions: 848000000 cycles: 2318336631 heartbeat IPC: 0.343112 cumulative IPC: 0.449732 (Simulation time: 2 hr 6 min 44 sec) 
Heartbeat CPU 0 instructions: 849000002 cycles: 2321242510 heartbeat IPC: 0.344131 cumulative IPC: 0.449386 (Simulation time: 2 hr 6 min 52 sec) 
Heartbeat CPU 0 instructions: 850000000 cycles: 2323087192 heartbeat IPC: 0.542098 cumulative IPC: 0.449578 (Simulation time: 2 hr 6 min 59 sec) 
Heartbeat CPU 0 instructions: 851000000 cycles: 2324799722 heartbeat IPC: 0.583931 cumulative IPC: 0.449836 (Simulation time: 2 hr 7 min 5 sec) 
Heartbeat CPU 0 instructions: 852000001 cycles: 2327872361 heartbeat IPC: 0.325453 cumulative IPC: 0.449409 (Simulation time: 2 hr 7 min 14 sec) 
Heartbeat CPU 0 instructions: 853000000 cycles: 2330826900 heartbeat IPC: 0.338462 cumulative IPC: 0.449044 (Simulation time: 2 hr 7 min 22 sec) 
Heartbeat CPU 0 instructions: 854000002 cycles: 2332840677 heartbeat IPC: 0.49658 cumulative IPC: 0.44915 (Simulation time: 2 hr 7 min 29 sec) 
Heartbeat CPU 0 instructions: 855000003 cycles: 2334523331 heartbeat IPC: 0.5943 cumulative IPC: 0.449421 (Simulation time: 2 hr 7 min 35 sec) 
Heartbeat CPU 0 instructions: 856000002 cycles: 2337403326 heartbeat IPC: 0.347222 cumulative IPC: 0.449096 (Simulation time: 2 hr 7 min 44 sec) 
Heartbeat CPU 0 instructions: 857000000 cycles: 2339942993 heartbeat IPC: 0.393752 cumulative IPC: 0.448941 (Simulation time: 2 hr 7 min 51 sec) 
Heartbeat CPU 0 instructions: 858000000 cycles: 2341058260 heartbeat IPC: 0.896646 cumulative IPC: 0.449491 (Simulation time: 2 hr 7 min 57 sec) 
Heartbeat CPU 0 instructions: 859000001 cycles: 2343373217 heartbeat IPC: 0.431974 cumulative IPC: 0.449446 (Simulation time: 2 hr 8 min 4 sec) 
Heartbeat CPU 0 instructions: 860000002 cycles: 2345114529 heartbeat IPC: 0.57428 cumulative IPC: 0.449685 (Simulation time: 2 hr 8 min 10 sec) 
Heartbeat CPU 0 instructions: 861000003 cycles: 2346812747 heartbeat IPC: 0.588853 cumulative IPC: 0.449943 (Simulation time: 2 hr 8 min 16 sec) 
Heartbeat CPU 0 instructions: 862000002 cycles: 2350063152 heartbeat IPC: 0.307654 cumulative IPC: 0.449439 (Simulation time: 2 hr 8 min 25 sec) 
Heartbeat CPU 0 instructions: 863000002 cycles: 2352084365 heartbeat IPC: 0.494752 cumulative IPC: 0.449538 (Simulation time: 2 hr 8 min 32 sec) 
Heartbeat CPU 0 instructions: 864000000 cycles: 2353192798 heartbeat IPC: 0.902173 cumulative IPC: 0.450084 (Simulation time: 2 hr 8 min 37 sec) 
Heartbeat CPU 0 instructions: 865000001 cycles: 2354336922 heartbeat IPC: 0.874032 cumulative IPC: 0.450611 (Simulation time: 2 hr 8 min 43 sec) 
Heartbeat CPU 0 instructions: 866000000 cycles: 2356717696 heartbeat IPC: 0.420031 cumulative IPC: 0.450532 (Simulation time: 2 hr 8 min 51 sec) 
Heartbeat CPU 0 instructions: 867000000 cycles: 2357848547 heartbeat IPC: 0.88429 cumulative IPC: 0.451062 (Simulation time: 2 hr 8 min 56 sec) 
Heartbeat CPU 0 instructions: 868000000 cycles: 2359252586 heartbeat IPC: 0.712231 cumulative IPC: 0.451458 (Simulation time: 2 hr 9 min 2 sec) 
Heartbeat CPU 0 instructions: 869000000 cycles: 2361874819 heartbeat IPC: 0.381354 cumulative IPC: 0.45126 (Simulation time: 2 hr 9 min 10 sec) 
Heartbeat CPU 0 instructions: 870000000 cycles: 2363092179 heartbeat IPC: 0.82145 cumulative IPC: 0.451745 (Simulation time: 2 hr 9 min 15 sec) 
Heartbeat CPU 0 instructions: 871000000 cycles: 2364450984 heartbeat IPC: 0.735941 cumulative IPC: 0.45216 (Simulation time: 2 hr 9 min 21 sec) 
Heartbeat CPU 0 instructions: 872000002 cycles: 2366652082 heartbeat IPC: 0.45432 cumulative IPC: 0.452165 (Simulation time: 2 hr 9 min 29 sec) 
Heartbeat CPU 0 instructions: 873000000 cycles: 2368136906 heartbeat IPC: 0.673479 cumulative IPC: 0.452516 (Simulation time: 2 hr 9 min 34 sec) 
Heartbeat CPU 0 instructions: 874000001 cycles: 2371030408 heartbeat IPC: 0.345602 cumulative IPC: 0.452187 (Simulation time: 2 hr 9 min 42 sec) 
Heartbeat CPU 0 instructions: 875000003 cycles: 2375040947 heartbeat IPC: 0.249344 cumulative IPC: 0.451323 (Simulation time: 2 hr 9 min 53 sec) 
Heartbeat CPU 0 instructions: 876000001 cycles: 2378734933 heartbeat IPC: 0.27071 cumulative IPC: 0.450617 (Simulation time: 2 hr 10 min 2 sec) 
Heartbeat CPU 0 instructions: 877000002 cycles: 2379993883 heartbeat IPC: 0.794313 cumulative IPC: 0.451074 (Simulation time: 2 hr 10 min 8 sec) 
Heartbeat CPU 0 instructions: 878000002 cycles: 2381779214 heartbeat IPC: 0.56012 cumulative IPC: 0.451279 (Simulation time: 2 hr 10 min 14 sec) 
Heartbeat CPU 0 instructions: 879000001 cycles: 2385485327 heartbeat IPC: 0.269824 cumulative IPC: 0.450573 (Simulation time: 2 hr 10 min 24 sec) 
Heartbeat CPU 0 instructions: 880000000 cycles: 2388077101 heartbeat IPC: 0.385836 cumulative IPC: 0.450397 (Simulation time: 2 hr 10 min 32 sec) 
Heartbeat CPU 0 instructions: 881000001 cycles: 2389688359 heartbeat IPC: 0.620634 cumulative IPC: 0.450684 (Simulation time: 2 hr 10 min 38 sec) 
Heartbeat CPU 0 instructions: 882000000 cycles: 2392506750 heartbeat IPC: 0.354812 cumulative IPC: 0.450402 (Simulation time: 2 hr 10 min 46 sec) 
Heartbeat CPU 0 instructions: 883000002 cycles: 2393842226 heartbeat IPC: 0.748798 cumulative IPC: 0.450817 (Simulation time: 2 hr 10 min 51 sec) 
Heartbeat CPU 0 instructions: 884000001 cycles: 2395206294 heartbeat IPC: 0.733101 cumulative IPC: 0.451218 (Simulation time: 2 hr 10 min 57 sec) 
Heartbeat CPU 0 instructions: 885000002 cycles: 2398909928 heartbeat IPC: 0.270005 cumulative IPC: 0.450522 (Simulation time: 2 hr 11 min 7 sec) 
Heartbeat CPU 0 instructions: 886000001 cycles: 2400578712 heartbeat IPC: 0.599238 cumulative IPC: 0.450779 (Simulation time: 2 hr 11 min 13 sec) 
Heartbeat CPU 0 instructions: 887000000 cycles: 2402267778 heartbeat IPC: 0.592043 cumulative IPC: 0.451025 (Simulation time: 2 hr 11 min 19 sec) 
Heartbeat CPU 0 instructions: 888000001 cycles: 2405054946 heartbeat IPC: 0.358787 cumulative IPC: 0.450761 (Simulation time: 2 hr 11 min 27 sec) 
Heartbeat CPU 0 instructions: 889000000 cycles: 2406407006 heartbeat IPC: 0.739611 cumulative IPC: 0.451162 (Simulation time: 2 hr 11 min 33 sec) 
Heartbeat CPU 0 instructions: 890000003 cycles: 2407538826 heartbeat IPC: 0.883535 cumulative IPC: 0.451664 (Simulation time: 2 hr 11 min 38 sec) 
Heartbeat CPU 0 instructions: 891000000 cycles: 2409255113 heartbeat IPC: 0.582651 cumulative IPC: 0.451895 (Simulation time: 2 hr 11 min 45 sec) 
Heartbeat CPU 0 instructions: 892000002 cycles: 2412819811 heartbeat IPC: 0.280529 cumulative IPC: 0.451271 (Simulation time: 2 hr 11 min 55 sec) 
Heartbeat CPU 0 instructions: 893000001 cycles: 2416608015 heartbeat IPC: 0.263977 cumulative IPC: 0.45055 (Simulation time: 2 hr 12 min 5 sec) 
Heartbeat CPU 0 instructions: 894000000 cycles: 2417955846 heartbeat IPC: 0.741932 cumulative IPC: 0.450948 (Simulation time: 2 hr 12 min 10 sec) 
Heartbeat CPU 0 instructions: 895000002 cycles: 2419469555 heartbeat IPC: 0.66063 cumulative IPC: 0.45127 (Simulation time: 2 hr 12 min 16 sec) 
Heartbeat CPU 0 instructions: 896000000 cycles: 2421770572 heartbeat IPC: 0.43459 cumulative IPC: 0.451231 (Simulation time: 2 hr 12 min 24 sec) 
Heartbeat CPU 0 instructions: 897000001 cycles: 2422971406 heartbeat IPC: 0.832755 cumulative IPC: 0.451694 (Simulation time: 2 hr 12 min 29 sec) 
Heartbeat CPU 0 instructions: 898000000 cycles: 2425434907 heartbeat IPC: 0.405926 cumulative IPC: 0.451581 (Simulation time: 2 hr 12 min 37 sec) 
Heartbeat CPU 0 instructions: 899000002 cycles: 2427186156 heartbeat IPC: 0.571022 cumulative IPC: 0.451791 (Simulation time: 2 hr 12 min 43 sec) 
Heartbeat CPU 0 instructions: 900000001 cycles: 2428483288 heartbeat IPC: 0.770931 cumulative IPC: 0.452207 (Simulation time: 2 hr 12 min 49 sec) 
Heartbeat CPU 0 instructions: 901000000 cycles: 2431043702 heartbeat IPC: 0.390561 cumulative IPC: 0.452049 (Simulation time: 2 hr 12 min 57 sec) 
Heartbeat CPU 0 instructions: 902000000 cycles: 2432398217 heartbeat IPC: 0.738272 cumulative IPC: 0.452437 (Simulation time: 2 hr 13 min 2 sec) 
Heartbeat CPU 0 instructions: 903000001 cycles: 2433720630 heartbeat IPC: 0.756194 cumulative IPC: 0.452839 (Simulation time: 2 hr 13 min 8 sec) 
Heartbeat CPU 0 instructions: 904000003 cycles: 2437266381 heartbeat IPC: 0.282028 cumulative IPC: 0.452235 (Simulation time: 2 hr 13 min 17 sec) 
Heartbeat CPU 0 instructions: 905000001 cycles: 2439714630 heartbeat IPC: 0.408454 cumulative IPC: 0.452129 (Simulation time: 2 hr 13 min 24 sec) 
Heartbeat CPU 0 instructions: 906000000 cycles: 2441444803 heartbeat IPC: 0.577976 cumulative IPC: 0.452345 (Simulation time: 2 hr 13 min 30 sec) 
Heartbeat CPU 0 instructions: 907000002 cycles: 2444440835 heartbeat IPC: 0.333775 cumulative IPC: 0.451993 (Simulation time: 2 hr 13 min 39 sec) 
Heartbeat CPU 0 instructions: 908000002 cycles: 2447052784 heartbeat IPC: 0.382856 cumulative IPC: 0.451815 (Simulation time: 2 hr 13 min 46 sec) 
Heartbeat CPU 0 instructions: 909000001 cycles: 2449101556 heartbeat IPC: 0.488097 cumulative IPC: 0.451889 (Simulation time: 2 hr 13 min 53 sec) 
Heartbeat CPU 0 instructions: 910000002 cycles: 2451266193 heartbeat IPC: 0.461972 cumulative IPC: 0.45191 (Simulation time: 2 hr 14 min 0 sec) 
Heartbeat CPU 0 instructions: 911000001 cycles: 2455184636 heartbeat IPC: 0.255203 cumulative IPC: 0.451156 (Simulation time: 2 hr 14 min 10 sec) 
Heartbeat CPU 0 instructions: 912000002 cycles: 2457869923 heartbeat IPC: 0.3724 cumulative IPC: 0.450949 (Simulation time: 2 hr 14 min 18 sec) 
Heartbeat CPU 0 instructions: 913000000 cycles: 2459225632 heartbeat IPC: 0.73762 cumulative IPC: 0.451328 (Simulation time: 2 hr 14 min 24 sec) 
Heartbeat CPU 0 instructions: 914000000 cycles: 2461326691 heartbeat IPC: 0.47595 cumulative IPC: 0.451378 (Simulation time: 2 hr 14 min 31 sec) 
Heartbeat CPU 0 instructions: 915000001 cycles: 2464629099 heartbeat IPC: 0.30281 cumulative IPC: 0.450903 (Simulation time: 2 hr 14 min 40 sec) 
Heartbeat CPU 0 instructions: 916000002 cycles: 2466089795 heartbeat IPC: 0.684606 cumulative IPC: 0.451233 (Simulation time: 2 hr 14 min 46 sec) 
Heartbeat CPU 0 instructions: 917000000 cycles: 2467517761 heartbeat IPC: 0.700295 cumulative IPC: 0.451577 (Simulation time: 2 hr 14 min 52 sec) 
Heartbeat CPU 0 instructions: 918000003 cycles: 2469557592 heartbeat IPC: 0.490238 cumulative IPC: 0.451653 (Simulation time: 2 hr 14 min 59 sec) 
Heartbeat CPU 0 instructions: 919000003 cycles: 2473233289 heartbeat IPC: 0.272057 cumulative IPC: 0.451018 (Simulation time: 2 hr 15 min 8 sec) 
Heartbeat CPU 0 instructions: 920000000 cycles: 2475769848 heartbeat IPC: 0.394234 cumulative IPC: 0.45088 (Simulation time: 2 hr 15 min 16 sec) 
Heartbeat CPU 0 instructions: 921000001 cycles: 2477035866 heartbeat IPC: 0.789879 cumulative IPC: 0.451291 (Simulation time: 2 hr 15 min 21 sec) 
Heartbeat CPU 0 instructions: 922000002 cycles: 2479657982 heartbeat IPC: 0.381372 cumulative IPC: 0.451116 (Simulation time: 2 hr 15 min 29 sec) 
Heartbeat CPU 0 instructions: 923000001 cycles: 2482204816 heartbeat IPC: 0.392644 cumulative IPC: 0.450974 (Simulation time: 2 hr 15 min 37 sec) 
Heartbeat CPU 0 instructions: 924000000 cycles: 2483337035 heartbeat IPC: 0.88322 cumulative IPC: 0.45144 (Simulation time: 2 hr 15 min 43 sec) 
Heartbeat CPU 0 instructions: 925000000 cycles: 2484498207 heartbeat IPC: 0.861199 cumulative IPC: 0.451893 (Simulation time: 2 hr 15 min 49 sec) 
Heartbeat CPU 0 instructions: 926000002 cycles: 2486712394 heartbeat IPC: 0.451634 cumulative IPC: 0.451892 (Simulation time: 2 hr 15 min 56 sec) 
Heartbeat CPU 0 instructions: 927000000 cycles: 2490433686 heartbeat IPC: 0.268723 cumulative IPC: 0.451248 (Simulation time: 2 hr 16 min 6 sec) 
Heartbeat CPU 0 instructions: 928000003 cycles: 2494258979 heartbeat IPC: 0.261419 cumulative IPC: 0.450563 (Simulation time: 2 hr 16 min 16 sec) 
Heartbeat CPU 0 instructions: 929000000 cycles: 2497723655 heartbeat IPC: 0.288626 cumulative IPC: 0.450036 (Simulation time: 2 hr 16 min 25 sec) 
Heartbeat CPU 0 instructions: 930000001 cycles: 2498834070 heartbeat IPC: 0.900565 cumulative IPC: 0.450505 (Simulation time: 2 hr 16 min 31 sec) 
Heartbeat CPU 0 instructions: 931000002 cycles: 2500560716 heartbeat IPC: 0.579158 cumulative IPC: 0.450714 (Simulation time: 2 hr 16 min 37 sec) 
Heartbeat CPU 0 instructions: 932000002 cycles: 2503297356 heartbeat IPC: 0.365412 cumulative IPC: 0.450495 (Simulation time: 2 hr 16 min 44 sec) 
Heartbeat CPU 0 instructions: 933000003 cycles: 2504680548 heartbeat IPC: 0.722966 cumulative IPC: 0.450847 (Simulation time: 2 hr 16 min 50 sec) 
Heartbeat CPU 0 instructions: 934000001 cycles: 2506987705 heartbeat IPC: 0.433433 cumulative IPC: 0.45081 (Simulation time: 2 hr 16 min 58 sec) 
Heartbeat CPU 0 instructions: 935000000 cycles: 2508589607 heartbeat IPC: 0.624257 cumulative IPC: 0.451068 (Simulation time: 2 hr 17 min 4 sec) 
Heartbeat CPU 0 instructions: 936000002 cycles: 2509984034 heartbeat IPC: 0.717142 cumulative IPC: 0.451413 (Simulation time: 2 hr 17 min 10 sec) 
Heartbeat CPU 0 instructions: 937000002 cycles: 2511783437 heartbeat IPC: 0.55574 cumulative IPC: 0.451587 (Simulation time: 2 hr 17 min 16 sec) 
Heartbeat CPU 0 instructions: 938000001 cycles: 2515327505 heartbeat IPC: 0.282161 cumulative IPC: 0.451032 (Simulation time: 2 hr 17 min 26 sec) 
Heartbeat CPU 0 instructions: 939000000 cycles: 2517329703 heartbeat IPC: 0.499451 cumulative IPC: 0.451121 (Simulation time: 2 hr 17 min 33 sec) 
Heartbeat CPU 0 instructions: 940000000 cycles: 2518544038 heartbeat IPC: 0.823496 cumulative IPC: 0.451538 (Simulation time: 2 hr 17 min 38 sec) 
Heartbeat CPU 0 instructions: 941000001 cycles: 2521059557 heartbeat IPC: 0.397533 cumulative IPC: 0.451413 (Simulation time: 2 hr 17 min 46 sec) 
Heartbeat CPU 0 instructions: 942000001 cycles: 2522315072 heartbeat IPC: 0.796486 cumulative IPC: 0.451811 (Simulation time: 2 hr 17 min 52 sec) 
Heartbeat CPU 0 instructions: 943000000 cycles: 2524009452 heartbeat IPC: 0.590186 cumulative IPC: 0.452026 (Simulation time: 2 hr 17 min 58 sec) 
Heartbeat CPU 0 instructions: 944000003 cycles: 2527723208 heartbeat IPC: 0.26927 cumulative IPC: 0.451406 (Simulation time: 2 hr 18 min 8 sec) 
Heartbeat CPU 0 instructions: 945000000 cycles: 2529214040 heartbeat IPC: 0.670764 cumulative IPC: 0.451704 (Simulation time: 2 hr 18 min 13 sec) 
Heartbeat CPU 0 instructions: 946000000 cycles: 2530467171 heartbeat IPC: 0.798001 cumulative IPC: 0.4521 (Simulation time: 2 hr 18 min 19 sec) 
Heartbeat CPU 0 instructions: 947000000 cycles: 2532919722 heartbeat IPC: 0.407739 cumulative IPC: 0.452001 (Simulation time: 2 hr 18 min 26 sec) 
Heartbeat CPU 0 instructions: 948000000 cycles: 2534177624 heartbeat IPC: 0.794975 cumulative IPC: 0.452393 (Simulation time: 2 hr 18 min 32 sec) 
Heartbeat CPU 0 instructions: 949000000 cycles: 2535916980 heartbeat IPC: 0.574925 cumulative IPC: 0.452586 (Simulation time: 2 hr 18 min 38 sec) 
Heartbeat CPU 0 instructions: 950000003 cycles: 2540001584 heartbeat IPC: 0.244823 cumulative IPC: 0.451819 (Simulation time: 2 hr 18 min 49 sec) 
Finished CPU 0 instructions: 500000003 cycles: 1106637310 cumulative IPC: 0.451819 (Simulation time: 2 hr 18 min 49 sec) 

ChampSim completed all CPUs

Region of Interest Statistics

CPU 0 cumulative IPC: 0.451819 instructions: 500000003 cycles: 1106637310
L1D TOTAL     ACCESS:  237898861  HIT:  214615988  MISS:   23282873
L1D LOAD      ACCESS:  116533936  HIT:   94450637  MISS:   22083299
L1D RFO       ACCESS:  121364925  HIT:  120165351  MISS:    1199574
L1D PREFETCH  ACCESS:          0  HIT:          0  MISS:          0
L1D WRITEBACK ACCESS:          0  HIT:          0  MISS:          0
L1D PREFETCH  REQUESTED:          0  ISSUED:          0  USEFUL:          0  USELESS:          0
L1D AVERAGE MISS LATENCY: 119.058 cycles
L1I TOTAL     ACCESS:  107885884  HIT:  107885884  MISS:          0
L1I LOAD      ACCESS:  107885884  HIT:  107885884  MISS:          0
L1I RFO       ACCESS:          0  HIT:          0  MISS:          0
L1I PREFETCH  ACCESS:          0  HIT:          0  MISS:          0
L1I WRITEBACK ACCESS:          0  HIT:          0  MISS:          0
L1I PREFETCH  REQUESTED:          0  ISSUED:          0  USEFUL:          0  USELESS:          0
L1I AVERAGE MISS LATENCY: -nan cycles
L2C TOTAL     ACCESS:   25783071  HIT:    2747666  MISS:   23035405
L2C LOAD      ACCESS:   22083142  HIT:     246207  MISS:   21836935
L2C RFO       ACCESS:    1199513  HIT:      17880  MISS:    1181633
L2C PREFETCH  ACCESS:          0  HIT:          0  MISS:          0
L2C WRITEBACK ACCESS:    2500416  HIT:    2483579  MISS:      16837
L2C PREFETCH  REQUESTED:          0  ISSUED:          0  USEFUL:          0  USELESS:          0
L2C AVERAGE MISS LATENCY: 104.003 cycles
LLC TOTAL     ACCESS:   33802341  HIT:   10788439  MISS:   23013902
LLC LOAD      ACCESS:   21836936  HIT:    8175398  MISS:   13661538
LLC RFO       ACCESS:    1181633  HIT:        804  MISS:    1180829
LLC PREFETCH  ACCESS:    8469173  HIT:     305920  MISS:    8163253
LLC WRITEBACK ACCESS:    2314599  HIT:    2306317  MISS:       8282
LLC PREFETCH  REQUESTED:   20339435  ISSUED:   20339435  USEFUL:    8152920  USELESS:      10313
LLC AVERAGE MISS LATENCY: 123.541 cycles
Major fault: 0 Minor fault: 182489
performance stats:
mapping cache size: 7114847
divergence: 6998888

DRAM Statistics
 CHANNEL 0
 RQ ROW_BUFFER_HIT:    9777195  ROW_BUFFER_MISS:    1730065
 DBUS_CONGESTED:   20668213
 WQ ROW_BUFFER_HIT:    1013205  ROW_BUFFER_MISS:     137445  FULL:          0

 CHANNEL 1
 RQ ROW_BUFFER_HIT:    9779964  ROW_BUFFER_MISS:    1718369
 DBUS_CONGESTED:   20668213
 WQ ROW_BUFFER_HIT:    1008872  ROW_BUFFER_MISS:     136617  FULL:          0

 AVG_CONGESTED_CYCLE: 17

CPU 0 Branch Prediction Accuracy: 99.0348% MPKI: 1.08674 Average ROB Occupancy at Mispredict: 239.848

Branch types
NOT_BRANCH: 443705068 88.741%
BRANCH_DIRECT_JUMP: 5296939 1.05939%
BRANCH_INDIRECT: 0 0%
BRANCH_CONDITIONAL: 50996819 10.1994%
BRANCH_DIRECT_CALL: 594 0.0001188%
BRANCH_INDIRECT_CALL: 0 0%
BRANCH_RETURN: 594 0.0001188%
BRANCH_OTHER: 0 0%

