
*** ChampSim Multicore Out-of-Order Simulator ***

Warmup Instructions: 1000000
Prefetch Warmup Instructions: 450000000
Simulation Instructions: 500000000
Stat Printing Period: 1000000
Number of CPUs: 1
LLC sets: 2048
LLC ways: 16
Off-chip DRAM Size: 32768 MB Channels: 2 Width: 64-bit Data Rate: 1024 MT/s

CPU 0 runs /scratch/cluster/cmolder/ML-DPC/ChampSimTraces/spec17/605.mcf-s6.trace.xz
Read seed: 227
Heartbeat CPU 0 instructions: 1000001 cycles: 411331 heartbeat IPC: 2.43113 cumulative IPC: 2.43113 (Simulation time: 0 hr 0 min 6 sec) 

Warmup complete CPU 0 instructions: 1000001 cycles: 411331 (Simulation time: 0 hr 0 min 6 sec) 

Heartbeat CPU 0 instructions: 2000003 cycles: 2822439 heartbeat IPC: 0.414748 cumulative IPC: 0.414748 (Simulation time: 0 hr 0 min 11 sec) 
Heartbeat CPU 0 instructions: 3000000 cycles: 5232417 heartbeat IPC: 0.41494 cumulative IPC: 0.414844 (Simulation time: 0 hr 0 min 16 sec) 
Heartbeat CPU 0 instructions: 4000002 cycles: 7593955 heartbeat IPC: 0.423454 cumulative IPC: 0.417675 (Simulation time: 0 hr 0 min 21 sec) 
Heartbeat CPU 0 instructions: 5000000 cycles: 9937592 heartbeat IPC: 0.426686 cumulative IPC: 0.419892 (Simulation time: 0 hr 0 min 26 sec) 
Heartbeat CPU 0 instructions: 6000001 cycles: 12266736 heartbeat IPC: 0.429343 cumulative IPC: 0.421749 (Simulation time: 0 hr 0 min 31 sec) 
Heartbeat CPU 0 instructions: 7000001 cycles: 14847142 heartbeat IPC: 0.387536 cumulative IPC: 0.415633 (Simulation time: 0 hr 0 min 37 sec) 
Heartbeat CPU 0 instructions: 8000002 cycles: 17244739 heartbeat IPC: 0.417085 cumulative IPC: 0.41584 (Simulation time: 0 hr 0 min 42 sec) 
Heartbeat CPU 0 instructions: 9000000 cycles: 19642793 heartbeat IPC: 0.417004 cumulative IPC: 0.415985 (Simulation time: 0 hr 0 min 47 sec) 
Heartbeat CPU 0 instructions: 10000000 cycles: 22041797 heartbeat IPC: 0.41684 cumulative IPC: 0.41608 (Simulation time: 0 hr 0 min 52 sec) 
Heartbeat CPU 0 instructions: 11000000 cycles: 24421003 heartbeat IPC: 0.420308 cumulative IPC: 0.416499 (Simulation time: 0 hr 0 min 57 sec) 
Heartbeat CPU 0 instructions: 12000001 cycles: 26870014 heartbeat IPC: 0.408329 cumulative IPC: 0.415743 (Simulation time: 0 hr 1 min 2 sec) 
Heartbeat CPU 0 instructions: 13000002 cycles: 29232693 heartbeat IPC: 0.423249 cumulative IPC: 0.416358 (Simulation time: 0 hr 1 min 7 sec) 
Heartbeat CPU 0 instructions: 14000003 cycles: 31601738 heartbeat IPC: 0.422111 cumulative IPC: 0.416795 (Simulation time: 0 hr 1 min 12 sec) 
Heartbeat CPU 0 instructions: 15000001 cycles: 34094037 heartbeat IPC: 0.401235 cumulative IPC: 0.415644 (Simulation time: 0 hr 1 min 17 sec) 
Heartbeat CPU 0 instructions: 16000000 cycles: 36513504 heartbeat IPC: 0.413314 cumulative IPC: 0.415487 (Simulation time: 0 hr 1 min 23 sec) 
Heartbeat CPU 0 instructions: 17000003 cycles: 38900295 heartbeat IPC: 0.418974 cumulative IPC: 0.415704 (Simulation time: 0 hr 1 min 28 sec) 
Heartbeat CPU 0 instructions: 18000001 cycles: 41308290 heartbeat IPC: 0.415282 cumulative IPC: 0.415679 (Simulation time: 0 hr 1 min 33 sec) 
Heartbeat CPU 0 instructions: 19000000 cycles: 43722685 heartbeat IPC: 0.414182 cumulative IPC: 0.415595 (Simulation time: 0 hr 1 min 38 sec) 
Heartbeat CPU 0 instructions: 20000001 cycles: 45996757 heartbeat IPC: 0.43974 cumulative IPC: 0.4168 (Simulation time: 0 hr 1 min 43 sec) 
Heartbeat CPU 0 instructions: 21000000 cycles: 48042264 heartbeat IPC: 0.488876 cumulative IPC: 0.419895 (Simulation time: 0 hr 1 min 48 sec) 
Heartbeat CPU 0 instructions: 22000000 cycles: 50312029 heartbeat IPC: 0.440574 cumulative IPC: 0.420836 (Simulation time: 0 hr 1 min 53 sec) 
Heartbeat CPU 0 instructions: 23000000 cycles: 52682989 heartbeat IPC: 0.42177 cumulative IPC: 0.420878 (Simulation time: 0 hr 1 min 58 sec) 
Heartbeat CPU 0 instructions: 24000001 cycles: 55061614 heartbeat IPC: 0.420411 cumulative IPC: 0.420858 (Simulation time: 0 hr 2 min 3 sec) 
Heartbeat CPU 0 instructions: 25000001 cycles: 57448806 heartbeat IPC: 0.418902 cumulative IPC: 0.420776 (Simulation time: 0 hr 2 min 8 sec) 
Heartbeat CPU 0 instructions: 26000000 cycles: 59925999 heartbeat IPC: 0.403682 cumulative IPC: 0.420065 (Simulation time: 0 hr 2 min 13 sec) 
Heartbeat CPU 0 instructions: 27000000 cycles: 62325246 heartbeat IPC: 0.416797 cumulative IPC: 0.419938 (Simulation time: 0 hr 2 min 18 sec) 
Heartbeat CPU 0 instructions: 28000000 cycles: 64726461 heartbeat IPC: 0.416456 cumulative IPC: 0.419808 (Simulation time: 0 hr 2 min 23 sec) 
Heartbeat CPU 0 instructions: 29000002 cycles: 67115722 heartbeat IPC: 0.41854 cumulative IPC: 0.419762 (Simulation time: 0 hr 2 min 28 sec) 
Heartbeat CPU 0 instructions: 30000000 cycles: 69485083 heartbeat IPC: 0.422054 cumulative IPC: 0.419841 (Simulation time: 0 hr 2 min 33 sec) 
Heartbeat CPU 0 instructions: 31000003 cycles: 71926537 heartbeat IPC: 0.409593 cumulative IPC: 0.419491 (Simulation time: 0 hr 2 min 39 sec) 
Heartbeat CPU 0 instructions: 32000000 cycles: 74293902 heartbeat IPC: 0.422409 cumulative IPC: 0.419585 (Simulation time: 0 hr 2 min 44 sec) 
Heartbeat CPU 0 instructions: 33000000 cycles: 76662813 heartbeat IPC: 0.422135 cumulative IPC: 0.419664 (Simulation time: 0 hr 2 min 49 sec) 
Heartbeat CPU 0 instructions: 34000001 cycles: 79023334 heartbeat IPC: 0.423636 cumulative IPC: 0.419783 (Simulation time: 0 hr 2 min 54 sec) 
Heartbeat CPU 0 instructions: 35000001 cycles: 81379710 heartbeat IPC: 0.42438 cumulative IPC: 0.419917 (Simulation time: 0 hr 2 min 59 sec) 
Heartbeat CPU 0 instructions: 36000000 cycles: 83838844 heartbeat IPC: 0.406647 cumulative IPC: 0.419526 (Simulation time: 0 hr 3 min 4 sec) 
Heartbeat CPU 0 instructions: 37000000 cycles: 86201550 heartbeat IPC: 0.423244 cumulative IPC: 0.419628 (Simulation time: 0 hr 3 min 9 sec) 
Heartbeat CPU 0 instructions: 38000000 cycles: 88602327 heartbeat IPC: 0.416532 cumulative IPC: 0.419544 (Simulation time: 0 hr 3 min 14 sec) 
Heartbeat CPU 0 instructions: 39000000 cycles: 90953226 heartbeat IPC: 0.425369 cumulative IPC: 0.419695 (Simulation time: 0 hr 3 min 19 sec) 
Heartbeat CPU 0 instructions: 40000003 cycles: 93323428 heartbeat IPC: 0.421906 cumulative IPC: 0.419752 (Simulation time: 0 hr 3 min 25 sec) 
Heartbeat CPU 0 instructions: 41000003 cycles: 95693959 heartbeat IPC: 0.421846 cumulative IPC: 0.419804 (Simulation time: 0 hr 3 min 30 sec) 
Heartbeat CPU 0 instructions: 42000002 cycles: 98178121 heartbeat IPC: 0.40255 cumulative IPC: 0.419365 (Simulation time: 0 hr 3 min 35 sec) 
Heartbeat CPU 0 instructions: 43000003 cycles: 100578847 heartbeat IPC: 0.416541 cumulative IPC: 0.419298 (Simulation time: 0 hr 3 min 40 sec) 
Heartbeat CPU 0 instructions: 44000000 cycles: 102845899 heartbeat IPC: 0.4411 cumulative IPC: 0.41978 (Simulation time: 0 hr 3 min 45 sec) 
Heartbeat CPU 0 instructions: 45000000 cycles: 104922203 heartbeat IPC: 0.481625 cumulative IPC: 0.421009 (Simulation time: 0 hr 3 min 50 sec) 
Heartbeat CPU 0 instructions: 46000001 cycles: 107184266 heartbeat IPC: 0.442075 cumulative IPC: 0.421455 (Simulation time: 0 hr 3 min 55 sec) 
Heartbeat CPU 0 instructions: 47000003 cycles: 109570940 heartbeat IPC: 0.418994 cumulative IPC: 0.421401 (Simulation time: 0 hr 4 min 0 sec) 
Heartbeat CPU 0 instructions: 48000001 cycles: 111953976 heartbeat IPC: 0.419632 cumulative IPC: 0.421364 (Simulation time: 0 hr 4 min 5 sec) 
Heartbeat CPU 0 instructions: 49000002 cycles: 114348410 heartbeat IPC: 0.417636 cumulative IPC: 0.421285 (Simulation time: 0 hr 4 min 10 sec) 
Heartbeat CPU 0 instructions: 50000000 cycles: 116702018 heartbeat IPC: 0.424879 cumulative IPC: 0.421358 (Simulation time: 0 hr 4 min 15 sec) 
Heartbeat CPU 0 instructions: 51000001 cycles: 119083992 heartbeat IPC: 0.41982 cumulative IPC: 0.421327 (Simulation time: 0 hr 4 min 20 sec) 
Heartbeat CPU 0 instructions: 52000000 cycles: 121458155 heartbeat IPC: 0.421201 cumulative IPC: 0.421325 (Simulation time: 0 hr 4 min 25 sec) 
Heartbeat CPU 0 instructions: 53000000 cycles: 123845704 heartbeat IPC: 0.41884 cumulative IPC: 0.421276 (Simulation time: 0 hr 4 min 30 sec) 
Heartbeat CPU 0 instructions: 54000000 cycles: 126264643 heartbeat IPC: 0.413404 cumulative IPC: 0.421125 (Simulation time: 0 hr 4 min 35 sec) 
Heartbeat CPU 0 instructions: 55000000 cycles: 128746436 heartbeat IPC: 0.402934 cumulative IPC: 0.420773 (Simulation time: 0 hr 4 min 41 sec) 
Heartbeat CPU 0 instructions: 56000001 cycles: 131169245 heartbeat IPC: 0.412744 cumulative IPC: 0.420625 (Simulation time: 0 hr 4 min 46 sec) 
Heartbeat CPU 0 instructions: 57000001 cycles: 133549319 heartbeat IPC: 0.420155 cumulative IPC: 0.420616 (Simulation time: 0 hr 4 min 51 sec) 
Heartbeat CPU 0 instructions: 58000002 cycles: 136013588 heartbeat IPC: 0.4058 cumulative IPC: 0.420347 (Simulation time: 0 hr 4 min 57 sec) 
Heartbeat CPU 0 instructions: 59000002 cycles: 138364738 heartbeat IPC: 0.425324 cumulative IPC: 0.420432 (Simulation time: 0 hr 5 min 2 sec) 
Heartbeat CPU 0 instructions: 60000003 cycles: 140723412 heartbeat IPC: 0.423967 cumulative IPC: 0.420491 (Simulation time: 0 hr 5 min 7 sec) 
Heartbeat CPU 0 instructions: 61000000 cycles: 143233404 heartbeat IPC: 0.398406 cumulative IPC: 0.420103 (Simulation time: 0 hr 5 min 12 sec) 
Heartbeat CPU 0 instructions: 62000001 cycles: 145615869 heartbeat IPC: 0.419734 cumulative IPC: 0.420097 (Simulation time: 0 hr 5 min 17 sec) 
Heartbeat CPU 0 instructions: 63000001 cycles: 148009200 heartbeat IPC: 0.417828 cumulative IPC: 0.42006 (Simulation time: 0 hr 5 min 23 sec) 
Heartbeat CPU 0 instructions: 64000000 cycles: 150403554 heartbeat IPC: 0.417649 cumulative IPC: 0.420022 (Simulation time: 0 hr 5 min 28 sec) 
Heartbeat CPU 0 instructions: 65000000 cycles: 152832122 heartbeat IPC: 0.411765 cumulative IPC: 0.41989 (Simulation time: 0 hr 5 min 33 sec) 
Heartbeat CPU 0 instructions: 66000000 cycles: 155202695 heartbeat IPC: 0.421839 cumulative IPC: 0.41992 (Simulation time: 0 hr 5 min 39 sec) 
Heartbeat CPU 0 instructions: 67000003 cycles: 157311763 heartbeat IPC: 0.474145 cumulative IPC: 0.420649 (Simulation time: 0 hr 5 min 44 sec) 
Heartbeat CPU 0 instructions: 68000001 cycles: 159547713 heartbeat IPC: 0.447236 cumulative IPC: 0.421023 (Simulation time: 0 hr 5 min 49 sec) 
Heartbeat CPU 0 instructions: 69000000 cycles: 161871160 heartbeat IPC: 0.430395 cumulative IPC: 0.421157 (Simulation time: 0 hr 5 min 54 sec) 
Heartbeat CPU 0 instructions: 70000003 cycles: 164261900 heartbeat IPC: 0.418282 cumulative IPC: 0.421115 (Simulation time: 0 hr 6 min 0 sec) 
Heartbeat CPU 0 instructions: 71000000 cycles: 166604756 heartbeat IPC: 0.426828 cumulative IPC: 0.421196 (Simulation time: 0 hr 6 min 5 sec) 
Heartbeat CPU 0 instructions: 72000000 cycles: 169002842 heartbeat IPC: 0.416999 cumulative IPC: 0.421136 (Simulation time: 0 hr 6 min 10 sec) 
Heartbeat CPU 0 instructions: 73000002 cycles: 171362150 heartbeat IPC: 0.423854 cumulative IPC: 0.421174 (Simulation time: 0 hr 6 min 15 sec) 
Heartbeat CPU 0 instructions: 74000000 cycles: 173800535 heartbeat IPC: 0.410107 cumulative IPC: 0.421018 (Simulation time: 0 hr 6 min 21 sec) 
Heartbeat CPU 0 instructions: 75000000 cycles: 176203003 heartbeat IPC: 0.416239 cumulative IPC: 0.420953 (Simulation time: 0 hr 6 min 26 sec) 
Heartbeat CPU 0 instructions: 76000001 cycles: 178577975 heartbeat IPC: 0.421058 cumulative IPC: 0.420954 (Simulation time: 0 hr 6 min 32 sec) 
Heartbeat CPU 0 instructions: 77000000 cycles: 180959482 heartbeat IPC: 0.419902 cumulative IPC: 0.42094 (Simulation time: 0 hr 6 min 37 sec) 
Heartbeat CPU 0 instructions: 78000001 cycles: 183328142 heartbeat IPC: 0.42218 cumulative IPC: 0.420956 (Simulation time: 0 hr 6 min 42 sec) 
Heartbeat CPU 0 instructions: 79000002 cycles: 185694342 heartbeat IPC: 0.422619 cumulative IPC: 0.420978 (Simulation time: 0 hr 6 min 48 sec) 
Heartbeat CPU 0 instructions: 80000001 cycles: 188061335 heartbeat IPC: 0.422477 cumulative IPC: 0.420997 (Simulation time: 0 hr 6 min 53 sec) 
Heartbeat CPU 0 instructions: 81000000 cycles: 190442009 heartbeat IPC: 0.420049 cumulative IPC: 0.420985 (Simulation time: 0 hr 6 min 59 sec) 
Heartbeat CPU 0 instructions: 82000002 cycles: 192804913 heartbeat IPC: 0.423209 cumulative IPC: 0.421012 (Simulation time: 0 hr 7 min 4 sec) 
Heartbeat CPU 0 instructions: 83000003 cycles: 195194591 heartbeat IPC: 0.418467 cumulative IPC: 0.420981 (Simulation time: 0 hr 7 min 9 sec) 
Heartbeat CPU 0 instructions: 84000002 cycles: 197596887 heartbeat IPC: 0.416268 cumulative IPC: 0.420923 (Simulation time: 0 hr 7 min 15 sec) 
Heartbeat CPU 0 instructions: 85000000 cycles: 199973505 heartbeat IPC: 0.420765 cumulative IPC: 0.420921 (Simulation time: 0 hr 7 min 20 sec) 
Heartbeat CPU 0 instructions: 86000001 cycles: 202312538 heartbeat IPC: 0.427528 cumulative IPC: 0.420998 (Simulation time: 0 hr 7 min 25 sec) 
Heartbeat CPU 0 instructions: 87000003 cycles: 204596846 heartbeat IPC: 0.43777 cumulative IPC: 0.421186 (Simulation time: 0 hr 7 min 30 sec) 
Heartbeat CPU 0 instructions: 88000000 cycles: 206869520 heartbeat IPC: 0.440009 cumulative IPC: 0.421393 (Simulation time: 0 hr 7 min 36 sec) 
Heartbeat CPU 0 instructions: 89000000 cycles: 210110397 heartbeat IPC: 0.308558 cumulative IPC: 0.419649 (Simulation time: 0 hr 7 min 41 sec) 
Heartbeat CPU 0 instructions: 90000001 cycles: 212820378 heartbeat IPC: 0.369007 cumulative IPC: 0.419003 (Simulation time: 0 hr 7 min 46 sec) 
Heartbeat CPU 0 instructions: 91000000 cycles: 214689163 heartbeat IPC: 0.535106 cumulative IPC: 0.420015 (Simulation time: 0 hr 7 min 51 sec) 
Heartbeat CPU 0 instructions: 92000000 cycles: 217333592 heartbeat IPC: 0.378153 cumulative IPC: 0.419505 (Simulation time: 0 hr 7 min 56 sec) 
Heartbeat CPU 0 instructions: 93000001 cycles: 219288223 heartbeat IPC: 0.511606 cumulative IPC: 0.420328 (Simulation time: 0 hr 8 min 1 sec) 
Heartbeat CPU 0 instructions: 94000000 cycles: 221904683 heartbeat IPC: 0.382195 cumulative IPC: 0.419877 (Simulation time: 0 hr 8 min 7 sec) 
Heartbeat CPU 0 instructions: 95000003 cycles: 223815126 heartbeat IPC: 0.52344 cumulative IPC: 0.420763 (Simulation time: 0 hr 8 min 11 sec) 
Heartbeat CPU 0 instructions: 96000000 cycles: 226439274 heartbeat IPC: 0.381075 cumulative IPC: 0.420302 (Simulation time: 0 hr 8 min 17 sec) 
Heartbeat CPU 0 instructions: 97000001 cycles: 228336346 heartbeat IPC: 0.527129 cumulative IPC: 0.421191 (Simulation time: 0 hr 8 min 22 sec) 
Heartbeat CPU 0 instructions: 98000002 cycles: 230976455 heartbeat IPC: 0.378773 cumulative IPC: 0.420705 (Simulation time: 0 hr 8 min 27 sec) 
Heartbeat CPU 0 instructions: 99000000 cycles: 232870368 heartbeat IPC: 0.528006 cumulative IPC: 0.42158 (Simulation time: 0 hr 8 min 32 sec) 
Heartbeat CPU 0 instructions: 100000000 cycles: 235494911 heartbeat IPC: 0.381019 cumulative IPC: 0.421127 (Simulation time: 0 hr 8 min 38 sec) 
Heartbeat CPU 0 instructions: 101000002 cycles: 237392207 heartbeat IPC: 0.527067 cumulative IPC: 0.421975 (Simulation time: 0 hr 8 min 42 sec) 
Heartbeat CPU 0 instructions: 102000000 cycles: 240104738 heartbeat IPC: 0.368659 cumulative IPC: 0.421372 (Simulation time: 0 hr 8 min 48 sec) 
Heartbeat CPU 0 instructions: 103000003 cycles: 241971590 heartbeat IPC: 0.535663 cumulative IPC: 0.422255 (Simulation time: 0 hr 8 min 52 sec) 
Heartbeat CPU 0 instructions: 104000001 cycles: 244686281 heartbeat IPC: 0.368365 cumulative IPC: 0.421656 (Simulation time: 0 hr 8 min 58 sec) 
Heartbeat CPU 0 instructions: 105000000 cycles: 246555617 heartbeat IPC: 0.534949 cumulative IPC: 0.422516 (Simulation time: 0 hr 9 min 2 sec) 
Heartbeat CPU 0 instructions: 106000000 cycles: 249197187 heartbeat IPC: 0.378563 cumulative IPC: 0.42205 (Simulation time: 0 hr 9 min 7 sec) 
Heartbeat CPU 0 instructions: 107000001 cycles: 251098755 heartbeat IPC: 0.525882 cumulative IPC: 0.422837 (Simulation time: 0 hr 9 min 12 sec) 
Heartbeat CPU 0 instructions: 108000002 cycles: 253798093 heartbeat IPC: 0.370462 cumulative IPC: 0.422279 (Simulation time: 0 hr 9 min 17 sec) 
Heartbeat CPU 0 instructions: 109000002 cycles: 255709438 heartbeat IPC: 0.523192 cumulative IPC: 0.423035 (Simulation time: 0 hr 9 min 21 sec) 
Heartbeat CPU 0 instructions: 110000000 cycles: 258374084 heartbeat IPC: 0.375284 cumulative IPC: 0.422542 (Simulation time: 0 hr 9 min 27 sec) 
Heartbeat CPU 0 instructions: 111000000 cycles: 260287384 heartbeat IPC: 0.522657 cumulative IPC: 0.423279 (Simulation time: 0 hr 9 min 32 sec) 
Heartbeat CPU 0 instructions: 112000003 cycles: 262892192 heartbeat IPC: 0.383907 cumulative IPC: 0.422888 (Simulation time: 0 hr 9 min 37 sec) 
Heartbeat CPU 0 instructions: 113000000 cycles: 264776073 heartbeat IPC: 0.530818 cumulative IPC: 0.423657 (Simulation time: 0 hr 9 min 42 sec) 
Heartbeat CPU 0 instructions: 114000001 cycles: 267414918 heartbeat IPC: 0.378954 cumulative IPC: 0.423215 (Simulation time: 0 hr 9 min 47 sec) 
Heartbeat CPU 0 instructions: 115000002 cycles: 269288386 heartbeat IPC: 0.53377 cumulative IPC: 0.423986 (Simulation time: 0 hr 9 min 52 sec) 
Heartbeat CPU 0 instructions: 116000000 cycles: 271902429 heartbeat IPC: 0.382548 cumulative IPC: 0.423587 (Simulation time: 0 hr 9 min 57 sec) 
Heartbeat CPU 0 instructions: 117000001 cycles: 273801688 heartbeat IPC: 0.526522 cumulative IPC: 0.424302 (Simulation time: 0 hr 10 min 2 sec) 
Heartbeat CPU 0 instructions: 118000003 cycles: 276415978 heartbeat IPC: 0.382514 cumulative IPC: 0.423906 (Simulation time: 0 hr 10 min 7 sec) 
Heartbeat CPU 0 instructions: 119000000 cycles: 278293327 heartbeat IPC: 0.532664 cumulative IPC: 0.424641 (Simulation time: 0 hr 10 min 12 sec) 
Heartbeat CPU 0 instructions: 120000000 cycles: 280919479 heartbeat IPC: 0.380785 cumulative IPC: 0.42423 (Simulation time: 0 hr 10 min 18 sec) 
Heartbeat CPU 0 instructions: 121000000 cycles: 282802934 heartbeat IPC: 0.530939 cumulative IPC: 0.424942 (Simulation time: 0 hr 10 min 22 sec) 
Heartbeat CPU 0 instructions: 122000002 cycles: 285410760 heartbeat IPC: 0.383462 cumulative IPC: 0.424562 (Simulation time: 0 hr 10 min 28 sec) 
Heartbeat CPU 0 instructions: 123000000 cycles: 287301037 heartbeat IPC: 0.529022 cumulative IPC: 0.425251 (Simulation time: 0 hr 10 min 33 sec) 
Heartbeat CPU 0 instructions: 124000000 cycles: 289915939 heartbeat IPC: 0.382424 cumulative IPC: 0.424864 (Simulation time: 0 hr 10 min 38 sec) 
Heartbeat CPU 0 instructions: 125000000 cycles: 291824811 heartbeat IPC: 0.52387 cumulative IPC: 0.425512 (Simulation time: 0 hr 10 min 43 sec) 
Heartbeat CPU 0 instructions: 126000000 cycles: 294442078 heartbeat IPC: 0.382078 cumulative IPC: 0.425126 (Simulation time: 0 hr 10 min 48 sec) 
Heartbeat CPU 0 instructions: 127000000 cycles: 296405906 heartbeat IPC: 0.50921 cumulative IPC: 0.425683 (Simulation time: 0 hr 10 min 53 sec) 
Heartbeat CPU 0 instructions: 128000000 cycles: 298963924 heartbeat IPC: 0.390928 cumulative IPC: 0.425386 (Simulation time: 0 hr 10 min 58 sec) 
Heartbeat CPU 0 instructions: 129000000 cycles: 300981522 heartbeat IPC: 0.495639 cumulative IPC: 0.425857 (Simulation time: 0 hr 11 min 3 sec) 
Heartbeat CPU 0 instructions: 130000000 cycles: 303356344 heartbeat IPC: 0.421084 cumulative IPC: 0.42582 (Simulation time: 0 hr 11 min 8 sec) 
Heartbeat CPU 0 instructions: 131000000 cycles: 305513767 heartbeat IPC: 0.463516 cumulative IPC: 0.426086 (Simulation time: 0 hr 11 min 13 sec) 
Heartbeat CPU 0 instructions: 132000000 cycles: 307764302 heartbeat IPC: 0.444339 cumulative IPC: 0.42622 (Simulation time: 0 hr 11 min 18 sec) 
Heartbeat CPU 0 instructions: 133000001 cycles: 310058372 heartbeat IPC: 0.435907 cumulative IPC: 0.426292 (Simulation time: 0 hr 11 min 24 sec) 
Heartbeat CPU 0 instructions: 134000001 cycles: 312346499 heartbeat IPC: 0.437039 cumulative IPC: 0.426371 (Simulation time: 0 hr 11 min 29 sec) 
Heartbeat CPU 0 instructions: 135000003 cycles: 314609715 heartbeat IPC: 0.44185 cumulative IPC: 0.426482 (Simulation time: 0 hr 11 min 34 sec) 
Heartbeat CPU 0 instructions: 136000002 cycles: 316793998 heartbeat IPC: 0.457816 cumulative IPC: 0.426698 (Simulation time: 0 hr 11 min 39 sec) 
Heartbeat CPU 0 instructions: 137000001 cycles: 319075452 heartbeat IPC: 0.438317 cumulative IPC: 0.426782 (Simulation time: 0 hr 11 min 44 sec) 
Heartbeat CPU 0 instructions: 138000001 cycles: 321493330 heartbeat IPC: 0.413586 cumulative IPC: 0.426682 (Simulation time: 0 hr 11 min 49 sec) 
Heartbeat CPU 0 instructions: 139000000 cycles: 324140169 heartbeat IPC: 0.377809 cumulative IPC: 0.426283 (Simulation time: 0 hr 11 min 54 sec) 
Heartbeat CPU 0 instructions: 140000002 cycles: 326488318 heartbeat IPC: 0.425868 cumulative IPC: 0.42628 (Simulation time: 0 hr 11 min 59 sec) 
Heartbeat CPU 0 instructions: 141000000 cycles: 328926700 heartbeat IPC: 0.410107 cumulative IPC: 0.42616 (Simulation time: 0 hr 12 min 5 sec) 
Heartbeat CPU 0 instructions: 142000000 cycles: 330958853 heartbeat IPC: 0.492089 cumulative IPC: 0.426565 (Simulation time: 0 hr 12 min 10 sec) 
Heartbeat CPU 0 instructions: 143000000 cycles: 333550537 heartbeat IPC: 0.38585 cumulative IPC: 0.426248 (Simulation time: 0 hr 12 min 15 sec) 
Heartbeat CPU 0 instructions: 144000003 cycles: 335471453 heartbeat IPC: 0.520587 cumulative IPC: 0.426789 (Simulation time: 0 hr 12 min 20 sec) 
Heartbeat CPU 0 instructions: 145000001 cycles: 338243695 heartbeat IPC: 0.360718 cumulative IPC: 0.426247 (Simulation time: 0 hr 12 min 25 sec) 
Heartbeat CPU 0 instructions: 146000002 cycles: 340197358 heartbeat IPC: 0.51186 cumulative IPC: 0.426739 (Simulation time: 0 hr 12 min 30 sec) 
Heartbeat CPU 0 instructions: 147000003 cycles: 342853416 heartbeat IPC: 0.376498 cumulative IPC: 0.426349 (Simulation time: 0 hr 12 min 36 sec) 
Heartbeat CPU 0 instructions: 148000000 cycles: 344832647 heartbeat IPC: 0.505245 cumulative IPC: 0.426803 (Simulation time: 0 hr 12 min 40 sec) 
Heartbeat CPU 0 instructions: 149000000 cycles: 347522575 heartbeat IPC: 0.371757 cumulative IPC: 0.426376 (Simulation time: 0 hr 12 min 46 sec) 
Heartbeat CPU 0 instructions: 150000000 cycles: 349443720 heartbeat IPC: 0.520523 cumulative IPC: 0.426894 (Simulation time: 0 hr 12 min 51 sec) 
Heartbeat CPU 0 instructions: 151000000 cycles: 351725828 heartbeat IPC: 0.438191 cumulative IPC: 0.426968 (Simulation time: 0 hr 12 min 56 sec) 
Heartbeat CPU 0 instructions: 152000003 cycles: 354182927 heartbeat IPC: 0.406985 cumulative IPC: 0.426829 (Simulation time: 0 hr 13 min 1 sec) 
Heartbeat CPU 0 instructions: 153000000 cycles: 356094931 heartbeat IPC: 0.52301 cumulative IPC: 0.427346 (Simulation time: 0 hr 13 min 6 sec) 
Heartbeat CPU 0 instructions: 154000000 cycles: 358797291 heartbeat IPC: 0.370047 cumulative IPC: 0.426914 (Simulation time: 0 hr 13 min 11 sec) 
Heartbeat CPU 0 instructions: 155000000 cycles: 360807899 heartbeat IPC: 0.497362 cumulative IPC: 0.427307 (Simulation time: 0 hr 13 min 16 sec) 
Heartbeat CPU 0 instructions: 156000000 cycles: 363573605 heartbeat IPC: 0.361571 cumulative IPC: 0.426806 (Simulation time: 0 hr 13 min 21 sec) 
Heartbeat CPU 0 instructions: 157000001 cycles: 365507700 heartbeat IPC: 0.517038 cumulative IPC: 0.427284 (Simulation time: 0 hr 13 min 26 sec) 
Heartbeat CPU 0 instructions: 158000000 cycles: 367955183 heartbeat IPC: 0.408583 cumulative IPC: 0.42716 (Simulation time: 0 hr 13 min 31 sec) 
Heartbeat CPU 0 instructions: 159000000 cycles: 370139499 heartbeat IPC: 0.457809 cumulative IPC: 0.427341 (Simulation time: 0 hr 13 min 36 sec) 
Heartbeat CPU 0 instructions: 160000000 cycles: 372049113 heartbeat IPC: 0.523666 cumulative IPC: 0.427836 (Simulation time: 0 hr 13 min 41 sec) 
Heartbeat CPU 0 instructions: 161000001 cycles: 374835401 heartbeat IPC: 0.358901 cumulative IPC: 0.427323 (Simulation time: 0 hr 13 min 47 sec) 
Heartbeat CPU 0 instructions: 162000001 cycles: 376747712 heartbeat IPC: 0.522928 cumulative IPC: 0.427809 (Simulation time: 0 hr 13 min 51 sec) 
Heartbeat CPU 0 instructions: 163000000 cycles: 379418051 heartbeat IPC: 0.374484 cumulative IPC: 0.427433 (Simulation time: 0 hr 13 min 57 sec) 
Heartbeat CPU 0 instructions: 164000000 cycles: 381366932 heartbeat IPC: 0.513115 cumulative IPC: 0.427871 (Simulation time: 0 hr 14 min 2 sec) 
Heartbeat CPU 0 instructions: 165000000 cycles: 384060513 heartbeat IPC: 0.371253 cumulative IPC: 0.427474 (Simulation time: 0 hr 14 min 7 sec) 
Heartbeat CPU 0 instructions: 166000001 cycles: 386114314 heartbeat IPC: 0.486903 cumulative IPC: 0.42779 (Simulation time: 0 hr 14 min 12 sec) 
Heartbeat CPU 0 instructions: 167000002 cycles: 388128719 heartbeat IPC: 0.496425 cumulative IPC: 0.428147 (Simulation time: 0 hr 14 min 17 sec) 
Heartbeat CPU 0 instructions: 168000000 cycles: 390786292 heartbeat IPC: 0.376282 cumulative IPC: 0.427794 (Simulation time: 0 hr 14 min 22 sec) 
Heartbeat CPU 0 instructions: 169000003 cycles: 392709794 heartbeat IPC: 0.519887 cumulative IPC: 0.428245 (Simulation time: 0 hr 14 min 27 sec) 
Heartbeat CPU 0 instructions: 170000000 cycles: 395425260 heartbeat IPC: 0.36826 cumulative IPC: 0.427833 (Simulation time: 0 hr 14 min 33 sec) 
Heartbeat CPU 0 instructions: 171000001 cycles: 397361473 heartbeat IPC: 0.516473 cumulative IPC: 0.428265 (Simulation time: 0 hr 14 min 37 sec) 
Heartbeat CPU 0 instructions: 172000000 cycles: 400051211 heartbeat IPC: 0.371783 cumulative IPC: 0.427885 (Simulation time: 0 hr 14 min 43 sec) 
Heartbeat CPU 0 instructions: 173000001 cycles: 401968196 heartbeat IPC: 0.521653 cumulative IPC: 0.428333 (Simulation time: 0 hr 14 min 48 sec) 
Heartbeat CPU 0 instructions: 174000002 cycles: 404618977 heartbeat IPC: 0.377248 cumulative IPC: 0.427998 (Simulation time: 0 hr 14 min 53 sec) 
Heartbeat CPU 0 instructions: 175000003 cycles: 406547670 heartbeat IPC: 0.518486 cumulative IPC: 0.428428 (Simulation time: 0 hr 14 min 58 sec) 
Heartbeat CPU 0 instructions: 176000000 cycles: 409228995 heartbeat IPC: 0.372949 cumulative IPC: 0.428064 (Simulation time: 0 hr 15 min 3 sec) 
Heartbeat CPU 0 instructions: 177000001 cycles: 411155414 heartbeat IPC: 0.519098 cumulative IPC: 0.428491 (Simulation time: 0 hr 15 min 8 sec) 
Heartbeat CPU 0 instructions: 178000000 cycles: 413235415 heartbeat IPC: 0.480769 cumulative IPC: 0.428754 (Simulation time: 0 hr 15 min 13 sec) 
Heartbeat CPU 0 instructions: 179000001 cycles: 415765399 heartbeat IPC: 0.39526 cumulative IPC: 0.42855 (Simulation time: 0 hr 15 min 19 sec) 
Heartbeat CPU 0 instructions: 180000001 cycles: 417832683 heartbeat IPC: 0.483726 cumulative IPC: 0.428823 (Simulation time: 0 hr 15 min 24 sec) 
Heartbeat CPU 0 instructions: 181000000 cycles: 420428245 heartbeat IPC: 0.385273 cumulative IPC: 0.428554 (Simulation time: 0 hr 15 min 28 sec) 
Heartbeat CPU 0 instructions: 182000000 cycles: 422343072 heartbeat IPC: 0.52224 cumulative IPC: 0.428979 (Simulation time: 0 hr 15 min 33 sec) 
Heartbeat CPU 0 instructions: 183000000 cycles: 425037733 heartbeat IPC: 0.371104 cumulative IPC: 0.428612 (Simulation time: 0 hr 15 min 38 sec) 
Heartbeat CPU 0 instructions: 184000003 cycles: 426955469 heartbeat IPC: 0.52145 cumulative IPC: 0.429029 (Simulation time: 0 hr 15 min 42 sec) 
Heartbeat CPU 0 instructions: 185000001 cycles: 429616234 heartbeat IPC: 0.375831 cumulative IPC: 0.4287 (Simulation time: 0 hr 15 min 47 sec) 
Heartbeat CPU 0 instructions: 186000001 cycles: 431619192 heartbeat IPC: 0.499262 cumulative IPC: 0.429027 (Simulation time: 0 hr 15 min 52 sec) 
Heartbeat CPU 0 instructions: 187000000 cycles: 434175717 heartbeat IPC: 0.391156 cumulative IPC: 0.428804 (Simulation time: 0 hr 15 min 56 sec) 
Heartbeat CPU 0 instructions: 188000000 cycles: 436076406 heartbeat IPC: 0.526125 cumulative IPC: 0.429229 (Simulation time: 0 hr 16 min 1 sec) 
Heartbeat CPU 0 instructions: 189000002 cycles: 438726168 heartbeat IPC: 0.377393 cumulative IPC: 0.428915 (Simulation time: 0 hr 16 min 6 sec) 
Heartbeat CPU 0 instructions: 190000002 cycles: 440636975 heartbeat IPC: 0.523339 cumulative IPC: 0.429325 (Simulation time: 0 hr 16 min 11 sec) 
Heartbeat CPU 0 instructions: 191000002 cycles: 443323030 heartbeat IPC: 0.372293 cumulative IPC: 0.428979 (Simulation time: 0 hr 16 min 16 sec) 
Heartbeat CPU 0 instructions: 192000001 cycles: 445293276 heartbeat IPC: 0.50755 cumulative IPC: 0.429327 (Simulation time: 0 hr 16 min 21 sec) 
Heartbeat CPU 0 instructions: 193000000 cycles: 447953625 heartbeat IPC: 0.37589 cumulative IPC: 0.42901 (Simulation time: 0 hr 16 min 26 sec) 
Heartbeat CPU 0 instructions: 194000001 cycles: 449883930 heartbeat IPC: 0.518053 cumulative IPC: 0.429392 (Simulation time: 0 hr 16 min 31 sec) 
Heartbeat CPU 0 instructions: 195000001 cycles: 452511985 heartbeat IPC: 0.38051 cumulative IPC: 0.429108 (Simulation time: 0 hr 16 min 37 sec) 
Heartbeat CPU 0 instructions: 196000000 cycles: 454437643 heartbeat IPC: 0.519302 cumulative IPC: 0.429491 (Simulation time: 0 hr 16 min 42 sec) 
Heartbeat CPU 0 instructions: 197000002 cycles: 457150251 heartbeat IPC: 0.36865 cumulative IPC: 0.429129 (Simulation time: 0 hr 16 min 47 sec) 
Heartbeat CPU 0 instructions: 198000000 cycles: 459091312 heartbeat IPC: 0.515181 cumulative IPC: 0.429493 (Simulation time: 0 hr 16 min 52 sec) 
Heartbeat CPU 0 instructions: 199000000 cycles: 461774580 heartbeat IPC: 0.37268 cumulative IPC: 0.429163 (Simulation time: 0 hr 16 min 57 sec) 
Heartbeat CPU 0 instructions: 200000000 cycles: 463707137 heartbeat IPC: 0.517449 cumulative IPC: 0.429531 (Simulation time: 0 hr 17 min 2 sec) 
Heartbeat CPU 0 instructions: 201000003 cycles: 466046297 heartbeat IPC: 0.427505 cumulative IPC: 0.429521 (Simulation time: 0 hr 17 min 8 sec) 
Heartbeat CPU 0 instructions: 202000001 cycles: 468346028 heartbeat IPC: 0.434833 cumulative IPC: 0.429547 (Simulation time: 0 hr 17 min 13 sec) 
Heartbeat CPU 0 instructions: 203000001 cycles: 470360877 heartbeat IPC: 0.496315 cumulative IPC: 0.429833 (Simulation time: 0 hr 17 min 18 sec) 
Heartbeat CPU 0 instructions: 204000000 cycles: 472957882 heartbeat IPC: 0.385059 cumulative IPC: 0.429587 (Simulation time: 0 hr 17 min 23 sec) 
Heartbeat CPU 0 instructions: 205000000 cycles: 474913526 heartbeat IPC: 0.51134 cumulative IPC: 0.429924 (Simulation time: 0 hr 17 min 28 sec) 
Heartbeat CPU 0 instructions: 206000000 cycles: 477561259 heartbeat IPC: 0.377682 cumulative IPC: 0.429634 (Simulation time: 0 hr 17 min 33 sec) 
Heartbeat CPU 0 instructions: 207000003 cycles: 479443446 heartbeat IPC: 0.531298 cumulative IPC: 0.430034 (Simulation time: 0 hr 17 min 38 sec) 
Heartbeat CPU 0 instructions: 208000000 cycles: 482104945 heartbeat IPC: 0.375727 cumulative IPC: 0.429734 (Simulation time: 0 hr 17 min 43 sec) 
Heartbeat CPU 0 instructions: 209000000 cycles: 483992994 heartbeat IPC: 0.529647 cumulative IPC: 0.430124 (Simulation time: 0 hr 17 min 47 sec) 
Heartbeat CPU 0 instructions: 210000003 cycles: 486653546 heartbeat IPC: 0.375863 cumulative IPC: 0.429827 (Simulation time: 0 hr 17 min 52 sec) 
Heartbeat CPU 0 instructions: 211000000 cycles: 488544987 heartbeat IPC: 0.528696 cumulative IPC: 0.43021 (Simulation time: 0 hr 17 min 57 sec) 
Heartbeat CPU 0 instructions: 212000001 cycles: 491206977 heartbeat IPC: 0.375659 cumulative IPC: 0.429914 (Simulation time: 0 hr 18 min 2 sec) 
Heartbeat CPU 0 instructions: 213000002 cycles: 493157412 heartbeat IPC: 0.512707 cumulative IPC: 0.430242 (Simulation time: 0 hr 18 min 6 sec) 
Heartbeat CPU 0 instructions: 214000003 cycles: 495470050 heartbeat IPC: 0.432407 cumulative IPC: 0.430252 (Simulation time: 0 hr 18 min 11 sec) 
Heartbeat CPU 0 instructions: 215000002 cycles: 497687508 heartbeat IPC: 0.450966 cumulative IPC: 0.430344 (Simulation time: 0 hr 18 min 16 sec) 
Heartbeat CPU 0 instructions: 216000000 cycles: 499630912 heartbeat IPC: 0.51456 cumulative IPC: 0.430672 (Simulation time: 0 hr 18 min 21 sec) 
Heartbeat CPU 0 instructions: 217000000 cycles: 502366299 heartbeat IPC: 0.365579 cumulative IPC: 0.430317 (Simulation time: 0 hr 18 min 26 sec) 
Heartbeat CPU 0 instructions: 218000001 cycles: 504301134 heartbeat IPC: 0.51684 cumulative IPC: 0.43065 (Simulation time: 0 hr 18 min 31 sec) 
Heartbeat CPU 0 instructions: 219000000 cycles: 507000903 heartbeat IPC: 0.370402 cumulative IPC: 0.430329 (Simulation time: 0 hr 18 min 36 sec) 
Heartbeat CPU 0 instructions: 220000000 cycles: 508946718 heartbeat IPC: 0.513923 cumulative IPC: 0.430649 (Simulation time: 0 hr 18 min 41 sec) 
Heartbeat CPU 0 instructions: 221000001 cycles: 511575666 heartbeat IPC: 0.380381 cumulative IPC: 0.43039 (Simulation time: 0 hr 18 min 46 sec) 
Heartbeat CPU 0 instructions: 222000000 cycles: 513490059 heartbeat IPC: 0.522358 cumulative IPC: 0.430733 (Simulation time: 0 hr 18 min 50 sec) 
Heartbeat CPU 0 instructions: 223000001 cycles: 516121069 heartbeat IPC: 0.380083 cumulative IPC: 0.430475 (Simulation time: 0 hr 18 min 55 sec) 
Heartbeat CPU 0 instructions: 224000001 cycles: 518004636 heartbeat IPC: 0.530908 cumulative IPC: 0.43084 (Simulation time: 0 hr 19 min 0 sec) 
Heartbeat CPU 0 instructions: 225000000 cycles: 520736240 heartbeat IPC: 0.366085 cumulative IPC: 0.4305 (Simulation time: 0 hr 19 min 6 sec) 
Heartbeat CPU 0 instructions: 226000000 cycles: 523523812 heartbeat IPC: 0.358735 cumulative IPC: 0.430118 (Simulation time: 0 hr 19 min 11 sec) 
Heartbeat CPU 0 instructions: 227000003 cycles: 525482825 heartbeat IPC: 0.510463 cumulative IPC: 0.430418 (Simulation time: 0 hr 19 min 15 sec) 
Heartbeat CPU 0 instructions: 228000002 cycles: 528234911 heartbeat IPC: 0.36336 cumulative IPC: 0.430068 (Simulation time: 0 hr 19 min 20 sec) 
Heartbeat CPU 0 instructions: 229000001 cycles: 530195891 heartbeat IPC: 0.509949 cumulative IPC: 0.430364 (Simulation time: 0 hr 19 min 25 sec) 
Heartbeat CPU 0 instructions: 230000000 cycles: 532736480 heartbeat IPC: 0.393609 cumulative IPC: 0.430188 (Simulation time: 0 hr 19 min 30 sec) 
Heartbeat CPU 0 instructions: 231000000 cycles: 534857193 heartbeat IPC: 0.47154 cumulative IPC: 0.430352 (Simulation time: 0 hr 19 min 35 sec) 
Heartbeat CPU 0 instructions: 232000001 cycles: 536807191 heartbeat IPC: 0.512822 cumulative IPC: 0.430652 (Simulation time: 0 hr 19 min 39 sec) 
Heartbeat CPU 0 instructions: 233000001 cycles: 539549805 heartbeat IPC: 0.364616 cumulative IPC: 0.430316 (Simulation time: 0 hr 19 min 45 sec) 
Heartbeat CPU 0 instructions: 234000001 cycles: 541474894 heartbeat IPC: 0.519457 cumulative IPC: 0.430633 (Simulation time: 0 hr 19 min 49 sec) 
Heartbeat CPU 0 instructions: 235000003 cycles: 543429109 heartbeat IPC: 0.511715 cumulative IPC: 0.430925 (Simulation time: 0 hr 19 min 54 sec) 
Heartbeat CPU 0 instructions: 236000001 cycles: 546238489 heartbeat IPC: 0.35595 cumulative IPC: 0.430539 (Simulation time: 0 hr 20 min 0 sec) 
Heartbeat CPU 0 instructions: 237000001 cycles: 548202686 heartbeat IPC: 0.509114 cumulative IPC: 0.430821 (Simulation time: 0 hr 20 min 5 sec) 
Heartbeat CPU 0 instructions: 238000003 cycles: 550934824 heartbeat IPC: 0.366014 cumulative IPC: 0.430499 (Simulation time: 0 hr 20 min 10 sec) 
Heartbeat CPU 0 instructions: 239000001 cycles: 552900115 heartbeat IPC: 0.508829 cumulative IPC: 0.430778 (Simulation time: 0 hr 20 min 15 sec) 
Heartbeat CPU 0 instructions: 240000000 cycles: 554819316 heartbeat IPC: 0.52105 cumulative IPC: 0.43109 (Simulation time: 0 hr 20 min 20 sec) 
Heartbeat CPU 0 instructions: 241000000 cycles: 557565384 heartbeat IPC: 0.364157 cumulative IPC: 0.430761 (Simulation time: 0 hr 20 min 26 sec) 
Heartbeat CPU 0 instructions: 242000000 cycles: 559520963 heartbeat IPC: 0.511357 cumulative IPC: 0.431042 (Simulation time: 0 hr 20 min 30 sec) 
Heartbeat CPU 0 instructions: 243000002 cycles: 561693032 heartbeat IPC: 0.460391 cumulative IPC: 0.431156 (Simulation time: 0 hr 20 min 35 sec) 
Heartbeat CPU 0 instructions: 244000000 cycles: 564223253 heartbeat IPC: 0.395222 cumulative IPC: 0.430995 (Simulation time: 0 hr 20 min 40 sec) 
Heartbeat CPU 0 instructions: 245000001 cycles: 566161814 heartbeat IPC: 0.515847 cumulative IPC: 0.431286 (Simulation time: 0 hr 20 min 45 sec) 
Heartbeat CPU 0 instructions: 246000003 cycles: 568875107 heartbeat IPC: 0.368557 cumulative IPC: 0.430986 (Simulation time: 0 hr 20 min 51 sec) 
Heartbeat CPU 0 instructions: 247000000 cycles: 570841891 heartbeat IPC: 0.508443 cumulative IPC: 0.431253 (Simulation time: 0 hr 20 min 55 sec) 
Heartbeat CPU 0 instructions: 248000000 cycles: 572837456 heartbeat IPC: 0.501111 cumulative IPC: 0.431497 (Simulation time: 0 hr 21 min 0 sec) 
Heartbeat CPU 0 instructions: 249000001 cycles: 575536485 heartbeat IPC: 0.370504 cumulative IPC: 0.43121 (Simulation time: 0 hr 21 min 6 sec) 
Heartbeat CPU 0 instructions: 250000001 cycles: 577484009 heartbeat IPC: 0.513472 cumulative IPC: 0.431488 (Simulation time: 0 hr 21 min 10 sec) 
Heartbeat CPU 0 instructions: 251000003 cycles: 579704536 heartbeat IPC: 0.450344 cumulative IPC: 0.43156 (Simulation time: 0 hr 21 min 15 sec) 
Heartbeat CPU 0 instructions: 252000001 cycles: 582174595 heartbeat IPC: 0.404848 cumulative IPC: 0.431447 (Simulation time: 0 hr 21 min 21 sec) 
Heartbeat CPU 0 instructions: 253000000 cycles: 584109826 heartbeat IPC: 0.516734 cumulative IPC: 0.43173 (Simulation time: 0 hr 21 min 25 sec) 
Heartbeat CPU 0 instructions: 254000000 cycles: 586842165 heartbeat IPC: 0.365987 cumulative IPC: 0.431423 (Simulation time: 0 hr 21 min 31 sec) 
Heartbeat CPU 0 instructions: 255000000 cycles: 588801513 heartbeat IPC: 0.510374 cumulative IPC: 0.431686 (Simulation time: 0 hr 21 min 36 sec) 
Heartbeat CPU 0 instructions: 256000001 cycles: 590749999 heartbeat IPC: 0.513219 cumulative IPC: 0.431955 (Simulation time: 0 hr 21 min 41 sec) 
Heartbeat CPU 0 instructions: 257000001 cycles: 593513272 heartbeat IPC: 0.36189 cumulative IPC: 0.431629 (Simulation time: 0 hr 21 min 46 sec) 
Heartbeat CPU 0 instructions: 258000001 cycles: 595494047 heartbeat IPC: 0.504853 cumulative IPC: 0.431873 (Simulation time: 0 hr 21 min 51 sec) 
Heartbeat CPU 0 instructions: 259000000 cycles: 597893156 heartbeat IPC: 0.416821 cumulative IPC: 0.431812 (Simulation time: 0 hr 21 min 56 sec) 
Heartbeat CPU 0 instructions: 260000002 cycles: 600247816 heartbeat IPC: 0.424691 cumulative IPC: 0.431784 (Simulation time: 0 hr 22 min 1 sec) 
Heartbeat CPU 0 instructions: 261000002 cycles: 602189181 heartbeat IPC: 0.515101 cumulative IPC: 0.432053 (Simulation time: 0 hr 22 min 6 sec) 
Heartbeat CPU 0 instructions: 262000000 cycles: 604995250 heartbeat IPC: 0.35637 cumulative IPC: 0.431702 (Simulation time: 0 hr 22 min 11 sec) 
Heartbeat CPU 0 instructions: 263000003 cycles: 606940324 heartbeat IPC: 0.514121 cumulative IPC: 0.431966 (Simulation time: 0 hr 22 min 16 sec) 
Heartbeat CPU 0 instructions: 264000000 cycles: 609089822 heartbeat IPC: 0.465224 cumulative IPC: 0.432084 (Simulation time: 0 hr 22 min 21 sec) 
Heartbeat CPU 0 instructions: 265000000 cycles: 611607521 heartbeat IPC: 0.397188 cumulative IPC: 0.43194 (Simulation time: 0 hr 22 min 26 sec) 
Heartbeat CPU 0 instructions: 266000003 cycles: 613592773 heartbeat IPC: 0.503716 cumulative IPC: 0.432172 (Simulation time: 0 hr 22 min 31 sec) 
Heartbeat CPU 0 instructions: 267000000 cycles: 616327652 heartbeat IPC: 0.365646 cumulative IPC: 0.431877 (Simulation time: 0 hr 22 min 36 sec) 
Heartbeat CPU 0 instructions: 268000001 cycles: 618259829 heartbeat IPC: 0.517551 cumulative IPC: 0.432145 (Simulation time: 0 hr 22 min 41 sec) 
Heartbeat CPU 0 instructions: 269000000 cycles: 620191399 heartbeat IPC: 0.517713 cumulative IPC: 0.432411 (Simulation time: 0 hr 22 min 46 sec) 
Heartbeat CPU 0 instructions: 270000000 cycles: 622933086 heartbeat IPC: 0.364739 cumulative IPC: 0.432113 (Simulation time: 0 hr 22 min 52 sec) 
Heartbeat CPU 0 instructions: 271000000 cycles: 624899455 heartbeat IPC: 0.508552 cumulative IPC: 0.432354 (Simulation time: 0 hr 22 min 56 sec) 
Heartbeat CPU 0 instructions: 272000002 cycles: 627438751 heartbeat IPC: 0.393811 cumulative IPC: 0.432198 (Simulation time: 0 hr 23 min 2 sec) 
Heartbeat CPU 0 instructions: 273000001 cycles: 629576734 heartbeat IPC: 0.46773 cumulative IPC: 0.432319 (Simulation time: 0 hr 23 min 7 sec) 
Heartbeat CPU 0 instructions: 274000000 cycles: 631529153 heartbeat IPC: 0.512185 cumulative IPC: 0.432566 (Simulation time: 0 hr 23 min 11 sec) 
Heartbeat CPU 0 instructions: 275000000 cycles: 634293843 heartbeat IPC: 0.361704 cumulative IPC: 0.432257 (Simulation time: 0 hr 23 min 17 sec) 
Heartbeat CPU 0 instructions: 276000000 cycles: 636217241 heartbeat IPC: 0.519913 cumulative IPC: 0.432522 (Simulation time: 0 hr 23 min 22 sec) 
Heartbeat CPU 0 instructions: 277000001 cycles: 638316145 heartbeat IPC: 0.47644 cumulative IPC: 0.432666 (Simulation time: 0 hr 23 min 26 sec) 
Heartbeat CPU 0 instructions: 278000000 cycles: 640939232 heartbeat IPC: 0.38123 cumulative IPC: 0.432456 (Simulation time: 0 hr 23 min 32 sec) 
Heartbeat CPU 0 instructions: 279000003 cycles: 642881095 heartbeat IPC: 0.514971 cumulative IPC: 0.432705 (Simulation time: 0 hr 23 min 36 sec) 
Heartbeat CPU 0 instructions: 280000001 cycles: 645618839 heartbeat IPC: 0.365264 cumulative IPC: 0.432419 (Simulation time: 0 hr 23 min 42 sec) 
Heartbeat CPU 0 instructions: 281000001 cycles: 647589299 heartbeat IPC: 0.507496 cumulative IPC: 0.432648 (Simulation time: 0 hr 23 min 47 sec) 
Heartbeat CPU 0 instructions: 282000003 cycles: 649542854 heartbeat IPC: 0.511888 cumulative IPC: 0.432886 (Simulation time: 0 hr 23 min 51 sec) 
Heartbeat CPU 0 instructions: 283000001 cycles: 652297461 heartbeat IPC: 0.363027 cumulative IPC: 0.432591 (Simulation time: 0 hr 23 min 57 sec) 
Heartbeat CPU 0 instructions: 284000000 cycles: 654267498 heartbeat IPC: 0.507604 cumulative IPC: 0.432817 (Simulation time: 0 hr 24 min 2 sec) 
Heartbeat CPU 0 instructions: 285000002 cycles: 656452556 heartbeat IPC: 0.457655 cumulative IPC: 0.4329 (Simulation time: 0 hr 24 min 7 sec) 
Heartbeat CPU 0 instructions: 286000000 cycles: 658975718 heartbeat IPC: 0.396327 cumulative IPC: 0.432759 (Simulation time: 0 hr 24 min 12 sec) 
Heartbeat CPU 0 instructions: 287000003 cycles: 660942615 heartbeat IPC: 0.508417 cumulative IPC: 0.432985 (Simulation time: 0 hr 24 min 17 sec) 
Heartbeat CPU 0 instructions: 288000000 cycles: 663592235 heartbeat IPC: 0.377411 cumulative IPC: 0.432763 (Simulation time: 0 hr 24 min 22 sec) 
Heartbeat CPU 0 instructions: 289000002 cycles: 665691407 heartbeat IPC: 0.476379 cumulative IPC: 0.4329 (Simulation time: 0 hr 24 min 27 sec) 
Heartbeat CPU 0 instructions: 290000001 cycles: 667633500 heartbeat IPC: 0.514908 cumulative IPC: 0.433139 (Simulation time: 0 hr 24 min 31 sec) 
Heartbeat CPU 0 instructions: 291000000 cycles: 670398699 heartbeat IPC: 0.361637 cumulative IPC: 0.432844 (Simulation time: 0 hr 24 min 37 sec) 
Heartbeat CPU 0 instructions: 292000001 cycles: 672317594 heartbeat IPC: 0.521134 cumulative IPC: 0.433096 (Simulation time: 0 hr 24 min 42 sec) 
Heartbeat CPU 0 instructions: 293000000 cycles: 675130335 heartbeat IPC: 0.355525 cumulative IPC: 0.432773 (Simulation time: 0 hr 24 min 47 sec) 
Heartbeat CPU 0 instructions: 294000001 cycles: 677458522 heartbeat IPC: 0.429519 cumulative IPC: 0.432762 (Simulation time: 0 hr 24 min 52 sec) 
Heartbeat CPU 0 instructions: 295000001 cycles: 679742340 heartbeat IPC: 0.437863 cumulative IPC: 0.432779 (Simulation time: 0 hr 24 min 58 sec) 
Heartbeat CPU 0 instructions: 296000001 cycles: 681634816 heartbeat IPC: 0.528408 cumulative IPC: 0.433044 (Simulation time: 0 hr 25 min 3 sec) 
Heartbeat CPU 0 instructions: 297000000 cycles: 683518399 heartbeat IPC: 0.530903 cumulative IPC: 0.433314 (Simulation time: 0 hr 25 min 7 sec) 
Heartbeat CPU 0 instructions: 298000003 cycles: 685559686 heartbeat IPC: 0.489888 cumulative IPC: 0.433483 (Simulation time: 0 hr 25 min 13 sec) 
Heartbeat CPU 0 instructions: 299000001 cycles: 688077790 heartbeat IPC: 0.397123 cumulative IPC: 0.43335 (Simulation time: 0 hr 25 min 18 sec) 
Heartbeat CPU 0 instructions: 300000000 cycles: 689976248 heartbeat IPC: 0.526743 cumulative IPC: 0.433607 (Simulation time: 0 hr 25 min 23 sec) 
Heartbeat CPU 0 instructions: 301000001 cycles: 691888563 heartbeat IPC: 0.522927 cumulative IPC: 0.433854 (Simulation time: 0 hr 25 min 28 sec) 
Heartbeat CPU 0 instructions: 302000000 cycles: 693804451 heartbeat IPC: 0.521951 cumulative IPC: 0.434097 (Simulation time: 0 hr 25 min 32 sec) 
Heartbeat CPU 0 instructions: 303000000 cycles: 696473938 heartbeat IPC: 0.374604 cumulative IPC: 0.433869 (Simulation time: 0 hr 25 min 38 sec) 
Heartbeat CPU 0 instructions: 304000000 cycles: 698348613 heartbeat IPC: 0.533426 cumulative IPC: 0.434136 (Simulation time: 0 hr 25 min 43 sec) 
Heartbeat CPU 0 instructions: 305000000 cycles: 700256718 heartbeat IPC: 0.52408 cumulative IPC: 0.434382 (Simulation time: 0 hr 25 min 47 sec) 
Heartbeat CPU 0 instructions: 306000002 cycles: 702190175 heartbeat IPC: 0.517209 cumulative IPC: 0.43461 (Simulation time: 0 hr 25 min 52 sec) 
Heartbeat CPU 0 instructions: 307000000 cycles: 704675161 heartbeat IPC: 0.402416 cumulative IPC: 0.434496 (Simulation time: 0 hr 25 min 57 sec) 
Heartbeat CPU 0 instructions: 308000000 cycles: 706733321 heartbeat IPC: 0.485871 cumulative IPC: 0.434646 (Simulation time: 0 hr 26 min 2 sec) 
Heartbeat CPU 0 instructions: 309000000 cycles: 708631492 heartbeat IPC: 0.526823 cumulative IPC: 0.434893 (Simulation time: 0 hr 26 min 7 sec) 
Heartbeat CPU 0 instructions: 310000002 cycles: 710537380 heartbeat IPC: 0.524691 cumulative IPC: 0.435134 (Simulation time: 0 hr 26 min 12 sec) 
Heartbeat CPU 0 instructions: 311000002 cycles: 712614692 heartbeat IPC: 0.481391 cumulative IPC: 0.435269 (Simulation time: 0 hr 26 min 17 sec) 
Heartbeat CPU 0 instructions: 312000001 cycles: 715291695 heartbeat IPC: 0.373552 cumulative IPC: 0.435038 (Simulation time: 0 hr 26 min 22 sec) 
Heartbeat CPU 0 instructions: 313000002 cycles: 717216906 heartbeat IPC: 0.519424 cumulative IPC: 0.435264 (Simulation time: 0 hr 26 min 27 sec) 
Heartbeat CPU 0 instructions: 314000002 cycles: 719158356 heartbeat IPC: 0.515079 cumulative IPC: 0.43548 (Simulation time: 0 hr 26 min 32 sec) 
Heartbeat CPU 0 instructions: 315000002 cycles: 721801927 heartbeat IPC: 0.378276 cumulative IPC: 0.43527 (Simulation time: 0 hr 26 min 37 sec) 
Heartbeat CPU 0 instructions: 316000001 cycles: 723766189 heartbeat IPC: 0.509097 cumulative IPC: 0.435471 (Simulation time: 0 hr 26 min 42 sec) 
Heartbeat CPU 0 instructions: 317000000 cycles: 725655387 heartbeat IPC: 0.529325 cumulative IPC: 0.435715 (Simulation time: 0 hr 26 min 47 sec) 
Heartbeat CPU 0 instructions: 318000002 cycles: 727582225 heartbeat IPC: 0.518986 cumulative IPC: 0.435936 (Simulation time: 0 hr 26 min 52 sec) 
Heartbeat CPU 0 instructions: 319000000 cycles: 730219605 heartbeat IPC: 0.379163 cumulative IPC: 0.435731 (Simulation time: 0 hr 26 min 57 sec) 
Heartbeat CPU 0 instructions: 320000001 cycles: 732134565 heartbeat IPC: 0.522205 cumulative IPC: 0.435957 (Simulation time: 0 hr 27 min 2 sec) 
Heartbeat CPU 0 instructions: 321000003 cycles: 734055809 heartbeat IPC: 0.520497 cumulative IPC: 0.436179 (Simulation time: 0 hr 27 min 7 sec) 
Heartbeat CPU 0 instructions: 322000000 cycles: 736724762 heartbeat IPC: 0.374678 cumulative IPC: 0.435956 (Simulation time: 0 hr 27 min 12 sec) 
Heartbeat CPU 0 instructions: 323000001 cycles: 738600071 heartbeat IPC: 0.533246 cumulative IPC: 0.436203 (Simulation time: 0 hr 27 min 17 sec) 
Heartbeat CPU 0 instructions: 324000000 cycles: 740501244 heartbeat IPC: 0.525991 cumulative IPC: 0.436433 (Simulation time: 0 hr 27 min 21 sec) 
Heartbeat CPU 0 instructions: 325000000 cycles: 742468701 heartbeat IPC: 0.50827 cumulative IPC: 0.436624 (Simulation time: 0 hr 27 min 26 sec) 
Heartbeat CPU 0 instructions: 326000000 cycles: 745019411 heartbeat IPC: 0.392048 cumulative IPC: 0.436471 (Simulation time: 0 hr 27 min 32 sec) 
Heartbeat CPU 0 instructions: 327000001 cycles: 746909346 heartbeat IPC: 0.529119 cumulative IPC: 0.436706 (Simulation time: 0 hr 27 min 36 sec) 
Heartbeat CPU 0 instructions: 328000003 cycles: 748827523 heartbeat IPC: 0.521329 cumulative IPC: 0.436923 (Simulation time: 0 hr 27 min 41 sec) 
Heartbeat CPU 0 instructions: 329000001 cycles: 751453014 heartbeat IPC: 0.38088 cumulative IPC: 0.436727 (Simulation time: 0 hr 27 min 46 sec) 
Heartbeat CPU 0 instructions: 330000000 cycles: 753404156 heartbeat IPC: 0.51252 cumulative IPC: 0.436923 (Simulation time: 0 hr 27 min 51 sec) 
Heartbeat CPU 0 instructions: 331000001 cycles: 755276854 heartbeat IPC: 0.533989 cumulative IPC: 0.437164 (Simulation time: 0 hr 27 min 56 sec) 
Heartbeat CPU 0 instructions: 332000002 cycles: 757161049 heartbeat IPC: 0.530731 cumulative IPC: 0.437397 (Simulation time: 0 hr 28 min 0 sec) 
Heartbeat CPU 0 instructions: 333000000 cycles: 759787078 heartbeat IPC: 0.380802 cumulative IPC: 0.437201 (Simulation time: 0 hr 28 min 6 sec) 
Heartbeat CPU 0 instructions: 334000002 cycles: 761690960 heartbeat IPC: 0.525244 cumulative IPC: 0.437421 (Simulation time: 0 hr 28 min 10 sec) 
Heartbeat CPU 0 instructions: 335000001 cycles: 763615568 heartbeat IPC: 0.519586 cumulative IPC: 0.437629 (Simulation time: 0 hr 28 min 15 sec) 
Heartbeat CPU 0 instructions: 336000001 cycles: 765945758 heartbeat IPC: 0.42915 cumulative IPC: 0.437603 (Simulation time: 0 hr 28 min 20 sec) 
Heartbeat CPU 0 instructions: 337000002 cycles: 768147495 heartbeat IPC: 0.454187 cumulative IPC: 0.43765 (Simulation time: 0 hr 28 min 26 sec) 
Heartbeat CPU 0 instructions: 338000000 cycles: 770038985 heartbeat IPC: 0.528683 cumulative IPC: 0.437874 (Simulation time: 0 hr 28 min 31 sec) 
Heartbeat CPU 0 instructions: 339000002 cycles: 771945651 heartbeat IPC: 0.524477 cumulative IPC: 0.438088 (Simulation time: 0 hr 28 min 35 sec) 
Heartbeat CPU 0 instructions: 340000003 cycles: 774597534 heartbeat IPC: 0.377091 cumulative IPC: 0.437879 (Simulation time: 0 hr 28 min 41 sec) 
Heartbeat CPU 0 instructions: 341000000 cycles: 776465412 heartbeat IPC: 0.535365 cumulative IPC: 0.438114 (Simulation time: 0 hr 28 min 46 sec) 
Heartbeat CPU 0 instructions: 342000003 cycles: 778385531 heartbeat IPC: 0.520803 cumulative IPC: 0.438318 (Simulation time: 0 hr 28 min 51 sec) 
Heartbeat CPU 0 instructions: 343000003 cycles: 780635891 heartbeat IPC: 0.444373 cumulative IPC: 0.438335 (Simulation time: 0 hr 28 min 56 sec) 
Heartbeat CPU 0 instructions: 344000001 cycles: 782909752 heartbeat IPC: 0.43978 cumulative IPC: 0.43834 (Simulation time: 0 hr 29 min 2 sec) 
Heartbeat CPU 0 instructions: 345000001 cycles: 784784182 heartbeat IPC: 0.533496 cumulative IPC: 0.438567 (Simulation time: 0 hr 29 min 7 sec) 
Heartbeat CPU 0 instructions: 346000000 cycles: 786698740 heartbeat IPC: 0.522313 cumulative IPC: 0.438771 (Simulation time: 0 hr 29 min 12 sec) 
Heartbeat CPU 0 instructions: 347000001 cycles: 789364700 heartbeat IPC: 0.3751 cumulative IPC: 0.438556 (Simulation time: 0 hr 29 min 17 sec) 
Heartbeat CPU 0 instructions: 348000000 cycles: 791244492 heartbeat IPC: 0.531973 cumulative IPC: 0.438778 (Simulation time: 0 hr 29 min 22 sec) 
Heartbeat CPU 0 instructions: 349000002 cycles: 793133960 heartbeat IPC: 0.529251 cumulative IPC: 0.438993 (Simulation time: 0 hr 29 min 27 sec) 
Heartbeat CPU 0 instructions: 350000002 cycles: 795761350 heartbeat IPC: 0.380606 cumulative IPC: 0.438801 (Simulation time: 0 hr 29 min 33 sec) 
Heartbeat CPU 0 instructions: 351000000 cycles: 797649135 heartbeat IPC: 0.52972 cumulative IPC: 0.439016 (Simulation time: 0 hr 29 min 38 sec) 
Heartbeat CPU 0 instructions: 352000000 cycles: 799520774 heartbeat IPC: 0.534291 cumulative IPC: 0.439239 (Simulation time: 0 hr 29 min 43 sec) 
Heartbeat CPU 0 instructions: 353000000 cycles: 801476788 heartbeat IPC: 0.511244 cumulative IPC: 0.439415 (Simulation time: 0 hr 29 min 48 sec) 
Heartbeat CPU 0 instructions: 354000000 cycles: 804039567 heartbeat IPC: 0.390201 cumulative IPC: 0.439258 (Simulation time: 0 hr 29 min 53 sec) 
Heartbeat CPU 0 instructions: 355000000 cycles: 805915811 heartbeat IPC: 0.53298 cumulative IPC: 0.439476 (Simulation time: 0 hr 29 min 57 sec) 
Heartbeat CPU 0 instructions: 356000002 cycles: 807841836 heartbeat IPC: 0.519205 cumulative IPC: 0.439666 (Simulation time: 0 hr 30 min 2 sec) 
Heartbeat CPU 0 instructions: 357000000 cycles: 810498891 heartbeat IPC: 0.376356 cumulative IPC: 0.439459 (Simulation time: 0 hr 30 min 7 sec) 
Heartbeat CPU 0 instructions: 358000000 cycles: 812377540 heartbeat IPC: 0.532297 cumulative IPC: 0.439673 (Simulation time: 0 hr 30 min 12 sec) 
Heartbeat CPU 0 instructions: 359000000 cycles: 814296837 heartbeat IPC: 0.521024 cumulative IPC: 0.439865 (Simulation time: 0 hr 30 min 16 sec) 
Heartbeat CPU 0 instructions: 360000001 cycles: 816575023 heartbeat IPC: 0.438946 cumulative IPC: 0.439863 (Simulation time: 0 hr 30 min 22 sec) 
Heartbeat CPU 0 instructions: 361000001 cycles: 818826436 heartbeat IPC: 0.444165 cumulative IPC: 0.439875 (Simulation time: 0 hr 30 min 27 sec) 
Heartbeat CPU 0 instructions: 362000000 cycles: 820734727 heartbeat IPC: 0.524029 cumulative IPC: 0.44007 (Simulation time: 0 hr 30 min 32 sec) 
Heartbeat CPU 0 instructions: 363000000 cycles: 822643151 heartbeat IPC: 0.523993 cumulative IPC: 0.440265 (Simulation time: 0 hr 30 min 37 sec) 
Heartbeat CPU 0 instructions: 364000001 cycles: 825318917 heartbeat IPC: 0.373725 cumulative IPC: 0.440049 (Simulation time: 0 hr 30 min 42 sec) 
Heartbeat CPU 0 instructions: 365000002 cycles: 827204949 heartbeat IPC: 0.530214 cumulative IPC: 0.440255 (Simulation time: 0 hr 30 min 47 sec) 
Heartbeat CPU 0 instructions: 366000002 cycles: 829112944 heartbeat IPC: 0.52411 cumulative IPC: 0.440448 (Simulation time: 0 hr 30 min 52 sec) 
Heartbeat CPU 0 instructions: 367000000 cycles: 831384800 heartbeat IPC: 0.440168 cumulative IPC: 0.440447 (Simulation time: 0 hr 30 min 57 sec) 
Heartbeat CPU 0 instructions: 368000003 cycles: 833674145 heartbeat IPC: 0.436807 cumulative IPC: 0.440437 (Simulation time: 0 hr 31 min 3 sec) 
Heartbeat CPU 0 instructions: 369000003 cycles: 835563581 heartbeat IPC: 0.529258 cumulative IPC: 0.440638 (Simulation time: 0 hr 31 min 8 sec) 
Heartbeat CPU 0 instructions: 370000002 cycles: 837480707 heartbeat IPC: 0.521614 cumulative IPC: 0.440824 (Simulation time: 0 hr 31 min 13 sec) 
Heartbeat CPU 0 instructions: 371000003 cycles: 840122703 heartbeat IPC: 0.378502 cumulative IPC: 0.440628 (Simulation time: 0 hr 31 min 18 sec) 
Heartbeat CPU 0 instructions: 372000000 cycles: 842023292 heartbeat IPC: 0.526151 cumulative IPC: 0.440821 (Simulation time: 0 hr 31 min 23 sec) 
Heartbeat CPU 0 instructions: 373000000 cycles: 843933042 heartbeat IPC: 0.523629 cumulative IPC: 0.441008 (Simulation time: 0 hr 31 min 28 sec) 
Heartbeat CPU 0 instructions: 374000000 cycles: 846055164 heartbeat IPC: 0.471226 cumulative IPC: 0.441084 (Simulation time: 0 hr 31 min 33 sec) 
Heartbeat CPU 0 instructions: 375000000 cycles: 848457412 heartbeat IPC: 0.416277 cumulative IPC: 0.441014 (Simulation time: 0 hr 31 min 38 sec) 
Heartbeat CPU 0 instructions: 376000000 cycles: 850349208 heartbeat IPC: 0.528598 cumulative IPC: 0.441209 (Simulation time: 0 hr 31 min 43 sec) 
Heartbeat CPU 0 instructions: 377000003 cycles: 852256204 heartbeat IPC: 0.524387 cumulative IPC: 0.441395 (Simulation time: 0 hr 31 min 48 sec) 
Heartbeat CPU 0 instructions: 378000002 cycles: 854898053 heartbeat IPC: 0.378522 cumulative IPC: 0.441201 (Simulation time: 0 hr 31 min 54 sec) 
Heartbeat CPU 0 instructions: 379000001 cycles: 856809767 heartbeat IPC: 0.52309 cumulative IPC: 0.441383 (Simulation time: 0 hr 31 min 59 sec) 
Heartbeat CPU 0 instructions: 380000000 cycles: 858715762 heartbeat IPC: 0.52466 cumulative IPC: 0.441568 (Simulation time: 0 hr 32 min 4 sec) 
Heartbeat CPU 0 instructions: 381000001 cycles: 860853854 heartbeat IPC: 0.467707 cumulative IPC: 0.441633 (Simulation time: 0 hr 32 min 9 sec) 
Heartbeat CPU 0 instructions: 382000000 cycles: 863276414 heartbeat IPC: 0.412786 cumulative IPC: 0.441552 (Simulation time: 0 hr 32 min 14 sec) 
Heartbeat CPU 0 instructions: 383000002 cycles: 865187593 heartbeat IPC: 0.523238 cumulative IPC: 0.441733 (Simulation time: 0 hr 32 min 19 sec) 
Heartbeat CPU 0 instructions: 384000002 cycles: 867080619 heartbeat IPC: 0.528255 cumulative IPC: 0.441922 (Simulation time: 0 hr 32 min 24 sec) 
Heartbeat CPU 0 instructions: 385000000 cycles: 869729395 heartbeat IPC: 0.377532 cumulative IPC: 0.441726 (Simulation time: 0 hr 32 min 29 sec) 
Heartbeat CPU 0 instructions: 386000000 cycles: 871608402 heartbeat IPC: 0.532196 cumulative IPC: 0.441921 (Simulation time: 0 hr 32 min 34 sec) 
Heartbeat CPU 0 instructions: 387000000 cycles: 873513715 heartbeat IPC: 0.524848 cumulative IPC: 0.442102 (Simulation time: 0 hr 32 min 39 sec) 
Heartbeat CPU 0 instructions: 388000002 cycles: 875405092 heartbeat IPC: 0.528716 cumulative IPC: 0.442289 (Simulation time: 0 hr 32 min 44 sec) 
Heartbeat CPU 0 instructions: 389000002 cycles: 878031747 heartbeat IPC: 0.380712 cumulative IPC: 0.442105 (Simulation time: 0 hr 32 min 50 sec) 
Heartbeat CPU 0 instructions: 390000000 cycles: 879921519 heartbeat IPC: 0.529163 cumulative IPC: 0.442292 (Simulation time: 0 hr 32 min 55 sec) 
Heartbeat CPU 0 instructions: 391000000 cycles: 881844994 heartbeat IPC: 0.519892 cumulative IPC: 0.442461 (Simulation time: 0 hr 33 min 0 sec) 
Heartbeat CPU 0 instructions: 392000000 cycles: 884514919 heartbeat IPC: 0.374542 cumulative IPC: 0.442256 (Simulation time: 0 hr 33 min 5 sec) 
Heartbeat CPU 0 instructions: 393000000 cycles: 886398840 heartbeat IPC: 0.530808 cumulative IPC: 0.442444 (Simulation time: 0 hr 33 min 10 sec) 
Heartbeat CPU 0 instructions: 394000001 cycles: 888261661 heartbeat IPC: 0.536821 cumulative IPC: 0.442642 (Simulation time: 0 hr 33 min 15 sec) 
Heartbeat CPU 0 instructions: 395000003 cycles: 890529563 heartbeat IPC: 0.440937 cumulative IPC: 0.442638 (Simulation time: 0 hr 33 min 20 sec) 
Heartbeat CPU 0 instructions: 396000000 cycles: 892776363 heartbeat IPC: 0.445076 cumulative IPC: 0.442644 (Simulation time: 0 hr 33 min 26 sec) 
Heartbeat CPU 0 instructions: 397000002 cycles: 894659901 heartbeat IPC: 0.530917 cumulative IPC: 0.44283 (Simulation time: 0 hr 33 min 31 sec) 
Heartbeat CPU 0 instructions: 398000002 cycles: 896539086 heartbeat IPC: 0.532146 cumulative IPC: 0.443017 (Simulation time: 0 hr 33 min 36 sec) 
Heartbeat CPU 0 instructions: 399000000 cycles: 899150003 heartbeat IPC: 0.383006 cumulative IPC: 0.442843 (Simulation time: 0 hr 33 min 41 sec) 
Heartbeat CPU 0 instructions: 400000002 cycles: 901059824 heartbeat IPC: 0.52361 cumulative IPC: 0.443014 (Simulation time: 0 hr 33 min 46 sec) 
Heartbeat CPU 0 instructions: 401000001 cycles: 902953956 heartbeat IPC: 0.527946 cumulative IPC: 0.443192 (Simulation time: 0 hr 33 min 51 sec) 
Heartbeat CPU 0 instructions: 402000001 cycles: 905594502 heartbeat IPC: 0.37871 cumulative IPC: 0.443004 (Simulation time: 0 hr 33 min 57 sec) 
Heartbeat CPU 0 instructions: 403000003 cycles: 907492666 heartbeat IPC: 0.526826 cumulative IPC: 0.44318 (Simulation time: 0 hr 34 min 2 sec) 
Heartbeat CPU 0 instructions: 404000000 cycles: 909391221 heartbeat IPC: 0.526715 cumulative IPC: 0.443354 (Simulation time: 0 hr 34 min 7 sec) 
Heartbeat CPU 0 instructions: 405000000 cycles: 911664598 heartbeat IPC: 0.439874 cumulative IPC: 0.443345 (Simulation time: 0 hr 34 min 12 sec) 
Heartbeat CPU 0 instructions: 406000002 cycles: 913956942 heartbeat IPC: 0.436236 cumulative IPC: 0.443328 (Simulation time: 0 hr 34 min 17 sec) 
Heartbeat CPU 0 instructions: 407000000 cycles: 915856049 heartbeat IPC: 0.526562 cumulative IPC: 0.4435 (Simulation time: 0 hr 34 min 22 sec) 
Heartbeat CPU 0 instructions: 408000000 cycles: 917751205 heartbeat IPC: 0.527661 cumulative IPC: 0.443674 (Simulation time: 0 hr 34 min 27 sec) 
Heartbeat CPU 0 instructions: 409000003 cycles: 920447488 heartbeat IPC: 0.370882 cumulative IPC: 0.443461 (Simulation time: 0 hr 34 min 33 sec) 
Heartbeat CPU 0 instructions: 410000000 cycles: 922336725 heartbeat IPC: 0.529313 cumulative IPC: 0.443637 (Simulation time: 0 hr 34 min 37 sec) 
Heartbeat CPU 0 instructions: 411000000 cycles: 924262604 heartbeat IPC: 0.519243 cumulative IPC: 0.443794 (Simulation time: 0 hr 34 min 43 sec) 
Heartbeat CPU 0 instructions: 412000000 cycles: 926621288 heartbeat IPC: 0.423965 cumulative IPC: 0.443744 (Simulation time: 0 hr 34 min 48 sec) 
Heartbeat CPU 0 instructions: 413000000 cycles: 928852756 heartbeat IPC: 0.448135 cumulative IPC: 0.443754 (Simulation time: 0 hr 34 min 54 sec) 
Heartbeat CPU 0 instructions: 414000002 cycles: 930740811 heartbeat IPC: 0.529647 cumulative IPC: 0.443929 (Simulation time: 0 hr 34 min 59 sec) 
Heartbeat CPU 0 instructions: 415000000 cycles: 932634404 heartbeat IPC: 0.528096 cumulative IPC: 0.4441 (Simulation time: 0 hr 35 min 4 sec) 
Heartbeat CPU 0 instructions: 416000003 cycles: 935297162 heartbeat IPC: 0.375552 cumulative IPC: 0.443904 (Simulation time: 0 hr 35 min 10 sec) 
Heartbeat CPU 0 instructions: 417000000 cycles: 937189002 heartbeat IPC: 0.528584 cumulative IPC: 0.444075 (Simulation time: 0 hr 35 min 14 sec) 
Heartbeat CPU 0 instructions: 418000000 cycles: 939112859 heartbeat IPC: 0.519789 cumulative IPC: 0.444231 (Simulation time: 0 hr 35 min 19 sec) 
Heartbeat CPU 0 instructions: 419000002 cycles: 941035788 heartbeat IPC: 0.520041 cumulative IPC: 0.444386 (Simulation time: 0 hr 35 min 23 sec) 
Heartbeat CPU 0 instructions: 420000001 cycles: 943668267 heartbeat IPC: 0.37987 cumulative IPC: 0.444206 (Simulation time: 0 hr 35 min 29 sec) 
Heartbeat CPU 0 instructions: 421000001 cycles: 945539138 heartbeat IPC: 0.53451 cumulative IPC: 0.444384 (Simulation time: 0 hr 35 min 33 sec) 
Heartbeat CPU 0 instructions: 422000003 cycles: 947459685 heartbeat IPC: 0.520686 cumulative IPC: 0.444539 (Simulation time: 0 hr 35 min 38 sec) 
Heartbeat CPU 0 instructions: 423000000 cycles: 949877736 heartbeat IPC: 0.413555 cumulative IPC: 0.44446 (Simulation time: 0 hr 35 min 43 sec) 
Heartbeat CPU 0 instructions: 424000000 cycles: 952028893 heartbeat IPC: 0.464866 cumulative IPC: 0.444506 (Simulation time: 0 hr 35 min 48 sec) 
Heartbeat CPU 0 instructions: 425000000 cycles: 953929053 heartbeat IPC: 0.526271 cumulative IPC: 0.444669 (Simulation time: 0 hr 35 min 52 sec) 
Heartbeat CPU 0 instructions: 426000001 cycles: 956086434 heartbeat IPC: 0.463525 cumulative IPC: 0.444712 (Simulation time: 0 hr 35 min 57 sec) 
Heartbeat CPU 0 instructions: 427000000 cycles: 958519937 heartbeat IPC: 0.41093 cumulative IPC: 0.444626 (Simulation time: 0 hr 36 min 2 sec) 
Heartbeat CPU 0 instructions: 428000000 cycles: 960409700 heartbeat IPC: 0.529167 cumulative IPC: 0.444792 (Simulation time: 0 hr 36 min 7 sec) 
Heartbeat CPU 0 instructions: 429000000 cycles: 962324165 heartbeat IPC: 0.522339 cumulative IPC: 0.444947 (Simulation time: 0 hr 36 min 11 sec) 
Heartbeat CPU 0 instructions: 430000000 cycles: 964971762 heartbeat IPC: 0.377701 cumulative IPC: 0.444762 (Simulation time: 0 hr 36 min 17 sec) 
Heartbeat CPU 0 instructions: 431000000 cycles: 966867867 heartbeat IPC: 0.527397 cumulative IPC: 0.444924 (Simulation time: 0 hr 36 min 22 sec) 
Heartbeat CPU 0 instructions: 432000000 cycles: 968768862 heartbeat IPC: 0.52604 cumulative IPC: 0.445084 (Simulation time: 0 hr 36 min 27 sec) 
Heartbeat CPU 0 instructions: 433000003 cycles: 971410307 heartbeat IPC: 0.378582 cumulative IPC: 0.444903 (Simulation time: 0 hr 36 min 32 sec) 
Heartbeat CPU 0 instructions: 434000001 cycles: 973304905 heartbeat IPC: 0.527815 cumulative IPC: 0.445064 (Simulation time: 0 hr 36 min 37 sec) 
Heartbeat CPU 0 instructions: 435000002 cycles: 975209906 heartbeat IPC: 0.524935 cumulative IPC: 0.44522 (Simulation time: 0 hr 36 min 42 sec) 
Heartbeat CPU 0 instructions: 436000001 cycles: 977853231 heartbeat IPC: 0.378311 cumulative IPC: 0.445039 (Simulation time: 0 hr 36 min 48 sec) 
Heartbeat CPU 0 instructions: 437000003 cycles: 979737200 heartbeat IPC: 0.530795 cumulative IPC: 0.445204 (Simulation time: 0 hr 36 min 53 sec) 
Heartbeat CPU 0 instructions: 438000000 cycles: 981625735 heartbeat IPC: 0.529509 cumulative IPC: 0.445366 (Simulation time: 0 hr 36 min 58 sec) 
Heartbeat CPU 0 instructions: 439000003 cycles: 983862481 heartbeat IPC: 0.447079 cumulative IPC: 0.44537 (Simulation time: 0 hr 37 min 3 sec) 
Heartbeat CPU 0 instructions: 440000000 cycles: 986160483 heartbeat IPC: 0.435159 cumulative IPC: 0.445347 (Simulation time: 0 hr 37 min 8 sec) 
Heartbeat CPU 0 instructions: 441000001 cycles: 988173709 heartbeat IPC: 0.496716 cumulative IPC: 0.445451 (Simulation time: 0 hr 37 min 13 sec) 
Heartbeat CPU 0 instructions: 442000000 cycles: 990096094 heartbeat IPC: 0.520187 cumulative IPC: 0.445596 (Simulation time: 0 hr 37 min 18 sec) 
Heartbeat CPU 0 instructions: 443000000 cycles: 992744086 heartbeat IPC: 0.377645 cumulative IPC: 0.445415 (Simulation time: 0 hr 37 min 24 sec) 
Heartbeat CPU 0 instructions: 444000001 cycles: 994860064 heartbeat IPC: 0.472595 cumulative IPC: 0.445473 (Simulation time: 0 hr 37 min 29 sec) 
Heartbeat CPU 0 instructions: 445000000 cycles: 996771806 heartbeat IPC: 0.523083 cumulative IPC: 0.445622 (Simulation time: 0 hr 37 min 34 sec) 
Heartbeat CPU 0 instructions: 446000003 cycles: 999422856 heartbeat IPC: 0.37721 cumulative IPC: 0.44544 (Simulation time: 0 hr 37 min 40 sec) 
Heartbeat CPU 0 instructions: 447000003 cycles: 1001314096 heartbeat IPC: 0.528754 cumulative IPC: 0.445598 (Simulation time: 0 hr 37 min 44 sec) 
Heartbeat CPU 0 instructions: 448000000 cycles: 1003232111 heartbeat IPC: 0.521371 cumulative IPC: 0.445743 (Simulation time: 0 hr 37 min 49 sec) 
Heartbeat CPU 0 instructions: 449000001 cycles: 1005904878 heartbeat IPC: 0.374144 cumulative IPC: 0.445552 (Simulation time: 0 hr 37 min 55 sec) 
Heartbeat CPU 0 instructions: 450000000 cycles: 1007790424 heartbeat IPC: 0.53035 cumulative IPC: 0.445711 (Simulation time: 0 hr 38 min 0 sec) 

Warmup complete CPU 0 instructions: 450000004 cycles: 1007790425 (Simulation time: 0 hr 38 min 0 sec) 

Heartbeat CPU 0 instructions: 451000000 cycles: 1009505660 heartbeat IPC: 0.58301 cumulative IPC: 0.583008 (Simulation time: 0 hr 38 min 5 sec) 
Heartbeat CPU 0 instructions: 452000000 cycles: 1011767748 heartbeat IPC: 0.442069 cumulative IPC: 0.50285 (Simulation time: 0 hr 38 min 10 sec) 
Heartbeat CPU 0 instructions: 453000000 cycles: 1013445523 heartbeat IPC: 0.596027 cumulative IPC: 0.530494 (Simulation time: 0 hr 38 min 15 sec) 
Heartbeat CPU 0 instructions: 454000002 cycles: 1015153183 heartbeat IPC: 0.585598 cumulative IPC: 0.543274 (Simulation time: 0 hr 38 min 20 sec) 
Heartbeat CPU 0 instructions: 455000002 cycles: 1017448035 heartbeat IPC: 0.435758 cumulative IPC: 0.517726 (Simulation time: 0 hr 38 min 25 sec) 
Heartbeat CPU 0 instructions: 456000001 cycles: 1019127016 heartbeat IPC: 0.595599 cumulative IPC: 0.529259 (Simulation time: 0 hr 38 min 30 sec) 
Heartbeat CPU 0 instructions: 457000000 cycles: 1020814390 heartbeat IPC: 0.592636 cumulative IPC: 0.53747 (Simulation time: 0 hr 38 min 34 sec) 
Heartbeat CPU 0 instructions: 458000002 cycles: 1023442598 heartbeat IPC: 0.380488 cumulative IPC: 0.511111 (Simulation time: 0 hr 38 min 40 sec) 
Heartbeat CPU 0 instructions: 459000002 cycles: 1025128270 heartbeat IPC: 0.593235 cumulative IPC: 0.519096 (Simulation time: 0 hr 38 min 44 sec) 
Heartbeat CPU 0 instructions: 460000001 cycles: 1027028143 heartbeat IPC: 0.52635 cumulative IPC: 0.519812 (Simulation time: 0 hr 38 min 49 sec) 
Heartbeat CPU 0 instructions: 461000000 cycles: 1029109644 heartbeat IPC: 0.480422 cumulative IPC: 0.515966 (Simulation time: 0 hr 38 min 54 sec) 
Heartbeat CPU 0 instructions: 462000000 cycles: 1030812060 heartbeat IPC: 0.5874 cumulative IPC: 0.521249 (Simulation time: 0 hr 38 min 58 sec) 
Heartbeat CPU 0 instructions: 463000000 cycles: 1033088669 heartbeat IPC: 0.43925 cumulative IPC: 0.51387 (Simulation time: 0 hr 39 min 3 sec) 
Heartbeat CPU 0 instructions: 464000000 cycles: 1034796751 heartbeat IPC: 0.585452 cumulative IPC: 0.518397 (Simulation time: 0 hr 39 min 8 sec) 
Heartbeat CPU 0 instructions: 465000003 cycles: 1037028788 heartbeat IPC: 0.448023 cumulative IPC: 0.513025 (Simulation time: 0 hr 39 min 13 sec) 
Heartbeat CPU 0 instructions: 466000003 cycles: 1038726285 heartbeat IPC: 0.589103 cumulative IPC: 0.517199 (Simulation time: 0 hr 39 min 18 sec) 
Heartbeat CPU 0 instructions: 467000000 cycles: 1040442002 heartbeat IPC: 0.582845 cumulative IPC: 0.520649 (Simulation time: 0 hr 39 min 23 sec) 
Heartbeat CPU 0 instructions: 468000000 cycles: 1042673854 heartbeat IPC: 0.448058 cumulative IPC: 0.516004 (Simulation time: 0 hr 39 min 28 sec) 
Heartbeat CPU 0 instructions: 469000000 cycles: 1044397510 heartbeat IPC: 0.580162 cumulative IPC: 0.519025 (Simulation time: 0 hr 39 min 32 sec) 
Heartbeat CPU 0 instructions: 470000003 cycles: 1046632046 heartbeat IPC: 0.447522 cumulative IPC: 0.514912 (Simulation time: 0 hr 39 min 38 sec) 
Heartbeat CPU 0 instructions: 471000000 cycles: 1048328005 heartbeat IPC: 0.589635 cumulative IPC: 0.518038 (Simulation time: 0 hr 39 min 43 sec) 
Heartbeat CPU 0 instructions: 472000001 cycles: 1050374667 heartbeat IPC: 0.488601 cumulative IPC: 0.516623 (Simulation time: 0 hr 39 min 48 sec) 
Heartbeat CPU 0 instructions: 473000000 cycles: 1052268644 heartbeat IPC: 0.527989 cumulative IPC: 0.517107 (Simulation time: 0 hr 39 min 54 sec) 
Heartbeat CPU 0 instructions: 474000000 cycles: 1053992453 heartbeat IPC: 0.580111 cumulative IPC: 0.519458 (Simulation time: 0 hr 39 min 59 sec) 
Heartbeat CPU 0 instructions: 475000001 cycles: 1056271329 heartbeat IPC: 0.438813 cumulative IPC: 0.515667 (Simulation time: 0 hr 40 min 4 sec) 
Heartbeat CPU 0 instructions: 476000001 cycles: 1057988948 heartbeat IPC: 0.582201 cumulative IPC: 0.517943 (Simulation time: 0 hr 40 min 8 sec) 
Heartbeat CPU 0 instructions: 477000001 cycles: 1060252900 heartbeat IPC: 0.441705 cumulative IPC: 0.514654 (Simulation time: 0 hr 40 min 14 sec) 
Heartbeat CPU 0 instructions: 478000003 cycles: 1061928290 heartbeat IPC: 0.596877 cumulative IPC: 0.517198 (Simulation time: 0 hr 40 min 19 sec) 
Heartbeat CPU 0 instructions: 479000000 cycles: 1063934009 heartbeat IPC: 0.498573 cumulative IPC: 0.516533 (Simulation time: 0 hr 40 min 24 sec) 
Heartbeat CPU 0 instructions: 480000000 cycles: 1065856080 heartbeat IPC: 0.520272 cumulative IPC: 0.516656 (Simulation time: 0 hr 40 min 29 sec) 
Heartbeat CPU 0 instructions: 481000003 cycles: 1067553915 heartbeat IPC: 0.588987 cumulative IPC: 0.518711 (Simulation time: 0 hr 40 min 34 sec) 
Heartbeat CPU 0 instructions: 482000002 cycles: 1069820179 heartbeat IPC: 0.441254 cumulative IPC: 0.515881 (Simulation time: 0 hr 40 min 39 sec) 
Heartbeat CPU 0 instructions: 483000001 cycles: 1071528393 heartbeat IPC: 0.585406 cumulative IPC: 0.517745 (Simulation time: 0 hr 40 min 44 sec) 
Heartbeat CPU 0 instructions: 484000000 cycles: 1073748185 heartbeat IPC: 0.450492 cumulative IPC: 0.515481 (Simulation time: 0 hr 40 min 50 sec) 
Heartbeat CPU 0 instructions: 485000001 cycles: 1075446749 heartbeat IPC: 0.588733 cumulative IPC: 0.51732 (Simulation time: 0 hr 40 min 55 sec) 
Heartbeat CPU 0 instructions: 486000000 cycles: 1077620850 heartbeat IPC: 0.45996 cumulative IPC: 0.515535 (Simulation time: 0 hr 41 min 0 sec) 
Heartbeat CPU 0 instructions: 487000000 cycles: 1079424418 heartbeat IPC: 0.554456 cumulative IPC: 0.516514 (Simulation time: 0 hr 41 min 5 sec) 
Heartbeat CPU 0 instructions: 488000002 cycles: 1081140192 heartbeat IPC: 0.582829 cumulative IPC: 0.518066 (Simulation time: 0 hr 41 min 10 sec) 
Heartbeat CPU 0 instructions: 489000003 cycles: 1083391692 heartbeat IPC: 0.444149 cumulative IPC: 0.515864 (Simulation time: 0 hr 41 min 15 sec) 
Heartbeat CPU 0 instructions: 490000002 cycles: 1085094059 heartbeat IPC: 0.587417 cumulative IPC: 0.51744 (Simulation time: 0 hr 41 min 20 sec) 
Heartbeat CPU 0 instructions: 491000001 cycles: 1087359901 heartbeat IPC: 0.441337 cumulative IPC: 0.515273 (Simulation time: 0 hr 41 min 26 sec) 
Heartbeat CPU 0 instructions: 492000001 cycles: 1089121655 heartbeat IPC: 0.567616 cumulative IPC: 0.516407 (Simulation time: 0 hr 41 min 30 sec) 
Heartbeat CPU 0 instructions: 493000000 cycles: 1091373277 heartbeat IPC: 0.444124 cumulative IPC: 0.51446 (Simulation time: 0 hr 41 min 36 sec) 
Heartbeat CPU 0 instructions: 494000000 cycles: 1093053302 heartbeat IPC: 0.595229 cumulative IPC: 0.516051 (Simulation time: 0 hr 41 min 41 sec) 
Heartbeat CPU 0 instructions: 495000000 cycles: 1094807994 heartbeat IPC: 0.569901 cumulative IPC: 0.517137 (Simulation time: 0 hr 41 min 45 sec) 
Heartbeat CPU 0 instructions: 496000000 cycles: 1097024551 heartbeat IPC: 0.45115 cumulative IPC: 0.515498 (Simulation time: 0 hr 41 min 51 sec) 
Heartbeat CPU 0 instructions: 497000003 cycles: 1098759781 heartbeat IPC: 0.576294 cumulative IPC: 0.516657 (Simulation time: 0 hr 41 min 56 sec) 
Heartbeat CPU 0 instructions: 498000000 cycles: 1101024951 heartbeat IPC: 0.441467 cumulative IPC: 0.514831 (Simulation time: 0 hr 42 min 1 sec) 
Heartbeat CPU 0 instructions: 499000000 cycles: 1102764391 heartbeat IPC: 0.574898 cumulative IPC: 0.515931 (Simulation time: 0 hr 42 min 6 sec) 
Heartbeat CPU 0 instructions: 500000000 cycles: 1105043174 heartbeat IPC: 0.438831 cumulative IPC: 0.514124 (Simulation time: 0 hr 42 min 11 sec) 
Heartbeat CPU 0 instructions: 501000001 cycles: 1106716550 heartbeat IPC: 0.597595 cumulative IPC: 0.515536 (Simulation time: 0 hr 42 min 16 sec) 
Heartbeat CPU 0 instructions: 502000003 cycles: 1108541460 heartbeat IPC: 0.547973 cumulative IPC: 0.516124 (Simulation time: 0 hr 42 min 21 sec) 
Heartbeat CPU 0 instructions: 503000000 cycles: 1110655187 heartbeat IPC: 0.473097 cumulative IPC: 0.51524 (Simulation time: 0 hr 42 min 26 sec) 
Heartbeat CPU 0 instructions: 504000000 cycles: 1112352622 heartbeat IPC: 0.589124 cumulative IPC: 0.516439 (Simulation time: 0 hr 42 min 31 sec) 
Heartbeat CPU 0 instructions: 505000003 cycles: 1114582294 heartbeat IPC: 0.448498 cumulative IPC: 0.51502 (Simulation time: 0 hr 42 min 36 sec) 
Heartbeat CPU 0 instructions: 506000000 cycles: 1116288843 heartbeat IPC: 0.585976 cumulative IPC: 0.516137 (Simulation time: 0 hr 42 min 41 sec) 
Heartbeat CPU 0 instructions: 507000002 cycles: 1118536662 heartbeat IPC: 0.444877 cumulative IPC: 0.51469 (Simulation time: 0 hr 42 min 47 sec) 
Heartbeat CPU 0 instructions: 508000003 cycles: 1120238713 heartbeat IPC: 0.587527 cumulative IPC: 0.515793 (Simulation time: 0 hr 42 min 51 sec) 
Heartbeat CPU 0 instructions: 509000001 cycles: 1122013298 heartbeat IPC: 0.563511 cumulative IPC: 0.516534 (Simulation time: 0 hr 42 min 56 sec) 
Heartbeat CPU 0 instructions: 510000000 cycles: 1124143646 heartbeat IPC: 0.469406 cumulative IPC: 0.515671 (Simulation time: 0 hr 43 min 2 sec) 
Heartbeat CPU 0 instructions: 511000000 cycles: 1125852422 heartbeat IPC: 0.585214 cumulative IPC: 0.516678 (Simulation time: 0 hr 43 min 6 sec) 
Heartbeat CPU 0 instructions: 512000001 cycles: 1128090694 heartbeat IPC: 0.446774 cumulative IPC: 0.515377 (Simulation time: 0 hr 43 min 12 sec) 
Heartbeat CPU 0 instructions: 513000002 cycles: 1129791461 heartbeat IPC: 0.587971 cumulative IPC: 0.516389 (Simulation time: 0 hr 43 min 16 sec) 
Heartbeat CPU 0 instructions: 514000001 cycles: 1132031609 heartbeat IPC: 0.446399 cumulative IPC: 0.515127 (Simulation time: 0 hr 43 min 22 sec) 
Heartbeat CPU 0 instructions: 515000000 cycles: 1133752777 heartbeat IPC: 0.581 cumulative IPC: 0.516027 (Simulation time: 0 hr 43 min 27 sec) 
Heartbeat CPU 0 instructions: 516000000 cycles: 1135484991 heartbeat IPC: 0.577296 cumulative IPC: 0.516858 (Simulation time: 0 hr 43 min 31 sec) 
Heartbeat CPU 0 instructions: 517000000 cycles: 1137697264 heartbeat IPC: 0.452024 cumulative IPC: 0.515754 (Simulation time: 0 hr 43 min 37 sec) 
Heartbeat CPU 0 instructions: 518000000 cycles: 1139387566 heartbeat IPC: 0.59161 cumulative IPC: 0.516729 (Simulation time: 0 hr 43 min 42 sec) 
Heartbeat CPU 0 instructions: 519000002 cycles: 1141689559 heartbeat IPC: 0.434407 cumulative IPC: 0.515313 (Simulation time: 0 hr 43 min 47 sec) 
Heartbeat CPU 0 instructions: 520000000 cycles: 1143394118 heartbeat IPC: 0.586661 cumulative IPC: 0.51621 (Simulation time: 0 hr 43 min 52 sec) 
Heartbeat CPU 0 instructions: 521000000 cycles: 1145643161 heartbeat IPC: 0.444634 cumulative IPC: 0.515042 (Simulation time: 0 hr 43 min 57 sec) 
Heartbeat CPU 0 instructions: 522000001 cycles: 1147314493 heartbeat IPC: 0.598326 cumulative IPC: 0.51604 (Simulation time: 0 hr 44 min 2 sec) 
Heartbeat CPU 0 instructions: 523000002 cycles: 1149360001 heartbeat IPC: 0.488877 cumulative IPC: 0.515647 (Simulation time: 0 hr 44 min 7 sec) 
Heartbeat CPU 0 instructions: 524000000 cycles: 1151287689 heartbeat IPC: 0.518755 cumulative IPC: 0.515689 (Simulation time: 0 hr 44 min 12 sec) 
Heartbeat CPU 0 instructions: 525000002 cycles: 1152990747 heartbeat IPC: 0.58718 cumulative IPC: 0.516528 (Simulation time: 0 hr 44 min 17 sec) 
Heartbeat CPU 0 instructions: 526000002 cycles: 1155249438 heartbeat IPC: 0.442734 cumulative IPC: 0.515397 (Simulation time: 0 hr 44 min 22 sec) 
Heartbeat CPU 0 instructions: 527000000 cycles: 1156964551 heartbeat IPC: 0.583051 cumulative IPC: 0.516175 (Simulation time: 0 hr 44 min 27 sec) 
Heartbeat CPU 0 instructions: 528000000 cycles: 1159220586 heartbeat IPC: 0.443256 cumulative IPC: 0.515089 (Simulation time: 0 hr 44 min 32 sec) 
Heartbeat CPU 0 instructions: 529000001 cycles: 1160913964 heartbeat IPC: 0.590536 cumulative IPC: 0.515923 (Simulation time: 0 hr 44 min 37 sec) 
Heartbeat CPU 0 instructions: 530000003 cycles: 1163148160 heartbeat IPC: 0.447589 cumulative IPC: 0.514941 (Simulation time: 0 hr 44 min 42 sec) 
Heartbeat CPU 0 instructions: 531000002 cycles: 1164830423 heartbeat IPC: 0.594437 cumulative IPC: 0.515792 (Simulation time: 0 hr 44 min 47 sec) 
Heartbeat CPU 0 instructions: 532000000 cycles: 1166909802 heartbeat IPC: 0.480912 cumulative IPC: 0.515336 (Simulation time: 0 hr 44 min 52 sec) 
Heartbeat CPU 0 instructions: 533000001 cycles: 1168809435 heartbeat IPC: 0.526418 cumulative IPC: 0.515467 (Simulation time: 0 hr 44 min 58 sec) 
Heartbeat CPU 0 instructions: 534000000 cycles: 1170752787 heartbeat IPC: 0.514574 cumulative IPC: 0.515456 (Simulation time: 0 hr 45 min 3 sec) 
Heartbeat CPU 0 instructions: 535000001 cycles: 1172766607 heartbeat IPC: 0.496569 cumulative IPC: 0.515226 (Simulation time: 0 hr 45 min 8 sec) 
Heartbeat CPU 0 instructions: 536000000 cycles: 1174458615 heartbeat IPC: 0.591013 cumulative IPC: 0.515995 (Simulation time: 0 hr 45 min 12 sec) 
Heartbeat CPU 0 instructions: 537000001 cycles: 1176702397 heartbeat IPC: 0.445677 cumulative IPC: 0.515061 (Simulation time: 0 hr 45 min 18 sec) 
Heartbeat CPU 0 instructions: 538000001 cycles: 1178391834 heartbeat IPC: 0.591913 cumulative IPC: 0.515822 (Simulation time: 0 hr 45 min 23 sec) 
Heartbeat CPU 0 instructions: 539000000 cycles: 1180659161 heartbeat IPC: 0.441048 cumulative IPC: 0.514841 (Simulation time: 0 hr 45 min 28 sec) 
Heartbeat CPU 0 instructions: 540000003 cycles: 1182368362 heartbeat IPC: 0.58507 cumulative IPC: 0.515529 (Simulation time: 0 hr 45 min 33 sec) 
Heartbeat CPU 0 instructions: 541000002 cycles: 1184595295 heartbeat IPC: 0.449048 cumulative IPC: 0.514692 (Simulation time: 0 hr 45 min 38 sec) 
Heartbeat CPU 0 instructions: 542000001 cycles: 1186302526 heartbeat IPC: 0.585743 cumulative IPC: 0.515371 (Simulation time: 0 hr 45 min 43 sec) 
Heartbeat CPU 0 instructions: 543000001 cycles: 1188593155 heartbeat IPC: 0.436561 cumulative IPC: 0.514373 (Simulation time: 0 hr 45 min 48 sec) 
Heartbeat CPU 0 instructions: 544000002 cycles: 1190311030 heartbeat IPC: 0.582115 cumulative IPC: 0.51501 (Simulation time: 0 hr 45 min 53 sec) 
Heartbeat CPU 0 instructions: 545000003 cycles: 1192536284 heartbeat IPC: 0.449387 cumulative IPC: 0.51422 (Simulation time: 0 hr 45 min 58 sec) 
Heartbeat CPU 0 instructions: 546000001 cycles: 1194241704 heartbeat IPC: 0.586365 cumulative IPC: 0.51488 (Simulation time: 0 hr 46 min 3 sec) 
[...]
Heartbeat CPU 0 instructions: 836000000 cycles: 1805012897 heartbeat IPC: 0.438834 cumulative IPC: 0.484181 (Simulation time: 1 hr 11 min 32 sec) 
Heartbeat CPU 0 instructions: 837000000 cycles: 1807052211 heartbeat IPC: 0.490361 cumulative IPC: 0.484197 (Simulation time: 1 hr 11 min 37 sec) 
Heartbeat CPU 0 instructions: 838000000 cycles: 1809416288 heartbeat IPC: 0.422998 cumulative IPC: 0.484016 (Simulation time: 1 hr 11 min 43 sec) 
Heartbeat CPU 0 instructions: 839000001 cycles: 1811555151 heartbeat IPC: 0.467539 cumulative IPC: 0.483972 (Simulation time: 1 hr 11 min 48 sec) 
Heartbeat CPU 0 instructions: 840000000 cycles: 1813703979 heartbeat IPC: 0.465369 cumulative IPC: 0.483923 (Simulation time: 1 hr 11 min 54 sec) 
Heartbeat CPU 0 instructions: 841000000 cycles: 1816062691 heartbeat IPC: 0.42396 cumulative IPC: 0.483748 (Simulation time: 1 hr 12 min 0 sec) 
Heartbeat CPU 0 instructions: 842000003 cycles: 1818633055 heartbeat IPC: 0.389051 cumulative IPC: 0.483448 (Simulation time: 1 hr 12 min 6 sec) 
Heartbeat CPU 0 instructions: 843000000 cycles: 1820740614 heartbeat IPC: 0.474481 cumulative IPC: 0.483424 (Simulation time: 1 hr 12 min 11 sec) 
Heartbeat CPU 0 instructions: 844000003 cycles: 1823018143 heartbeat IPC: 0.439074 cumulative IPC: 0.483301 (Simulation time: 1 hr 12 min 17 sec) 
Heartbeat CPU 0 instructions: 845000003 cycles: 1825359771 heartbeat IPC: 0.427053 cumulative IPC: 0.483139 (Simulation time: 1 hr 12 min 23 sec) 
Heartbeat CPU 0 instructions: 846000003 cycles: 1827700296 heartbeat IPC: 0.427255 cumulative IPC: 0.48298 (Simulation time: 1 hr 12 min 29 sec) 
Heartbeat CPU 0 instructions: 847000000 cycles: 1829996925 heartbeat IPC: 0.435419 cumulative IPC: 0.482847 (Simulation time: 1 hr 12 min 34 sec) 
Heartbeat CPU 0 instructions: 848000000 cycles: 1832613005 heartbeat IPC: 0.382251 cumulative IPC: 0.482528 (Simulation time: 1 hr 12 min 40 sec) 
Heartbeat CPU 0 instructions: 849000002 cycles: 1834899456 heartbeat IPC: 0.43736 cumulative IPC: 0.482403 (Simulation time: 1 hr 12 min 46 sec) 
Heartbeat CPU 0 instructions: 850000001 cycles: 1837008567 heartbeat IPC: 0.474133 cumulative IPC: 0.482382 (Simulation time: 1 hr 12 min 51 sec) 
Heartbeat CPU 0 instructions: 851000001 cycles: 1839178019 heartbeat IPC: 0.460946 cumulative IPC: 0.482326 (Simulation time: 1 hr 12 min 57 sec) 
Heartbeat CPU 0 instructions: 852000000 cycles: 1841481235 heartbeat IPC: 0.434175 cumulative IPC: 0.482193 (Simulation time: 1 hr 13 min 3 sec) 
Heartbeat CPU 0 instructions: 853000001 cycles: 1843807986 heartbeat IPC: 0.429784 cumulative IPC: 0.482047 (Simulation time: 1 hr 13 min 8 sec) 
Heartbeat CPU 0 instructions: 854000002 cycles: 1846121768 heartbeat IPC: 0.432193 cumulative IPC: 0.48191 (Simulation time: 1 hr 13 min 14 sec) 
Heartbeat CPU 0 instructions: 855000003 cycles: 1848457947 heartbeat IPC: 0.42805 cumulative IPC: 0.48176 (Simulation time: 1 hr 13 min 20 sec) 
Heartbeat CPU 0 instructions: 856000002 cycles: 1850626662 heartbeat IPC: 0.461102 cumulative IPC: 0.481707 (Simulation time: 1 hr 13 min 25 sec) 
Heartbeat CPU 0 instructions: 857000002 cycles: 1852756665 heartbeat IPC: 0.469483 cumulative IPC: 0.481676 (Simulation time: 1 hr 13 min 31 sec) 
Heartbeat CPU 0 instructions: 858000000 cycles: 1854987544 heartbeat IPC: 0.448253 cumulative IPC: 0.481588 (Simulation time: 1 hr 13 min 37 sec) 
Heartbeat CPU 0 instructions: 859000000 cycles: 1857306086 heartbeat IPC: 0.431306 cumulative IPC: 0.481451 (Simulation time: 1 hr 13 min 42 sec) 
Heartbeat CPU 0 instructions: 860000000 cycles: 1859622806 heartbeat IPC: 0.431645 cumulative IPC: 0.481315 (Simulation time: 1 hr 13 min 48 sec) 
Heartbeat CPU 0 instructions: 861000002 cycles: 1861954113 heartbeat IPC: 0.428945 cumulative IPC: 0.481172 (Simulation time: 1 hr 13 min 54 sec) 
Heartbeat CPU 0 instructions: 862000001 cycles: 1864268204 heartbeat IPC: 0.432135 cumulative IPC: 0.48104 (Simulation time: 1 hr 14 min 0 sec) 
Heartbeat CPU 0 instructions: 863000002 cycles: 1866581255 heartbeat IPC: 0.43233 cumulative IPC: 0.480909 (Simulation time: 1 hr 14 min 5 sec) 
Heartbeat CPU 0 instructions: 864000000 cycles: 1868639665 heartbeat IPC: 0.485811 cumulative IPC: 0.48092 (Simulation time: 1 hr 14 min 11 sec) 
Heartbeat CPU 0 instructions: 865000000 cycles: 1870822694 heartbeat IPC: 0.458079 cumulative IPC: 0.480863 (Simulation time: 1 hr 14 min 16 sec) 
Heartbeat CPU 0 instructions: 866000001 cycles: 1873148900 heartbeat IPC: 0.429885 cumulative IPC: 0.480726 (Simulation time: 1 hr 14 min 22 sec) 
Heartbeat CPU 0 instructions: 867000002 cycles: 1875467377 heartbeat IPC: 0.431318 cumulative IPC: 0.480594 (Simulation time: 1 hr 14 min 28 sec) 
Heartbeat CPU 0 instructions: 868000002 cycles: 1877789404 heartbeat IPC: 0.430658 cumulative IPC: 0.48046 (Simulation time: 1 hr 14 min 34 sec) 
Heartbeat CPU 0 instructions: 869000000 cycles: 1880083546 heartbeat IPC: 0.435892 cumulative IPC: 0.480343 (Simulation time: 1 hr 14 min 39 sec) 
Heartbeat CPU 0 instructions: 870000001 cycles: 1882379256 heartbeat IPC: 0.435596 cumulative IPC: 0.480226 (Simulation time: 1 hr 14 min 45 sec) 
Heartbeat CPU 0 instructions: 871000000 cycles: 1884697000 heartbeat IPC: 0.431454 cumulative IPC: 0.480097 (Simulation time: 1 hr 14 min 51 sec) 
Heartbeat CPU 0 instructions: 872000002 cycles: 1887031067 heartbeat IPC: 0.428438 cumulative IPC: 0.47996 (Simulation time: 1 hr 14 min 56 sec) 
Heartbeat CPU 0 instructions: 873000003 cycles: 1889320132 heartbeat IPC: 0.43686 cumulative IPC: 0.479848 (Simulation time: 1 hr 15 min 2 sec) 
Heartbeat CPU 0 instructions: 874000003 cycles: 1891602644 heartbeat IPC: 0.438114 cumulative IPC: 0.47974 (Simulation time: 1 hr 15 min 8 sec) 
Heartbeat CPU 0 instructions: 875000001 cycles: 1893938718 heartbeat IPC: 0.428068 cumulative IPC: 0.479604 (Simulation time: 1 hr 15 min 14 sec) 
Heartbeat CPU 0 instructions: 876000000 cycles: 1896230932 heartbeat IPC: 0.436259 cumulative IPC: 0.479492 (Simulation time: 1 hr 15 min 19 sec) 
Heartbeat CPU 0 instructions: 877000000 cycles: 1898542779 heartbeat IPC: 0.432555 cumulative IPC: 0.47937 (Simulation time: 1 hr 15 min 25 sec) 
Heartbeat CPU 0 instructions: 878000003 cycles: 1900744819 heartbeat IPC: 0.454126 cumulative IPC: 0.479308 (Simulation time: 1 hr 15 min 31 sec) 
Heartbeat CPU 0 instructions: 879000000 cycles: 1902953666 heartbeat IPC: 0.452724 cumulative IPC: 0.479242 (Simulation time: 1 hr 15 min 36 sec) 
Heartbeat CPU 0 instructions: 880000000 cycles: 1905129244 heartbeat IPC: 0.459648 cumulative IPC: 0.479195 (Simulation time: 1 hr 15 min 42 sec) 
Heartbeat CPU 0 instructions: 881000001 cycles: 1907401568 heartbeat IPC: 0.440079 cumulative IPC: 0.479096 (Simulation time: 1 hr 15 min 48 sec) 
Heartbeat CPU 0 instructions: 882000003 cycles: 1909670930 heartbeat IPC: 0.440653 cumulative IPC: 0.478999 (Simulation time: 1 hr 15 min 53 sec) 
Heartbeat CPU 0 instructions: 883000002 cycles: 1911968278 heartbeat IPC: 0.435284 cumulative IPC: 0.478888 (Simulation time: 1 hr 15 min 59 sec) 
Heartbeat CPU 0 instructions: 884000003 cycles: 1914284408 heartbeat IPC: 0.431755 cumulative IPC: 0.478768 (Simulation time: 1 hr 16 min 5 sec) 
Heartbeat CPU 0 instructions: 885000003 cycles: 1916573395 heartbeat IPC: 0.436874 cumulative IPC: 0.478662 (Simulation time: 1 hr 16 min 10 sec) 
Heartbeat CPU 0 instructions: 886000000 cycles: 1918876908 heartbeat IPC: 0.434118 cumulative IPC: 0.47855 (Simulation time: 1 hr 16 min 16 sec) 
Heartbeat CPU 0 instructions: 887000000 cycles: 1921167706 heartbeat IPC: 0.436529 cumulative IPC: 0.478444 (Simulation time: 1 hr 16 min 22 sec) 
Heartbeat CPU 0 instructions: 888000000 cycles: 1923462442 heartbeat IPC: 0.43578 cumulative IPC: 0.478337 (Simulation time: 1 hr 16 min 28 sec) 
Heartbeat CPU 0 instructions: 889000003 cycles: 1925783197 heartbeat IPC: 0.430896 cumulative IPC: 0.478217 (Simulation time: 1 hr 16 min 33 sec) 
Heartbeat CPU 0 instructions: 890000000 cycles: 1928057782 heartbeat IPC: 0.439639 cumulative IPC: 0.478122 (Simulation time: 1 hr 16 min 39 sec) 
Heartbeat CPU 0 instructions: 891000000 cycles: 1930330788 heartbeat IPC: 0.439946 cumulative IPC: 0.478028 (Simulation time: 1 hr 16 min 45 sec) 
Heartbeat CPU 0 instructions: 892000000 cycles: 1932625675 heartbeat IPC: 0.435751 cumulative IPC: 0.477923 (Simulation time: 1 hr 16 min 50 sec) 
Heartbeat CPU 0 instructions: 893000000 cycles: 1935059970 heartbeat IPC: 0.410797 cumulative IPC: 0.477747 (Simulation time: 1 hr 16 min 56 sec) 
Heartbeat CPU 0 instructions: 894000003 cycles: 1937284595 heartbeat IPC: 0.449515 cumulative IPC: 0.477679 (Simulation time: 1 hr 17 min 2 sec) 
Heartbeat CPU 0 instructions: 895000001 cycles: 1939548053 heartbeat IPC: 0.441801 cumulative IPC: 0.477592 (Simulation time: 1 hr 17 min 8 sec) 
Heartbeat CPU 0 instructions: 896000000 cycles: 1941828008 heartbeat IPC: 0.438605 cumulative IPC: 0.477497 (Simulation time: 1 hr 17 min 13 sec) 
Heartbeat CPU 0 instructions: 897000000 cycles: 1944098338 heartbeat IPC: 0.440465 cumulative IPC: 0.477407 (Simulation time: 1 hr 17 min 19 sec) 
Heartbeat CPU 0 instructions: 898000000 cycles: 1946372895 heartbeat IPC: 0.439646 cumulative IPC: 0.477316 (Simulation time: 1 hr 17 min 25 sec) 
Heartbeat CPU 0 instructions: 899000003 cycles: 1948630314 heartbeat IPC: 0.442985 cumulative IPC: 0.477233 (Simulation time: 1 hr 17 min 31 sec) 
Heartbeat CPU 0 instructions: 900000000 cycles: 1950861969 heartbeat IPC: 0.448097 cumulative IPC: 0.477164 (Simulation time: 1 hr 17 min 36 sec) 
Heartbeat CPU 0 instructions: 901000001 cycles: 1953115545 heartbeat IPC: 0.44374 cumulative IPC: 0.477085 (Simulation time: 1 hr 17 min 42 sec) 
Heartbeat CPU 0 instructions: 902000000 cycles: 1955355126 heartbeat IPC: 0.446512 cumulative IPC: 0.477012 (Simulation time: 1 hr 17 min 48 sec) 
Heartbeat CPU 0 instructions: 903000003 cycles: 1957591129 heartbeat IPC: 0.447228 cumulative IPC: 0.476942 (Simulation time: 1 hr 17 min 54 sec) 
Heartbeat CPU 0 instructions: 904000002 cycles: 1959850200 heartbeat IPC: 0.442659 cumulative IPC: 0.476861 (Simulation time: 1 hr 17 min 59 sec) 
Heartbeat CPU 0 instructions: 905000002 cycles: 1962122367 heartbeat IPC: 0.440109 cumulative IPC: 0.476773 (Simulation time: 1 hr 18 min 5 sec) 
Heartbeat CPU 0 instructions: 906000000 cycles: 1964380461 heartbeat IPC: 0.44285 cumulative IPC: 0.476693 (Simulation time: 1 hr 18 min 11 sec) 
Heartbeat CPU 0 instructions: 907000000 cycles: 1966651552 heartbeat IPC: 0.440317 cumulative IPC: 0.476607 (Simulation time: 1 hr 18 min 17 sec) 
Heartbeat CPU 0 instructions: 908000001 cycles: 1968900211 heartbeat IPC: 0.44471 cumulative IPC: 0.476532 (Simulation time: 1 hr 18 min 22 sec) 
Heartbeat CPU 0 instructions: 909000000 cycles: 1971148358 heartbeat IPC: 0.44481 cumulative IPC: 0.476458 (Simulation time: 1 hr 18 min 28 sec) 
Heartbeat CPU 0 instructions: 910000002 cycles: 1973409214 heartbeat IPC: 0.442311 cumulative IPC: 0.476378 (Simulation time: 1 hr 18 min 34 sec) 
Heartbeat CPU 0 instructions: 911000003 cycles: 1975670135 heartbeat IPC: 0.442298 cumulative IPC: 0.476299 (Simulation time: 1 hr 18 min 40 sec) 
Heartbeat CPU 0 instructions: 912000000 cycles: 1977956490 heartbeat IPC: 0.437376 cumulative IPC: 0.476207 (Simulation time: 1 hr 18 min 45 sec) 
Heartbeat CPU 0 instructions: 913000000 cycles: 1980407094 heartbeat IPC: 0.408063 cumulative IPC: 0.476035 (Simulation time: 1 hr 18 min 51 sec) 
Heartbeat CPU 0 instructions: 914000000 cycles: 1982780576 heartbeat IPC: 0.421322 cumulative IPC: 0.475902 (Simulation time: 1 hr 18 min 57 sec) 
Heartbeat CPU 0 instructions: 915000002 cycles: 1985156660 heartbeat IPC: 0.420861 cumulative IPC: 0.475768 (Simulation time: 1 hr 19 min 3 sec) 
Heartbeat CPU 0 instructions: 916000003 cycles: 1987466342 heartbeat IPC: 0.43296 cumulative IPC: 0.475668 (Simulation time: 1 hr 19 min 9 sec) 
Heartbeat CPU 0 instructions: 917000001 cycles: 1989727262 heartbeat IPC: 0.442297 cumulative IPC: 0.475591 (Simulation time: 1 hr 19 min 15 sec) 
Heartbeat CPU 0 instructions: 918000001 cycles: 1991982674 heartbeat IPC: 0.443378 cumulative IPC: 0.475517 (Simulation time: 1 hr 19 min 20 sec) 
Heartbeat CPU 0 instructions: 919000000 cycles: 1994272448 heartbeat IPC: 0.436724 cumulative IPC: 0.475427 (Simulation time: 1 hr 19 min 26 sec) 
Heartbeat CPU 0 instructions: 920000000 cycles: 1996550903 heartbeat IPC: 0.438894 cumulative IPC: 0.475343 (Simulation time: 1 hr 19 min 32 sec) 
Heartbeat CPU 0 instructions: 921000002 cycles: 1998832647 heartbeat IPC: 0.438262 cumulative IPC: 0.475257 (Simulation time: 1 hr 19 min 38 sec) 
Heartbeat CPU 0 instructions: 922000000 cycles: 2001136744 heartbeat IPC: 0.434009 cumulative IPC: 0.475162 (Simulation time: 1 hr 19 min 43 sec) 
Heartbeat CPU 0 instructions: 923000000 cycles: 2003446057 heartbeat IPC: 0.433029 cumulative IPC: 0.475064 (Simulation time: 1 hr 19 min 49 sec) 
Heartbeat CPU 0 instructions: 924000000 cycles: 2005723645 heartbeat IPC: 0.439061 cumulative IPC: 0.474982 (Simulation time: 1 hr 19 min 55 sec) 
Heartbeat CPU 0 instructions: 925000000 cycles: 2008004319 heartbeat IPC: 0.438467 cumulative IPC: 0.474898 (Simulation time: 1 hr 20 min 0 sec) 
Heartbeat CPU 0 instructions: 926000002 cycles: 2010273036 heartbeat IPC: 0.440779 cumulative IPC: 0.474821 (Simulation time: 1 hr 20 min 6 sec) 
Heartbeat CPU 0 instructions: 927000000 cycles: 2012557571 heartbeat IPC: 0.437725 cumulative IPC: 0.474737 (Simulation time: 1 hr 20 min 12 sec) 
Heartbeat CPU 0 instructions: 928000002 cycles: 2014828706 heartbeat IPC: 0.440309 cumulative IPC: 0.474659 (Simulation time: 1 hr 20 min 18 sec) 
Heartbeat CPU 0 instructions: 929000002 cycles: 2017118701 heartbeat IPC: 0.436682 cumulative IPC: 0.474573 (Simulation time: 1 hr 20 min 23 sec) 
Heartbeat CPU 0 instructions: 930000003 cycles: 2019473603 heartbeat IPC: 0.424647 cumulative IPC: 0.474457 (Simulation time: 1 hr 20 min 29 sec) 
Heartbeat CPU 0 instructions: 931000003 cycles: 2021885854 heartbeat IPC: 0.414551 cumulative IPC: 0.474314 (Simulation time: 1 hr 20 min 35 sec) 
Heartbeat CPU 0 instructions: 932000002 cycles: 2024232668 heartbeat IPC: 0.426109 cumulative IPC: 0.474203 (Simulation time: 1 hr 20 min 41 sec) 
Heartbeat CPU 0 instructions: 933000000 cycles: 2026555798 heartbeat IPC: 0.430453 cumulative IPC: 0.474103 (Simulation time: 1 hr 20 min 47 sec) 
Heartbeat CPU 0 instructions: 934000000 cycles: 2028813579 heartbeat IPC: 0.442913 cumulative IPC: 0.474034 (Simulation time: 1 hr 20 min 53 sec) 
Heartbeat CPU 0 instructions: 935000000 cycles: 2031075097 heartbeat IPC: 0.442181 cumulative IPC: 0.473964 (Simulation time: 1 hr 20 min 58 sec) 
Heartbeat CPU 0 instructions: 936000001 cycles: 2033358291 heartbeat IPC: 0.437983 cumulative IPC: 0.473884 (Simulation time: 1 hr 21 min 4 sec) 
Heartbeat CPU 0 instructions: 937000001 cycles: 2035630633 heartbeat IPC: 0.440075 cumulative IPC: 0.473809 (Simulation time: 1 hr 21 min 10 sec) 
Heartbeat CPU 0 instructions: 938000000 cycles: 2037901809 heartbeat IPC: 0.4403 cumulative IPC: 0.473735 (Simulation time: 1 hr 21 min 15 sec) 
Heartbeat CPU 0 instructions: 939000000 cycles: 2040156376 heartbeat IPC: 0.443544 cumulative IPC: 0.473669 (Simulation time: 1 hr 21 min 21 sec) 
Heartbeat CPU 0 instructions: 940000000 cycles: 2042439049 heartbeat IPC: 0.438083 cumulative IPC: 0.473591 (Simulation time: 1 hr 21 min 27 sec) 
Heartbeat CPU 0 instructions: 941000002 cycles: 2044690277 heartbeat IPC: 0.444203 cumulative IPC: 0.473527 (Simulation time: 1 hr 21 min 33 sec) 
Heartbeat CPU 0 instructions: 942000003 cycles: 2047013082 heartbeat IPC: 0.430514 cumulative IPC: 0.473431 (Simulation time: 1 hr 21 min 39 sec) 
Heartbeat CPU 0 instructions: 943000000 cycles: 2049331299 heartbeat IPC: 0.431365 cumulative IPC: 0.473337 (Simulation time: 1 hr 21 min 45 sec) 
Heartbeat CPU 0 instructions: 944000002 cycles: 2051742772 heartbeat IPC: 0.414685 cumulative IPC: 0.473202 (Simulation time: 1 hr 21 min 51 sec) 
Heartbeat CPU 0 instructions: 945000000 cycles: 2054084305 heartbeat IPC: 0.42707 cumulative IPC: 0.473098 (Simulation time: 1 hr 21 min 57 sec) 
Heartbeat CPU 0 instructions: 946000000 cycles: 2056365951 heartbeat IPC: 0.43828 cumulative IPC: 0.473023 (Simulation time: 1 hr 22 min 2 sec) 
Heartbeat CPU 0 instructions: 947000000 cycles: 2058654449 heartbeat IPC: 0.436968 cumulative IPC: 0.472944 (Simulation time: 1 hr 22 min 8 sec) 
Heartbeat CPU 0 instructions: 948000002 cycles: 2060924696 heartbeat IPC: 0.440482 cumulative IPC: 0.472874 (Simulation time: 1 hr 22 min 14 sec) 
Heartbeat CPU 0 instructions: 949000000 cycles: 2063183322 heartbeat IPC: 0.442746 cumulative IPC: 0.47281 (Simulation time: 1 hr 22 min 20 sec) 
Heartbeat CPU 0 instructions: 950000001 cycles: 2065432856 heartbeat IPC: 0.444537 cumulative IPC: 0.47275 (Simulation time: 1 hr 22 min 25 sec) 
Finished CPU 0 instructions: 500000001 cycles: 1057642432 cumulative IPC: 0.47275 (Simulation time: 1 hr 22 min 25 sec) 

ChampSim completed all CPUs

Region of Interest Statistics

CPU 0 cumulative IPC: 0.47275 instructions: 500000001 cycles: 1057642432
L1D TOTAL     ACCESS:  182242183  HIT:  162139947  MISS:   20102236
L1D LOAD      ACCESS:  127799771  HIT:  109527853  MISS:   18271918
L1D RFO       ACCESS:   54442412  HIT:   52612094  MISS:    1830318
L1D PREFETCH  ACCESS:          0  HIT:          0  MISS:          0
L1D WRITEBACK ACCESS:          0  HIT:          0  MISS:          0
L1D PREFETCH  REQUESTED:          0  ISSUED:          0  USEFUL:          0  USELESS:          0
L1D AVERAGE MISS LATENCY: 60.5921 cycles
L1I TOTAL     ACCESS:   96499665  HIT:   96499665  MISS:          0
L1I LOAD      ACCESS:   96499665  HIT:   96499665  MISS:          0
L1I RFO       ACCESS:          0  HIT:          0  MISS:          0
L1I PREFETCH  ACCESS:          0  HIT:          0  MISS:          0
L1I WRITEBACK ACCESS:          0  HIT:          0  MISS:          0
L1I PREFETCH  REQUESTED:          0  ISSUED:          0  USEFUL:          0  USELESS:          0
L1I AVERAGE MISS LATENCY: -nan cycles
L2C TOTAL     ACCESS:   22881181  HIT:    8590256  MISS:   14290925
L2C LOAD      ACCESS:   18271817  HIT:    4825825  MISS:   13445992
L2C RFO       ACCESS:    1830287  HIT:     987244  MISS:     843043
L2C PREFETCH  ACCESS:          0  HIT:          0  MISS:          0
L2C WRITEBACK ACCESS:    2779077  HIT:    2777187  MISS:       1890
L2C PREFETCH  REQUESTED:          0  ISSUED:          0  USEFUL:          0  USELESS:          0
L2C AVERAGE MISS LATENCY: 64.785 cycles
LLC TOTAL     ACCESS:   28615867  HIT:   21463192  MISS:    7152675
LLC LOAD      ACCESS:   13445978  HIT:   11089552  MISS:    2356426
LLC RFO       ACCESS:     843027  HIT:     831265  MISS:      11762
LLC PREFETCH  ACCESS:   12668686  HIT:    7907912  MISS:    4760774
LLC WRITEBACK ACCESS:    1658176  HIT:    1634463  MISS:      23713
LLC PREFETCH  REQUESTED:   13428003  ISSUED:   12896855  USEFUL:    4125734  USELESS:     632802
LLC AVERAGE MISS LATENCY: 162.758 cycles
Major fault: 0 Minor fault: 121652
performance stats:
mapping cache size: 7679865
divergence: 11259320

DRAM Statistics
 CHANNEL 0
 RQ ROW_BUFFER_HIT:    2362689  ROW_BUFFER_MISS:    1199421
 DBUS_CONGESTED:    3308588
 WQ ROW_BUFFER_HIT:      28310  ROW_BUFFER_MISS:      25591  FULL:          0

 CHANNEL 1
 RQ ROW_BUFFER_HIT:    2366616  ROW_BUFFER_MISS:    1200176
 DBUS_CONGESTED:    3308588
 WQ ROW_BUFFER_HIT:      27321  ROW_BUFFER_MISS:      25472  FULL:          0

 AVG_CONGESTED_CYCLE: 14

CPU 0 Branch Prediction Accuracy: 93.4378% MPKI: 16.5871 Average ROB Occupancy at Mispredict: 26.5726

Branch types
NOT_BRANCH: 373615666 74.7231%
BRANCH_DIRECT_JUMP: 13596032 2.71921%
BRANCH_INDIRECT: 0 0%
BRANCH_CONDITIONAL: 86167671 17.2335%
BRANCH_DIRECT_CALL: 12564851 2.51297%
BRANCH_INDIRECT_CALL: 745446 0.149089%
BRANCH_RETURN: 13310294 2.66206%
BRANCH_OTHER: 0 0%

