
*** ChampSim Multicore Out-of-Order Simulator ***

Warmup Instructions: 1000000
Prefetch Warmup Instructions: 450000000
Simulation Instructions: 500000000
Stat Printing Period: 1000000
Number of CPUs: 1
LLC sets: 2048
LLC ways: 16
Off-chip DRAM Size: 32768 MB Channels: 2 Width: 64-bit Data Rate: 1024 MT/s

CPU 0 runs /scratch/cluster/cmolder/ML-DPC/ChampSimTraces/spec17/605.mcf-s2.trace.xz
Read seed: 273
Heartbeat CPU 0 instructions: 1000000 cycles: 462200 heartbeat IPC: 2.16357 cumulative IPC: 2.16357 (Simulation time: 0 hr 0 min 7 sec) 

Warmup complete CPU 0 instructions: 1000004 cycles: 462201 (Simulation time: 0 hr 0 min 7 sec) 

Heartbeat CPU 0 instructions: 2000001 cycles: 7036776 heartbeat IPC: 0.152101 cumulative IPC: 0.152101 (Simulation time: 0 hr 0 min 20 sec) 
Heartbeat CPU 0 instructions: 3000002 cycles: 13242668 heartbeat IPC: 0.161137 cumulative IPC: 0.156489 (Simulation time: 0 hr 0 min 33 sec) 
Heartbeat CPU 0 instructions: 4000002 cycles: 19386352 heartbeat IPC: 0.162769 cumulative IPC: 0.158527 (Simulation time: 0 hr 0 min 45 sec) 
Heartbeat CPU 0 instructions: 5000001 cycles: 26170583 heartbeat IPC: 0.1474 cumulative IPC: 0.155591 (Simulation time: 0 hr 0 min 58 sec) 
Heartbeat CPU 0 instructions: 6000001 cycles: 31878850 heartbeat IPC: 0.175185 cumulative IPC: 0.159151 (Simulation time: 0 hr 1 min 12 sec) 
Heartbeat CPU 0 instructions: 7000002 cycles: 38560079 heartbeat IPC: 0.149673 cumulative IPC: 0.157489 (Simulation time: 0 hr 1 min 24 sec) 
Heartbeat CPU 0 instructions: 8000000 cycles: 44538080 heartbeat IPC: 0.16728 cumulative IPC: 0.158817 (Simulation time: 0 hr 1 min 38 sec) 
Heartbeat CPU 0 instructions: 9000001 cycles: 50975732 heartbeat IPC: 0.155336 cumulative IPC: 0.158373 (Simulation time: 0 hr 1 min 51 sec) 
Heartbeat CPU 0 instructions: 10000001 cycles: 57238063 heartbeat IPC: 0.159685 cumulative IPC: 0.158518 (Simulation time: 0 hr 2 min 4 sec) 
Heartbeat CPU 0 instructions: 11000000 cycles: 62897420 heartbeat IPC: 0.176698 cumulative IPC: 0.160166 (Simulation time: 0 hr 2 min 18 sec) 
Heartbeat CPU 0 instructions: 12000003 cycles: 69885703 heartbeat IPC: 0.143097 cumulative IPC: 0.158448 (Simulation time: 0 hr 2 min 31 sec) 
Heartbeat CPU 0 instructions: 13000000 cycles: 76707808 heartbeat IPC: 0.146582 cumulative IPC: 0.157386 (Simulation time: 0 hr 2 min 44 sec) 
Heartbeat CPU 0 instructions: 14000003 cycles: 82560196 heartbeat IPC: 0.170871 cumulative IPC: 0.158347 (Simulation time: 0 hr 2 min 57 sec) 
Heartbeat CPU 0 instructions: 15000002 cycles: 88391086 heartbeat IPC: 0.1715 cumulative IPC: 0.15922 (Simulation time: 0 hr 3 min 11 sec) 
Heartbeat CPU 0 instructions: 16000001 cycles: 94357948 heartbeat IPC: 0.167592 cumulative IPC: 0.159752 (Simulation time: 0 hr 3 min 25 sec) 
Heartbeat CPU 0 instructions: 17000001 cycles: 100873736 heartbeat IPC: 0.153473 cumulative IPC: 0.159344 (Simulation time: 0 hr 3 min 37 sec) 
Heartbeat CPU 0 instructions: 18000002 cycles: 107218209 heartbeat IPC: 0.157618 cumulative IPC: 0.159242 (Simulation time: 0 hr 3 min 51 sec) 
Heartbeat CPU 0 instructions: 19000000 cycles: 114196547 heartbeat IPC: 0.1433 cumulative IPC: 0.158264 (Simulation time: 0 hr 4 min 4 sec) 
Heartbeat CPU 0 instructions: 20000000 cycles: 119709314 heartbeat IPC: 0.181397 cumulative IPC: 0.159333 (Simulation time: 0 hr 4 min 18 sec) 
Heartbeat CPU 0 instructions: 21000000 cycles: 125640565 heartbeat IPC: 0.168599 cumulative IPC: 0.159772 (Simulation time: 0 hr 4 min 32 sec) 
Heartbeat CPU 0 instructions: 22000000 cycles: 132688145 heartbeat IPC: 0.141893 cumulative IPC: 0.158819 (Simulation time: 0 hr 4 min 44 sec) 
Heartbeat CPU 0 instructions: 23000000 cycles: 138438244 heartbeat IPC: 0.17391 cumulative IPC: 0.159448 (Simulation time: 0 hr 4 min 59 sec) 
Heartbeat CPU 0 instructions: 24000001 cycles: 144155065 heartbeat IPC: 0.174923 cumulative IPC: 0.160064 (Simulation time: 0 hr 5 min 12 sec) 
Heartbeat CPU 0 instructions: 25000000 cycles: 150750578 heartbeat IPC: 0.151618 cumulative IPC: 0.159693 (Simulation time: 0 hr 5 min 26 sec) 
Heartbeat CPU 0 instructions: 26000001 cycles: 156772571 heartbeat IPC: 0.166058 cumulative IPC: 0.159938 (Simulation time: 0 hr 5 min 40 sec) 
Heartbeat CPU 0 instructions: 27000001 cycles: 163484830 heartbeat IPC: 0.148981 cumulative IPC: 0.159487 (Simulation time: 0 hr 5 min 53 sec) 
Heartbeat CPU 0 instructions: 28000001 cycles: 169713364 heartbeat IPC: 0.160551 cumulative IPC: 0.159526 (Simulation time: 0 hr 6 min 7 sec) 
Heartbeat CPU 0 instructions: 29000000 cycles: 175743914 heartbeat IPC: 0.165822 cumulative IPC: 0.159743 (Simulation time: 0 hr 6 min 21 sec) 
Heartbeat CPU 0 instructions: 30000002 cycles: 181598549 heartbeat IPC: 0.170805 cumulative IPC: 0.1601 (Simulation time: 0 hr 6 min 35 sec) 
Heartbeat CPU 0 instructions: 31000002 cycles: 187385842 heartbeat IPC: 0.172792 cumulative IPC: 0.160493 (Simulation time: 0 hr 6 min 48 sec) 
Heartbeat CPU 0 instructions: 32000002 cycles: 193503571 heartbeat IPC: 0.163459 cumulative IPC: 0.160587 (Simulation time: 0 hr 7 min 2 sec) 
Heartbeat CPU 0 instructions: 33000000 cycles: 200327335 heartbeat IPC: 0.146546 cumulative IPC: 0.160108 (Simulation time: 0 hr 7 min 15 sec) 
Heartbeat CPU 0 instructions: 34000000 cycles: 206385746 heartbeat IPC: 0.16506 cumulative IPC: 0.160254 (Simulation time: 0 hr 7 min 29 sec) 
Heartbeat CPU 0 instructions: 35000003 cycles: 212250438 heartbeat IPC: 0.170512 cumulative IPC: 0.160538 (Simulation time: 0 hr 7 min 43 sec) 
Heartbeat CPU 0 instructions: 36000003 cycles: 218848674 heartbeat IPC: 0.151556 cumulative IPC: 0.160266 (Simulation time: 0 hr 7 min 56 sec) 
Heartbeat CPU 0 instructions: 37000000 cycles: 224861734 heartbeat IPC: 0.166304 cumulative IPC: 0.160428 (Simulation time: 0 hr 8 min 10 sec) 
Heartbeat CPU 0 instructions: 38000001 cycles: 231760018 heartbeat IPC: 0.144964 cumulative IPC: 0.159967 (Simulation time: 0 hr 8 min 23 sec) 
Heartbeat CPU 0 instructions: 39000000 cycles: 238116744 heartbeat IPC: 0.157314 cumulative IPC: 0.159896 (Simulation time: 0 hr 8 min 36 sec) 
Heartbeat CPU 0 instructions: 40000001 cycles: 244168233 heartbeat IPC: 0.165249 cumulative IPC: 0.160029 (Simulation time: 0 hr 8 min 50 sec) 
Heartbeat CPU 0 instructions: 41000000 cycles: 250147173 heartbeat IPC: 0.167254 cumulative IPC: 0.160202 (Simulation time: 0 hr 9 min 3 sec) 
Heartbeat CPU 0 instructions: 42000000 cycles: 256986337 heartbeat IPC: 0.146217 cumulative IPC: 0.159829 (Simulation time: 0 hr 9 min 15 sec) 
Heartbeat CPU 0 instructions: 43000003 cycles: 262675342 heartbeat IPC: 0.175778 cumulative IPC: 0.160175 (Simulation time: 0 hr 9 min 29 sec) 
Heartbeat CPU 0 instructions: 44000000 cycles: 268634555 heartbeat IPC: 0.167807 cumulative IPC: 0.160345 (Simulation time: 0 hr 9 min 42 sec) 
Heartbeat CPU 0 instructions: 45000000 cycles: 274814043 heartbeat IPC: 0.161826 cumulative IPC: 0.160378 (Simulation time: 0 hr 9 min 54 sec) 
Heartbeat CPU 0 instructions: 46000001 cycles: 281140411 heartbeat IPC: 0.158069 cumulative IPC: 0.160326 (Simulation time: 0 hr 10 min 7 sec) 
Heartbeat CPU 0 instructions: 47000003 cycles: 287177378 heartbeat IPC: 0.165646 cumulative IPC: 0.160438 (Simulation time: 0 hr 10 min 20 sec) 
Heartbeat CPU 0 instructions: 48000001 cycles: 293298268 heartbeat IPC: 0.163375 cumulative IPC: 0.160499 (Simulation time: 0 hr 10 min 32 sec) 
Heartbeat CPU 0 instructions: 49000000 cycles: 299682659 heartbeat IPC: 0.156632 cumulative IPC: 0.160417 (Simulation time: 0 hr 10 min 45 sec) 
Heartbeat CPU 0 instructions: 50000000 cycles: 306434218 heartbeat IPC: 0.148114 cumulative IPC: 0.160145 (Simulation time: 0 hr 10 min 57 sec) 
Heartbeat CPU 0 instructions: 51000001 cycles: 312163636 heartbeat IPC: 0.174538 cumulative IPC: 0.16041 (Simulation time: 0 hr 11 min 11 sec) 
Heartbeat CPU 0 instructions: 52000003 cycles: 318142314 heartbeat IPC: 0.167261 cumulative IPC: 0.160539 (Simulation time: 0 hr 11 min 24 sec) 
Heartbeat CPU 0 instructions: 53000002 cycles: 323899133 heartbeat IPC: 0.173707 cumulative IPC: 0.160773 (Simulation time: 0 hr 11 min 37 sec) 
Heartbeat CPU 0 instructions: 54000001 cycles: 330868180 heartbeat IPC: 0.143491 cumulative IPC: 0.160409 (Simulation time: 0 hr 11 min 49 sec) 
Heartbeat CPU 0 instructions: 55000000 cycles: 337164480 heartbeat IPC: 0.158823 cumulative IPC: 0.160379 (Simulation time: 0 hr 12 min 2 sec) 
Heartbeat CPU 0 instructions: 56000000 cycles: 343194366 heartbeat IPC: 0.165841 cumulative IPC: 0.160475 (Simulation time: 0 hr 12 min 15 sec) 
Heartbeat CPU 0 instructions: 57000000 cycles: 349167472 heartbeat IPC: 0.167417 cumulative IPC: 0.160594 (Simulation time: 0 hr 12 min 28 sec) 
Heartbeat CPU 0 instructions: 58000001 cycles: 355318243 heartbeat IPC: 0.162581 cumulative IPC: 0.160629 (Simulation time: 0 hr 12 min 41 sec) 
Heartbeat CPU 0 instructions: 59000003 cycles: 362153439 heartbeat IPC: 0.146302 cumulative IPC: 0.160358 (Simulation time: 0 hr 12 min 53 sec) 
Heartbeat CPU 0 instructions: 60000002 cycles: 368788495 heartbeat IPC: 0.150714 cumulative IPC: 0.160184 (Simulation time: 0 hr 13 min 6 sec) 
Heartbeat CPU 0 instructions: 61000001 cycles: 374754377 heartbeat IPC: 0.16762 cumulative IPC: 0.160303 (Simulation time: 0 hr 13 min 20 sec) 
Heartbeat CPU 0 instructions: 62000000 cycles: 381588629 heartbeat IPC: 0.146322 cumulative IPC: 0.160052 (Simulation time: 0 hr 13 min 33 sec) 
Heartbeat CPU 0 instructions: 63000000 cycles: 387999143 heartbeat IPC: 0.155994 cumulative IPC: 0.159985 (Simulation time: 0 hr 13 min 46 sec) 
Heartbeat CPU 0 instructions: 64000002 cycles: 393922215 heartbeat IPC: 0.168832 cumulative IPC: 0.160118 (Simulation time: 0 hr 14 min 0 sec) 
Heartbeat CPU 0 instructions: 65000001 cycles: 400048293 heartbeat IPC: 0.163236 cumulative IPC: 0.160166 (Simulation time: 0 hr 14 min 14 sec) 
Heartbeat CPU 0 instructions: 66000000 cycles: 406547499 heartbeat IPC: 0.153865 cumulative IPC: 0.160065 (Simulation time: 0 hr 14 min 27 sec) 
Heartbeat CPU 0 instructions: 67000000 cycles: 412412024 heartbeat IPC: 0.170517 cumulative IPC: 0.160214 (Simulation time: 0 hr 14 min 40 sec) 
Heartbeat CPU 0 instructions: 68000000 cycles: 418528150 heartbeat IPC: 0.163502 cumulative IPC: 0.160262 (Simulation time: 0 hr 14 min 54 sec) 
Heartbeat CPU 0 instructions: 69000003 cycles: 424913962 heartbeat IPC: 0.156598 cumulative IPC: 0.160207 (Simulation time: 0 hr 15 min 8 sec) 
Heartbeat CPU 0 instructions: 70000000 cycles: 432000671 heartbeat IPC: 0.141109 cumulative IPC: 0.159893 (Simulation time: 0 hr 15 min 21 sec) 
Heartbeat CPU 0 instructions: 71000000 cycles: 438891585 heartbeat IPC: 0.145119 cumulative IPC: 0.159661 (Simulation time: 0 hr 15 min 34 sec) 
Heartbeat CPU 0 instructions: 72000002 cycles: 445327588 heartbeat IPC: 0.155376 cumulative IPC: 0.159599 (Simulation time: 0 hr 15 min 47 sec) 
Heartbeat CPU 0 instructions: 73000002 cycles: 452184087 heartbeat IPC: 0.145847 cumulative IPC: 0.15939 (Simulation time: 0 hr 16 min 0 sec) 
Heartbeat CPU 0 instructions: 74000002 cycles: 458016619 heartbeat IPC: 0.171452 cumulative IPC: 0.159544 (Simulation time: 0 hr 16 min 15 sec) 
Heartbeat CPU 0 instructions: 75000003 cycles: 465247306 heartbeat IPC: 0.1383 cumulative IPC: 0.159213 (Simulation time: 0 hr 16 min 27 sec) 
Heartbeat CPU 0 instructions: 76000000 cycles: 472044637 heartbeat IPC: 0.147116 cumulative IPC: 0.159039 (Simulation time: 0 hr 16 min 41 sec) 
Heartbeat CPU 0 instructions: 77000000 cycles: 478374141 heartbeat IPC: 0.15799 cumulative IPC: 0.159025 (Simulation time: 0 hr 16 min 54 sec) 
Heartbeat CPU 0 instructions: 78000000 cycles: 484622770 heartbeat IPC: 0.160035 cumulative IPC: 0.159038 (Simulation time: 0 hr 17 min 8 sec) 
Heartbeat CPU 0 instructions: 79000001 cycles: 490335825 heartbeat IPC: 0.175038 cumulative IPC: 0.159225 (Simulation time: 0 hr 17 min 22 sec) 
Heartbeat CPU 0 instructions: 80000000 cycles: 496765426 heartbeat IPC: 0.15553 cumulative IPC: 0.159177 (Simulation time: 0 hr 17 min 35 sec) 
Heartbeat CPU 0 instructions: 81000000 cycles: 502639345 heartbeat IPC: 0.170244 cumulative IPC: 0.159306 (Simulation time: 0 hr 17 min 49 sec) 
Heartbeat CPU 0 instructions: 82000001 cycles: 509246569 heartbeat IPC: 0.15135 cumulative IPC: 0.159203 (Simulation time: 0 hr 18 min 2 sec) 
Heartbeat CPU 0 instructions: 83000003 cycles: 515736555 heartbeat IPC: 0.154084 cumulative IPC: 0.159139 (Simulation time: 0 hr 18 min 16 sec) 
Heartbeat CPU 0 instructions: 84000001 cycles: 522071082 heartbeat IPC: 0.157865 cumulative IPC: 0.159123 (Simulation time: 0 hr 18 min 30 sec) 
Heartbeat CPU 0 instructions: 85000000 cycles: 528222630 heartbeat IPC: 0.162561 cumulative IPC: 0.159163 (Simulation time: 0 hr 18 min 44 sec) 
Heartbeat CPU 0 instructions: 86000002 cycles: 534407981 heartbeat IPC: 0.161673 cumulative IPC: 0.159192 (Simulation time: 0 hr 18 min 58 sec) 
Heartbeat CPU 0 instructions: 87000003 cycles: 540662454 heartbeat IPC: 0.159886 cumulative IPC: 0.1592 (Simulation time: 0 hr 19 min 11 sec) 
Heartbeat CPU 0 instructions: 88000000 cycles: 547588735 heartbeat IPC: 0.144377 cumulative IPC: 0.159013 (Simulation time: 0 hr 19 min 24 sec) 
Heartbeat CPU 0 instructions: 89000002 cycles: 553830370 heartbeat IPC: 0.160215 cumulative IPC: 0.159026 (Simulation time: 0 hr 19 min 38 sec) 
Heartbeat CPU 0 instructions: 90000003 cycles: 560227168 heartbeat IPC: 0.156328 cumulative IPC: 0.158995 (Simulation time: 0 hr 19 min 53 sec) 
Heartbeat CPU 0 instructions: 91000002 cycles: 566527034 heartbeat IPC: 0.158733 cumulative IPC: 0.158992 (Simulation time: 0 hr 20 min 5 sec) 
Heartbeat CPU 0 instructions: 92000001 cycles: 572515424 heartbeat IPC: 0.16699 cumulative IPC: 0.159076 (Simulation time: 0 hr 20 min 19 sec) 
Heartbeat CPU 0 instructions: 93000002 cycles: 579280591 heartbeat IPC: 0.147816 cumulative IPC: 0.158945 (Simulation time: 0 hr 20 min 31 sec) 
Heartbeat CPU 0 instructions: 94000003 cycles: 585132052 heartbeat IPC: 0.170898 cumulative IPC: 0.159064 (Simulation time: 0 hr 20 min 45 sec) 
Heartbeat CPU 0 instructions: 95000002 cycles: 590873344 heartbeat IPC: 0.174177 cumulative IPC: 0.159211 (Simulation time: 0 hr 20 min 58 sec) 
Heartbeat CPU 0 instructions: 96000001 cycles: 597582649 heartbeat IPC: 0.149047 cumulative IPC: 0.159097 (Simulation time: 0 hr 21 min 12 sec) 
Heartbeat CPU 0 instructions: 97000000 cycles: 603515858 heartbeat IPC: 0.168543 cumulative IPC: 0.15919 (Simulation time: 0 hr 21 min 25 sec) 
Heartbeat CPU 0 instructions: 98000002 cycles: 609682575 heartbeat IPC: 0.162161 cumulative IPC: 0.15922 (Simulation time: 0 hr 21 min 39 sec) 
Heartbeat CPU 0 instructions: 99000000 cycles: 616313366 heartbeat IPC: 0.150811 cumulative IPC: 0.159129 (Simulation time: 0 hr 21 min 53 sec) 
Heartbeat CPU 0 instructions: 100000000 cycles: 622917616 heartbeat IPC: 0.151418 cumulative IPC: 0.159048 (Simulation time: 0 hr 22 min 6 sec) 
Heartbeat CPU 0 instructions: 101000000 cycles: 629240438 heartbeat IPC: 0.158157 cumulative IPC: 0.159039 (Simulation time: 0 hr 22 min 19 sec) 
Heartbeat CPU 0 instructions: 102000003 cycles: 635792278 heartbeat IPC: 0.152629 cumulative IPC: 0.158972 (Simulation time: 0 hr 22 min 33 sec) 
Heartbeat CPU 0 instructions: 103000001 cycles: 641782248 heartbeat IPC: 0.166945 cumulative IPC: 0.159047 (Simulation time: 0 hr 22 min 47 sec) 
Heartbeat CPU 0 instructions: 104000003 cycles: 648297728 heartbeat IPC: 0.153481 cumulative IPC: 0.158991 (Simulation time: 0 hr 23 min 1 sec) 
Heartbeat CPU 0 instructions: 105000001 cycles: 654437740 heartbeat IPC: 0.162866 cumulative IPC: 0.159027 (Simulation time: 0 hr 23 min 15 sec) 
Heartbeat CPU 0 instructions: 106000002 cycles: 661158755 heartbeat IPC: 0.148787 cumulative IPC: 0.158923 (Simulation time: 0 hr 23 min 28 sec) 
Heartbeat CPU 0 instructions: 107000000 cycles: 667401239 heartbeat IPC: 0.160192 cumulative IPC: 0.158935 (Simulation time: 0 hr 23 min 43 sec) 
Heartbeat CPU 0 instructions: 108000003 cycles: 673256423 heartbeat IPC: 0.170789 cumulative IPC: 0.159038 (Simulation time: 0 hr 23 min 57 sec) 
Heartbeat CPU 0 instructions: 109000002 cycles: 679802942 heartbeat IPC: 0.152753 cumulative IPC: 0.158978 (Simulation time: 0 hr 24 min 11 sec) 
Heartbeat CPU 0 instructions: 110000000 cycles: 686106452 heartbeat IPC: 0.158641 cumulative IPC: 0.158975 (Simulation time: 0 hr 24 min 25 sec) 
Heartbeat CPU 0 instructions: 111000000 cycles: 691891809 heartbeat IPC: 0.17285 cumulative IPC: 0.159091 (Simulation time: 0 hr 24 min 39 sec) 
Heartbeat CPU 0 instructions: 112000002 cycles: 697996540 heartbeat IPC: 0.163808 cumulative IPC: 0.159132 (Simulation time: 0 hr 24 min 53 sec) 
Heartbeat CPU 0 instructions: 113000002 cycles: 704459535 heartbeat IPC: 0.154727 cumulative IPC: 0.159092 (Simulation time: 0 hr 25 min 6 sec) 
Heartbeat CPU 0 instructions: 114000002 cycles: 710828420 heartbeat IPC: 0.157013 cumulative IPC: 0.159073 (Simulation time: 0 hr 25 min 20 sec) 
Heartbeat CPU 0 instructions: 115000001 cycles: 716800600 heartbeat IPC: 0.167443 cumulative IPC: 0.159143 (Simulation time: 0 hr 25 min 35 sec) 
Heartbeat CPU 0 instructions: 116000001 cycles: 722562517 heartbeat IPC: 0.173553 cumulative IPC: 0.159258 (Simulation time: 0 hr 25 min 49 sec) 
Heartbeat CPU 0 instructions: 117000002 cycles: 728946226 heartbeat IPC: 0.156649 cumulative IPC: 0.159235 (Simulation time: 0 hr 26 min 2 sec) 
Heartbeat CPU 0 instructions: 118000000 cycles: 734817221 heartbeat IPC: 0.170329 cumulative IPC: 0.159323 (Simulation time: 0 hr 26 min 16 sec) 
Heartbeat CPU 0 instructions: 119000001 cycles: 740580806 heartbeat IPC: 0.173503 cumulative IPC: 0.159434 (Simulation time: 0 hr 26 min 30 sec) 
Heartbeat CPU 0 instructions: 120000000 cycles: 747464420 heartbeat IPC: 0.145272 cumulative IPC: 0.159303 (Simulation time: 0 hr 26 min 44 sec) 
Heartbeat CPU 0 instructions: 121000000 cycles: 753833487 heartbeat IPC: 0.157009 cumulative IPC: 0.159284 (Simulation time: 0 hr 26 min 57 sec) 
Heartbeat CPU 0 instructions: 122000001 cycles: 759781849 heartbeat IPC: 0.168114 cumulative IPC: 0.159353 (Simulation time: 0 hr 27 min 11 sec) 
Heartbeat CPU 0 instructions: 123000003 cycles: 765995031 heartbeat IPC: 0.160948 cumulative IPC: 0.159366 (Simulation time: 0 hr 27 min 25 sec) 
Heartbeat CPU 0 instructions: 124000001 cycles: 772293155 heartbeat IPC: 0.158777 cumulative IPC: 0.159361 (Simulation time: 0 hr 27 min 38 sec) 
Heartbeat CPU 0 instructions: 125000001 cycles: 778641803 heartbeat IPC: 0.157514 cumulative IPC: 0.159346 (Simulation time: 0 hr 27 min 51 sec) 
Heartbeat CPU 0 instructions: 126000000 cycles: 784826288 heartbeat IPC: 0.161695 cumulative IPC: 0.159365 (Simulation time: 0 hr 28 min 3 sec) 
Heartbeat CPU 0 instructions: 127000003 cycles: 791123978 heartbeat IPC: 0.158789 cumulative IPC: 0.15936 (Simulation time: 0 hr 28 min 16 sec) 
Heartbeat CPU 0 instructions: 128000002 cycles: 797535860 heartbeat IPC: 0.15596 cumulative IPC: 0.159333 (Simulation time: 0 hr 28 min 30 sec) 
Heartbeat CPU 0 instructions: 129000000 cycles: 803670647 heartbeat IPC: 0.163005 cumulative IPC: 0.159361 (Simulation time: 0 hr 28 min 44 sec) 
Heartbeat CPU 0 instructions: 130000000 cycles: 809996769 heartbeat IPC: 0.158075 cumulative IPC: 0.159351 (Simulation time: 0 hr 28 min 58 sec) 
Heartbeat CPU 0 instructions: 131000001 cycles: 815682816 heartbeat IPC: 0.175869 cumulative IPC: 0.159466 (Simulation time: 0 hr 29 min 13 sec) 
Heartbeat CPU 0 instructions: 132000000 cycles: 822421823 heartbeat IPC: 0.14839 cumulative IPC: 0.159375 (Simulation time: 0 hr 29 min 26 sec) 
Heartbeat CPU 0 instructions: 133000002 cycles: 829220917 heartbeat IPC: 0.147079 cumulative IPC: 0.159274 (Simulation time: 0 hr 29 min 39 sec) 
Heartbeat CPU 0 instructions: 134000000 cycles: 836285245 heartbeat IPC: 0.141556 cumulative IPC: 0.159125 (Simulation time: 0 hr 29 min 53 sec) 
Heartbeat CPU 0 instructions: 135000001 cycles: 842618641 heartbeat IPC: 0.157893 cumulative IPC: 0.159115 (Simulation time: 0 hr 30 min 7 sec) 
Heartbeat CPU 0 instructions: 136000001 cycles: 849072262 heartbeat IPC: 0.154952 cumulative IPC: 0.159084 (Simulation time: 0 hr 30 min 21 sec) 
Heartbeat CPU 0 instructions: 137000001 cycles: 854987302 heartbeat IPC: 0.169061 cumulative IPC: 0.159153 (Simulation time: 0 hr 30 min 36 sec) 
Heartbeat CPU 0 instructions: 138000002 cycles: 861666822 heartbeat IPC: 0.149712 cumulative IPC: 0.159079 (Simulation time: 0 hr 30 min 49 sec) 
Heartbeat CPU 0 instructions: 139000002 cycles: 867672496 heartbeat IPC: 0.166509 cumulative IPC: 0.159131 (Simulation time: 0 hr 31 min 4 sec) 
Heartbeat CPU 0 instructions: 140000000 cycles: 873631933 heartbeat IPC: 0.167801 cumulative IPC: 0.15919 (Simulation time: 0 hr 31 min 18 sec) 
Heartbeat CPU 0 instructions: 141000000 cycles: 879855213 heartbeat IPC: 0.160687 cumulative IPC: 0.159201 (Simulation time: 0 hr 31 min 32 sec) 
Heartbeat CPU 0 instructions: 142000001 cycles: 886097412 heartbeat IPC: 0.1602 cumulative IPC: 0.159208 (Simulation time: 0 hr 31 min 46 sec) 
Heartbeat CPU 0 instructions: 143000000 cycles: 892625501 heartbeat IPC: 0.153184 cumulative IPC: 0.159164 (Simulation time: 0 hr 32 min 0 sec) 
Heartbeat CPU 0 instructions: 144000000 cycles: 898533568 heartbeat IPC: 0.16926 cumulative IPC: 0.15923 (Simulation time: 0 hr 32 min 14 sec) 
Heartbeat CPU 0 instructions: 145000000 cycles: 904948759 heartbeat IPC: 0.15588 cumulative IPC: 0.159206 (Simulation time: 0 hr 32 min 28 sec) 
Heartbeat CPU 0 instructions: 146000000 cycles: 911084666 heartbeat IPC: 0.162975 cumulative IPC: 0.159232 (Simulation time: 0 hr 32 min 42 sec) 
Heartbeat CPU 0 instructions: 147000000 cycles: 917049732 heartbeat IPC: 0.167643 cumulative IPC: 0.159286 (Simulation time: 0 hr 32 min 57 sec) 
Heartbeat CPU 0 instructions: 148000001 cycles: 923389659 heartbeat IPC: 0.157731 cumulative IPC: 0.159276 (Simulation time: 0 hr 33 min 11 sec) 
Heartbeat CPU 0 instructions: 149000000 cycles: 929999836 heartbeat IPC: 0.151282 cumulative IPC: 0.159219 (Simulation time: 0 hr 33 min 24 sec) 
Heartbeat CPU 0 instructions: 150000001 cycles: 936003870 heartbeat IPC: 0.166555 cumulative IPC: 0.159266 (Simulation time: 0 hr 33 min 39 sec) 
Heartbeat CPU 0 instructions: 151000001 cycles: 941767342 heartbeat IPC: 0.173507 cumulative IPC: 0.159353 (Simulation time: 0 hr 33 min 53 sec) 
Heartbeat CPU 0 instructions: 152000001 cycles: 947684485 heartbeat IPC: 0.169 cumulative IPC: 0.159413 (Simulation time: 0 hr 34 min 8 sec) 
Heartbeat CPU 0 instructions: 153000000 cycles: 953676986 heartbeat IPC: 0.166875 cumulative IPC: 0.15946 (Simulation time: 0 hr 34 min 22 sec) 
Heartbeat CPU 0 instructions: 154000000 cycles: 959549435 heartbeat IPC: 0.170287 cumulative IPC: 0.159527 (Simulation time: 0 hr 34 min 36 sec) 
Heartbeat CPU 0 instructions: 155000002 cycles: 965460524 heartbeat IPC: 0.169174 cumulative IPC: 0.159586 (Simulation time: 0 hr 34 min 51 sec) 
Heartbeat CPU 0 instructions: 156000003 cycles: 971230319 heartbeat IPC: 0.173317 cumulative IPC: 0.159667 (Simulation time: 0 hr 35 min 5 sec) 
Heartbeat CPU 0 instructions: 157000002 cycles: 978064792 heartbeat IPC: 0.146317 cumulative IPC: 0.159574 (Simulation time: 0 hr 35 min 18 sec) 
Heartbeat CPU 0 instructions: 158000002 cycles: 984635301 heartbeat IPC: 0.152195 cumulative IPC: 0.159525 (Simulation time: 0 hr 35 min 32 sec) 
Heartbeat CPU 0 instructions: 159000001 cycles: 990447929 heartbeat IPC: 0.172039 cumulative IPC: 0.159598 (Simulation time: 0 hr 35 min 46 sec) 
Heartbeat CPU 0 instructions: 160000000 cycles: 997013551 heartbeat IPC: 0.152308 cumulative IPC: 0.15955 (Simulation time: 0 hr 36 min 0 sec) 
Heartbeat CPU 0 instructions: 161000002 cycles: 1003464184 heartbeat IPC: 0.155024 cumulative IPC: 0.159521 (Simulation time: 0 hr 36 min 14 sec) 
Heartbeat CPU 0 instructions: 162000000 cycles: 1010181004 heartbeat IPC: 0.14888 cumulative IPC: 0.15945 (Simulation time: 0 hr 36 min 28 sec) 
Heartbeat CPU 0 instructions: 163000002 cycles: 1016992409 heartbeat IPC: 0.146813 cumulative IPC: 0.159366 (Simulation time: 0 hr 36 min 41 sec) 
Heartbeat CPU 0 instructions: 164000000 cycles: 1023024558 heartbeat IPC: 0.165778 cumulative IPC: 0.159403 (Simulation time: 0 hr 36 min 56 sec) 
Heartbeat CPU 0 instructions: 165000000 cycles: 1029294090 heartbeat IPC: 0.159502 cumulative IPC: 0.159404 (Simulation time: 0 hr 37 min 11 sec) 
Heartbeat CPU 0 instructions: 166000003 cycles: 1035207532 heartbeat IPC: 0.169107 cumulative IPC: 0.15946 (Simulation time: 0 hr 37 min 25 sec) 
Heartbeat CPU 0 instructions: 167000000 cycles: 1041171908 heartbeat IPC: 0.167662 cumulative IPC: 0.159507 (Simulation time: 0 hr 37 min 40 sec) 
Heartbeat CPU 0 instructions: 168000001 cycles: 1047061839 heartbeat IPC: 0.169781 cumulative IPC: 0.159564 (Simulation time: 0 hr 37 min 55 sec) 
Heartbeat CPU 0 instructions: 169000000 cycles: 1052887898 heartbeat IPC: 0.171642 cumulative IPC: 0.159631 (Simulation time: 0 hr 38 min 10 sec) 
Heartbeat CPU 0 instructions: 170000003 cycles: 1058774138 heartbeat IPC: 0.169888 cumulative IPC: 0.159688 (Simulation time: 0 hr 38 min 24 sec) 
Heartbeat CPU 0 instructions: 171000003 cycles: 1065278673 heartbeat IPC: 0.153739 cumulative IPC: 0.159652 (Simulation time: 0 hr 38 min 38 sec) 
Heartbeat CPU 0 instructions: 172000000 cycles: 1071434328 heartbeat IPC: 0.162452 cumulative IPC: 0.159668 (Simulation time: 0 hr 38 min 52 sec) 
Heartbeat CPU 0 instructions: 173000003 cycles: 1077673130 heartbeat IPC: 0.160288 cumulative IPC: 0.159672 (Simulation time: 0 hr 39 min 7 sec) 
Heartbeat CPU 0 instructions: 174000001 cycles: 1083519654 heartbeat IPC: 0.171041 cumulative IPC: 0.159733 (Simulation time: 0 hr 39 min 22 sec) 
Heartbeat CPU 0 instructions: 175000001 cycles: 1089947517 heartbeat IPC: 0.155573 cumulative IPC: 0.159708 (Simulation time: 0 hr 39 min 36 sec) 
Heartbeat CPU 0 instructions: 176000000 cycles: 1095758622 heartbeat IPC: 0.172084 cumulative IPC: 0.159774 (Simulation time: 0 hr 39 min 50 sec) 
Heartbeat CPU 0 instructions: 177000003 cycles: 1101973394 heartbeat IPC: 0.160907 cumulative IPC: 0.15978 (Simulation time: 0 hr 40 min 4 sec) 
Heartbeat CPU 0 instructions: 178000002 cycles: 1108561654 heartbeat IPC: 0.151785 cumulative IPC: 0.159733 (Simulation time: 0 hr 40 min 18 sec) 
Heartbeat CPU 0 instructions: 179000000 cycles: 1114529866 heartbeat IPC: 0.167554 cumulative IPC: 0.159775 (Simulation time: 0 hr 40 min 32 sec) 
Heartbeat CPU 0 instructions: 180000001 cycles: 1120987935 heartbeat IPC: 0.154845 cumulative IPC: 0.159746 (Simulation time: 0 hr 40 min 45 sec) 
Heartbeat CPU 0 instructions: 181000002 cycles: 1128003276 heartbeat IPC: 0.142545 cumulative IPC: 0.159639 (Simulation time: 0 hr 40 min 58 sec) 
Heartbeat CPU 0 instructions: 182000002 cycles: 1133844018 heartbeat IPC: 0.171211 cumulative IPC: 0.159699 (Simulation time: 0 hr 41 min 12 sec) 
Heartbeat CPU 0 instructions: 183000000 cycles: 1139779270 heartbeat IPC: 0.168485 cumulative IPC: 0.159745 (Simulation time: 0 hr 41 min 26 sec) 
Heartbeat CPU 0 instructions: 184000002 cycles: 1146046109 heartbeat IPC: 0.15957 cumulative IPC: 0.159744 (Simulation time: 0 hr 41 min 38 sec) 
Heartbeat CPU 0 instructions: 185000001 cycles: 1151972872 heartbeat IPC: 0.168726 cumulative IPC: 0.15979 (Simulation time: 0 hr 41 min 52 sec) 
Heartbeat CPU 0 instructions: 186000002 cycles: 1157925380 heartbeat IPC: 0.167997 cumulative IPC: 0.159832 (Simulation time: 0 hr 42 min 5 sec) 
Heartbeat CPU 0 instructions: 187000000 cycles: 1163958157 heartbeat IPC: 0.165761 cumulative IPC: 0.159863 (Simulation time: 0 hr 42 min 19 sec) 
Heartbeat CPU 0 instructions: 188000003 cycles: 1169751603 heartbeat IPC: 0.172609 cumulative IPC: 0.159926 (Simulation time: 0 hr 42 min 32 sec) 
Heartbeat CPU 0 instructions: 189000000 cycles: 1175787027 heartbeat IPC: 0.165688 cumulative IPC: 0.159956 (Simulation time: 0 hr 42 min 46 sec) 
Heartbeat CPU 0 instructions: 190000000 cycles: 1181766202 heartbeat IPC: 0.167247 cumulative IPC: 0.159993 (Simulation time: 0 hr 43 min 0 sec) 
Heartbeat CPU 0 instructions: 191000001 cycles: 1188186524 heartbeat IPC: 0.155756 cumulative IPC: 0.15997 (Simulation time: 0 hr 43 min 13 sec) 
Heartbeat CPU 0 instructions: 192000001 cycles: 1194258361 heartbeat IPC: 0.164695 cumulative IPC: 0.159994 (Simulation time: 0 hr 43 min 27 sec) 
Heartbeat CPU 0 instructions: 193000000 cycles: 1200550866 heartbeat IPC: 0.158919 cumulative IPC: 0.159988 (Simulation time: 0 hr 43 min 40 sec) 
Heartbeat CPU 0 instructions: 194000000 cycles: 1206741390 heartbeat IPC: 0.161537 cumulative IPC: 0.159996 (Simulation time: 0 hr 43 min 54 sec) 
Heartbeat CPU 0 instructions: 195000000 cycles: 1212778388 heartbeat IPC: 0.165645 cumulative IPC: 0.160024 (Simulation time: 0 hr 44 min 8 sec) 
Heartbeat CPU 0 instructions: 196000002 cycles: 1218733839 heartbeat IPC: 0.167914 cumulative IPC: 0.160063 (Simulation time: 0 hr 44 min 22 sec) 
Heartbeat CPU 0 instructions: 197000001 cycles: 1224623451 heartbeat IPC: 0.16979 cumulative IPC: 0.16011 (Simulation time: 0 hr 44 min 38 sec) 
Heartbeat CPU 0 instructions: 198000000 cycles: 1230956242 heartbeat IPC: 0.157908 cumulative IPC: 0.160098 (Simulation time: 0 hr 44 min 52 sec) 
Heartbeat CPU 0 instructions: 199000000 cycles: 1237340938 heartbeat IPC: 0.156625 cumulative IPC: 0.16008 (Simulation time: 0 hr 45 min 5 sec) 
Heartbeat CPU 0 instructions: 200000001 cycles: 1243861398 heartbeat IPC: 0.153364 cumulative IPC: 0.160045 (Simulation time: 0 hr 45 min 19 sec) 
Heartbeat CPU 0 instructions: 201000003 cycles: 1250296038 heartbeat IPC: 0.155409 cumulative IPC: 0.160021 (Simulation time: 0 hr 45 min 32 sec) 
Heartbeat CPU 0 instructions: 202000003 cycles: 1256199669 heartbeat IPC: 0.169387 cumulative IPC: 0.160065 (Simulation time: 0 hr 45 min 46 sec) 
Heartbeat CPU 0 instructions: 203000000 cycles: 1262069424 heartbeat IPC: 0.170364 cumulative IPC: 0.160113 (Simulation time: 0 hr 46 min 1 sec) 
Heartbeat CPU 0 instructions: 204000000 cycles: 1268139508 heartbeat IPC: 0.164742 cumulative IPC: 0.160135 (Simulation time: 0 hr 46 min 15 sec) 
Heartbeat CPU 0 instructions: 205000002 cycles: 1275087081 heartbeat IPC: 0.143935 cumulative IPC: 0.160047 (Simulation time: 0 hr 46 min 27 sec) 
Heartbeat CPU 0 instructions: 206000000 cycles: 1281321306 heartbeat IPC: 0.160405 cumulative IPC: 0.160049 (Simulation time: 0 hr 46 min 42 sec) 
Heartbeat CPU 0 instructions: 207000001 cycles: 1287303384 heartbeat IPC: 0.167166 cumulative IPC: 0.160082 (Simulation time: 0 hr 46 min 57 sec) 
Heartbeat CPU 0 instructions: 208000001 cycles: 1293321149 heartbeat IPC: 0.166175 cumulative IPC: 0.16011 (Simulation time: 0 hr 47 min 13 sec) 
Heartbeat CPU 0 instructions: 209000000 cycles: 1299517215 heartbeat IPC: 0.161393 cumulative IPC: 0.160116 (Simulation time: 0 hr 47 min 27 sec) 
Heartbeat CPU 0 instructions: 210000002 cycles: 1306121101 heartbeat IPC: 0.151426 cumulative IPC: 0.160072 (Simulation time: 0 hr 47 min 42 sec) 
Heartbeat CPU 0 instructions: 211000003 cycles: 1312156798 heartbeat IPC: 0.165681 cumulative IPC: 0.160098 (Simulation time: 0 hr 47 min 55 sec) 
Heartbeat CPU 0 instructions: 212000000 cycles: 1319284588 heartbeat IPC: 0.140296 cumulative IPC: 0.159991 (Simulation time: 0 hr 48 min 8 sec) 
Heartbeat CPU 0 instructions: 213000000 cycles: 1325398129 heartbeat IPC: 0.163571 cumulative IPC: 0.160008 (Simulation time: 0 hr 48 min 23 sec) 
Heartbeat CPU 0 instructions: 214000003 cycles: 1331648208 heartbeat IPC: 0.159998 cumulative IPC: 0.160008 (Simulation time: 0 hr 48 min 37 sec) 
Heartbeat CPU 0 instructions: 215000001 cycles: 1337921032 heartbeat IPC: 0.159418 cumulative IPC: 0.160005 (Simulation time: 0 hr 48 min 52 sec) 
Heartbeat CPU 0 instructions: 216000001 cycles: 1343849404 heartbeat IPC: 0.16868 cumulative IPC: 0.160043 (Simulation time: 0 hr 49 min 7 sec) 
Heartbeat CPU 0 instructions: 217000000 cycles: 1349742192 heartbeat IPC: 0.169699 cumulative IPC: 0.160085 (Simulation time: 0 hr 49 min 22 sec) 
Heartbeat CPU 0 instructions: 218000002 cycles: 1356163083 heartbeat IPC: 0.155742 cumulative IPC: 0.160065 (Simulation time: 0 hr 49 min 37 sec) 
Heartbeat CPU 0 instructions: 219000001 cycles: 1362046282 heartbeat IPC: 0.169975 cumulative IPC: 0.160108 (Simulation time: 0 hr 49 min 52 sec) 
Heartbeat CPU 0 instructions: 220000000 cycles: 1368247541 heartbeat IPC: 0.161257 cumulative IPC: 0.160113 (Simulation time: 0 hr 50 min 7 sec) 
Heartbeat CPU 0 instructions: 221000000 cycles: 1374424843 heartbeat IPC: 0.161883 cumulative IPC: 0.160121 (Simulation time: 0 hr 50 min 21 sec) 
Heartbeat CPU 0 instructions: 222000001 cycles: 1380863141 heartbeat IPC: 0.155321 cumulative IPC: 0.160098 (Simulation time: 0 hr 50 min 35 sec) 
Heartbeat CPU 0 instructions: 223000000 cycles: 1387857661 heartbeat IPC: 0.142969 cumulative IPC: 0.160012 (Simulation time: 0 hr 50 min 49 sec) 
Heartbeat CPU 0 instructions: 224000002 cycles: 1393807962 heartbeat IPC: 0.168059 cumulative IPC: 0.160046 (Simulation time: 0 hr 51 min 4 sec) 
Heartbeat CPU 0 instructions: 225000001 cycles: 1399725822 heartbeat IPC: 0.16898 cumulative IPC: 0.160084 (Simulation time: 0 hr 51 min 19 sec) 
Heartbeat CPU 0 instructions: 226000002 cycles: 1405889909 heartbeat IPC: 0.16223 cumulative IPC: 0.160094 (Simulation time: 0 hr 51 min 34 sec) 
Heartbeat CPU 0 instructions: 227000000 cycles: 1411985769 heartbeat IPC: 0.164045 cumulative IPC: 0.160111 (Simulation time: 0 hr 51 min 49 sec) 
Heartbeat CPU 0 instructions: 228000000 cycles: 1417995799 heartbeat IPC: 0.166389 cumulative IPC: 0.160137 (Simulation time: 0 hr 52 min 4 sec) 
Heartbeat CPU 0 instructions: 229000001 cycles: 1424143982 heartbeat IPC: 0.16265 cumulative IPC: 0.160148 (Simulation time: 0 hr 52 min 18 sec) 
Heartbeat CPU 0 instructions: 230000002 cycles: 1430226908 heartbeat IPC: 0.164395 cumulative IPC: 0.160166 (Simulation time: 0 hr 52 min 32 sec) 
Heartbeat CPU 0 instructions: 231000000 cycles: 1436266950 heartbeat IPC: 0.165561 cumulative IPC: 0.160189 (Simulation time: 0 hr 52 min 45 sec) 
Heartbeat CPU 0 instructions: 232000001 cycles: 1442603395 heartbeat IPC: 0.157817 cumulative IPC: 0.160178 (Simulation time: 0 hr 52 min 59 sec) 
Heartbeat CPU 0 instructions: 233000003 cycles: 1449303804 heartbeat IPC: 0.149245 cumulative IPC: 0.160128 (Simulation time: 0 hr 53 min 13 sec) 
Heartbeat CPU 0 instructions: 234000000 cycles: 1455493698 heartbeat IPC: 0.161553 cumulative IPC: 0.160134 (Simulation time: 0 hr 53 min 27 sec) 
Heartbeat CPU 0 instructions: 235000000 cycles: 1461619520 heartbeat IPC: 0.163243 cumulative IPC: 0.160147 (Simulation time: 0 hr 53 min 40 sec) 
Heartbeat CPU 0 instructions: 236000000 cycles: 1468742994 heartbeat IPC: 0.140381 cumulative IPC: 0.160051 (Simulation time: 0 hr 53 min 54 sec) 
Heartbeat CPU 0 instructions: 237000003 cycles: 1474761928 heartbeat IPC: 0.166143 cumulative IPC: 0.160076 (Simulation time: 0 hr 54 min 8 sec) 
Heartbeat CPU 0 instructions: 238000003 cycles: 1480971694 heartbeat IPC: 0.161037 cumulative IPC: 0.16008 (Simulation time: 0 hr 54 min 22 sec) 
Heartbeat CPU 0 instructions: 239000003 cycles: 1487069463 heartbeat IPC: 0.163994 cumulative IPC: 0.160096 (Simulation time: 0 hr 54 min 36 sec) 
Heartbeat CPU 0 instructions: 240000001 cycles: 1493421230 heartbeat IPC: 0.157436 cumulative IPC: 0.160085 (Simulation time: 0 hr 54 min 47 sec) 
Heartbeat CPU 0 instructions: 241000002 cycles: 1499584730 heartbeat IPC: 0.162246 cumulative IPC: 0.160094 (Simulation time: 0 hr 55 min 2 sec) 
Heartbeat CPU 0 instructions: 242000000 cycles: 1505581622 heartbeat IPC: 0.166753 cumulative IPC: 0.16012 (Simulation time: 0 hr 55 min 16 sec) 
Heartbeat CPU 0 instructions: 243000001 cycles: 1511540987 heartbeat IPC: 0.167803 cumulative IPC: 0.16015 (Simulation time: 0 hr 55 min 31 sec) 
Heartbeat CPU 0 instructions: 244000003 cycles: 1517689353 heartbeat IPC: 0.162645 cumulative IPC: 0.160161 (Simulation time: 0 hr 55 min 46 sec) 
Heartbeat CPU 0 instructions: 245000002 cycles: 1524214969 heartbeat IPC: 0.153242 cumulative IPC: 0.160131 (Simulation time: 0 hr 55 min 58 sec) 
Heartbeat CPU 0 instructions: 246000001 cycles: 1530533995 heartbeat IPC: 0.158252 cumulative IPC: 0.160123 (Simulation time: 0 hr 56 min 13 sec) 
Heartbeat CPU 0 instructions: 247000002 cycles: 1536722846 heartbeat IPC: 0.161581 cumulative IPC: 0.160129 (Simulation time: 0 hr 56 min 27 sec) 
Heartbeat CPU 0 instructions: 248000001 cycles: 1543357641 heartbeat IPC: 0.15072 cumulative IPC: 0.160089 (Simulation time: 0 hr 56 min 41 sec) 
Heartbeat CPU 0 instructions: 249000001 cycles: 1550134798 heartbeat IPC: 0.147555 cumulative IPC: 0.160034 (Simulation time: 0 hr 56 min 56 sec) 
Heartbeat CPU 0 instructions: 250000001 cycles: 1556652269 heartbeat IPC: 0.153434 cumulative IPC: 0.160006 (Simulation time: 0 hr 57 min 10 sec) 
Heartbeat CPU 0 instructions: 251000001 cycles: 1562663950 heartbeat IPC: 0.166343 cumulative IPC: 0.160031 (Simulation time: 0 hr 57 min 25 sec) 
Heartbeat CPU 0 instructions: 252000002 cycles: 1568855080 heartbeat IPC: 0.161522 cumulative IPC: 0.160036 (Simulation time: 0 hr 57 min 40 sec) 
Heartbeat CPU 0 instructions: 253000000 cycles: 1575078480 heartbeat IPC: 0.160684 cumulative IPC: 0.160039 (Simulation time: 0 hr 57 min 55 sec) 
Heartbeat CPU 0 instructions: 254000003 cycles: 1581311919 heartbeat IPC: 0.160426 cumulative IPC: 0.160041 (Simulation time: 0 hr 58 min 11 sec) 
Heartbeat CPU 0 instructions: 255000000 cycles: 1587351030 heartbeat IPC: 0.165587 cumulative IPC: 0.160062 (Simulation time: 0 hr 58 min 26 sec) 
Heartbeat CPU 0 instructions: 256000000 cycles: 1593590803 heartbeat IPC: 0.160262 cumulative IPC: 0.160062 (Simulation time: 0 hr 58 min 39 sec) 
Heartbeat CPU 0 instructions: 257000001 cycles: 1599698662 heartbeat IPC: 0.163724 cumulative IPC: 0.160076 (Simulation time: 0 hr 58 min 54 sec) 
Heartbeat CPU 0 instructions: 258000000 cycles: 1606494472 heartbeat IPC: 0.147149 cumulative IPC: 0.160022 (Simulation time: 0 hr 59 min 9 sec) 
Heartbeat CPU 0 instructions: 259000002 cycles: 1612721148 heartbeat IPC: 0.1606 cumulative IPC: 0.160024 (Simulation time: 0 hr 59 min 24 sec) 
Heartbeat CPU 0 instructions: 260000002 cycles: 1618839775 heartbeat IPC: 0.163435 cumulative IPC: 0.160037 (Simulation time: 0 hr 59 min 39 sec) 
Heartbeat CPU 0 instructions: 261000000 cycles: 1625581952 heartbeat IPC: 0.14832 cumulative IPC: 0.159988 (Simulation time: 0 hr 59 min 52 sec) 
Heartbeat CPU 0 instructions: 262000003 cycles: 1631723056 heartbeat IPC: 0.162838 cumulative IPC: 0.159999 (Simulation time: 1 hr 0 min 7 sec) 
Heartbeat CPU 0 instructions: 263000000 cycles: 1637842585 heartbeat IPC: 0.163411 cumulative IPC: 0.160012 (Simulation time: 1 hr 0 min 22 sec) 
Heartbeat CPU 0 instructions: 264000000 cycles: 1644300689 heartbeat IPC: 0.154844 cumulative IPC: 0.159991 (Simulation time: 1 hr 0 min 36 sec) 
Heartbeat CPU 0 instructions: 265000000 cycles: 1650756325 heartbeat IPC: 0.154903 cumulative IPC: 0.159971 (Simulation time: 1 hr 0 min 50 sec) 
Heartbeat CPU 0 instructions: 266000003 cycles: 1656852882 heartbeat IPC: 0.164027 cumulative IPC: 0.159986 (Simulation time: 1 hr 1 min 3 sec) 
Heartbeat CPU 0 instructions: 267000003 cycles: 1663160095 heartbeat IPC: 0.158549 cumulative IPC: 0.159981 (Simulation time: 1 hr 1 min 16 sec) 
Heartbeat CPU 0 instructions: 268000003 cycles: 1669673964 heartbeat IPC: 0.153519 cumulative IPC: 0.159956 (Simulation time: 1 hr 1 min 30 sec) 
Heartbeat CPU 0 instructions: 269000002 cycles: 1675762307 heartbeat IPC: 0.164248 cumulative IPC: 0.159971 (Simulation time: 1 hr 1 min 44 sec) 
Heartbeat CPU 0 instructions: 270000003 cycles: 1682416326 heartbeat IPC: 0.150285 cumulative IPC: 0.159933 (Simulation time: 1 hr 1 min 58 sec) 
Heartbeat CPU 0 instructions: 271000001 cycles: 1688660894 heartbeat IPC: 0.160139 cumulative IPC: 0.159934 (Simulation time: 1 hr 2 min 12 sec) 
Heartbeat CPU 0 instructions: 272000003 cycles: 1695255377 heartbeat IPC: 0.151642 cumulative IPC: 0.159902 (Simulation time: 1 hr 2 min 27 sec) 
Heartbeat CPU 0 instructions: 273000000 cycles: 1701641593 heartbeat IPC: 0.156587 cumulative IPC: 0.159889 (Simulation time: 1 hr 2 min 41 sec) 
Heartbeat CPU 0 instructions: 274000000 cycles: 1707990138 heartbeat IPC: 0.157516 cumulative IPC: 0.15988 (Simulation time: 1 hr 2 min 54 sec) 
Heartbeat CPU 0 instructions: 275000000 cycles: 1714380413 heartbeat IPC: 0.156488 cumulative IPC: 0.159868 (Simulation time: 1 hr 3 min 8 sec) 
Heartbeat CPU 0 instructions: 276000003 cycles: 1720738419 heartbeat IPC: 0.157282 cumulative IPC: 0.159858 (Simulation time: 1 hr 3 min 23 sec) 
Heartbeat CPU 0 instructions: 277000001 cycles: 1727408567 heartbeat IPC: 0.149921 cumulative IPC: 0.15982 (Simulation time: 1 hr 3 min 36 sec) 
Heartbeat CPU 0 instructions: 278000000 cycles: 1733531495 heartbeat IPC: 0.16332 cumulative IPC: 0.159832 (Simulation time: 1 hr 3 min 51 sec) 
Heartbeat CPU 0 instructions: 279000003 cycles: 1739581624 heartbeat IPC: 0.165286 cumulative IPC: 0.159851 (Simulation time: 1 hr 4 min 6 sec) 
Heartbeat CPU 0 instructions: 280000003 cycles: 1745962259 heartbeat IPC: 0.156724 cumulative IPC: 0.15984 (Simulation time: 1 hr 4 min 21 sec) 
Heartbeat CPU 0 instructions: 281000003 cycles: 1752196147 heartbeat IPC: 0.160414 cumulative IPC: 0.159842 (Simulation time: 1 hr 4 min 36 sec) 
Heartbeat CPU 0 instructions: 282000003 cycles: 1759023190 heartbeat IPC: 0.146476 cumulative IPC: 0.15979 (Simulation time: 1 hr 4 min 51 sec) 
Heartbeat CPU 0 instructions: 283000003 cycles: 1765525910 heartbeat IPC: 0.153782 cumulative IPC: 0.159768 (Simulation time: 1 hr 5 min 5 sec) 
Heartbeat CPU 0 instructions: 284000002 cycles: 1772067463 heartbeat IPC: 0.152869 cumulative IPC: 0.159742 (Simulation time: 1 hr 5 min 19 sec) 
Heartbeat CPU 0 instructions: 285000000 cycles: 1778440523 heartbeat IPC: 0.15691 cumulative IPC: 0.159732 (Simulation time: 1 hr 5 min 33 sec) 
Heartbeat CPU 0 instructions: 286000000 cycles: 1785259190 heartbeat IPC: 0.146656 cumulative IPC: 0.159682 (Simulation time: 1 hr 5 min 48 sec) 
Heartbeat CPU 0 instructions: 287000003 cycles: 1791437101 heartbeat IPC: 0.161867 cumulative IPC: 0.15969 (Simulation time: 1 hr 6 min 2 sec) 
Heartbeat CPU 0 instructions: 288000003 cycles: 1797503330 heartbeat IPC: 0.164847 cumulative IPC: 0.159707 (Simulation time: 1 hr 6 min 17 sec) 
Heartbeat CPU 0 instructions: 289000003 cycles: 1803638620 heartbeat IPC: 0.162991 cumulative IPC: 0.159718 (Simulation time: 1 hr 6 min 32 sec) 
Heartbeat CPU 0 instructions: 290000001 cycles: 1810471648 heartbeat IPC: 0.146348 cumulative IPC: 0.159668 (Simulation time: 1 hr 6 min 46 sec) 
Heartbeat CPU 0 instructions: 291000001 cycles: 1817189435 heartbeat IPC: 0.148859 cumulative IPC: 0.159628 (Simulation time: 1 hr 7 min 1 sec) 
Heartbeat CPU 0 instructions: 292000000 cycles: 1823334550 heartbeat IPC: 0.162731 cumulative IPC: 0.159638 (Simulation time: 1 hr 7 min 16 sec) 
Heartbeat CPU 0 instructions: 293000000 cycles: 1829438539 heartbeat IPC: 0.163827 cumulative IPC: 0.159652 (Simulation time: 1 hr 7 min 31 sec) 
Heartbeat CPU 0 instructions: 294000000 cycles: 1835484138 heartbeat IPC: 0.16541 cumulative IPC: 0.159671 (Simulation time: 1 hr 7 min 46 sec) 
Heartbeat CPU 0 instructions: 295000001 cycles: 1841522913 heartbeat IPC: 0.165597 cumulative IPC: 0.159691 (Simulation time: 1 hr 8 min 1 sec) 
Heartbeat CPU 0 instructions: 296000000 cycles: 1847854168 heartbeat IPC: 0.157946 cumulative IPC: 0.159685 (Simulation time: 1 hr 8 min 16 sec) 
Heartbeat CPU 0 instructions: 297000000 cycles: 1854163820 heartbeat IPC: 0.158487 cumulative IPC: 0.159681 (Simulation time: 1 hr 8 min 31 sec) 
Heartbeat CPU 0 instructions: 298000003 cycles: 1860507627 heartbeat IPC: 0.157635 cumulative IPC: 0.159674 (Simulation time: 1 hr 8 min 44 sec) 
Heartbeat CPU 0 instructions: 299000000 cycles: 1866679453 heartbeat IPC: 0.162026 cumulative IPC: 0.159681 (Simulation time: 1 hr 8 min 59 sec) 
Heartbeat CPU 0 instructions: 300000002 cycles: 1872884208 heartbeat IPC: 0.161167 cumulative IPC: 0.159686 (Simulation time: 1 hr 9 min 14 sec) 
Heartbeat CPU 0 instructions: 301000000 cycles: 1879256741 heartbeat IPC: 0.156923 cumulative IPC: 0.159677 (Simulation time: 1 hr 9 min 28 sec) 
Heartbeat CPU 0 instructions: 302000002 cycles: 1885659200 heartbeat IPC: 0.15619 cumulative IPC: 0.159665 (Simulation time: 1 hr 9 min 40 sec) 
Heartbeat CPU 0 instructions: 303000003 cycles: 1892136489 heartbeat IPC: 0.154386 cumulative IPC: 0.159647 (Simulation time: 1 hr 9 min 55 sec) 
Heartbeat CPU 0 instructions: 304000002 cycles: 1898317276 heartbeat IPC: 0.161792 cumulative IPC: 0.159654 (Simulation time: 1 hr 10 min 10 sec) 
Heartbeat CPU 0 instructions: 305000002 cycles: 1904984904 heartbeat IPC: 0.149978 cumulative IPC: 0.15962 (Simulation time: 1 hr 10 min 25 sec) 
Heartbeat CPU 0 instructions: 306000000 cycles: 1911424216 heartbeat IPC: 0.155296 cumulative IPC: 0.159605 (Simulation time: 1 hr 10 min 40 sec) 
Heartbeat CPU 0 instructions: 307000000 cycles: 1917842382 heartbeat IPC: 0.155808 cumulative IPC: 0.159593 (Simulation time: 1 hr 10 min 54 sec) 
Heartbeat CPU 0 instructions: 308000000 cycles: 1924166002 heartbeat IPC: 0.158137 cumulative IPC: 0.159588 (Simulation time: 1 hr 11 min 9 sec) 
Heartbeat CPU 0 instructions: 309000001 cycles: 1930363220 heartbeat IPC: 0.161363 cumulative IPC: 0.159594 (Simulation time: 1 hr 11 min 24 sec) 
Heartbeat CPU 0 instructions: 310000003 cycles: 1936449983 heartbeat IPC: 0.164291 cumulative IPC: 0.159608 (Simulation time: 1 hr 11 min 37 sec) 
Heartbeat CPU 0 instructions: 311000003 cycles: 1942872514 heartbeat IPC: 0.155702 cumulative IPC: 0.159596 (Simulation time: 1 hr 11 min 51 sec) 
Heartbeat CPU 0 instructions: 312000002 cycles: 1949678689 heartbeat IPC: 0.146925 cumulative IPC: 0.159551 (Simulation time: 1 hr 12 min 6 sec) 
Heartbeat CPU 0 instructions: 313000002 cycles: 1956078494 heartbeat IPC: 0.156255 cumulative IPC: 0.159541 (Simulation time: 1 hr 12 min 21 sec) 
Heartbeat CPU 0 instructions: 314000002 cycles: 1962353375 heartbeat IPC: 0.159366 cumulative IPC: 0.15954 (Simulation time: 1 hr 12 min 36 sec) 
Heartbeat CPU 0 instructions: 315000002 cycles: 1968517215 heartbeat IPC: 0.162237 cumulative IPC: 0.159548 (Simulation time: 1 hr 12 min 51 sec) 
Heartbeat CPU 0 instructions: 316000002 cycles: 1974659214 heartbeat IPC: 0.162813 cumulative IPC: 0.159559 (Simulation time: 1 hr 13 min 6 sec) 
Heartbeat CPU 0 instructions: 317000000 cycles: 1981187744 heartbeat IPC: 0.153174 cumulative IPC: 0.159537 (Simulation time: 1 hr 13 min 20 sec) 
Heartbeat CPU 0 instructions: 318000000 cycles: 1987468175 heartbeat IPC: 0.159225 cumulative IPC: 0.159537 (Simulation time: 1 hr 13 min 34 sec) 
Heartbeat CPU 0 instructions: 319000000 cycles: 1994148189 heartbeat IPC: 0.1497 cumulative IPC: 0.159504 (Simulation time: 1 hr 13 min 47 sec) 
Heartbeat CPU 0 instructions: 320000001 cycles: 2000621518 heartbeat IPC: 0.15448 cumulative IPC: 0.159487 (Simulation time: 1 hr 14 min 0 sec) 
Heartbeat CPU 0 instructions: 321000003 cycles: 2007436086 heartbeat IPC: 0.146745 cumulative IPC: 0.159444 (Simulation time: 1 hr 14 min 14 sec) 
Heartbeat CPU 0 instructions: 322000003 cycles: 2013925688 heartbeat IPC: 0.154093 cumulative IPC: 0.159427 (Simulation time: 1 hr 14 min 28 sec) 
Heartbeat CPU 0 instructions: 323000003 cycles: 2020271331 heartbeat IPC: 0.157588 cumulative IPC: 0.159421 (Simulation time: 1 hr 14 min 43 sec) 
Heartbeat CPU 0 instructions: 324000001 cycles: 2026533063 heartbeat IPC: 0.1597 cumulative IPC: 0.159422 (Simulation time: 1 hr 14 min 58 sec) 
Heartbeat CPU 0 instructions: 325000003 cycles: 2032769888 heartbeat IPC: 0.160338 cumulative IPC: 0.159425 (Simulation time: 1 hr 15 min 12 sec) 
Heartbeat CPU 0 instructions: 326000002 cycles: 2038973939 heartbeat IPC: 0.161185 cumulative IPC: 0.15943 (Simulation time: 1 hr 15 min 26 sec) 
Heartbeat CPU 0 instructions: 327000000 cycles: 2045316140 heartbeat IPC: 0.157674 cumulative IPC: 0.159425 (Simulation time: 1 hr 15 min 39 sec) 
Heartbeat CPU 0 instructions: 328000003 cycles: 2052036883 heartbeat IPC: 0.148794 cumulative IPC: 0.15939 (Simulation time: 1 hr 15 min 53 sec) 
Heartbeat CPU 0 instructions: 329000000 cycles: 2058498671 heartbeat IPC: 0.154755 cumulative IPC: 0.159375 (Simulation time: 1 hr 16 min 9 sec) 
Heartbeat CPU 0 instructions: 330000000 cycles: 2065549363 heartbeat IPC: 0.14183 cumulative IPC: 0.159315 (Simulation time: 1 hr 16 min 23 sec) 
Heartbeat CPU 0 instructions: 331000000 cycles: 2072045640 heartbeat IPC: 0.153934 cumulative IPC: 0.159298 (Simulation time: 1 hr 16 min 38 sec) 
Heartbeat CPU 0 instructions: 332000001 cycles: 2078626527 heartbeat IPC: 0.151955 cumulative IPC: 0.159275 (Simulation time: 1 hr 16 min 52 sec) 
Heartbeat CPU 0 instructions: 333000000 cycles: 2085813351 heartbeat IPC: 0.139143 cumulative IPC: 0.159206 (Simulation time: 1 hr 17 min 6 sec) 
Heartbeat CPU 0 instructions: 334000001 cycles: 2092485708 heartbeat IPC: 0.149872 cumulative IPC: 0.159176 (Simulation time: 1 hr 17 min 20 sec) 
Heartbeat CPU 0 instructions: 335000000 cycles: 2098993794 heartbeat IPC: 0.153655 cumulative IPC: 0.159159 (Simulation time: 1 hr 17 min 35 sec) 
Heartbeat CPU 0 instructions: 336000003 cycles: 2105689654 heartbeat IPC: 0.149346 cumulative IPC: 0.159128 (Simulation time: 1 hr 17 min 49 sec) 
Heartbeat CPU 0 instructions: 337000001 cycles: 2112336544 heartbeat IPC: 0.150446 cumulative IPC: 0.1591 (Simulation time: 1 hr 18 min 2 sec) 
Heartbeat CPU 0 instructions: 338000002 cycles: 2118661433 heartbeat IPC: 0.158106 cumulative IPC: 0.159097 (Simulation time: 1 hr 18 min 16 sec) 
Heartbeat CPU 0 instructions: 339000000 cycles: 2125188766 heartbeat IPC: 0.153202 cumulative IPC: 0.159079 (Simulation time: 1 hr 18 min 32 sec) 
Heartbeat CPU 0 instructions: 340000000 cycles: 2131154948 heartbeat IPC: 0.167611 cumulative IPC: 0.159103 (Simulation time: 1 hr 18 min 46 sec) 
Heartbeat CPU 0 instructions: 341000000 cycles: 2137767778 heartbeat IPC: 0.151221 cumulative IPC: 0.159079 (Simulation time: 1 hr 19 min 1 sec) 
Heartbeat CPU 0 instructions: 342000000 cycles: 2144380213 heartbeat IPC: 0.15123 cumulative IPC: 0.159055 (Simulation time: 1 hr 19 min 16 sec) 
Heartbeat CPU 0 instructions: 343000002 cycles: 2151155862 heartbeat IPC: 0.147588 cumulative IPC: 0.159018 (Simulation time: 1 hr 19 min 29 sec) 
Heartbeat CPU 0 instructions: 344000002 cycles: 2157942775 heartbeat IPC: 0.147342 cumulative IPC: 0.158982 (Simulation time: 1 hr 19 min 43 sec) 
Heartbeat CPU 0 instructions: 345000000 cycles: 2164081424 heartbeat IPC: 0.162902 cumulative IPC: 0.158993 (Simulation time: 1 hr 19 min 57 sec) 
Heartbeat CPU 0 instructions: 346000002 cycles: 2170556124 heartbeat IPC: 0.154448 cumulative IPC: 0.158979 (Simulation time: 1 hr 20 min 12 sec) 
Heartbeat CPU 0 instructions: 347000003 cycles: 2177160309 heartbeat IPC: 0.151419 cumulative IPC: 0.158956 (Simulation time: 1 hr 20 min 24 sec) 
Heartbeat CPU 0 instructions: 348000003 cycles: 2183584582 heartbeat IPC: 0.15566 cumulative IPC: 0.158947 (Simulation time: 1 hr 20 min 40 sec) 
Heartbeat CPU 0 instructions: 349000000 cycles: 2190046722 heartbeat IPC: 0.154747 cumulative IPC: 0.158934 (Simulation time: 1 hr 20 min 54 sec) 
Heartbeat CPU 0 instructions: 350000000 cycles: 2196526910 heartbeat IPC: 0.154317 cumulative IPC: 0.158921 (Simulation time: 1 hr 21 min 9 sec) 
Heartbeat CPU 0 instructions: 351000000 cycles: 2202983409 heartbeat IPC: 0.154883 cumulative IPC: 0.158909 (Simulation time: 1 hr 21 min 24 sec) 
Heartbeat CPU 0 instructions: 352000000 cycles: 2209247972 heartbeat IPC: 0.159628 cumulative IPC: 0.158911 (Simulation time: 1 hr 21 min 36 sec) 
Heartbeat CPU 0 instructions: 353000001 cycles: 2215597881 heartbeat IPC: 0.157483 cumulative IPC: 0.158907 (Simulation time: 1 hr 21 min 52 sec) 
Heartbeat CPU 0 instructions: 354000000 cycles: 2221801589 heartbeat IPC: 0.161194 cumulative IPC: 0.158913 (Simulation time: 1 hr 22 min 8 sec) 
Heartbeat CPU 0 instructions: 355000001 cycles: 2227955340 heartbeat IPC: 0.162503 cumulative IPC: 0.158923 (Simulation time: 1 hr 22 min 23 sec) 
Heartbeat CPU 0 instructions: 356000000 cycles: 2234753776 heartbeat IPC: 0.147093 cumulative IPC: 0.158887 (Simulation time: 1 hr 22 min 37 sec) 
Heartbeat CPU 0 instructions: 357000001 cycles: 2241906601 heartbeat IPC: 0.139805 cumulative IPC: 0.158826 (Simulation time: 1 hr 22 min 50 sec) 
Heartbeat CPU 0 instructions: 358000003 cycles: 2248521517 heartbeat IPC: 0.151174 cumulative IPC: 0.158804 (Simulation time: 1 hr 23 min 6 sec) 
Heartbeat CPU 0 instructions: 359000003 cycles: 2255009420 heartbeat IPC: 0.154133 cumulative IPC: 0.15879 (Simulation time: 1 hr 23 min 22 sec) 
Heartbeat CPU 0 instructions: 360000000 cycles: 2261767988 heartbeat IPC: 0.14796 cumulative IPC: 0.158758 (Simulation time: 1 hr 23 min 35 sec) 
Heartbeat CPU 0 instructions: 361000002 cycles: 2268442067 heartbeat IPC: 0.149834 cumulative IPC: 0.158732 (Simulation time: 1 hr 23 min 49 sec) 
Heartbeat CPU 0 instructions: 362000003 cycles: 2274875380 heartbeat IPC: 0.155441 cumulative IPC: 0.158722 (Simulation time: 1 hr 24 min 3 sec) 
Heartbeat CPU 0 instructions: 363000000 cycles: 2281150657 heartbeat IPC: 0.159355 cumulative IPC: 0.158724 (Simulation time: 1 hr 24 min 19 sec) 
Heartbeat CPU 0 instructions: 364000003 cycles: 2287357201 heartbeat IPC: 0.161121 cumulative IPC: 0.158731 (Simulation time: 1 hr 24 min 35 sec) 
Heartbeat CPU 0 instructions: 365000002 cycles: 2293787502 heartbeat IPC: 0.155514 cumulative IPC: 0.158721 (Simulation time: 1 hr 24 min 49 sec) 
Heartbeat CPU 0 instructions: 366000003 cycles: 2300359343 heartbeat IPC: 0.152165 cumulative IPC: 0.158703 (Simulation time: 1 hr 25 min 3 sec) 
Heartbeat CPU 0 instructions: 367000001 cycles: 2306765027 heartbeat IPC: 0.156111 cumulative IPC: 0.158696 (Simulation time: 1 hr 25 min 18 sec) 
Heartbeat CPU 0 instructions: 368000000 cycles: 2313430409 heartbeat IPC: 0.150029 cumulative IPC: 0.158671 (Simulation time: 1 hr 25 min 33 sec) 
Heartbeat CPU 0 instructions: 369000003 cycles: 2320411526 heartbeat IPC: 0.143244 cumulative IPC: 0.158624 (Simulation time: 1 hr 25 min 48 sec) 
Heartbeat CPU 0 instructions: 370000000 cycles: 2326473315 heartbeat IPC: 0.164967 cumulative IPC: 0.158641 (Simulation time: 1 hr 26 min 2 sec) 
Heartbeat CPU 0 instructions: 371000003 cycles: 2333466491 heartbeat IPC: 0.142997 cumulative IPC: 0.158594 (Simulation time: 1 hr 26 min 17 sec) 
Heartbeat CPU 0 instructions: 372000001 cycles: 2340001591 heartbeat IPC: 0.15302 cumulative IPC: 0.158578 (Simulation time: 1 hr 26 min 33 sec) 
Heartbeat CPU 0 instructions: 373000000 cycles: 2346336797 heartbeat IPC: 0.157848 cumulative IPC: 0.158576 (Simulation time: 1 hr 26 min 47 sec) 
Heartbeat CPU 0 instructions: 374000000 cycles: 2352675209 heartbeat IPC: 0.157768 cumulative IPC: 0.158574 (Simulation time: 1 hr 27 min 2 sec) 
Heartbeat CPU 0 instructions: 375000001 cycles: 2359522114 heartbeat IPC: 0.146052 cumulative IPC: 0.158538 (Simulation time: 1 hr 27 min 17 sec) 
Heartbeat CPU 0 instructions: 376000001 cycles: 2365764226 heartbeat IPC: 0.160202 cumulative IPC: 0.158542 (Simulation time: 1 hr 27 min 33 sec) 
Heartbeat CPU 0 instructions: 377000001 cycles: 2372250976 heartbeat IPC: 0.15416 cumulative IPC: 0.15853 (Simulation time: 1 hr 27 min 48 sec) 
Heartbeat CPU 0 instructions: 378000003 cycles: 2379052244 heartbeat IPC: 0.147032 cumulative IPC: 0.158497 (Simulation time: 1 hr 28 min 3 sec) 
Heartbeat CPU 0 instructions: 379000003 cycles: 2385449531 heartbeat IPC: 0.156316 cumulative IPC: 0.158491 (Simulation time: 1 hr 28 min 19 sec) 
Heartbeat CPU 0 instructions: 380000003 cycles: 2391898014 heartbeat IPC: 0.155075 cumulative IPC: 0.158482 (Simulation time: 1 hr 28 min 34 sec) 
Heartbeat CPU 0 instructions: 381000000 cycles: 2398799736 heartbeat IPC: 0.144891 cumulative IPC: 0.158443 (Simulation time: 1 hr 28 min 48 sec) 
Heartbeat CPU 0 instructions: 382000000 cycles: 2405264450 heartbeat IPC: 0.154686 cumulative IPC: 0.158433 (Simulation time: 1 hr 29 min 4 sec) 
Heartbeat CPU 0 instructions: 383000002 cycles: 2411457827 heartbeat IPC: 0.161463 cumulative IPC: 0.158441 (Simulation time: 1 hr 29 min 19 sec) 
Heartbeat CPU 0 instructions: 384000001 cycles: 2417634590 heartbeat IPC: 0.161897 cumulative IPC: 0.15845 (Simulation time: 1 hr 29 min 35 sec) 
Heartbeat CPU 0 instructions: 385000000 cycles: 2423944532 heartbeat IPC: 0.15848 cumulative IPC: 0.15845 (Simulation time: 1 hr 29 min 50 sec) 
Heartbeat CPU 0 instructions: 386000001 cycles: 2430364009 heartbeat IPC: 0.155776 cumulative IPC: 0.158443 (Simulation time: 1 hr 30 min 5 sec) 
Heartbeat CPU 0 instructions: 387000000 cycles: 2436797828 heartbeat IPC: 0.155429 cumulative IPC: 0.158435 (Simulation time: 1 hr 30 min 20 sec) 
Heartbeat CPU 0 instructions: 388000003 cycles: 2443133961 heartbeat IPC: 0.157825 cumulative IPC: 0.158433 (Simulation time: 1 hr 30 min 35 sec) 
Heartbeat CPU 0 instructions: 389000003 cycles: 2449408154 heartbeat IPC: 0.159383 cumulative IPC: 0.158436 (Simulation time: 1 hr 30 min 51 sec) 
Heartbeat CPU 0 instructions: 390000002 cycles: 2455630913 heartbeat IPC: 0.1607 cumulative IPC: 0.158441 (Simulation time: 1 hr 31 min 7 sec) 
Heartbeat CPU 0 instructions: 391000000 cycles: 2461833074 heartbeat IPC: 0.161234 cumulative IPC: 0.158448 (Simulation time: 1 hr 31 min 22 sec) 
Heartbeat CPU 0 instructions: 392000001 cycles: 2468015837 heartbeat IPC: 0.16174 cumulative IPC: 0.158457 (Simulation time: 1 hr 31 min 38 sec) 
Heartbeat CPU 0 instructions: 393000000 cycles: 2474303627 heartbeat IPC: 0.159038 cumulative IPC: 0.158458 (Simulation time: 1 hr 31 min 53 sec) 
Heartbeat CPU 0 instructions: 394000002 cycles: 2480873471 heartbeat IPC: 0.152211 cumulative IPC: 0.158441 (Simulation time: 1 hr 32 min 8 sec) 
Heartbeat CPU 0 instructions: 395000002 cycles: 2487395400 heartbeat IPC: 0.153329 cumulative IPC: 0.158428 (Simulation time: 1 hr 32 min 23 sec) 
Heartbeat CPU 0 instructions: 396000000 cycles: 2493790652 heartbeat IPC: 0.156366 cumulative IPC: 0.158423 (Simulation time: 1 hr 32 min 39 sec) 
Heartbeat CPU 0 instructions: 397000001 cycles: 2500418508 heartbeat IPC: 0.150879 cumulative IPC: 0.158403 (Simulation time: 1 hr 32 min 53 sec) 
Heartbeat CPU 0 instructions: 398000002 cycles: 2506931875 heartbeat IPC: 0.153531 cumulative IPC: 0.15839 (Simulation time: 1 hr 33 min 8 sec) 
Heartbeat CPU 0 instructions: 399000000 cycles: 2513789960 heartbeat IPC: 0.145813 cumulative IPC: 0.158356 (Simulation time: 1 hr 33 min 23 sec) 
Heartbeat CPU 0 instructions: 400000003 cycles: 2520732632 heartbeat IPC: 0.144037 cumulative IPC: 0.158316 (Simulation time: 1 hr 33 min 38 sec) 
Heartbeat CPU 0 instructions: 401000001 cycles: 2527165261 heartbeat IPC: 0.155457 cumulative IPC: 0.158309 (Simulation time: 1 hr 33 min 54 sec) 
Heartbeat CPU 0 instructions: 402000002 cycles: 2533489325 heartbeat IPC: 0.158126 cumulative IPC: 0.158309 (Simulation time: 1 hr 34 min 9 sec) 
Heartbeat CPU 0 instructions: 403000002 cycles: 2540225908 heartbeat IPC: 0.148443 cumulative IPC: 0.158282 (Simulation time: 1 hr 34 min 24 sec) 
Heartbeat CPU 0 instructions: 404000002 cycles: 2546751334 heartbeat IPC: 0.153247 cumulative IPC: 0.15827 (Simulation time: 1 hr 34 min 40 sec) 
Heartbeat CPU 0 instructions: 405000002 cycles: 2553255779 heartbeat IPC: 0.153741 cumulative IPC: 0.158258 (Simulation time: 1 hr 34 min 54 sec) 
Heartbeat CPU 0 instructions: 406000000 cycles: 2559737181 heartbeat IPC: 0.154287 cumulative IPC: 0.158248 (Simulation time: 1 hr 35 min 9 sec) 
Heartbeat CPU 0 instructions: 407000000 cycles: 2566085989 heartbeat IPC: 0.15751 cumulative IPC: 0.158246 (Simulation time: 1 hr 35 min 25 sec) 
Heartbeat CPU 0 instructions: 408000000 cycles: 2572966116 heartbeat IPC: 0.145346 cumulative IPC: 0.158212 (Simulation time: 1 hr 35 min 40 sec) 
Heartbeat CPU 0 instructions: 409000000 cycles: 2579243426 heartbeat IPC: 0.159304 cumulative IPC: 0.158214 (Simulation time: 1 hr 35 min 55 sec) 
Heartbeat CPU 0 instructions: 410000000 cycles: 2585594169 heartbeat IPC: 0.157462 cumulative IPC: 0.158212 (Simulation time: 1 hr 36 min 11 sec) 
Heartbeat CPU 0 instructions: 411000003 cycles: 2592191423 heartbeat IPC: 0.151579 cumulative IPC: 0.158196 (Simulation time: 1 hr 36 min 26 sec) 
Heartbeat CPU 0 instructions: 412000003 cycles: 2598620724 heartbeat IPC: 0.155538 cumulative IPC: 0.158189 (Simulation time: 1 hr 36 min 42 sec) 
Heartbeat CPU 0 instructions: 413000000 cycles: 2605261060 heartbeat IPC: 0.150594 cumulative IPC: 0.15817 (Simulation time: 1 hr 36 min 56 sec) 
Heartbeat CPU 0 instructions: 414000003 cycles: 2611796956 heartbeat IPC: 0.153002 cumulative IPC: 0.158157 (Simulation time: 1 hr 37 min 12 sec) 
Heartbeat CPU 0 instructions: 415000003 cycles: 2618246211 heartbeat IPC: 0.155057 cumulative IPC: 0.158149 (Simulation time: 1 hr 37 min 26 sec) 
Heartbeat CPU 0 instructions: 416000001 cycles: 2624796760 heartbeat IPC: 0.152659 cumulative IPC: 0.158135 (Simulation time: 1 hr 37 min 41 sec) 
Heartbeat CPU 0 instructions: 417000001 cycles: 2631379635 heartbeat IPC: 0.151909 cumulative IPC: 0.15812 (Simulation time: 1 hr 37 min 57 sec) 
Heartbeat CPU 0 instructions: 418000000 cycles: 2638343183 heartbeat IPC: 0.143605 cumulative IPC: 0.158081 (Simulation time: 1 hr 38 min 11 sec) 
Heartbeat CPU 0 instructions: 419000000 cycles: 2645112026 heartbeat IPC: 0.147736 cumulative IPC: 0.158055 (Simulation time: 1 hr 38 min 26 sec) 
Heartbeat CPU 0 instructions: 420000002 cycles: 2651578887 heartbeat IPC: 0.154635 cumulative IPC: 0.158047 (Simulation time: 1 hr 38 min 42 sec) 
Heartbeat CPU 0 instructions: 421000003 cycles: 2658579584 heartbeat IPC: 0.142843 cumulative IPC: 0.158007 (Simulation time: 1 hr 38 min 57 sec) 
Heartbeat CPU 0 instructions: 422000001 cycles: 2664707254 heartbeat IPC: 0.163194 cumulative IPC: 0.158018 (Simulation time: 1 hr 39 min 11 sec) 
Heartbeat CPU 0 instructions: 423000002 cycles: 2671152739 heartbeat IPC: 0.155148 cumulative IPC: 0.158012 (Simulation time: 1 hr 39 min 26 sec) 
Heartbeat CPU 0 instructions: 424000001 cycles: 2677569609 heartbeat IPC: 0.155839 cumulative IPC: 0.158006 (Simulation time: 1 hr 39 min 42 sec) 
Heartbeat CPU 0 instructions: 425000000 cycles: 2684744528 heartbeat IPC: 0.139374 cumulative IPC: 0.157957 (Simulation time: 1 hr 39 min 56 sec) 
Heartbeat CPU 0 instructions: 426000002 cycles: 2691021578 heartbeat IPC: 0.159311 cumulative IPC: 0.15796 (Simulation time: 1 hr 40 min 11 sec) 
Heartbeat CPU 0 instructions: 427000002 cycles: 2697249030 heartbeat IPC: 0.160579 cumulative IPC: 0.157966 (Simulation time: 1 hr 40 min 27 sec) 
Heartbeat CPU 0 instructions: 428000000 cycles: 2703395297 heartbeat IPC: 0.1627 cumulative IPC: 0.157977 (Simulation time: 1 hr 40 min 41 sec) 
Heartbeat CPU 0 instructions: 429000000 cycles: 2709948710 heartbeat IPC: 0.152592 cumulative IPC: 0.157964 (Simulation time: 1 hr 40 min 57 sec) 
Heartbeat CPU 0 instructions: 430000001 cycles: 2716407960 heartbeat IPC: 0.154817 cumulative IPC: 0.157956 (Simulation time: 1 hr 41 min 11 sec) 
Heartbeat CPU 0 instructions: 431000003 cycles: 2722819013 heartbeat IPC: 0.155981 cumulative IPC: 0.157951 (Simulation time: 1 hr 41 min 27 sec) 
Heartbeat CPU 0 instructions: 432000000 cycles: 2729170566 heartbeat IPC: 0.157441 cumulative IPC: 0.15795 (Simulation time: 1 hr 41 min 43 sec) 
Heartbeat CPU 0 instructions: 433000001 cycles: 2735487591 heartbeat IPC: 0.158303 cumulative IPC: 0.157951 (Simulation time: 1 hr 41 min 58 sec) 
Heartbeat CPU 0 instructions: 434000002 cycles: 2742499388 heartbeat IPC: 0.142617 cumulative IPC: 0.157912 (Simulation time: 1 hr 42 min 12 sec) 
Heartbeat CPU 0 instructions: 435000000 cycles: 2749306400 heartbeat IPC: 0.146907 cumulative IPC: 0.157885 (Simulation time: 1 hr 42 min 26 sec) 
Heartbeat CPU 0 instructions: 436000000 cycles: 2755899883 heartbeat IPC: 0.151665 cumulative IPC: 0.15787 (Simulation time: 1 hr 42 min 42 sec) 
Heartbeat CPU 0 instructions: 437000002 cycles: 2762925105 heartbeat IPC: 0.142345 cumulative IPC: 0.15783 (Simulation time: 1 hr 42 min 57 sec) 
Heartbeat CPU 0 instructions: 438000000 cycles: 2769323404 heartbeat IPC: 0.156291 cumulative IPC: 0.157827 (Simulation time: 1 hr 43 min 12 sec) 
Heartbeat CPU 0 instructions: 439000001 cycles: 2775620351 heartbeat IPC: 0.158807 cumulative IPC: 0.157829 (Simulation time: 1 hr 43 min 27 sec) 
Heartbeat CPU 0 instructions: 440000000 cycles: 2782097180 heartbeat IPC: 0.154396 cumulative IPC: 0.157821 (Simulation time: 1 hr 43 min 41 sec) 
Heartbeat CPU 0 instructions: 441000003 cycles: 2788648199 heartbeat IPC: 0.152648 cumulative IPC: 0.157809 (Simulation time: 1 hr 43 min 56 sec) 
Heartbeat CPU 0 instructions: 442000003 cycles: 2795471807 heartbeat IPC: 0.14655 cumulative IPC: 0.157781 (Simulation time: 1 hr 44 min 9 sec) 
Heartbeat CPU 0 instructions: 443000001 cycles: 2802135053 heartbeat IPC: 0.150077 cumulative IPC: 0.157763 (Simulation time: 1 hr 44 min 24 sec) 
Heartbeat CPU 0 instructions: 444000000 cycles: 2808509881 heartbeat IPC: 0.156867 cumulative IPC: 0.157761 (Simulation time: 1 hr 44 min 39 sec) 
Heartbeat CPU 0 instructions: 445000000 cycles: 2814866096 heartbeat IPC: 0.157326 cumulative IPC: 0.15776 (Simulation time: 1 hr 44 min 54 sec) 
Heartbeat CPU 0 instructions: 446000002 cycles: 2821492538 heartbeat IPC: 0.150911 cumulative IPC: 0.157744 (Simulation time: 1 hr 45 min 10 sec) 
Heartbeat CPU 0 instructions: 447000002 cycles: 2827907201 heartbeat IPC: 0.155893 cumulative IPC: 0.15774 (Simulation time: 1 hr 45 min 25 sec) 
Heartbeat CPU 0 instructions: 448000003 cycles: 2834368330 heartbeat IPC: 0.154772 cumulative IPC: 0.157733 (Simulation time: 1 hr 45 min 41 sec) 
Heartbeat CPU 0 instructions: 449000000 cycles: 2840812747 heartbeat IPC: 0.155173 cumulative IPC: 0.157727 (Simulation time: 1 hr 45 min 57 sec) 
Heartbeat CPU 0 instructions: 450000001 cycles: 2847201987 heartbeat IPC: 0.156513 cumulative IPC: 0.157724 (Simulation time: 1 hr 46 min 13 sec) 

Warmup complete CPU 0 instructions: 450000001 cycles: 2847201987 (Simulation time: 1 hr 46 min 13 sec) 

Heartbeat CPU 0 instructions: 451000000 cycles: 2853567528 heartbeat IPC: 0.157096 cumulative IPC: 0.157096 (Simulation time: 1 hr 46 min 28 sec) 
Heartbeat CPU 0 instructions: 452000001 cycles: 2860263548 heartbeat IPC: 0.149343 cumulative IPC: 0.153121 (Simulation time: 1 hr 46 min 42 sec) 
Heartbeat CPU 0 instructions: 453000001 cycles: 2866819750 heartbeat IPC: 0.152527 cumulative IPC: 0.152923 (Simulation time: 1 hr 46 min 57 sec) 
Heartbeat CPU 0 instructions: 454000001 cycles: 2873284948 heartbeat IPC: 0.154674 cumulative IPC: 0.153357 (Simulation time: 1 hr 47 min 12 sec) 
Heartbeat CPU 0 instructions: 455000001 cycles: 2879714480 heartbeat IPC: 0.155532 cumulative IPC: 0.153787 (Simulation time: 1 hr 47 min 27 sec) 
Heartbeat CPU 0 instructions: 456000000 cycles: 2886082204 heartbeat IPC: 0.157042 cumulative IPC: 0.15432 (Simulation time: 1 hr 47 min 42 sec) 
Heartbeat CPU 0 instructions: 457000001 cycles: 2892454524 heartbeat IPC: 0.156929 cumulative IPC: 0.154687 (Simulation time: 1 hr 47 min 57 sec) 
Heartbeat CPU 0 instructions: 458000003 cycles: 2898789880 heartbeat IPC: 0.157845 cumulative IPC: 0.155075 (Simulation time: 1 hr 48 min 12 sec) 
Heartbeat CPU 0 instructions: 459000000 cycles: 2905508688 heartbeat IPC: 0.148835 cumulative IPC: 0.154356 (Simulation time: 1 hr 48 min 28 sec) 
Heartbeat CPU 0 instructions: 460000001 cycles: 2911919865 heartbeat IPC: 0.155978 cumulative IPC: 0.154517 (Simulation time: 1 hr 48 min 44 sec) 
Heartbeat CPU 0 instructions: 461000000 cycles: 2918430427 heartbeat IPC: 0.153596 cumulative IPC: 0.154433 (Simulation time: 1 hr 49 min 0 sec) 
Heartbeat CPU 0 instructions: 462000000 cycles: 2924838653 heartbeat IPC: 0.156049 cumulative IPC: 0.154566 (Simulation time: 1 hr 49 min 15 sec) 
Heartbeat CPU 0 instructions: 463000001 cycles: 2931206100 heartbeat IPC: 0.157049 cumulative IPC: 0.154754 (Simulation time: 1 hr 49 min 30 sec) 
Heartbeat CPU 0 instructions: 464000002 cycles: 2937551181 heartbeat IPC: 0.157603 cumulative IPC: 0.154954 (Simulation time: 1 hr 49 min 45 sec) 
Heartbeat CPU 0 instructions: 465000002 cycles: 2943862670 heartbeat IPC: 0.158441 cumulative IPC: 0.155182 (Simulation time: 1 hr 50 min 0 sec) 
Heartbeat CPU 0 instructions: 466000002 cycles: 2950548753 heartbeat IPC: 0.149564 cumulative IPC: 0.154819 (Simulation time: 1 hr 50 min 16 sec) 
Heartbeat CPU 0 instructions: 467000002 cycles: 2957167566 heartbeat IPC: 0.151084 cumulative IPC: 0.154594 (Simulation time: 1 hr 50 min 31 sec) 
Heartbeat CPU 0 instructions: 468000002 cycles: 2963643820 heartbeat IPC: 0.15441 cumulative IPC: 0.154584 (Simulation time: 1 hr 50 min 46 sec) 
Heartbeat CPU 0 instructions: 469000000 cycles: 2970434430 heartbeat IPC: 0.147262 cumulative IPC: 0.15418 (Simulation time: 1 hr 51 min 0 sec) 
Heartbeat CPU 0 instructions: 470000000 cycles: 2976929506 heartbeat IPC: 0.153963 cumulative IPC: 0.154169 (Simulation time: 1 hr 51 min 15 sec) 
Heartbeat CPU 0 instructions: 471000000 cycles: 2983593210 heartbeat IPC: 0.150067 cumulative IPC: 0.153969 (Simulation time: 1 hr 51 min 32 sec) 
Heartbeat CPU 0 instructions: 472000001 cycles: 2990123432 heartbeat IPC: 0.153134 cumulative IPC: 0.153931 (Simulation time: 1 hr 51 min 48 sec) 
Heartbeat CPU 0 instructions: 473000000 cycles: 2996556805 heartbeat IPC: 0.155439 cumulative IPC: 0.153996 (Simulation time: 1 hr 52 min 4 sec) 
Heartbeat CPU 0 instructions: 474000001 cycles: 3002894560 heartbeat IPC: 0.157785 cumulative IPC: 0.15415 (Simulation time: 1 hr 52 min 21 sec) 
Heartbeat CPU 0 instructions: 475000000 cycles: 3009105366 heartbeat IPC: 0.16101 cumulative IPC: 0.154413 (Simulation time: 1 hr 52 min 37 sec) 
Heartbeat CPU 0 instructions: 476000003 cycles: 3016156580 heartbeat IPC: 0.14182 cumulative IPC: 0.153888 (Simulation time: 1 hr 52 min 51 sec) 
Heartbeat CPU 0 instructions: 477000003 cycles: 3022474877 heartbeat IPC: 0.15827 cumulative IPC: 0.154046 (Simulation time: 1 hr 53 min 6 sec) 
Heartbeat CPU 0 instructions: 478000002 cycles: 3029102440 heartbeat IPC: 0.150885 cumulative IPC: 0.15393 (Simulation time: 1 hr 53 min 22 sec) 
Heartbeat CPU 0 instructions: 479000000 cycles: 3035429555 heartbeat IPC: 0.15805 cumulative IPC: 0.154069 (Simulation time: 1 hr 53 min 37 sec) 
Heartbeat CPU 0 instructions: 480000003 cycles: 3041889436 heartbeat IPC: 0.154802 cumulative IPC: 0.154093 (Simulation time: 1 hr 53 min 52 sec) 
Heartbeat CPU 0 instructions: 481000002 cycles: 3048308220 heartbeat IPC: 0.155793 cumulative IPC: 0.154147 (Simulation time: 1 hr 54 min 7 sec) 
Heartbeat CPU 0 instructions: 482000000 cycles: 3054555071 heartbeat IPC: 0.16008 cumulative IPC: 0.154326 (Simulation time: 1 hr 54 min 20 sec) 
Heartbeat CPU 0 instructions: 483000001 cycles: 3061081089 heartbeat IPC: 0.153233 cumulative IPC: 0.154293 (Simulation time: 1 hr 54 min 36 sec) 
Heartbeat CPU 0 instructions: 484000000 cycles: 3068177312 heartbeat IPC: 0.14092 cumulative IPC: 0.153863 (Simulation time: 1 hr 54 min 50 sec) 
Heartbeat CPU 0 instructions: 485000002 cycles: 3075076652 heartbeat IPC: 0.144942 cumulative IPC: 0.153593 (Simulation time: 1 hr 55 min 5 sec) 
Heartbeat CPU 0 instructions: 486000002 cycles: 3081815626 heartbeat IPC: 0.148391 cumulative IPC: 0.153444 (Simulation time: 1 hr 55 min 20 sec) 
Heartbeat CPU 0 instructions: 487000000 cycles: 3088105407 heartbeat IPC: 0.158988 cumulative IPC: 0.153589 (Simulation time: 1 hr 55 min 35 sec) 
Heartbeat CPU 0 instructions: 488000001 cycles: 3094514860 heartbeat IPC: 0.15602 cumulative IPC: 0.153652 (Simulation time: 1 hr 55 min 50 sec) 
Heartbeat CPU 0 instructions: 489000000 cycles: 3100896877 heartbeat IPC: 0.15669 cumulative IPC: 0.153728 (Simulation time: 1 hr 56 min 5 sec) 
Heartbeat CPU 0 instructions: 490000002 cycles: 3107233570 heartbeat IPC: 0.157811 cumulative IPC: 0.153827 (Simulation time: 1 hr 56 min 20 sec) 
Heartbeat CPU 0 instructions: 491000002 cycles: 3113557118 heartbeat IPC: 0.158139 cumulative IPC: 0.15393 (Simulation time: 1 hr 56 min 35 sec) 
Heartbeat CPU 0 instructions: 492000002 cycles: 3119867560 heartbeat IPC: 0.158468 cumulative IPC: 0.154035 (Simulation time: 1 hr 56 min 49 sec) 
Heartbeat CPU 0 instructions: 493000002 cycles: 3126745046 heartbeat IPC: 0.145402 cumulative IPC: 0.153822 (Simulation time: 1 hr 57 min 4 sec) 
Heartbeat CPU 0 instructions: 494000000 cycles: 3133429978 heartbeat IPC: 0.14959 cumulative IPC: 0.153724 (Simulation time: 1 hr 57 min 19 sec) 
Heartbeat CPU 0 instructions: 495000000 cycles: 3139792335 heartbeat IPC: 0.157174 cumulative IPC: 0.153799 (Simulation time: 1 hr 57 min 34 sec) 
Heartbeat CPU 0 instructions: 496000001 cycles: 3147018194 heartbeat IPC: 0.138392 cumulative IPC: 0.153427 (Simulation time: 1 hr 57 min 46 sec) 
Heartbeat CPU 0 instructions: 497000000 cycles: 3153348526 heartbeat IPC: 0.157969 cumulative IPC: 0.153521 (Simulation time: 1 hr 57 min 59 sec) 
Heartbeat CPU 0 instructions: 498000000 cycles: 3159730234 heartbeat IPC: 0.156698 cumulative IPC: 0.153586 (Simulation time: 1 hr 58 min 12 sec) 
Heartbeat CPU 0 instructions: 499000000 cycles: 3166016315 heartbeat IPC: 0.159082 cumulative IPC: 0.153694 (Simulation time: 1 hr 58 min 25 sec) 
Heartbeat CPU 0 instructions: 500000002 cycles: 3172506918 heartbeat IPC: 0.154069 cumulative IPC: 0.153702 (Simulation time: 1 hr 58 min 39 sec) 
Heartbeat CPU 0 instructions: 501000002 cycles: 3179144488 heartbeat IPC: 0.150658 cumulative IPC: 0.153641 (Simulation time: 1 hr 58 min 52 sec) 
Heartbeat CPU 0 instructions: 502000000 cycles: 3185636638 heartbeat IPC: 0.154032 cumulative IPC: 0.153649 (Simulation time: 1 hr 59 min 5 sec) 
Heartbeat CPU 0 instructions: 503000002 cycles: 3192069615 heartbeat IPC: 0.155449 cumulative IPC: 0.153682 (Simulation time: 1 hr 59 min 19 sec) 
Heartbeat CPU 0 instructions: 504000003 cycles: 3198451941 heartbeat IPC: 0.156683 cumulative IPC: 0.153737 (Simulation time: 1 hr 59 min 32 sec) 
Heartbeat CPU 0 instructions: 505000002 cycles: 3204836341 heartbeat IPC: 0.156632 cumulative IPC: 0.153788 (Simulation time: 1 hr 59 min 46 sec) 
Heartbeat CPU 0 instructions: 506000000 cycles: 3211281084 heartbeat IPC: 0.155165 cumulative IPC: 0.153813 (Simulation time: 1 hr 59 min 58 sec) 
Heartbeat CPU 0 instructions: 507000002 cycles: 3217773336 heartbeat IPC: 0.15403 cumulative IPC: 0.153817 (Simulation time: 2 hr 0 min 11 sec) 
Heartbeat CPU 0 instructions: 508000000 cycles: 3224445922 heartbeat IPC: 0.149867 cumulative IPC: 0.153747 (Simulation time: 2 hr 0 min 25 sec) 
Heartbeat CPU 0 instructions: 509000000 cycles: 3230944746 heartbeat IPC: 0.153874 cumulative IPC: 0.153749 (Simulation time: 2 hr 0 min 39 sec) 
Heartbeat CPU 0 instructions: 510000000 cycles: 3237382517 heartbeat IPC: 0.155333 cumulative IPC: 0.153775 (Simulation time: 2 hr 0 min 52 sec) 
Heartbeat CPU 0 instructions: 511000000 cycles: 3243780635 heartbeat IPC: 0.156296 cumulative IPC: 0.153816 (Simulation time: 2 hr 1 min 6 sec) 
Heartbeat CPU 0 instructions: 512000000 cycles: 3250129146 heartbeat IPC: 0.157517 cumulative IPC: 0.153874 (Simulation time: 2 hr 1 min 19 sec) 
Heartbeat CPU 0 instructions: 513000000 cycles: 3256733822 heartbeat IPC: 0.151408 cumulative IPC: 0.153834 (Simulation time: 2 hr 1 min 33 sec) 
Heartbeat CPU 0 instructions: 514000000 cycles: 3263309486 heartbeat IPC: 0.152076 cumulative IPC: 0.153806 (Simulation time: 2 hr 1 min 46 sec) 
Heartbeat CPU 0 instructions: 515000003 cycles: 3269763725 heartbeat IPC: 0.154937 cumulative IPC: 0.153824 (Simulation time: 2 hr 1 min 59 sec) 
Heartbeat CPU 0 instructions: 516000002 cycles: 3276171871 heartbeat IPC: 0.156051 cumulative IPC: 0.153857 (Simulation time: 2 hr 2 min 13 sec) 
Heartbeat CPU 0 instructions: 517000000 cycles: 3282536091 heartbeat IPC: 0.157128 cumulative IPC: 0.153905 (Simulation time: 2 hr 2 min 26 sec) 
Heartbeat CPU 0 instructions: 518000002 cycles: 3288882926 heartbeat IPC: 0.157559 cumulative IPC: 0.153957 (Simulation time: 2 hr 2 min 40 sec) 
Heartbeat CPU 0 instructions: 519000000 cycles: 3295068950 heartbeat IPC: 0.161654 cumulative IPC: 0.154064 (Simulation time: 2 hr 2 min 53 sec) 
Heartbeat CPU 0 instructions: 520000000 cycles: 3301822435 heartbeat IPC: 0.148072 cumulative IPC: 0.153975 (Simulation time: 2 hr 3 min 7 sec) 
Heartbeat CPU 0 instructions: 521000001 cycles: 3308394494 heartbeat IPC: 0.152159 cumulative IPC: 0.153949 (Simulation time: 2 hr 3 min 20 sec) 
Heartbeat CPU 0 instructions: 522000003 cycles: 3315387537 heartbeat IPC: 0.143 cumulative IPC: 0.153785 (Simulation time: 2 hr 3 min 33 sec) 
Heartbeat CPU 0 instructions: 523000001 cycles: 3321882976 heartbeat IPC: 0.153954 cumulative IPC: 0.153787 (Simulation time: 2 hr 3 min 46 sec) 
Heartbeat CPU 0 instructions: 524000003 cycles: 3328343845 heartbeat IPC: 0.154778 cumulative IPC: 0.153801 (Simulation time: 2 hr 3 min 59 sec) 
Heartbeat CPU 0 instructions: 525000002 cycles: 3334668690 heartbeat IPC: 0.158106 cumulative IPC: 0.153857 (Simulation time: 2 hr 4 min 13 sec) 
Heartbeat CPU 0 instructions: 526000001 cycles: 3340986932 heartbeat IPC: 0.158272 cumulative IPC: 0.153913 (Simulation time: 2 hr 4 min 27 sec) 
Heartbeat CPU 0 instructions: 527000002 cycles: 3347330698 heartbeat IPC: 0.157635 cumulative IPC: 0.15396 (Simulation time: 2 hr 4 min 40 sec) 
Heartbeat CPU 0 instructions: 528000000 cycles: 3353510073 heartbeat IPC: 0.161828 cumulative IPC: 0.154056 (Simulation time: 2 hr 4 min 53 sec) 
Heartbeat CPU 0 instructions: 529000000 cycles: 3360123161 heartbeat IPC: 0.151215 cumulative IPC: 0.15402 (Simulation time: 2 hr 5 min 7 sec) 
Heartbeat CPU 0 instructions: 530000000 cycles: 3366928823 heartbeat IPC: 0.146936 cumulative IPC: 0.153927 (Simulation time: 2 hr 5 min 20 sec) 
Heartbeat CPU 0 instructions: 531000000 cycles: 3373603005 heartbeat IPC: 0.149831 cumulative IPC: 0.153875 (Simulation time: 2 hr 5 min 34 sec) 
Heartbeat CPU 0 instructions: 532000002 cycles: 3380217775 heartbeat IPC: 0.151177 cumulative IPC: 0.153842 (Simulation time: 2 hr 5 min 47 sec) 
Heartbeat CPU 0 instructions: 533000002 cycles: 3386608603 heartbeat IPC: 0.156474 cumulative IPC: 0.153873 (Simulation time: 2 hr 6 min 1 sec) 
Heartbeat CPU 0 instructions: 534000003 cycles: 3393052938 heartbeat IPC: 0.155175 cumulative IPC: 0.153888 (Simulation time: 2 hr 6 min 15 sec) 
Heartbeat CPU 0 instructions: 535000000 cycles: 3399865745 heartbeat IPC: 0.146782 cumulative IPC: 0.153801 (Simulation time: 2 hr 6 min 28 sec) 
Heartbeat CPU 0 instructions: 536000002 cycles: 3406572780 heartbeat IPC: 0.149097 cumulative IPC: 0.153744 (Simulation time: 2 hr 6 min 41 sec) 
Heartbeat CPU 0 instructions: 537000000 cycles: 3413101267 heartbeat IPC: 0.153175 cumulative IPC: 0.153738 (Simulation time: 2 hr 6 min 55 sec) 
Heartbeat CPU 0 instructions: 538000000 cycles: 3419576223 heartbeat IPC: 0.154441 cumulative IPC: 0.153746 (Simulation time: 2 hr 7 min 8 sec) 
Heartbeat CPU 0 instructions: 539000000 cycles: 3426167685 heartbeat IPC: 0.151711 cumulative IPC: 0.153722 (Simulation time: 2 hr 7 min 22 sec) 
Heartbeat CPU 0 instructions: 540000003 cycles: 3432893808 heartbeat IPC: 0.148675 cumulative IPC: 0.153664 (Simulation time: 2 hr 7 min 35 sec) 
Heartbeat CPU 0 instructions: 541000002 cycles: 3439488352 heartbeat IPC: 0.15164 cumulative IPC: 0.153642 (Simulation time: 2 hr 7 min 49 sec) 
Heartbeat CPU 0 instructions: 542000001 cycles: 3446211346 heartbeat IPC: 0.148743 cumulative IPC: 0.153587 (Simulation time: 2 hr 8 min 2 sec) 
Heartbeat CPU 0 instructions: 543000003 cycles: 3452747645 heartbeat IPC: 0.152992 cumulative IPC: 0.153581 (Simulation time: 2 hr 8 min 15 sec) 
Heartbeat CPU 0 instructions: 544000001 cycles: 3459142754 heartbeat IPC: 0.156369 cumulative IPC: 0.15361 (Simulation time: 2 hr 8 min 29 sec) 
[...]
Heartbeat CPU 0 instructions: 835000003 cycles: 5404803971 heartbeat IPC: 0.144429 cumulative IPC: 0.150532 (Simulation time: 3 hr 1 min 17 sec) 
Heartbeat CPU 0 instructions: 836000000 cycles: 5411722865 heartbeat IPC: 0.144531 cumulative IPC: 0.150515 (Simulation time: 3 hr 1 min 25 sec) 
Heartbeat CPU 0 instructions: 837000000 cycles: 5418315366 heartbeat IPC: 0.151688 cumulative IPC: 0.150518 (Simulation time: 3 hr 1 min 32 sec) 
Heartbeat CPU 0 instructions: 838000001 cycles: 5424831118 heartbeat IPC: 0.153474 cumulative IPC: 0.150526 (Simulation time: 3 hr 1 min 39 sec) 
Heartbeat CPU 0 instructions: 839000003 cycles: 5431486604 heartbeat IPC: 0.150252 cumulative IPC: 0.150525 (Simulation time: 3 hr 1 min 47 sec) 
Heartbeat CPU 0 instructions: 840000000 cycles: 5437872373 heartbeat IPC: 0.156598 cumulative IPC: 0.15054 (Simulation time: 3 hr 1 min 54 sec) 
Heartbeat CPU 0 instructions: 841000002 cycles: 5444694427 heartbeat IPC: 0.146584 cumulative IPC: 0.15053 (Simulation time: 3 hr 2 min 2 sec) 
Heartbeat CPU 0 instructions: 842000001 cycles: 5451134736 heartbeat IPC: 0.155272 cumulative IPC: 0.150542 (Simulation time: 3 hr 2 min 10 sec) 
Heartbeat CPU 0 instructions: 843000002 cycles: 5458440423 heartbeat IPC: 0.13688 cumulative IPC: 0.150503 (Simulation time: 3 hr 2 min 18 sec) 
Heartbeat CPU 0 instructions: 844000003 cycles: 5465202914 heartbeat IPC: 0.147875 cumulative IPC: 0.150497 (Simulation time: 3 hr 2 min 26 sec) 
Heartbeat CPU 0 instructions: 845000000 cycles: 5472092889 heartbeat IPC: 0.145138 cumulative IPC: 0.150482 (Simulation time: 3 hr 2 min 34 sec) 
Heartbeat CPU 0 instructions: 846000003 cycles: 5478620189 heartbeat IPC: 0.153203 cumulative IPC: 0.150489 (Simulation time: 3 hr 2 min 42 sec) 
Heartbeat CPU 0 instructions: 847000000 cycles: 5485468406 heartbeat IPC: 0.146023 cumulative IPC: 0.150478 (Simulation time: 3 hr 2 min 50 sec) 
Heartbeat CPU 0 instructions: 848000000 cycles: 5492023288 heartbeat IPC: 0.152558 cumulative IPC: 0.150483 (Simulation time: 3 hr 2 min 58 sec) 
Heartbeat CPU 0 instructions: 849000003 cycles: 5498624853 heartbeat IPC: 0.15148 cumulative IPC: 0.150485 (Simulation time: 3 hr 3 min 6 sec) 
Heartbeat CPU 0 instructions: 850000002 cycles: 5505113581 heartbeat IPC: 0.154113 cumulative IPC: 0.150494 (Simulation time: 3 hr 3 min 14 sec) 
Heartbeat CPU 0 instructions: 851000002 cycles: 5511963172 heartbeat IPC: 0.145994 cumulative IPC: 0.150483 (Simulation time: 3 hr 3 min 23 sec) 
Heartbeat CPU 0 instructions: 852000002 cycles: 5518626158 heartbeat IPC: 0.150083 cumulative IPC: 0.150482 (Simulation time: 3 hr 3 min 31 sec) 
Heartbeat CPU 0 instructions: 853000001 cycles: 5525577702 heartbeat IPC: 0.143853 cumulative IPC: 0.150464 (Simulation time: 3 hr 3 min 39 sec) 
Heartbeat CPU 0 instructions: 854000000 cycles: 5531869690 heartbeat IPC: 0.158932 cumulative IPC: 0.150484 (Simulation time: 3 hr 3 min 45 sec) 
Heartbeat CPU 0 instructions: 855000002 cycles: 5538842577 heartbeat IPC: 0.143413 cumulative IPC: 0.150466 (Simulation time: 3 hr 3 min 52 sec) 
Heartbeat CPU 0 instructions: 856000002 cycles: 5545759065 heartbeat IPC: 0.144582 cumulative IPC: 0.150451 (Simulation time: 3 hr 4 min 0 sec) 
Heartbeat CPU 0 instructions: 857000001 cycles: 5552253174 heartbeat IPC: 0.153986 cumulative IPC: 0.150459 (Simulation time: 3 hr 4 min 8 sec) 
Heartbeat CPU 0 instructions: 858000000 cycles: 5558935820 heartbeat IPC: 0.149641 cumulative IPC: 0.150457 (Simulation time: 3 hr 4 min 17 sec) 
Heartbeat CPU 0 instructions: 859000000 cycles: 5565374843 heartbeat IPC: 0.155303 cumulative IPC: 0.150469 (Simulation time: 3 hr 4 min 25 sec) 
Heartbeat CPU 0 instructions: 860000003 cycles: 5572339356 heartbeat IPC: 0.143585 cumulative IPC: 0.150451 (Simulation time: 3 hr 4 min 33 sec) 
Heartbeat CPU 0 instructions: 861000002 cycles: 5578878773 heartbeat IPC: 0.152919 cumulative IPC: 0.150457 (Simulation time: 3 hr 4 min 40 sec) 
Heartbeat CPU 0 instructions: 862000002 cycles: 5585540423 heartbeat IPC: 0.150113 cumulative IPC: 0.150456 (Simulation time: 3 hr 4 min 48 sec) 
Heartbeat CPU 0 instructions: 863000000 cycles: 5592276536 heartbeat IPC: 0.148453 cumulative IPC: 0.150451 (Simulation time: 3 hr 4 min 56 sec) 
Heartbeat CPU 0 instructions: 864000000 cycles: 5599182433 heartbeat IPC: 0.144804 cumulative IPC: 0.150437 (Simulation time: 3 hr 5 min 4 sec) 
Heartbeat CPU 0 instructions: 865000001 cycles: 5605704337 heartbeat IPC: 0.15333 cumulative IPC: 0.150444 (Simulation time: 3 hr 5 min 12 sec) 
Heartbeat CPU 0 instructions: 866000001 cycles: 5612226183 heartbeat IPC: 0.153331 cumulative IPC: 0.150451 (Simulation time: 3 hr 5 min 19 sec) 
Heartbeat CPU 0 instructions: 867000000 cycles: 5618811437 heartbeat IPC: 0.151854 cumulative IPC: 0.150454 (Simulation time: 3 hr 5 min 28 sec) 
Heartbeat CPU 0 instructions: 868000000 cycles: 5625555893 heartbeat IPC: 0.14827 cumulative IPC: 0.150449 (Simulation time: 3 hr 5 min 36 sec) 
Heartbeat CPU 0 instructions: 869000000 cycles: 5632544726 heartbeat IPC: 0.143085 cumulative IPC: 0.15043 (Simulation time: 3 hr 5 min 44 sec) 
Heartbeat CPU 0 instructions: 870000001 cycles: 5639109624 heartbeat IPC: 0.152325 cumulative IPC: 0.150435 (Simulation time: 3 hr 5 min 52 sec) 
Heartbeat CPU 0 instructions: 871000003 cycles: 5646093689 heartbeat IPC: 0.143183 cumulative IPC: 0.150417 (Simulation time: 3 hr 6 min 0 sec) 
Heartbeat CPU 0 instructions: 872000002 cycles: 5652395334 heartbeat IPC: 0.158689 cumulative IPC: 0.150435 (Simulation time: 3 hr 6 min 7 sec) 
Heartbeat CPU 0 instructions: 873000000 cycles: 5659021218 heartbeat IPC: 0.150923 cumulative IPC: 0.150436 (Simulation time: 3 hr 6 min 15 sec) 
Heartbeat CPU 0 instructions: 874000002 cycles: 5665589643 heartbeat IPC: 0.152244 cumulative IPC: 0.150441 (Simulation time: 3 hr 6 min 23 sec) 
Heartbeat CPU 0 instructions: 875000000 cycles: 5672169439 heartbeat IPC: 0.15198 cumulative IPC: 0.150444 (Simulation time: 3 hr 6 min 29 sec) 
Heartbeat CPU 0 instructions: 876000002 cycles: 5678854865 heartbeat IPC: 0.149579 cumulative IPC: 0.150442 (Simulation time: 3 hr 6 min 37 sec) 
Heartbeat CPU 0 instructions: 877000001 cycles: 5685805438 heartbeat IPC: 0.143873 cumulative IPC: 0.150426 (Simulation time: 3 hr 6 min 45 sec) 
Heartbeat CPU 0 instructions: 878000003 cycles: 5692697245 heartbeat IPC: 0.1451 cumulative IPC: 0.150413 (Simulation time: 3 hr 6 min 53 sec) 
Heartbeat CPU 0 instructions: 879000001 cycles: 5699299105 heartbeat IPC: 0.151472 cumulative IPC: 0.150416 (Simulation time: 3 hr 7 min 1 sec) 
Heartbeat CPU 0 instructions: 880000000 cycles: 5705650015 heartbeat IPC: 0.157458 cumulative IPC: 0.150431 (Simulation time: 3 hr 7 min 7 sec) 
Heartbeat CPU 0 instructions: 881000001 cycles: 5712428807 heartbeat IPC: 0.147519 cumulative IPC: 0.150424 (Simulation time: 3 hr 7 min 15 sec) 
Heartbeat CPU 0 instructions: 882000001 cycles: 5718896193 heartbeat IPC: 0.154622 cumulative IPC: 0.150434 (Simulation time: 3 hr 7 min 23 sec) 
Heartbeat CPU 0 instructions: 883000001 cycles: 5725857192 heartbeat IPC: 0.143658 cumulative IPC: 0.150417 (Simulation time: 3 hr 7 min 31 sec) 
Heartbeat CPU 0 instructions: 884000000 cycles: 5732307870 heartbeat IPC: 0.155022 cumulative IPC: 0.150428 (Simulation time: 3 hr 7 min 39 sec) 
Heartbeat CPU 0 instructions: 885000003 cycles: 5739403289 heartbeat IPC: 0.140936 cumulative IPC: 0.150404 (Simulation time: 3 hr 7 min 47 sec) 
Heartbeat CPU 0 instructions: 886000002 cycles: 5746000183 heartbeat IPC: 0.151586 cumulative IPC: 0.150407 (Simulation time: 3 hr 7 min 55 sec) 
Heartbeat CPU 0 instructions: 887000000 cycles: 5752777712 heartbeat IPC: 0.147546 cumulative IPC: 0.1504 (Simulation time: 3 hr 8 min 4 sec) 
Heartbeat CPU 0 instructions: 888000000 cycles: 5759231277 heartbeat IPC: 0.154953 cumulative IPC: 0.150411 (Simulation time: 3 hr 8 min 12 sec) 
Heartbeat CPU 0 instructions: 889000000 cycles: 5765891209 heartbeat IPC: 0.150152 cumulative IPC: 0.15041 (Simulation time: 3 hr 8 min 20 sec) 
Heartbeat CPU 0 instructions: 890000000 cycles: 5772370773 heartbeat IPC: 0.154331 cumulative IPC: 0.150419 (Simulation time: 3 hr 8 min 27 sec) 
Heartbeat CPU 0 instructions: 891000000 cycles: 5778700692 heartbeat IPC: 0.15798 cumulative IPC: 0.150435 (Simulation time: 3 hr 8 min 35 sec) 
Heartbeat CPU 0 instructions: 892000002 cycles: 5785686407 heartbeat IPC: 0.14315 cumulative IPC: 0.150418 (Simulation time: 3 hr 8 min 42 sec) 
Heartbeat CPU 0 instructions: 893000001 cycles: 5792458700 heartbeat IPC: 0.14766 cumulative IPC: 0.150411 (Simulation time: 3 hr 8 min 50 sec) 
Heartbeat CPU 0 instructions: 894000000 cycles: 5798929122 heartbeat IPC: 0.154549 cumulative IPC: 0.15042 (Simulation time: 3 hr 8 min 57 sec) 
Heartbeat CPU 0 instructions: 895000001 cycles: 5805728972 heartbeat IPC: 0.147062 cumulative IPC: 0.150413 (Simulation time: 3 hr 9 min 5 sec) 
Heartbeat CPU 0 instructions: 896000003 cycles: 5812236156 heartbeat IPC: 0.153677 cumulative IPC: 0.15042 (Simulation time: 3 hr 9 min 13 sec) 
Heartbeat CPU 0 instructions: 897000002 cycles: 5818955614 heartbeat IPC: 0.148821 cumulative IPC: 0.150416 (Simulation time: 3 hr 9 min 21 sec) 
Heartbeat CPU 0 instructions: 898000000 cycles: 5825282943 heartbeat IPC: 0.158044 cumulative IPC: 0.150432 (Simulation time: 3 hr 9 min 28 sec) 
Heartbeat CPU 0 instructions: 899000001 cycles: 5831894196 heartbeat IPC: 0.151257 cumulative IPC: 0.150434 (Simulation time: 3 hr 9 min 36 sec) 
Heartbeat CPU 0 instructions: 900000001 cycles: 5838562594 heartbeat IPC: 0.149961 cumulative IPC: 0.150433 (Simulation time: 3 hr 9 min 43 sec) 
Heartbeat CPU 0 instructions: 901000002 cycles: 5844977625 heartbeat IPC: 0.155884 cumulative IPC: 0.150445 (Simulation time: 3 hr 9 min 50 sec) 
Heartbeat CPU 0 instructions: 902000000 cycles: 5851923014 heartbeat IPC: 0.14398 cumulative IPC: 0.15043 (Simulation time: 3 hr 9 min 58 sec) 
Heartbeat CPU 0 instructions: 903000001 cycles: 5858737347 heartbeat IPC: 0.14675 cumulative IPC: 0.150422 (Simulation time: 3 hr 10 min 6 sec) 
Heartbeat CPU 0 instructions: 904000000 cycles: 5865226996 heartbeat IPC: 0.154091 cumulative IPC: 0.15043 (Simulation time: 3 hr 10 min 14 sec) 
Heartbeat CPU 0 instructions: 905000001 cycles: 5872179253 heartbeat IPC: 0.143838 cumulative IPC: 0.150414 (Simulation time: 3 hr 10 min 22 sec) 
Heartbeat CPU 0 instructions: 906000000 cycles: 5878636569 heartbeat IPC: 0.154863 cumulative IPC: 0.150424 (Simulation time: 3 hr 10 min 31 sec) 
Heartbeat CPU 0 instructions: 907000000 cycles: 5884960951 heartbeat IPC: 0.158118 cumulative IPC: 0.15044 (Simulation time: 3 hr 10 min 38 sec) 
Heartbeat CPU 0 instructions: 908000002 cycles: 5891765083 heartbeat IPC: 0.14697 cumulative IPC: 0.150432 (Simulation time: 3 hr 10 min 45 sec) 
Heartbeat CPU 0 instructions: 909000002 cycles: 5899000514 heartbeat IPC: 0.138209 cumulative IPC: 0.150403 (Simulation time: 3 hr 10 min 53 sec) 
Heartbeat CPU 0 instructions: 910000000 cycles: 5905903025 heartbeat IPC: 0.144875 cumulative IPC: 0.150391 (Simulation time: 3 hr 11 min 1 sec) 
Heartbeat CPU 0 instructions: 911000003 cycles: 5912440634 heartbeat IPC: 0.152962 cumulative IPC: 0.150396 (Simulation time: 3 hr 11 min 9 sec) 
Heartbeat CPU 0 instructions: 912000001 cycles: 5919144438 heartbeat IPC: 0.149169 cumulative IPC: 0.150393 (Simulation time: 3 hr 11 min 17 sec) 
Heartbeat CPU 0 instructions: 913000000 cycles: 5925641071 heartbeat IPC: 0.153926 cumulative IPC: 0.150401 (Simulation time: 3 hr 11 min 25 sec) 
Heartbeat CPU 0 instructions: 914000000 cycles: 5932488602 heartbeat IPC: 0.146038 cumulative IPC: 0.150391 (Simulation time: 3 hr 11 min 33 sec) 
Heartbeat CPU 0 instructions: 915000003 cycles: 5938665627 heartbeat IPC: 0.161891 cumulative IPC: 0.150414 (Simulation time: 3 hr 11 min 39 sec) 
Heartbeat CPU 0 instructions: 916000001 cycles: 5945607570 heartbeat IPC: 0.144052 cumulative IPC: 0.1504 (Simulation time: 3 hr 11 min 47 sec) 
Heartbeat CPU 0 instructions: 917000000 cycles: 5952113311 heartbeat IPC: 0.15371 cumulative IPC: 0.150407 (Simulation time: 3 hr 11 min 54 sec) 
Heartbeat CPU 0 instructions: 918000001 cycles: 5958984215 heartbeat IPC: 0.145541 cumulative IPC: 0.150396 (Simulation time: 3 hr 12 min 2 sec) 
Heartbeat CPU 0 instructions: 919000001 cycles: 5965764190 heartbeat IPC: 0.147493 cumulative IPC: 0.15039 (Simulation time: 3 hr 12 min 10 sec) 
Heartbeat CPU 0 instructions: 920000000 cycles: 5972697041 heartbeat IPC: 0.144241 cumulative IPC: 0.150376 (Simulation time: 3 hr 12 min 18 sec) 
Heartbeat CPU 0 instructions: 921000000 cycles: 5979340113 heartbeat IPC: 0.150533 cumulative IPC: 0.150377 (Simulation time: 3 hr 12 min 25 sec) 
Heartbeat CPU 0 instructions: 922000002 cycles: 5985807041 heartbeat IPC: 0.154633 cumulative IPC: 0.150385 (Simulation time: 3 hr 12 min 32 sec) 
Heartbeat CPU 0 instructions: 923000001 cycles: 5992129143 heartbeat IPC: 0.158175 cumulative IPC: 0.150401 (Simulation time: 3 hr 12 min 39 sec) 
Heartbeat CPU 0 instructions: 924000000 cycles: 5998975658 heartbeat IPC: 0.14606 cumulative IPC: 0.150392 (Simulation time: 3 hr 12 min 47 sec) 
Heartbeat CPU 0 instructions: 925000000 cycles: 6005119025 heartbeat IPC: 0.162777 cumulative IPC: 0.150416 (Simulation time: 3 hr 12 min 54 sec) 
Heartbeat CPU 0 instructions: 926000000 cycles: 6011813810 heartbeat IPC: 0.14937 cumulative IPC: 0.150413 (Simulation time: 3 hr 13 min 2 sec) 
Heartbeat CPU 0 instructions: 927000003 cycles: 6018373350 heartbeat IPC: 0.15245 cumulative IPC: 0.150418 (Simulation time: 3 hr 13 min 10 sec) 
Heartbeat CPU 0 instructions: 928000000 cycles: 6025365188 heartbeat IPC: 0.143023 cumulative IPC: 0.150401 (Simulation time: 3 hr 13 min 18 sec) 
Heartbeat CPU 0 instructions: 929000000 cycles: 6031788930 heartbeat IPC: 0.155673 cumulative IPC: 0.150412 (Simulation time: 3 hr 13 min 25 sec) 
Heartbeat CPU 0 instructions: 930000003 cycles: 6038424056 heartbeat IPC: 0.150713 cumulative IPC: 0.150413 (Simulation time: 3 hr 13 min 33 sec) 
Heartbeat CPU 0 instructions: 931000000 cycles: 6044973985 heartbeat IPC: 0.152673 cumulative IPC: 0.150417 (Simulation time: 3 hr 13 min 40 sec) 
Heartbeat CPU 0 instructions: 932000002 cycles: 6051442986 heartbeat IPC: 0.154584 cumulative IPC: 0.150426 (Simulation time: 3 hr 13 min 48 sec) 
Heartbeat CPU 0 instructions: 933000003 cycles: 6058340646 heartbeat IPC: 0.144977 cumulative IPC: 0.150414 (Simulation time: 3 hr 13 min 56 sec) 
Heartbeat CPU 0 instructions: 934000000 cycles: 6064788679 heartbeat IPC: 0.155086 cumulative IPC: 0.150423 (Simulation time: 3 hr 14 min 4 sec) 
Heartbeat CPU 0 instructions: 935000000 cycles: 6071773191 heartbeat IPC: 0.143174 cumulative IPC: 0.150408 (Simulation time: 3 hr 14 min 12 sec) 
Heartbeat CPU 0 instructions: 936000000 cycles: 6078451306 heartbeat IPC: 0.149743 cumulative IPC: 0.150406 (Simulation time: 3 hr 14 min 20 sec) 
Heartbeat CPU 0 instructions: 937000001 cycles: 6084947118 heartbeat IPC: 0.153945 cumulative IPC: 0.150413 (Simulation time: 3 hr 14 min 28 sec) 
Heartbeat CPU 0 instructions: 938000001 cycles: 6091743907 heartbeat IPC: 0.147128 cumulative IPC: 0.150406 (Simulation time: 3 hr 14 min 36 sec) 
Heartbeat CPU 0 instructions: 939000000 cycles: 6098238588 heartbeat IPC: 0.153972 cumulative IPC: 0.150414 (Simulation time: 3 hr 14 min 44 sec) 
Heartbeat CPU 0 instructions: 940000000 cycles: 6105161148 heartbeat IPC: 0.144455 cumulative IPC: 0.150401 (Simulation time: 3 hr 14 min 52 sec) 
Heartbeat CPU 0 instructions: 941000000 cycles: 6111718516 heartbeat IPC: 0.1525 cumulative IPC: 0.150405 (Simulation time: 3 hr 15 min 0 sec) 
Heartbeat CPU 0 instructions: 942000000 cycles: 6118272975 heartbeat IPC: 0.152568 cumulative IPC: 0.150409 (Simulation time: 3 hr 15 min 8 sec) 
Heartbeat CPU 0 instructions: 943000002 cycles: 6125066761 heartbeat IPC: 0.147194 cumulative IPC: 0.150403 (Simulation time: 3 hr 15 min 16 sec) 
Heartbeat CPU 0 instructions: 944000003 cycles: 6131717510 heartbeat IPC: 0.150359 cumulative IPC: 0.150403 (Simulation time: 3 hr 15 min 24 sec) 
Heartbeat CPU 0 instructions: 945000001 cycles: 6138775271 heartbeat IPC: 0.141688 cumulative IPC: 0.150384 (Simulation time: 3 hr 15 min 32 sec) 
Heartbeat CPU 0 instructions: 946000000 cycles: 6145460666 heartbeat IPC: 0.14958 cumulative IPC: 0.150382 (Simulation time: 3 hr 15 min 40 sec) 
Heartbeat CPU 0 instructions: 947000001 cycles: 6152232408 heartbeat IPC: 0.147673 cumulative IPC: 0.150377 (Simulation time: 3 hr 15 min 48 sec) 
Heartbeat CPU 0 instructions: 948000003 cycles: 6159002964 heartbeat IPC: 0.147699 cumulative IPC: 0.150371 (Simulation time: 3 hr 15 min 57 sec) 
Heartbeat CPU 0 instructions: 949000001 cycles: 6165700272 heartbeat IPC: 0.149313 cumulative IPC: 0.150369 (Simulation time: 3 hr 16 min 5 sec) 
Heartbeat CPU 0 instructions: 950000000 cycles: 6172258458 heartbeat IPC: 0.152481 cumulative IPC: 0.150373 (Simulation time: 3 hr 16 min 13 sec) 
Finished CPU 0 instructions: 500000000 cycles: 3325056749 cumulative IPC: 0.150373 (Simulation time: 3 hr 16 min 13 sec) 

ChampSim completed all CPUs

Region of Interest Statistics

CPU 0 cumulative IPC: 0.150373 instructions: 500000000 cycles: 3325056749
L1D TOTAL     ACCESS:  191470383  HIT:  112768898  MISS:   78701485
L1D LOAD      ACCESS:  161784395  HIT:   83692440  MISS:   78091955
L1D RFO       ACCESS:   29685988  HIT:   29076458  MISS:     609530
L1D PREFETCH  ACCESS:          0  HIT:          0  MISS:          0
L1D WRITEBACK ACCESS:          0  HIT:          0  MISS:          0
L1D PREFETCH  REQUESTED:          0  ISSUED:          0  USEFUL:          0  USELESS:          0
L1D AVERAGE MISS LATENCY: 172.896 cycles
L1I TOTAL     ACCESS:  136862776  HIT:  136862776  MISS:          0
L1I LOAD      ACCESS:  136862776  HIT:  136862776  MISS:          0
L1I RFO       ACCESS:          0  HIT:          0  MISS:          0
L1I PREFETCH  ACCESS:          0  HIT:          0  MISS:          0
L1I WRITEBACK ACCESS:          0  HIT:          0  MISS:          0
L1I PREFETCH  REQUESTED:          0  ISSUED:          0  USEFUL:          0  USELESS:          0
L1I AVERAGE MISS LATENCY: -nan cycles
L2C TOTAL     ACCESS:   79648659  HIT:     951577  MISS:   78697082
L2C LOAD      ACCESS:   78091954  HIT:       5609  MISS:   78086345
L2C RFO       ACCESS:     609529  HIT:       1109  MISS:     608420
L2C PREFETCH  ACCESS:          0  HIT:          0  MISS:          0
L2C WRITEBACK ACCESS:     947176  HIT:     944859  MISS:       2317
L2C PREFETCH  REQUESTED:          0  ISSUED:          0  USEFUL:          0  USELESS:          0
L2C AVERAGE MISS LATENCY: 158.704 cycles
LLC TOTAL     ACCESS:   79638868  HIT:    1644884  MISS:   77993984
LLC LOAD      ACCESS:   78086346  HIT:     702523  MISS:   77383823
LLC RFO       ACCESS:     608420  HIT:         40  MISS:     608380
LLC PREFETCH  ACCESS:          0  HIT:          0  MISS:          0
LLC WRITEBACK ACCESS:     944102  HIT:     942321  MISS:       1781
LLC PREFETCH  REQUESTED:   78086344  ISSUED:          0  USEFUL:          0  USELESS:          0
LLC AVERAGE MISS LATENCY: 128.847 cycles
Major fault: 0 Minor fault: 44901

DRAM Statistics
 CHANNEL 0
 RQ ROW_BUFFER_HIT:   34936768  ROW_BUFFER_MISS:    4158503
 DBUS_CONGESTED:   49297327
 WQ ROW_BUFFER_HIT:     397072  ROW_BUFFER_MISS:      73890  FULL:          0

 CHANNEL 1
 RQ ROW_BUFFER_HIT:   34719025  ROW_BUFFER_MISS:    4177908
 DBUS_CONGESTED:   49297327
 WQ ROW_BUFFER_HIT:     405482  ROW_BUFFER_MISS:      67414  FULL:          0

 AVG_CONGESTED_CYCLE: 17

CPU 0 Branch Prediction Accuracy: 99.3641% MPKI: 1.17127 Average ROB Occupancy at Mispredict: 94.7174

Branch types
NOT_BRANCH: 407900577 81.5801%
BRANCH_DIRECT_JUMP: 21456098 4.29122%
BRANCH_INDIRECT: 0 0%
BRANCH_CONDITIONAL: 70636473 14.1273%
BRANCH_DIRECT_CALL: 3428 0.0006856%
BRANCH_INDIRECT_CALL: 0 0%
BRANCH_RETURN: 3428 0.0006856%
BRANCH_OTHER: 0 0%

