
*** ChampSim Multicore Out-of-Order Simulator ***

Warmup Instructions: 1000000
Prefetch Warmup Instructions: 450000000
Simulation Instructions: 500000000
Stat Printing Period: 1000000
Number of CPUs: 1
LLC sets: 2048
LLC ways: 16
Off-chip DRAM Size: 32768 MB Channels: 2 Width: 64-bit Data Rate: 1024 MT/s

CPU 0 runs /scratch/cluster/cmolder/ML-DPC/ChampSimTraces/spec17/605.mcf-s5.trace.xz
Read seed: 226
Heartbeat CPU 0 instructions: 1000001 cycles: 417980 heartbeat IPC: 2.39246 cumulative IPC: 2.39246 (Simulation time: 0 hr 0 min 6 sec) 

Warmup complete CPU 0 instructions: 1000001 cycles: 417980 (Simulation time: 0 hr 0 min 6 sec) 

Heartbeat CPU 0 instructions: 2000003 cycles: 2162418 heartbeat IPC: 0.573252 cumulative IPC: 0.573252 (Simulation time: 0 hr 0 min 14 sec) 
Heartbeat CPU 0 instructions: 3000001 cycles: 4309026 heartbeat IPC: 0.46585 cumulative IPC: 0.514001 (Simulation time: 0 hr 0 min 22 sec) 
Heartbeat CPU 0 instructions: 4000001 cycles: 6346623 heartbeat IPC: 0.490774 cumulative IPC: 0.506018 (Simulation time: 0 hr 0 min 31 sec) 
Heartbeat CPU 0 instructions: 5000001 cycles: 8696182 heartbeat IPC: 0.425612 cumulative IPC: 0.483197 (Simulation time: 0 hr 0 min 39 sec) 
Heartbeat CPU 0 instructions: 6000000 cycles: 11303360 heartbeat IPC: 0.383556 cumulative IPC: 0.459332 (Simulation time: 0 hr 0 min 49 sec) 
Heartbeat CPU 0 instructions: 7000002 cycles: 15072914 heartbeat IPC: 0.265284 cumulative IPC: 0.409418 (Simulation time: 0 hr 0 min 59 sec) 
Heartbeat CPU 0 instructions: 8000000 cycles: 17672310 heartbeat IPC: 0.384704 cumulative IPC: 0.405695 (Simulation time: 0 hr 1 min 8 sec) 
Heartbeat CPU 0 instructions: 9000000 cycles: 19488686 heartbeat IPC: 0.550547 cumulative IPC: 0.419491 (Simulation time: 0 hr 1 min 17 sec) 
Heartbeat CPU 0 instructions: 10000000 cycles: 21568700 heartbeat IPC: 0.480766 cumulative IPC: 0.425517 (Simulation time: 0 hr 1 min 25 sec) 
Heartbeat CPU 0 instructions: 11000000 cycles: 24113817 heartbeat IPC: 0.392909 cumulative IPC: 0.422015 (Simulation time: 0 hr 1 min 34 sec) 
Heartbeat CPU 0 instructions: 12000000 cycles: 26175399 heartbeat IPC: 0.485064 cumulative IPC: 0.427061 (Simulation time: 0 hr 1 min 42 sec) 
Heartbeat CPU 0 instructions: 13000000 cycles: 27942296 heartbeat IPC: 0.565964 cumulative IPC: 0.435978 (Simulation time: 0 hr 1 min 50 sec) 
Heartbeat CPU 0 instructions: 14000001 cycles: 29789962 heartbeat IPC: 0.541224 cumulative IPC: 0.442599 (Simulation time: 0 hr 1 min 57 sec) 
Heartbeat CPU 0 instructions: 15000001 cycles: 35255684 heartbeat IPC: 0.182958 cumulative IPC: 0.401863 (Simulation time: 0 hr 2 min 10 sec) 
Heartbeat CPU 0 instructions: 16000000 cycles: 39108870 heartbeat IPC: 0.259525 cumulative IPC: 0.387688 (Simulation time: 0 hr 2 min 21 sec) 
Heartbeat CPU 0 instructions: 17000003 cycles: 41848994 heartbeat IPC: 0.364948 cumulative IPC: 0.386184 (Simulation time: 0 hr 2 min 29 sec) 
Heartbeat CPU 0 instructions: 18000001 cycles: 44562843 heartbeat IPC: 0.36848 cumulative IPC: 0.385096 (Simulation time: 0 hr 2 min 38 sec) 
Heartbeat CPU 0 instructions: 19000001 cycles: 46666084 heartbeat IPC: 0.475457 cumulative IPC: 0.389205 (Simulation time: 0 hr 2 min 46 sec) 
Heartbeat CPU 0 instructions: 20000000 cycles: 49247546 heartbeat IPC: 0.387377 cumulative IPC: 0.389109 (Simulation time: 0 hr 2 min 55 sec) 
Heartbeat CPU 0 instructions: 21000000 cycles: 51419700 heartbeat IPC: 0.460373 cumulative IPC: 0.392144 (Simulation time: 0 hr 3 min 3 sec) 
Heartbeat CPU 0 instructions: 22000000 cycles: 53208789 heartbeat IPC: 0.558944 cumulative IPC: 0.397797 (Simulation time: 0 hr 3 min 11 sec) 
Heartbeat CPU 0 instructions: 23000000 cycles: 58035434 heartbeat IPC: 0.207183 cumulative IPC: 0.381829 (Simulation time: 0 hr 3 min 23 sec) 
Heartbeat CPU 0 instructions: 24000002 cycles: 61978189 heartbeat IPC: 0.25363 cumulative IPC: 0.373618 (Simulation time: 0 hr 3 min 34 sec) 
Heartbeat CPU 0 instructions: 25000000 cycles: 63460262 heartbeat IPC: 0.674729 cumulative IPC: 0.380697 (Simulation time: 0 hr 3 min 41 sec) 
Heartbeat CPU 0 instructions: 26000000 cycles: 64914913 heartbeat IPC: 0.68745 cumulative IPC: 0.387615 (Simulation time: 0 hr 3 min 48 sec) 
Heartbeat CPU 0 instructions: 27000000 cycles: 66536762 heartbeat IPC: 0.61658 cumulative IPC: 0.393232 (Simulation time: 0 hr 3 min 55 sec) 
Heartbeat CPU 0 instructions: 28000001 cycles: 68321667 heartbeat IPC: 0.560254 cumulative IPC: 0.397622 (Simulation time: 0 hr 4 min 2 sec) 
Heartbeat CPU 0 instructions: 29000002 cycles: 70206715 heartbeat IPC: 0.530491 cumulative IPC: 0.401211 (Simulation time: 0 hr 4 min 10 sec) 
Heartbeat CPU 0 instructions: 30000000 cycles: 73964969 heartbeat IPC: 0.26608 cumulative IPC: 0.394306 (Simulation time: 0 hr 4 min 20 sec) 
Heartbeat CPU 0 instructions: 31000000 cycles: 75604768 heartbeat IPC: 0.609831 cumulative IPC: 0.399006 (Simulation time: 0 hr 4 min 28 sec) 
Heartbeat CPU 0 instructions: 32000001 cycles: 77700331 heartbeat IPC: 0.477199 cumulative IPC: 0.401127 (Simulation time: 0 hr 4 min 36 sec) 
Heartbeat CPU 0 instructions: 33000000 cycles: 79857575 heartbeat IPC: 0.463554 cumulative IPC: 0.402822 (Simulation time: 0 hr 4 min 44 sec) 
Heartbeat CPU 0 instructions: 34000000 cycles: 81760021 heartbeat IPC: 0.525639 cumulative IPC: 0.405694 (Simulation time: 0 hr 4 min 52 sec) 
Heartbeat CPU 0 instructions: 35000000 cycles: 84086338 heartbeat IPC: 0.429864 cumulative IPC: 0.406366 (Simulation time: 0 hr 5 min 1 sec) 
Heartbeat CPU 0 instructions: 36000000 cycles: 86516978 heartbeat IPC: 0.411414 cumulative IPC: 0.406509 (Simulation time: 0 hr 5 min 10 sec) 
Heartbeat CPU 0 instructions: 37000000 cycles: 90991433 heartbeat IPC: 0.223491 cumulative IPC: 0.397467 (Simulation time: 0 hr 5 min 21 sec) 
Heartbeat CPU 0 instructions: 38000001 cycles: 93256980 heartbeat IPC: 0.441395 cumulative IPC: 0.398539 (Simulation time: 0 hr 5 min 29 sec) 
Heartbeat CPU 0 instructions: 39000000 cycles: 94871690 heartbeat IPC: 0.619306 cumulative IPC: 0.402313 (Simulation time: 0 hr 5 min 36 sec) 
Heartbeat CPU 0 instructions: 40000000 cycles: 97312426 heartbeat IPC: 0.409712 cumulative IPC: 0.4025 (Simulation time: 0 hr 5 min 45 sec) 
Heartbeat CPU 0 instructions: 41000003 cycles: 99048866 heartbeat IPC: 0.575893 cumulative IPC: 0.405553 (Simulation time: 0 hr 5 min 52 sec) 
Heartbeat CPU 0 instructions: 42000001 cycles: 100914237 heartbeat IPC: 0.536085 cumulative IPC: 0.407975 (Simulation time: 0 hr 6 min 0 sec) 
Heartbeat CPU 0 instructions: 43000000 cycles: 102716780 heartbeat IPC: 0.554771 cumulative IPC: 0.410562 (Simulation time: 0 hr 6 min 7 sec) 
Heartbeat CPU 0 instructions: 44000000 cycles: 105693445 heartbeat IPC: 0.335946 cumulative IPC: 0.408452 (Simulation time: 0 hr 6 min 16 sec) 
Heartbeat CPU 0 instructions: 45000002 cycles: 111512666 heartbeat IPC: 0.171845 cumulative IPC: 0.396059 (Simulation time: 0 hr 6 min 30 sec) 
Heartbeat CPU 0 instructions: 46000001 cycles: 114256747 heartbeat IPC: 0.36442 cumulative IPC: 0.395296 (Simulation time: 0 hr 6 min 39 sec) 
Heartbeat CPU 0 instructions: 47000003 cycles: 116550251 heartbeat IPC: 0.436015 cumulative IPC: 0.3961 (Simulation time: 0 hr 6 min 47 sec) 
Heartbeat CPU 0 instructions: 48000000 cycles: 119313182 heartbeat IPC: 0.361933 cumulative IPC: 0.395306 (Simulation time: 0 hr 6 min 56 sec) 
Heartbeat CPU 0 instructions: 49000000 cycles: 121709880 heartbeat IPC: 0.417241 cumulative IPC: 0.39574 (Simulation time: 0 hr 7 min 5 sec) 
Heartbeat CPU 0 instructions: 50000000 cycles: 123569044 heartbeat IPC: 0.537876 cumulative IPC: 0.397885 (Simulation time: 0 hr 7 min 13 sec) 
Heartbeat CPU 0 instructions: 51000003 cycles: 126053435 heartbeat IPC: 0.402514 cumulative IPC: 0.397977 (Simulation time: 0 hr 7 min 22 sec) 
Heartbeat CPU 0 instructions: 52000001 cycles: 128647522 heartbeat IPC: 0.385491 cumulative IPC: 0.397724 (Simulation time: 0 hr 7 min 30 sec) 
Heartbeat CPU 0 instructions: 53000001 cycles: 132105737 heartbeat IPC: 0.289167 cumulative IPC: 0.394873 (Simulation time: 0 hr 7 min 41 sec) 
Heartbeat CPU 0 instructions: 54000002 cycles: 133760834 heartbeat IPC: 0.604195 cumulative IPC: 0.397472 (Simulation time: 0 hr 7 min 49 sec) 
Heartbeat CPU 0 instructions: 55000000 cycles: 135517061 heartbeat IPC: 0.569401 cumulative IPC: 0.399707 (Simulation time: 0 hr 7 min 57 sec) 
Heartbeat CPU 0 instructions: 56000003 cycles: 137311580 heartbeat IPC: 0.557254 cumulative IPC: 0.401772 (Simulation time: 0 hr 8 min 4 sec) 
Heartbeat CPU 0 instructions: 57000000 cycles: 139158332 heartbeat IPC: 0.54149 cumulative IPC: 0.403632 (Simulation time: 0 hr 8 min 12 sec) 
Heartbeat CPU 0 instructions: 58000001 cycles: 140874747 heartbeat IPC: 0.58261 cumulative IPC: 0.405819 (Simulation time: 0 hr 8 min 20 sec) 
Heartbeat CPU 0 instructions: 59000001 cycles: 143330612 heartbeat IPC: 0.407189 cumulative IPC: 0.405842 (Simulation time: 0 hr 8 min 28 sec) 
Heartbeat CPU 0 instructions: 60000003 cycles: 148466325 heartbeat IPC: 0.194715 cumulative IPC: 0.398518 (Simulation time: 0 hr 8 min 41 sec) 
Heartbeat CPU 0 instructions: 61000000 cycles: 154510112 heartbeat IPC: 0.165459 cumulative IPC: 0.389377 (Simulation time: 0 hr 8 min 54 sec) 
Heartbeat CPU 0 instructions: 62000000 cycles: 158882344 heartbeat IPC: 0.228716 cumulative IPC: 0.384945 (Simulation time: 0 hr 9 min 6 sec) 
Heartbeat CPU 0 instructions: 63000001 cycles: 160766796 heartbeat IPC: 0.530659 cumulative IPC: 0.386657 (Simulation time: 0 hr 9 min 13 sec) 
Heartbeat CPU 0 instructions: 64000001 cycles: 162371759 heartbeat IPC: 0.623067 cumulative IPC: 0.389 (Simulation time: 0 hr 9 min 21 sec) 
Heartbeat CPU 0 instructions: 65000000 cycles: 164535813 heartbeat IPC: 0.462095 cumulative IPC: 0.389964 (Simulation time: 0 hr 9 min 29 sec) 
Heartbeat CPU 0 instructions: 66000000 cycles: 167118697 heartbeat IPC: 0.387164 cumulative IPC: 0.38992 (Simulation time: 0 hr 9 min 37 sec) 
Heartbeat CPU 0 instructions: 67000001 cycles: 169860534 heartbeat IPC: 0.364719 cumulative IPC: 0.389513 (Simulation time: 0 hr 9 min 46 sec) 
Heartbeat CPU 0 instructions: 68000000 cycles: 171690085 heartbeat IPC: 0.546582 cumulative IPC: 0.39119 (Simulation time: 0 hr 9 min 54 sec) 
Heartbeat CPU 0 instructions: 69000002 cycles: 176161645 heartbeat IPC: 0.223636 cumulative IPC: 0.386927 (Simulation time: 0 hr 10 min 6 sec) 
Heartbeat CPU 0 instructions: 70000002 cycles: 180674265 heartbeat IPC: 0.221601 cumulative IPC: 0.382788 (Simulation time: 0 hr 10 min 18 sec) 
Heartbeat CPU 0 instructions: 71000003 cycles: 183510050 heartbeat IPC: 0.352636 cumulative IPC: 0.382321 (Simulation time: 0 hr 10 min 26 sec) 
Heartbeat CPU 0 instructions: 72000003 cycles: 186020890 heartbeat IPC: 0.398273 cumulative IPC: 0.382537 (Simulation time: 0 hr 10 min 35 sec) 
Heartbeat CPU 0 instructions: 73000000 cycles: 189253062 heartbeat IPC: 0.309389 cumulative IPC: 0.381285 (Simulation time: 0 hr 10 min 44 sec) 
Heartbeat CPU 0 instructions: 74000001 cycles: 191913598 heartbeat IPC: 0.375864 cumulative IPC: 0.38121 (Simulation time: 0 hr 10 min 53 sec) 
Heartbeat CPU 0 instructions: 75000000 cycles: 195151997 heartbeat IPC: 0.308794 cumulative IPC: 0.380006 (Simulation time: 0 hr 11 min 3 sec) 
Heartbeat CPU 0 instructions: 76000003 cycles: 198409787 heartbeat IPC: 0.306957 cumulative IPC: 0.378804 (Simulation time: 0 hr 11 min 12 sec) 
Heartbeat CPU 0 instructions: 77000000 cycles: 203182608 heartbeat IPC: 0.209519 cumulative IPC: 0.374819 (Simulation time: 0 hr 11 min 24 sec) 
Heartbeat CPU 0 instructions: 78000000 cycles: 208457162 heartbeat IPC: 0.189589 cumulative IPC: 0.370123 (Simulation time: 0 hr 11 min 37 sec) 
Heartbeat CPU 0 instructions: 79000002 cycles: 210113436 heartbeat IPC: 0.603766 cumulative IPC: 0.371968 (Simulation time: 0 hr 11 min 44 sec) 
Heartbeat CPU 0 instructions: 80000000 cycles: 211712704 heartbeat IPC: 0.625285 cumulative IPC: 0.373885 (Simulation time: 0 hr 11 min 52 sec) 
Heartbeat CPU 0 instructions: 81000002 cycles: 213451880 heartbeat IPC: 0.574986 cumulative IPC: 0.375527 (Simulation time: 0 hr 11 min 59 sec) 
Heartbeat CPU 0 instructions: 82000001 cycles: 215130588 heartbeat IPC: 0.595696 cumulative IPC: 0.377248 (Simulation time: 0 hr 12 min 8 sec) 
Heartbeat CPU 0 instructions: 83000002 cycles: 216910974 heartbeat IPC: 0.561677 cumulative IPC: 0.378765 (Simulation time: 0 hr 12 min 16 sec) 
Heartbeat CPU 0 instructions: 84000000 cycles: 221317131 heartbeat IPC: 0.226955 cumulative IPC: 0.375737 (Simulation time: 0 hr 12 min 28 sec) 
Heartbeat CPU 0 instructions: 85000001 cycles: 227000994 heartbeat IPC: 0.175937 cumulative IPC: 0.370725 (Simulation time: 0 hr 12 min 42 sec) 
Heartbeat CPU 0 instructions: 86000001 cycles: 230771154 heartbeat IPC: 0.265241 cumulative IPC: 0.368999 (Simulation time: 0 hr 12 min 53 sec) 
Heartbeat CPU 0 instructions: 87000001 cycles: 233280401 heartbeat IPC: 0.398526 cumulative IPC: 0.369317 (Simulation time: 0 hr 13 min 3 sec) 
Heartbeat CPU 0 instructions: 88000000 cycles: 235147013 heartbeat IPC: 0.535729 cumulative IPC: 0.37064 (Simulation time: 0 hr 13 min 11 sec) 
Heartbeat CPU 0 instructions: 89000001 cycles: 237774898 heartbeat IPC: 0.380535 cumulative IPC: 0.37075 (Simulation time: 0 hr 13 min 20 sec) 
Heartbeat CPU 0 instructions: 90000001 cycles: 239825386 heartbeat IPC: 0.487689 cumulative IPC: 0.371751 (Simulation time: 0 hr 13 min 29 sec) 
Heartbeat CPU 0 instructions: 91000002 cycles: 241849704 heartbeat IPC: 0.493994 cumulative IPC: 0.372776 (Simulation time: 0 hr 13 min 37 sec) 
Heartbeat CPU 0 instructions: 92000000 cycles: 244327518 heartbeat IPC: 0.403581 cumulative IPC: 0.373089 (Simulation time: 0 hr 13 min 46 sec) 
Heartbeat CPU 0 instructions: 93000001 cycles: 248994929 heartbeat IPC: 0.214252 cumulative IPC: 0.370107 (Simulation time: 0 hr 13 min 59 sec) 
Heartbeat CPU 0 instructions: 94000003 cycles: 253426351 heartbeat IPC: 0.225662 cumulative IPC: 0.367577 (Simulation time: 0 hr 14 min 11 sec) 
Heartbeat CPU 0 instructions: 95000000 cycles: 255569790 heartbeat IPC: 0.466539 cumulative IPC: 0.368408 (Simulation time: 0 hr 14 min 20 sec) 
Heartbeat CPU 0 instructions: 96000002 cycles: 257449942 heartbeat IPC: 0.531873 cumulative IPC: 0.369604 (Simulation time: 0 hr 14 min 28 sec) 
Heartbeat CPU 0 instructions: 97000003 cycles: 259190037 heartbeat IPC: 0.574682 cumulative IPC: 0.370983 (Simulation time: 0 hr 14 min 36 sec) 
Heartbeat CPU 0 instructions: 98000000 cycles: 260767438 heartbeat IPC: 0.633952 cumulative IPC: 0.372576 (Simulation time: 0 hr 14 min 44 sec) 
Heartbeat CPU 0 instructions: 99000000 cycles: 262316099 heartbeat IPC: 0.645719 cumulative IPC: 0.374191 (Simulation time: 0 hr 14 min 51 sec) 
Heartbeat CPU 0 instructions: 100000000 cycles: 263830569 heartbeat IPC: 0.660297 cumulative IPC: 0.375836 (Simulation time: 0 hr 14 min 59 sec) 
Heartbeat CPU 0 instructions: 101000002 cycles: 267728975 heartbeat IPC: 0.256516 cumulative IPC: 0.374096 (Simulation time: 0 hr 15 min 10 sec) 
Heartbeat CPU 0 instructions: 102000001 cycles: 272341582 heartbeat IPC: 0.216797 cumulative IPC: 0.371428 (Simulation time: 0 hr 15 min 22 sec) 
Heartbeat CPU 0 instructions: 103000001 cycles: 273954597 heartbeat IPC: 0.619957 cumulative IPC: 0.372893 (Simulation time: 0 hr 15 min 30 sec) 
Heartbeat CPU 0 instructions: 104000002 cycles: 275935326 heartbeat IPC: 0.504865 cumulative IPC: 0.373842 (Simulation time: 0 hr 15 min 38 sec) 
Heartbeat CPU 0 instructions: 105000001 cycles: 277897695 heartbeat IPC: 0.509588 cumulative IPC: 0.374802 (Simulation time: 0 hr 15 min 46 sec) 
Heartbeat CPU 0 instructions: 106000001 cycles: 279770723 heartbeat IPC: 0.533895 cumulative IPC: 0.375869 (Simulation time: 0 hr 15 min 54 sec) 
Heartbeat CPU 0 instructions: 107000002 cycles: 281665356 heartbeat IPC: 0.527807 cumulative IPC: 0.376892 (Simulation time: 0 hr 16 min 1 sec) 
Heartbeat CPU 0 instructions: 108000001 cycles: 283337104 heartbeat IPC: 0.598176 cumulative IPC: 0.3782 (Simulation time: 0 hr 16 min 9 sec) 
Heartbeat CPU 0 instructions: 109000001 cycles: 287064630 heartbeat IPC: 0.268274 cumulative IPC: 0.37677 (Simulation time: 0 hr 16 min 20 sec) 
Heartbeat CPU 0 instructions: 110000000 cycles: 288983113 heartbeat IPC: 0.521245 cumulative IPC: 0.377731 (Simulation time: 0 hr 16 min 27 sec) 
Heartbeat CPU 0 instructions: 111000001 cycles: 290504603 heartbeat IPC: 0.657251 cumulative IPC: 0.379197 (Simulation time: 0 hr 16 min 35 sec) 
Heartbeat CPU 0 instructions: 112000000 cycles: 292214173 heartbeat IPC: 0.584942 cumulative IPC: 0.380403 (Simulation time: 0 hr 16 min 43 sec) 
Heartbeat CPU 0 instructions: 113000000 cycles: 294443213 heartbeat IPC: 0.448624 cumulative IPC: 0.38092 (Simulation time: 0 hr 16 min 51 sec) 
Heartbeat CPU 0 instructions: 114000001 cycles: 296225505 heartbeat IPC: 0.561076 cumulative IPC: 0.382005 (Simulation time: 0 hr 17 min 0 sec) 
Heartbeat CPU 0 instructions: 115000002 cycles: 297943129 heartbeat IPC: 0.5822 cumulative IPC: 0.383161 (Simulation time: 0 hr 17 min 8 sec) 
Heartbeat CPU 0 instructions: 116000000 cycles: 300484877 heartbeat IPC: 0.393429 cumulative IPC: 0.383248 (Simulation time: 0 hr 17 min 17 sec) 
Heartbeat CPU 0 instructions: 117000000 cycles: 303302125 heartbeat IPC: 0.354956 cumulative IPC: 0.382985 (Simulation time: 0 hr 17 min 27 sec) 
Heartbeat CPU 0 instructions: 118000000 cycles: 304884162 heartbeat IPC: 0.632096 cumulative IPC: 0.384279 (Simulation time: 0 hr 17 min 34 sec) 
Heartbeat CPU 0 instructions: 119000002 cycles: 306639409 heartbeat IPC: 0.569722 cumulative IPC: 0.385342 (Simulation time: 0 hr 17 min 42 sec) 
Heartbeat CPU 0 instructions: 120000001 cycles: 308696929 heartbeat IPC: 0.486022 cumulative IPC: 0.386014 (Simulation time: 0 hr 17 min 50 sec) 
Heartbeat CPU 0 instructions: 121000000 cycles: 310653415 heartbeat IPC: 0.51112 cumulative IPC: 0.386803 (Simulation time: 0 hr 17 min 59 sec) 
Heartbeat CPU 0 instructions: 122000000 cycles: 312845858 heartbeat IPC: 0.456112 cumulative IPC: 0.387289 (Simulation time: 0 hr 18 min 7 sec) 
Heartbeat CPU 0 instructions: 123000002 cycles: 315137651 heartbeat IPC: 0.43634 cumulative IPC: 0.387647 (Simulation time: 0 hr 18 min 16 sec) 
Heartbeat CPU 0 instructions: 124000003 cycles: 318868979 heartbeat IPC: 0.268001 cumulative IPC: 0.386245 (Simulation time: 0 hr 18 min 27 sec) 
Heartbeat CPU 0 instructions: 125000002 cycles: 320761626 heartbeat IPC: 0.52836 cumulative IPC: 0.387084 (Simulation time: 0 hr 18 min 35 sec) 
Heartbeat CPU 0 instructions: 126000001 cycles: 322533013 heartbeat IPC: 0.564529 cumulative IPC: 0.38806 (Simulation time: 0 hr 18 min 43 sec) 
Heartbeat CPU 0 instructions: 127000003 cycles: 324168067 heartbeat IPC: 0.611602 cumulative IPC: 0.389189 (Simulation time: 0 hr 18 min 51 sec) 
Heartbeat CPU 0 instructions: 128000001 cycles: 325866757 heartbeat IPC: 0.588688 cumulative IPC: 0.39023 (Simulation time: 0 hr 18 min 59 sec) 
Heartbeat CPU 0 instructions: 129000001 cycles: 327551768 heartbeat IPC: 0.593468 cumulative IPC: 0.391277 (Simulation time: 0 hr 19 min 6 sec) 
Heartbeat CPU 0 instructions: 130000001 cycles: 329877739 heartbeat IPC: 0.429928 cumulative IPC: 0.39155 (Simulation time: 0 hr 19 min 15 sec) 
Heartbeat CPU 0 instructions: 131000003 cycles: 333674385 heartbeat IPC: 0.263391 cumulative IPC: 0.39009 (Simulation time: 0 hr 19 min 26 sec) 
Heartbeat CPU 0 instructions: 132000000 cycles: 339060739 heartbeat IPC: 0.185654 cumulative IPC: 0.386838 (Simulation time: 0 hr 19 min 40 sec) 
Heartbeat CPU 0 instructions: 133000002 cycles: 340856554 heartbeat IPC: 0.556851 cumulative IPC: 0.387735 (Simulation time: 0 hr 19 min 48 sec) 
Heartbeat CPU 0 instructions: 134000000 cycles: 342675136 heartbeat IPC: 0.549878 cumulative IPC: 0.388597 (Simulation time: 0 hr 19 min 56 sec) 
Heartbeat CPU 0 instructions: 135000002 cycles: 344076010 heartbeat IPC: 0.713841 cumulative IPC: 0.389922 (Simulation time: 0 hr 20 min 3 sec) 
Heartbeat CPU 0 instructions: 136000002 cycles: 345573588 heartbeat IPC: 0.667745 cumulative IPC: 0.391128 (Simulation time: 0 hr 20 min 11 sec) 
Heartbeat CPU 0 instructions: 137000002 cycles: 347422993 heartbeat IPC: 0.540714 cumulative IPC: 0.391925 (Simulation time: 0 hr 20 min 18 sec) 
Heartbeat CPU 0 instructions: 138000001 cycles: 349322135 heartbeat IPC: 0.526553 cumulative IPC: 0.392658 (Simulation time: 0 hr 20 min 27 sec) 
Heartbeat CPU 0 instructions: 139000001 cycles: 352069957 heartbeat IPC: 0.363925 cumulative IPC: 0.392433 (Simulation time: 0 hr 20 min 36 sec) 
Heartbeat CPU 0 instructions: 140000000 cycles: 354806242 heartbeat IPC: 0.365459 cumulative IPC: 0.392225 (Simulation time: 0 hr 20 min 45 sec) 
Heartbeat CPU 0 instructions: 141000000 cycles: 356394179 heartbeat IPC: 0.629748 cumulative IPC: 0.393285 (Simulation time: 0 hr 20 min 53 sec) 
Heartbeat CPU 0 instructions: 142000000 cycles: 357927215 heartbeat IPC: 0.6523 cumulative IPC: 0.394395 (Simulation time: 0 hr 21 min 0 sec) 
Heartbeat CPU 0 instructions: 143000000 cycles: 360003358 heartbeat IPC: 0.481662 cumulative IPC: 0.394899 (Simulation time: 0 hr 21 min 8 sec) 
Heartbeat CPU 0 instructions: 144000001 cycles: 361787852 heartbeat IPC: 0.560383 cumulative IPC: 0.395716 (Simulation time: 0 hr 21 min 16 sec) 
Heartbeat CPU 0 instructions: 145000003 cycles: 364338003 heartbeat IPC: 0.392134 cumulative IPC: 0.395691 (Simulation time: 0 hr 21 min 25 sec) 
Heartbeat CPU 0 instructions: 146000002 cycles: 366338912 heartbeat IPC: 0.499772 cumulative IPC: 0.39626 (Simulation time: 0 hr 21 min 33 sec) 
Heartbeat CPU 0 instructions: 147000000 cycles: 369969448 heartbeat IPC: 0.275441 cumulative IPC: 0.395074 (Simulation time: 0 hr 21 min 44 sec) 
Heartbeat CPU 0 instructions: 148000003 cycles: 371515597 heartbeat IPC: 0.64677 cumulative IPC: 0.396122 (Simulation time: 0 hr 21 min 51 sec) 
Heartbeat CPU 0 instructions: 149000003 cycles: 373048668 heartbeat IPC: 0.652286 cumulative IPC: 0.397176 (Simulation time: 0 hr 21 min 58 sec) 
Heartbeat CPU 0 instructions: 150000002 cycles: 375052801 heartbeat IPC: 0.498968 cumulative IPC: 0.397721 (Simulation time: 0 hr 22 min 6 sec) 
Heartbeat CPU 0 instructions: 151000002 cycles: 376873280 heartbeat IPC: 0.549306 cumulative IPC: 0.398454 (Simulation time: 0 hr 22 min 14 sec) 
Heartbeat CPU 0 instructions: 152000000 cycles: 378839159 heartbeat IPC: 0.508677 cumulative IPC: 0.399026 (Simulation time: 0 hr 22 min 22 sec) 
Heartbeat CPU 0 instructions: 153000002 cycles: 381046338 heartbeat IPC: 0.453068 cumulative IPC: 0.39934 (Simulation time: 0 hr 22 min 31 sec) 
Heartbeat CPU 0 instructions: 154000000 cycles: 385335610 heartbeat IPC: 0.233139 cumulative IPC: 0.397488 (Simulation time: 0 hr 22 min 42 sec) 
Heartbeat CPU 0 instructions: 155000001 cycles: 387375781 heartbeat IPC: 0.490155 cumulative IPC: 0.397976 (Simulation time: 0 hr 22 min 50 sec) 
Heartbeat CPU 0 instructions: 156000001 cycles: 388984633 heartbeat IPC: 0.621561 cumulative IPC: 0.398902 (Simulation time: 0 hr 22 min 58 sec) 
Heartbeat CPU 0 instructions: 157000001 cycles: 391673111 heartbeat IPC: 0.371958 cumulative IPC: 0.398717 (Simulation time: 0 hr 23 min 6 sec) 
Heartbeat CPU 0 instructions: 158000001 cycles: 393638758 heartbeat IPC: 0.508738 cumulative IPC: 0.399267 (Simulation time: 0 hr 23 min 14 sec) 
Heartbeat CPU 0 instructions: 159000003 cycles: 395787595 heartbeat IPC: 0.465369 cumulative IPC: 0.399626 (Simulation time: 0 hr 23 min 23 sec) 
Heartbeat CPU 0 instructions: 160000001 cycles: 398157554 heartbeat IPC: 0.421947 cumulative IPC: 0.399759 (Simulation time: 0 hr 23 min 31 sec) 
Heartbeat CPU 0 instructions: 161000003 cycles: 401739239 heartbeat IPC: 0.279199 cumulative IPC: 0.398683 (Simulation time: 0 hr 23 min 41 sec) 
Heartbeat CPU 0 instructions: 162000000 cycles: 407621587 heartbeat IPC: 0.17 cumulative IPC: 0.39538 (Simulation time: 0 hr 23 min 55 sec) 
Heartbeat CPU 0 instructions: 163000001 cycles: 409883634 heartbeat IPC: 0.442078 cumulative IPC: 0.395638 (Simulation time: 0 hr 24 min 4 sec) 
Heartbeat CPU 0 instructions: 164000002 cycles: 411457038 heartbeat IPC: 0.635565 cumulative IPC: 0.396556 (Simulation time: 0 hr 24 min 11 sec) 
Heartbeat CPU 0 instructions: 165000000 cycles: 413018251 heartbeat IPC: 0.640526 cumulative IPC: 0.397479 (Simulation time: 0 hr 24 min 19 sec) 
Heartbeat CPU 0 instructions: 166000001 cycles: 415122967 heartbeat IPC: 0.475124 cumulative IPC: 0.397873 (Simulation time: 0 hr 24 min 27 sec) 
Heartbeat CPU 0 instructions: 167000002 cycles: 416859487 heartbeat IPC: 0.575865 cumulative IPC: 0.398615 (Simulation time: 0 hr 24 min 35 sec) 
Heartbeat CPU 0 instructions: 168000001 cycles: 418767360 heartbeat IPC: 0.524143 cumulative IPC: 0.399188 (Simulation time: 0 hr 24 min 43 sec) 
Heartbeat CPU 0 instructions: 169000000 cycles: 420953681 heartbeat IPC: 0.457389 cumulative IPC: 0.39949 (Simulation time: 0 hr 24 min 51 sec) 
Heartbeat CPU 0 instructions: 170000001 cycles: 424316649 heartbeat IPC: 0.297357 cumulative IPC: 0.39868 (Simulation time: 0 hr 25 min 1 sec) 
Heartbeat CPU 0 instructions: 171000002 cycles: 426197270 heartbeat IPC: 0.53174 cumulative IPC: 0.399268 (Simulation time: 0 hr 25 min 9 sec) 
Heartbeat CPU 0 instructions: 172000003 cycles: 427892961 heartbeat IPC: 0.589731 cumulative IPC: 0.400023 (Simulation time: 0 hr 25 min 16 sec) 
Heartbeat CPU 0 instructions: 173000000 cycles: 429492305 heartbeat IPC: 0.625254 cumulative IPC: 0.400863 (Simulation time: 0 hr 25 min 24 sec) 
Heartbeat CPU 0 instructions: 174000003 cycles: 431891847 heartbeat IPC: 0.416747 cumulative IPC: 0.400951 (Simulation time: 0 hr 25 min 32 sec) 
Heartbeat CPU 0 instructions: 175000000 cycles: 434125800 heartbeat IPC: 0.447636 cumulative IPC: 0.401192 (Simulation time: 0 hr 25 min 40 sec) 
Heartbeat CPU 0 instructions: 176000000 cycles: 438480831 heartbeat IPC: 0.229619 cumulative IPC: 0.399486 (Simulation time: 0 hr 25 min 52 sec) 
Heartbeat CPU 0 instructions: 177000000 cycles: 443248238 heartbeat IPC: 0.209758 cumulative IPC: 0.397443 (Simulation time: 0 hr 26 min 4 sec) 
Heartbeat CPU 0 instructions: 178000001 cycles: 445243798 heartbeat IPC: 0.501113 cumulative IPC: 0.397909 (Simulation time: 0 hr 26 min 12 sec) 
Heartbeat CPU 0 instructions: 179000002 cycles: 446824916 heartbeat IPC: 0.632464 cumulative IPC: 0.398739 (Simulation time: 0 hr 26 min 19 sec) 
Heartbeat CPU 0 instructions: 180000001 cycles: 448548265 heartbeat IPC: 0.580265 cumulative IPC: 0.399437 (Simulation time: 0 hr 26 min 26 sec) 
Heartbeat CPU 0 instructions: 181000000 cycles: 450180753 heartbeat IPC: 0.612561 cumulative IPC: 0.400211 (Simulation time: 0 hr 26 min 34 sec) 
Heartbeat CPU 0 instructions: 182000000 cycles: 451989272 heartbeat IPC: 0.552939 cumulative IPC: 0.400823 (Simulation time: 0 hr 26 min 42 sec) 
Heartbeat CPU 0 instructions: 183000003 cycles: 455311006 heartbeat IPC: 0.301048 cumulative IPC: 0.400094 (Simulation time: 0 hr 26 min 51 sec) 
Heartbeat CPU 0 instructions: 184000000 cycles: 461048893 heartbeat IPC: 0.17428 cumulative IPC: 0.397281 (Simulation time: 0 hr 27 min 6 sec) 
Heartbeat CPU 0 instructions: 185000000 cycles: 463065354 heartbeat IPC: 0.495918 cumulative IPC: 0.397711 (Simulation time: 0 hr 27 min 14 sec) 
Heartbeat CPU 0 instructions: 186000003 cycles: 464715777 heartbeat IPC: 0.605907 cumulative IPC: 0.398451 (Simulation time: 0 hr 27 min 21 sec) 
Heartbeat CPU 0 instructions: 187000000 cycles: 466529630 heartbeat IPC: 0.551311 cumulative IPC: 0.399046 (Simulation time: 0 hr 27 min 29 sec) 
Heartbeat CPU 0 instructions: 188000001 cycles: 468582258 heartbeat IPC: 0.487181 cumulative IPC: 0.399432 (Simulation time: 0 hr 27 min 37 sec) 
Heartbeat CPU 0 instructions: 189000000 cycles: 470652700 heartbeat IPC: 0.482988 cumulative IPC: 0.3998 (Simulation time: 0 hr 27 min 45 sec) 
Heartbeat CPU 0 instructions: 190000001 cycles: 472549362 heartbeat IPC: 0.527243 cumulative IPC: 0.400312 (Simulation time: 0 hr 27 min 53 sec) 
Heartbeat CPU 0 instructions: 191000000 cycles: 477306878 heartbeat IPC: 0.210194 cumulative IPC: 0.398416 (Simulation time: 0 hr 28 min 5 sec) 
Heartbeat CPU 0 instructions: 192000001 cycles: 483102739 heartbeat IPC: 0.172537 cumulative IPC: 0.395703 (Simulation time: 0 hr 28 min 19 sec) 
Heartbeat CPU 0 instructions: 193000001 cycles: 489150515 heartbeat IPC: 0.16535 cumulative IPC: 0.392853 (Simulation time: 0 hr 28 min 34 sec) 
Heartbeat CPU 0 instructions: 194000000 cycles: 491890289 heartbeat IPC: 0.364993 cumulative IPC: 0.392698 (Simulation time: 0 hr 28 min 43 sec) 
Heartbeat CPU 0 instructions: 195000001 cycles: 493365456 heartbeat IPC: 0.67789 cumulative IPC: 0.393551 (Simulation time: 0 hr 28 min 50 sec) 
Heartbeat CPU 0 instructions: 196000001 cycles: 494862871 heartbeat IPC: 0.667818 cumulative IPC: 0.394382 (Simulation time: 0 hr 28 min 58 sec) 
Heartbeat CPU 0 instructions: 197000002 cycles: 496402252 heartbeat IPC: 0.649612 cumulative IPC: 0.395174 (Simulation time: 0 hr 29 min 5 sec) 
Heartbeat CPU 0 instructions: 198000000 cycles: 498009358 heartbeat IPC: 0.622235 cumulative IPC: 0.395907 (Simulation time: 0 hr 29 min 13 sec) 
Heartbeat CPU 0 instructions: 199000000 cycles: 499834492 heartbeat IPC: 0.547905 cumulative IPC: 0.396463 (Simulation time: 0 hr 29 min 20 sec) 
Heartbeat CPU 0 instructions: 200000002 cycles: 505093253 heartbeat IPC: 0.190159 cumulative IPC: 0.394313 (Simulation time: 0 hr 29 min 33 sec) 
Heartbeat CPU 0 instructions: 201000000 cycles: 508771976 heartbeat IPC: 0.271833 cumulative IPC: 0.393427 (Simulation time: 0 hr 29 min 44 sec) 
Heartbeat CPU 0 instructions: 202000000 cycles: 511205582 heartbeat IPC: 0.410913 cumulative IPC: 0.39351 (Simulation time: 0 hr 29 min 53 sec) 
Heartbeat CPU 0 instructions: 203000000 cycles: 512879804 heartbeat IPC: 0.597292 cumulative IPC: 0.394176 (Simulation time: 0 hr 30 min 0 sec) 
Heartbeat CPU 0 instructions: 204000000 cycles: 515123379 heartbeat IPC: 0.445717 cumulative IPC: 0.3944 (Simulation time: 0 hr 30 min 9 sec) 
Heartbeat CPU 0 instructions: 205000000 cycles: 517668583 heartbeat IPC: 0.392896 cumulative IPC: 0.394393 (Simulation time: 0 hr 30 min 17 sec) 
Heartbeat CPU 0 instructions: 206000002 cycles: 520459465 heartbeat IPC: 0.35831 cumulative IPC: 0.394199 (Simulation time: 0 hr 30 min 27 sec) 
Heartbeat CPU 0 instructions: 207000001 cycles: 523360236 heartbeat IPC: 0.344736 cumulative IPC: 0.393925 (Simulation time: 0 hr 30 min 36 sec) 
Heartbeat CPU 0 instructions: 208000001 cycles: 528576511 heartbeat IPC: 0.191708 cumulative IPC: 0.391928 (Simulation time: 0 hr 30 min 50 sec) 
Heartbeat CPU 0 instructions: 209000000 cycles: 534682662 heartbeat IPC: 0.163769 cumulative IPC: 0.38932 (Simulation time: 0 hr 31 min 5 sec) 
Heartbeat CPU 0 instructions: 210000000 cycles: 537811546 heartbeat IPC: 0.319603 cumulative IPC: 0.388914 (Simulation time: 0 hr 31 min 14 sec) 
Heartbeat CPU 0 instructions: 211000003 cycles: 539673810 heartbeat IPC: 0.536982 cumulative IPC: 0.389426 (Simulation time: 0 hr 31 min 22 sec) 
Heartbeat CPU 0 instructions: 212000002 cycles: 541298016 heartbeat IPC: 0.615685 cumulative IPC: 0.390105 (Simulation time: 0 hr 31 min 29 sec) 
Heartbeat CPU 0 instructions: 213000000 cycles: 543023823 heartbeat IPC: 0.579438 cumulative IPC: 0.390707 (Simulation time: 0 hr 31 min 37 sec) 
Heartbeat CPU 0 instructions: 214000000 cycles: 544680773 heartbeat IPC: 0.603518 cumulative IPC: 0.391355 (Simulation time: 0 hr 31 min 44 sec) 
Heartbeat CPU 0 instructions: 215000000 cycles: 546490863 heartbeat IPC: 0.552459 cumulative IPC: 0.391889 (Simulation time: 0 hr 31 min 52 sec) 
Heartbeat CPU 0 instructions: 216000001 cycles: 548563794 heartbeat IPC: 0.482409 cumulative IPC: 0.392231 (Simulation time: 0 hr 32 min 0 sec) 
Heartbeat CPU 0 instructions: 217000003 cycles: 553762313 heartbeat IPC: 0.192363 cumulative IPC: 0.390354 (Simulation time: 0 hr 32 min 13 sec) 
Heartbeat CPU 0 instructions: 218000001 cycles: 557039124 heartbeat IPC: 0.305174 cumulative IPC: 0.389852 (Simulation time: 0 hr 32 min 24 sec) 
Heartbeat CPU 0 instructions: 219000000 cycles: 558552975 heartbeat IPC: 0.660566 cumulative IPC: 0.390586 (Simulation time: 0 hr 32 min 31 sec) 
Heartbeat CPU 0 instructions: 220000000 cycles: 560299967 heartbeat IPC: 0.572412 cumulative IPC: 0.391154 (Simulation time: 0 hr 32 min 38 sec) 
Heartbeat CPU 0 instructions: 221000000 cycles: 562709329 heartbeat IPC: 0.415048 cumulative IPC: 0.391256 (Simulation time: 0 hr 32 min 47 sec) 
Heartbeat CPU 0 instructions: 222000001 cycles: 564458101 heartbeat IPC: 0.57183 cumulative IPC: 0.391816 (Simulation time: 0 hr 32 min 55 sec) 
Heartbeat CPU 0 instructions: 223000000 cycles: 566481247 heartbeat IPC: 0.494279 cumulative IPC: 0.392182 (Simulation time: 0 hr 33 min 3 sec) 
Heartbeat CPU 0 instructions: 224000000 cycles: 568361728 heartbeat IPC: 0.531779 cumulative IPC: 0.392645 (Simulation time: 0 hr 33 min 10 sec) 
Heartbeat CPU 0 instructions: 225000001 cycles: 572147936 heartbeat IPC: 0.264117 cumulative IPC: 0.391793 (Simulation time: 0 hr 33 min 21 sec) 
Heartbeat CPU 0 instructions: 226000002 cycles: 574427495 heartbeat IPC: 0.438682 cumulative IPC: 0.39198 (Simulation time: 0 hr 33 min 29 sec) 
Heartbeat CPU 0 instructions: 227000002 cycles: 576250518 heartbeat IPC: 0.548539 cumulative IPC: 0.392475 (Simulation time: 0 hr 33 min 37 sec) 
Heartbeat CPU 0 instructions: 228000000 cycles: 578470247 heartbeat IPC: 0.450505 cumulative IPC: 0.392698 (Simulation time: 0 hr 33 min 45 sec) 
Heartbeat CPU 0 instructions: 229000000 cycles: 580877827 heartbeat IPC: 0.415355 cumulative IPC: 0.392792 (Simulation time: 0 hr 33 min 53 sec) 
Heartbeat CPU 0 instructions: 230000000 cycles: 583178239 heartbeat IPC: 0.434705 cumulative IPC: 0.392957 (Simulation time: 0 hr 34 min 1 sec) 
Heartbeat CPU 0 instructions: 231000000 cycles: 585588178 heartbeat IPC: 0.414948 cumulative IPC: 0.393048 (Simulation time: 0 hr 34 min 9 sec) 
Heartbeat CPU 0 instructions: 232000000 cycles: 589121146 heartbeat IPC: 0.283048 cumulative IPC: 0.392388 (Simulation time: 0 hr 34 min 20 sec) 
Heartbeat CPU 0 instructions: 233000003 cycles: 590983539 heartbeat IPC: 0.536945 cumulative IPC: 0.392844 (Simulation time: 0 hr 34 min 28 sec) 
Heartbeat CPU 0 instructions: 234000001 cycles: 592976973 heartbeat IPC: 0.501646 cumulative IPC: 0.39321 (Simulation time: 0 hr 34 min 36 sec) 
Heartbeat CPU 0 instructions: 235000000 cycles: 595325943 heartbeat IPC: 0.425718 cumulative IPC: 0.393338 (Simulation time: 0 hr 34 min 44 sec) 
Heartbeat CPU 0 instructions: 236000000 cycles: 598081579 heartbeat IPC: 0.362893 cumulative IPC: 0.393198 (Simulation time: 0 hr 34 min 53 sec) 
Heartbeat CPU 0 instructions: 237000001 cycles: 599770802 heartbeat IPC: 0.591989 cumulative IPC: 0.393758 (Simulation time: 0 hr 35 min 1 sec) 
Heartbeat CPU 0 instructions: 238000000 cycles: 601896715 heartbeat IPC: 0.470386 cumulative IPC: 0.394029 (Simulation time: 0 hr 35 min 9 sec) 
Heartbeat CPU 0 instructions: 239000001 cycles: 606000417 heartbeat IPC: 0.243683 cumulative IPC: 0.39301 (Simulation time: 0 hr 35 min 21 sec) 
Heartbeat CPU 0 instructions: 240000000 cycles: 607553046 heartbeat IPC: 0.644068 cumulative IPC: 0.393652 (Simulation time: 0 hr 35 min 28 sec) 
Heartbeat CPU 0 instructions: 241000001 cycles: 609054658 heartbeat IPC: 0.665952 cumulative IPC: 0.394324 (Simulation time: 0 hr 35 min 36 sec) 
Heartbeat CPU 0 instructions: 242000000 cycles: 610704780 heartbeat IPC: 0.606015 cumulative IPC: 0.394896 (Simulation time: 0 hr 35 min 43 sec) 
Heartbeat CPU 0 instructions: 243000000 cycles: 613295790 heartbeat IPC: 0.38595 cumulative IPC: 0.394858 (Simulation time: 0 hr 35 min 52 sec) 
Heartbeat CPU 0 instructions: 244000001 cycles: 615871092 heartbeat IPC: 0.388304 cumulative IPC: 0.394831 (Simulation time: 0 hr 36 min 1 sec) 
Heartbeat CPU 0 instructions: 245000001 cycles: 618040721 heartbeat IPC: 0.460908 cumulative IPC: 0.395063 (Simulation time: 0 hr 36 min 9 sec) 
Heartbeat CPU 0 instructions: 246000002 cycles: 622829272 heartbeat IPC: 0.208832 cumulative IPC: 0.39363 (Simulation time: 0 hr 36 min 22 sec) 
Heartbeat CPU 0 instructions: 247000001 cycles: 628637304 heartbeat IPC: 0.172175 cumulative IPC: 0.391583 (Simulation time: 0 hr 36 min 35 sec) 
Heartbeat CPU 0 instructions: 248000001 cycles: 632208029 heartbeat IPC: 0.280055 cumulative IPC: 0.390953 (Simulation time: 0 hr 36 min 46 sec) 
Heartbeat CPU 0 instructions: 249000000 cycles: 634016303 heartbeat IPC: 0.553013 cumulative IPC: 0.391415 (Simulation time: 0 hr 36 min 53 sec) 
Heartbeat CPU 0 instructions: 250000001 cycles: 636165609 heartbeat IPC: 0.465267 cumulative IPC: 0.391665 (Simulation time: 0 hr 37 min 1 sec) 
Heartbeat CPU 0 instructions: 251000000 cycles: 638135148 heartbeat IPC: 0.507733 cumulative IPC: 0.392023 (Simulation time: 0 hr 37 min 9 sec) 
Heartbeat CPU 0 instructions: 252000002 cycles: 640026447 heartbeat IPC: 0.528738 cumulative IPC: 0.392428 (Simulation time: 0 hr 37 min 17 sec) 
Heartbeat CPU 0 instructions: 253000000 cycles: 641804107 heartbeat IPC: 0.562536 cumulative IPC: 0.392899 (Simulation time: 0 hr 37 min 25 sec) 
Heartbeat CPU 0 instructions: 254000001 cycles: 644206201 heartbeat IPC: 0.416304 cumulative IPC: 0.392986 (Simulation time: 0 hr 37 min 33 sec) 
Heartbeat CPU 0 instructions: 255000001 cycles: 647121343 heartbeat IPC: 0.343036 cumulative IPC: 0.392761 (Simulation time: 0 hr 37 min 43 sec) 
Heartbeat CPU 0 instructions: 256000000 cycles: 648668372 heartbeat IPC: 0.6464 cumulative IPC: 0.393367 (Simulation time: 0 hr 37 min 50 sec) 
Heartbeat CPU 0 instructions: 257000000 cycles: 650335658 heartbeat IPC: 0.599777 cumulative IPC: 0.393896 (Simulation time: 0 hr 37 min 58 sec) 
Heartbeat CPU 0 instructions: 258000001 cycles: 652589447 heartbeat IPC: 0.443698 cumulative IPC: 0.394068 (Simulation time: 0 hr 38 min 6 sec) 
Heartbeat CPU 0 instructions: 259000002 cycles: 654286382 heartbeat IPC: 0.589298 cumulative IPC: 0.394575 (Simulation time: 0 hr 38 min 14 sec) 
Heartbeat CPU 0 instructions: 260000001 cycles: 656435019 heartbeat IPC: 0.465411 cumulative IPC: 0.394807 (Simulation time: 0 hr 38 min 22 sec) 
Heartbeat CPU 0 instructions: 261000001 cycles: 659063284 heartbeat IPC: 0.380479 cumulative IPC: 0.39475 (Simulation time: 0 hr 38 min 30 sec) 
Heartbeat CPU 0 instructions: 262000002 cycles: 662604599 heartbeat IPC: 0.282381 cumulative IPC: 0.394149 (Simulation time: 0 hr 38 min 41 sec) 
Heartbeat CPU 0 instructions: 263000002 cycles: 665114543 heartbeat IPC: 0.398415 cumulative IPC: 0.394165 (Simulation time: 0 hr 38 min 49 sec) 
Heartbeat CPU 0 instructions: 264000000 cycles: 667603622 heartbeat IPC: 0.401754 cumulative IPC: 0.394193 (Simulation time: 0 hr 38 min 58 sec) 
Heartbeat CPU 0 instructions: 265000003 cycles: 670791811 heartbeat IPC: 0.313659 cumulative IPC: 0.39381 (Simulation time: 0 hr 39 min 8 sec) 
Heartbeat CPU 0 instructions: 266000002 cycles: 672634673 heartbeat IPC: 0.542634 cumulative IPC: 0.394218 (Simulation time: 0 hr 39 min 16 sec) 
Heartbeat CPU 0 instructions: 267000001 cycles: 674545175 heartbeat IPC: 0.523422 cumulative IPC: 0.394584 (Simulation time: 0 hr 39 min 24 sec) 
Heartbeat CPU 0 instructions: 268000003 cycles: 677077251 heartbeat IPC: 0.394934 cumulative IPC: 0.394586 (Simulation time: 0 hr 39 min 32 sec) 
Heartbeat CPU 0 instructions: 269000000 cycles: 681535695 heartbeat IPC: 0.224293 cumulative IPC: 0.393471 (Simulation time: 0 hr 39 min 44 sec) 
Heartbeat CPU 0 instructions: 270000002 cycles: 683922239 heartbeat IPC: 0.419017 cumulative IPC: 0.39356 (Simulation time: 0 hr 39 min 52 sec) 
Heartbeat CPU 0 instructions: 271000000 cycles: 686004104 heartbeat IPC: 0.480338 cumulative IPC: 0.393824 (Simulation time: 0 hr 40 min 0 sec) 
Heartbeat CPU 0 instructions: 272000000 cycles: 688090128 heartbeat IPC: 0.479381 cumulative IPC: 0.394083 (Simulation time: 0 hr 40 min 8 sec) 
Heartbeat CPU 0 instructions: 273000000 cycles: 689876075 heartbeat IPC: 0.559927 cumulative IPC: 0.394513 (Simulation time: 0 hr 40 min 16 sec) 
Heartbeat CPU 0 instructions: 274000002 cycles: 691876503 heartbeat IPC: 0.499894 cumulative IPC: 0.394818 (Simulation time: 0 hr 40 min 24 sec) 
Heartbeat CPU 0 instructions: 275000000 cycles: 693918536 heartbeat IPC: 0.489707 cumulative IPC: 0.395097 (Simulation time: 0 hr 40 min 32 sec) 
Heartbeat CPU 0 instructions: 276000003 cycles: 699037908 heartbeat IPC: 0.195337 cumulative IPC: 0.393633 (Simulation time: 0 hr 40 min 45 sec) 
Heartbeat CPU 0 instructions: 277000001 cycles: 703230815 heartbeat IPC: 0.238498 cumulative IPC: 0.392708 (Simulation time: 0 hr 40 min 56 sec) 
Heartbeat CPU 0 instructions: 278000000 cycles: 705064010 heartbeat IPC: 0.545495 cumulative IPC: 0.393105 (Simulation time: 0 hr 41 min 3 sec) 
Heartbeat CPU 0 instructions: 279000001 cycles: 706686732 heartbeat IPC: 0.616249 cumulative IPC: 0.393618 (Simulation time: 0 hr 41 min 11 sec) 
Heartbeat CPU 0 instructions: 280000002 cycles: 708939811 heartbeat IPC: 0.443838 cumulative IPC: 0.393778 (Simulation time: 0 hr 41 min 20 sec) 
Heartbeat CPU 0 instructions: 281000002 cycles: 711869342 heartbeat IPC: 0.341352 cumulative IPC: 0.393562 (Simulation time: 0 hr 41 min 29 sec) 
Heartbeat CPU 0 instructions: 282000000 cycles: 714807828 heartbeat IPC: 0.340311 cumulative IPC: 0.393343 (Simulation time: 0 hr 41 min 38 sec) 
Heartbeat CPU 0 instructions: 283000003 cycles: 717217056 heartbeat IPC: 0.415072 cumulative IPC: 0.393416 (Simulation time: 0 hr 41 min 47 sec) 
Heartbeat CPU 0 instructions: 284000000 cycles: 722206429 heartbeat IPC: 0.200425 cumulative IPC: 0.392082 (Simulation time: 0 hr 42 min 0 sec) 
Heartbeat CPU 0 instructions: 285000003 cycles: 728060244 heartbeat IPC: 0.170829 cumulative IPC: 0.390302 (Simulation time: 0 hr 42 min 14 sec) 
Heartbeat CPU 0 instructions: 286000000 cycles: 730920574 heartbeat IPC: 0.349609 cumulative IPC: 0.390142 (Simulation time: 0 hr 42 min 23 sec) 
Heartbeat CPU 0 instructions: 287000002 cycles: 732430047 heartbeat IPC: 0.662484 cumulative IPC: 0.390704 (Simulation time: 0 hr 42 min 30 sec) 
Heartbeat CPU 0 instructions: 288000002 cycles: 734440730 heartbeat IPC: 0.497343 cumulative IPC: 0.390996 (Simulation time: 0 hr 42 min 38 sec) 
Heartbeat CPU 0 instructions: 289000000 cycles: 736296475 heartbeat IPC: 0.538866 cumulative IPC: 0.391369 (Simulation time: 0 hr 42 min 46 sec) 
Heartbeat CPU 0 instructions: 290000001 cycles: 738026689 heartbeat IPC: 0.577964 cumulative IPC: 0.391807 (Simulation time: 0 hr 42 min 54 sec) 
Heartbeat CPU 0 instructions: 291000001 cycles: 739844587 heartbeat IPC: 0.550086 cumulative IPC: 0.392196 (Simulation time: 0 hr 43 min 2 sec) 
Heartbeat CPU 0 instructions: 292000000 cycles: 742573541 heartbeat IPC: 0.36644 cumulative IPC: 0.392101 (Simulation time: 0 hr 43 min 11 sec) 
Heartbeat CPU 0 instructions: 293000000 cycles: 748454579 heartbeat IPC: 0.170038 cumulative IPC: 0.390355 (Simulation time: 0 hr 43 min 25 sec) 
Heartbeat CPU 0 instructions: 294000000 cycles: 750949073 heartbeat IPC: 0.400883 cumulative IPC: 0.39039 (Simulation time: 0 hr 43 min 34 sec) 
Heartbeat CPU 0 instructions: 295000000 cycles: 753188360 heartbeat IPC: 0.446571 cumulative IPC: 0.390557 (Simulation time: 0 hr 43 min 42 sec) 
Heartbeat CPU 0 instructions: 296000000 cycles: 755553197 heartbeat IPC: 0.422862 cumulative IPC: 0.390658 (Simulation time: 0 hr 43 min 51 sec) 
Heartbeat CPU 0 instructions: 297000000 cycles: 757260650 heartbeat IPC: 0.585668 cumulative IPC: 0.391098 (Simulation time: 0 hr 43 min 58 sec) 
Heartbeat CPU 0 instructions: 298000001 cycles: 758961202 heartbeat IPC: 0.588045 cumulative IPC: 0.39154 (Simulation time: 0 hr 44 min 6 sec) 
Heartbeat CPU 0 instructions: 299000001 cycles: 760798020 heartbeat IPC: 0.54442 cumulative IPC: 0.391909 (Simulation time: 0 hr 44 min 14 sec) 
Heartbeat CPU 0 instructions: 300000000 cycles: 763716306 heartbeat IPC: 0.342667 cumulative IPC: 0.391721 (Simulation time: 0 hr 44 min 24 sec) 
Heartbeat CPU 0 instructions: 301000002 cycles: 769225804 heartbeat IPC: 0.181505 cumulative IPC: 0.390215 (Simulation time: 0 hr 44 min 37 sec) 
Heartbeat CPU 0 instructions: 302000000 cycles: 771134085 heartbeat IPC: 0.524031 cumulative IPC: 0.390546 (Simulation time: 0 hr 44 min 45 sec) 
Heartbeat CPU 0 instructions: 303000000 cycles: 773070778 heartbeat IPC: 0.516344 cumulative IPC: 0.390861 (Simulation time: 0 hr 44 min 53 sec) 
Heartbeat CPU 0 instructions: 304000000 cycles: 774692408 heartbeat IPC: 0.616663 cumulative IPC: 0.391334 (Simulation time: 0 hr 45 min 1 sec) 
Heartbeat CPU 0 instructions: 305000000 cycles: 776377715 heartbeat IPC: 0.593364 cumulative IPC: 0.391773 (Simulation time: 0 hr 45 min 9 sec) 
Heartbeat CPU 0 instructions: 306000001 cycles: 778291061 heartbeat IPC: 0.522645 cumulative IPC: 0.392095 (Simulation time: 0 hr 45 min 16 sec) 
Heartbeat CPU 0 instructions: 307000001 cycles: 780543614 heartbeat IPC: 0.443941 cumulative IPC: 0.392245 (Simulation time: 0 hr 45 min 25 sec) 
Heartbeat CPU 0 instructions: 308000000 cycles: 783918954 heartbeat IPC: 0.296266 cumulative IPC: 0.391831 (Simulation time: 0 hr 45 min 35 sec) 
Heartbeat CPU 0 instructions: 309000000 cycles: 786576739 heartbeat IPC: 0.376253 cumulative IPC: 0.391778 (Simulation time: 0 hr 45 min 44 sec) 
Heartbeat CPU 0 instructions: 310000000 cycles: 788815447 heartbeat IPC: 0.446686 cumulative IPC: 0.391934 (Simulation time: 0 hr 45 min 52 sec) 
Heartbeat CPU 0 instructions: 311000001 cycles: 790620363 heartbeat IPC: 0.554043 cumulative IPC: 0.392305 (Simulation time: 0 hr 46 min 0 sec) 
Heartbeat CPU 0 instructions: 312000001 cycles: 792552284 heartbeat IPC: 0.517619 cumulative IPC: 0.39261 (Simulation time: 0 hr 46 min 8 sec) 
Heartbeat CPU 0 instructions: 313000000 cycles: 794371662 heartbeat IPC: 0.549638 cumulative IPC: 0.39297 (Simulation time: 0 hr 46 min 16 sec) 
Heartbeat CPU 0 instructions: 314000001 cycles: 796781905 heartbeat IPC: 0.414896 cumulative IPC: 0.393036 (Simulation time: 0 hr 46 min 24 sec) 
Heartbeat CPU 0 instructions: 315000003 cycles: 801047005 heartbeat IPC: 0.234462 cumulative IPC: 0.392192 (Simulation time: 0 hr 46 min 35 sec) 
Heartbeat CPU 0 instructions: 316000003 cycles: 806783563 heartbeat IPC: 0.174321 cumulative IPC: 0.390642 (Simulation time: 0 hr 46 min 50 sec) 
Heartbeat CPU 0 instructions: 317000001 cycles: 812248550 heartbeat IPC: 0.182983 cumulative IPC: 0.389244 (Simulation time: 0 hr 47 min 3 sec) 
Heartbeat CPU 0 instructions: 318000002 cycles: 815092759 heartbeat IPC: 0.351592 cumulative IPC: 0.389112 (Simulation time: 0 hr 47 min 12 sec) 
Heartbeat CPU 0 instructions: 319000000 cycles: 816883632 heartbeat IPC: 0.558386 cumulative IPC: 0.389484 (Simulation time: 0 hr 47 min 19 sec) 
Heartbeat CPU 0 instructions: 320000003 cycles: 819205013 heartbeat IPC: 0.430779 cumulative IPC: 0.389601 (Simulation time: 0 hr 47 min 28 sec) 
Heartbeat CPU 0 instructions: 321000002 cycles: 821574152 heartbeat IPC: 0.422094 cumulative IPC: 0.389694 (Simulation time: 0 hr 47 min 36 sec) 
Heartbeat CPU 0 instructions: 322000000 cycles: 823656524 heartbeat IPC: 0.480221 cumulative IPC: 0.389923 (Simulation time: 0 hr 47 min 44 sec) 
Heartbeat CPU 0 instructions: 323000000 cycles: 825645740 heartbeat IPC: 0.502711 cumulative IPC: 0.390195 (Simulation time: 0 hr 47 min 52 sec) 
Heartbeat CPU 0 instructions: 324000001 cycles: 829951100 heartbeat IPC: 0.232269 cumulative IPC: 0.389376 (Simulation time: 0 hr 48 min 4 sec) 
Heartbeat CPU 0 instructions: 325000003 cycles: 831960178 heartbeat IPC: 0.497742 cumulative IPC: 0.389637 (Simulation time: 0 hr 48 min 12 sec) 
Heartbeat CPU 0 instructions: 326000000 cycles: 833811931 heartbeat IPC: 0.540027 cumulative IPC: 0.389972 (Simulation time: 0 hr 48 min 19 sec) 
Heartbeat CPU 0 instructions: 327000002 cycles: 835577779 heartbeat IPC: 0.566301 cumulative IPC: 0.390344 (Simulation time: 0 hr 48 min 27 sec) 
Heartbeat CPU 0 instructions: 328000000 cycles: 837430953 heartbeat IPC: 0.539614 cumulative IPC: 0.390675 (Simulation time: 0 hr 48 min 35 sec) 
Heartbeat CPU 0 instructions: 329000001 cycles: 839555712 heartbeat IPC: 0.470642 cumulative IPC: 0.390877 (Simulation time: 0 hr 48 min 43 sec) 
Heartbeat CPU 0 instructions: 330000000 cycles: 841232460 heartbeat IPC: 0.596392 cumulative IPC: 0.391287 (Simulation time: 0 hr 48 min 50 sec) 
Heartbeat CPU 0 instructions: 331000001 cycles: 844531347 heartbeat IPC: 0.303133 cumulative IPC: 0.390943 (Simulation time: 0 hr 49 min 1 sec) 
Heartbeat CPU 0 instructions: 332000001 cycles: 850208463 heartbeat IPC: 0.176146 cumulative IPC: 0.389508 (Simulation time: 0 hr 49 min 14 sec) 
Heartbeat CPU 0 instructions: 333000002 cycles: 854879853 heartbeat IPC: 0.214069 cumulative IPC: 0.388549 (Simulation time: 0 hr 49 min 27 sec) 
Heartbeat CPU 0 instructions: 334000003 cycles: 856412371 heartbeat IPC: 0.652522 cumulative IPC: 0.389021 (Simulation time: 0 hr 49 min 34 sec) 
Heartbeat CPU 0 instructions: 335000001 cycles: 858913304 heartbeat IPC: 0.39985 cumulative IPC: 0.389053 (Simulation time: 0 hr 49 min 42 sec) 
Heartbeat CPU 0 instructions: 336000001 cycles: 860746473 heartbeat IPC: 0.545503 cumulative IPC: 0.389386 (Simulation time: 0 hr 49 min 50 sec) 
Heartbeat CPU 0 instructions: 337000001 cycles: 862793421 heartbeat IPC: 0.488532 cumulative IPC: 0.389621 (Simulation time: 0 hr 49 min 58 sec) 
Heartbeat CPU 0 instructions: 338000002 cycles: 865357160 heartbeat IPC: 0.390056 cumulative IPC: 0.389623 (Simulation time: 0 hr 50 min 7 sec) 
Heartbeat CPU 0 instructions: 339000001 cycles: 867273342 heartbeat IPC: 0.521871 cumulative IPC: 0.389915 (Simulation time: 0 hr 50 min 14 sec) 
Heartbeat CPU 0 instructions: 340000000 cycles: 872250799 heartbeat IPC: 0.200906 cumulative IPC: 0.388836 (Simulation time: 0 hr 50 min 27 sec) 
Heartbeat CPU 0 instructions: 341000000 cycles: 878415290 heartbeat IPC: 0.162219 cumulative IPC: 0.387245 (Simulation time: 0 hr 50 min 42 sec) 
Heartbeat CPU 0 instructions: 342000000 cycles: 881441123 heartbeat IPC: 0.330488 cumulative IPC: 0.38705 (Simulation time: 0 hr 50 min 51 sec) 
Heartbeat CPU 0 instructions: 343000000 cycles: 884132968 heartbeat IPC: 0.371492 cumulative IPC: 0.387003 (Simulation time: 0 hr 51 min 0 sec) 
Heartbeat CPU 0 instructions: 344000003 cycles: 886416788 heartbeat IPC: 0.437864 cumulative IPC: 0.387134 (Simulation time: 0 hr 51 min 8 sec) 
Heartbeat CPU 0 instructions: 345000000 cycles: 888412855 heartbeat IPC: 0.500984 cumulative IPC: 0.38739 (Simulation time: 0 hr 51 min 16 sec) 
Heartbeat CPU 0 instructions: 346000003 cycles: 890950323 heartbeat IPC: 0.394095 cumulative IPC: 0.387409 (Simulation time: 0 hr 51 min 25 sec) 
Heartbeat CPU 0 instructions: 347000000 cycles: 892744268 heartbeat IPC: 0.557429 cumulative IPC: 0.387751 (Simulation time: 0 hr 51 min 33 sec) 
Heartbeat CPU 0 instructions: 348000002 cycles: 895485254 heartbeat IPC: 0.364833 cumulative IPC: 0.38768 (Simulation time: 0 hr 51 min 42 sec) 
Heartbeat CPU 0 instructions: 349000002 cycles: 898224124 heartbeat IPC: 0.365114 cumulative IPC: 0.387612 (Simulation time: 0 hr 51 min 51 sec) 
Heartbeat CPU 0 instructions: 350000003 cycles: 899998169 heartbeat IPC: 0.563684 cumulative IPC: 0.387959 (Simulation time: 0 hr 51 min 59 sec) 
Heartbeat CPU 0 instructions: 351000001 cycles: 901675173 heartbeat IPC: 0.5963 cumulative IPC: 0.388346 (Simulation time: 0 hr 52 min 6 sec) 
Heartbeat CPU 0 instructions: 352000000 cycles: 904292958 heartbeat IPC: 0.382002 cumulative IPC: 0.388328 (Simulation time: 0 hr 52 min 15 sec) 
Heartbeat CPU 0 instructions: 353000001 cycles: 906428614 heartbeat IPC: 0.468241 cumulative IPC: 0.388516 (Simulation time: 0 hr 52 min 23 sec) 
Heartbeat CPU 0 instructions: 354000002 cycles: 908832952 heartbeat IPC: 0.415915 cumulative IPC: 0.388589 (Simulation time: 0 hr 52 min 31 sec) 
Heartbeat CPU 0 instructions: 355000001 cycles: 914351258 heartbeat IPC: 0.181215 cumulative IPC: 0.387337 (Simulation time: 0 hr 52 min 45 sec) 
Heartbeat CPU 0 instructions: 356000003 cycles: 920215797 heartbeat IPC: 0.170517 cumulative IPC: 0.385954 (Simulation time: 0 hr 52 min 59 sec) 
Heartbeat CPU 0 instructions: 357000001 cycles: 922502335 heartbeat IPC: 0.437342 cumulative IPC: 0.386082 (Simulation time: 0 hr 53 min 7 sec) 
Heartbeat CPU 0 instructions: 358000000 cycles: 924241315 heartbeat IPC: 0.575049 cumulative IPC: 0.386438 (Simulation time: 0 hr 53 min 15 sec) 
Heartbeat CPU 0 instructions: 359000000 cycles: 925942592 heartbeat IPC: 0.587794 cumulative IPC: 0.386808 (Simulation time: 0 hr 53 min 22 sec) 
Heartbeat CPU 0 instructions: 360000000 cycles: 927815387 heartbeat IPC: 0.533961 cumulative IPC: 0.387105 (Simulation time: 0 hr 53 min 30 sec) 
Heartbeat CPU 0 instructions: 361000001 cycles: 929535781 heartbeat IPC: 0.581263 cumulative IPC: 0.387464 (Simulation time: 0 hr 53 min 38 sec) 
Heartbeat CPU 0 instructions: 362000003 cycles: 931492500 heartbeat IPC: 0.511061 cumulative IPC: 0.387724 (Simulation time: 0 hr 53 min 46 sec) 
Heartbeat CPU 0 instructions: 363000000 cycles: 934879914 heartbeat IPC: 0.29521 cumulative IPC: 0.387389 (Simulation time: 0 hr 53 min 56 sec) 
Heartbeat CPU 0 instructions: 364000001 cycles: 937092829 heartbeat IPC: 0.451893 cumulative IPC: 0.387541 (Simulation time: 0 hr 54 min 4 sec) 
Heartbeat CPU 0 instructions: 365000001 cycles: 938848228 heartbeat IPC: 0.569671 cumulative IPC: 0.387882 (Simulation time: 0 hr 54 min 12 sec) 
Heartbeat CPU 0 instructions: 366000001 cycles: 940304916 heartbeat IPC: 0.686489 cumulative IPC: 0.388345 (Simulation time: 0 hr 54 min 19 sec) 
Heartbeat CPU 0 instructions: 367000001 cycles: 943271843 heartbeat IPC: 0.337049 cumulative IPC: 0.388183 (Simulation time: 0 hr 54 min 28 sec) 
Heartbeat CPU 0 instructions: 368000002 cycles: 945614054 heartbeat IPC: 0.426947 cumulative IPC: 0.388279 (Simulation time: 0 hr 54 min 37 sec) 
Heartbeat CPU 0 instructions: 369000003 cycles: 948310286 heartbeat IPC: 0.370888 cumulative IPC: 0.38823 (Simulation time: 0 hr 54 min 46 sec) 
Heartbeat CPU 0 instructions: 370000001 cycles: 951380193 heartbeat IPC: 0.325742 cumulative IPC: 0.388028 (Simulation time: 0 hr 54 min 55 sec) 
Heartbeat CPU 0 instructions: 371000003 cycles: 956352960 heartbeat IPC: 0.201096 cumulative IPC: 0.387056 (Simulation time: 0 hr 55 min 8 sec) 
Heartbeat CPU 0 instructions: 372000000 cycles: 958089362 heartbeat IPC: 0.575902 cumulative IPC: 0.387398 (Simulation time: 0 hr 55 min 16 sec) 
Heartbeat CPU 0 instructions: 373000002 cycles: 960270328 heartbeat IPC: 0.458513 cumulative IPC: 0.38756 (Simulation time: 0 hr 55 min 24 sec) 
Heartbeat CPU 0 instructions: 374000000 cycles: 962351470 heartbeat IPC: 0.480504 cumulative IPC: 0.387761 (Simulation time: 0 hr 55 min 32 sec) 
Heartbeat CPU 0 instructions: 375000001 cycles: 963922308 heartbeat IPC: 0.636604 cumulative IPC: 0.388166 (Simulation time: 0 hr 55 min 39 sec) 
Heartbeat CPU 0 instructions: 376000001 cycles: 965856773 heartbeat IPC: 0.516939 cumulative IPC: 0.388424 (Simulation time: 0 hr 55 min 47 sec) 
Heartbeat CPU 0 instructions: 377000000 cycles: 967414445 heartbeat IPC: 0.641983 cumulative IPC: 0.388833 (Simulation time: 0 hr 55 min 54 sec) 
Heartbeat CPU 0 instructions: 378000001 cycles: 971401161 heartbeat IPC: 0.250833 cumulative IPC: 0.388266 (Simulation time: 0 hr 56 min 6 sec) 
Heartbeat CPU 0 instructions: 379000002 cycles: 976127351 heartbeat IPC: 0.211587 cumulative IPC: 0.38741 (Simulation time: 0 hr 56 min 18 sec) 
Heartbeat CPU 0 instructions: 380000001 cycles: 977661450 heartbeat IPC: 0.651848 cumulative IPC: 0.387826 (Simulation time: 0 hr 56 min 25 sec) 
Heartbeat CPU 0 instructions: 381000000 cycles: 979177775 heartbeat IPC: 0.659489 cumulative IPC: 0.388246 (Simulation time: 0 hr 56 min 32 sec) 
Heartbeat CPU 0 instructions: 382000001 cycles: 981119280 heartbeat IPC: 0.515065 cumulative IPC: 0.388498 (Simulation time: 0 hr 56 min 40 sec) 
Heartbeat CPU 0 instructions: 383000001 cycles: 983506799 heartbeat IPC: 0.418845 cumulative IPC: 0.388571 (Simulation time: 0 hr 56 min 48 sec) 
Heartbeat CPU 0 instructions: 384000000 cycles: 985991960 heartbeat IPC: 0.402388 cumulative IPC: 0.388606 (Simulation time: 0 hr 56 min 57 sec) 
Heartbeat CPU 0 instructions: 385000000 cycles: 989539279 heartbeat IPC: 0.281903 cumulative IPC: 0.388223 (Simulation time: 0 hr 57 min 7 sec) 
Heartbeat CPU 0 instructions: 386000000 cycles: 992830372 heartbeat IPC: 0.30385 cumulative IPC: 0.387944 (Simulation time: 0 hr 57 min 16 sec) 
Heartbeat CPU 0 instructions: 387000003 cycles: 994540876 heartbeat IPC: 0.584625 cumulative IPC: 0.388282 (Simulation time: 0 hr 57 min 24 sec) 
Heartbeat CPU 0 instructions: 388000003 cycles: 996411760 heartbeat IPC: 0.534507 cumulative IPC: 0.388557 (Simulation time: 0 hr 57 min 32 sec) 
Heartbeat CPU 0 instructions: 389000002 cycles: 998911253 heartbeat IPC: 0.400081 cumulative IPC: 0.388586 (Simulation time: 0 hr 57 min 40 sec) 
Heartbeat CPU 0 instructions: 390000003 cycles: 1001773807 heartbeat IPC: 0.349339 cumulative IPC: 0.388473 (Simulation time: 0 hr 57 min 50 sec) 
Heartbeat CPU 0 instructions: 391000000 cycles: 1003946793 heartbeat IPC: 0.460195 cumulative IPC: 0.388629 (Simulation time: 0 hr 57 min 58 sec) 
Heartbeat CPU 0 instructions: 392000000 cycles: 1006466273 heartbeat IPC: 0.396907 cumulative IPC: 0.388649 (Simulation time: 0 hr 58 min 6 sec) 
Heartbeat CPU 0 instructions: 393000002 cycles: 1010000565 heartbeat IPC: 0.282943 cumulative IPC: 0.388279 (Simulation time: 0 hr 58 min 17 sec) 
Heartbeat CPU 0 instructions: 394000003 cycles: 1012260005 heartbeat IPC: 0.442588 cumulative IPC: 0.388401 (Simulation time: 0 hr 58 min 25 sec) 
Heartbeat CPU 0 instructions: 395000000 cycles: 1014562469 heartbeat IPC: 0.434316 cumulative IPC: 0.388505 (Simulation time: 0 hr 58 min 33 sec) 
Heartbeat CPU 0 instructions: 396000000 cycles: 1016453498 heartbeat IPC: 0.528813 cumulative IPC: 0.388766 (Simulation time: 0 hr 58 min 41 sec) 
Heartbeat CPU 0 instructions: 397000000 cycles: 1018648994 heartbeat IPC: 0.455478 cumulative IPC: 0.38891 (Simulation time: 0 hr 58 min 49 sec) 
Heartbeat CPU 0 instructions: 398000001 cycles: 1020687426 heartbeat IPC: 0.490574 cumulative IPC: 0.389113 (Simulation time: 0 hr 58 min 57 sec) 
Heartbeat CPU 0 instructions: 399000002 cycles: 1023257633 heartbeat IPC: 0.389074 cumulative IPC: 0.389113 (Simulation time: 0 hr 59 min 6 sec) 
Heartbeat CPU 0 instructions: 400000001 cycles: 1028498363 heartbeat IPC: 0.190813 cumulative IPC: 0.388102 (Simulation time: 0 hr 59 min 19 sec) 
Heartbeat CPU 0 instructions: 401000001 cycles: 1032402092 heartbeat IPC: 0.256165 cumulative IPC: 0.387603 (Simulation time: 0 hr 59 min 30 sec) 
Heartbeat CPU 0 instructions: 402000000 cycles: 1034829340 heartbeat IPC: 0.411989 cumulative IPC: 0.38766 (Simulation time: 0 hr 59 min 38 sec) 
Heartbeat CPU 0 instructions: 403000001 cycles: 1036739426 heartbeat IPC: 0.523537 cumulative IPC: 0.387911 (Simulation time: 0 hr 59 min 46 sec) 
Heartbeat CPU 0 instructions: 404000000 cycles: 1038358605 heartbeat IPC: 0.617596 cumulative IPC: 0.388269 (Simulation time: 0 hr 59 min 53 sec) 
Heartbeat CPU 0 instructions: 405000000 cycles: 1039970049 heartbeat IPC: 0.620561 cumulative IPC: 0.388629 (Simulation time: 1 hr 0 min 1 sec) 
Heartbeat CPU 0 instructions: 406000001 cycles: 1041647255 heartbeat IPC: 0.59623 cumulative IPC: 0.388963 (Simulation time: 1 hr 0 min 8 sec) 
Heartbeat CPU 0 instructions: 407000000 cycles: 1043527497 heartbeat IPC: 0.531846 cumulative IPC: 0.389221 (Simulation time: 1 hr 0 min 15 sec) 
Heartbeat CPU 0 instructions: 408000000 cycles: 1047050321 heartbeat IPC: 0.283863 cumulative IPC: 0.388866 (Simulation time: 1 hr 0 min 26 sec) 
Heartbeat CPU 0 instructions: 409000000 cycles: 1049032054 heartbeat IPC: 0.504609 cumulative IPC: 0.389085 (Simulation time: 1 hr 0 min 34 sec) 
Heartbeat CPU 0 instructions: 410000001 cycles: 1050661936 heartbeat IPC: 0.613542 cumulative IPC: 0.389433 (Simulation time: 1 hr 0 min 41 sec) 
Heartbeat CPU 0 instructions: 411000002 cycles: 1052709601 heartbeat IPC: 0.488362 cumulative IPC: 0.389626 (Simulation time: 1 hr 0 min 49 sec) 
Heartbeat CPU 0 instructions: 412000003 cycles: 1054528024 heartbeat IPC: 0.549928 cumulative IPC: 0.389902 (Simulation time: 1 hr 0 min 57 sec) 
Heartbeat CPU 0 instructions: 413000000 cycles: 1056503751 heartbeat IPC: 0.506141 cumulative IPC: 0.39012 (Simulation time: 1 hr 1 min 5 sec) 
Heartbeat CPU 0 instructions: 414000002 cycles: 1058759016 heartbeat IPC: 0.443408 cumulative IPC: 0.390233 (Simulation time: 1 hr 1 min 13 sec) 
Heartbeat CPU 0 instructions: 415000000 cycles: 1062834003 heartbeat IPC: 0.245399 cumulative IPC: 0.389678 (Simulation time: 1 hr 1 min 24 sec) 
Heartbeat CPU 0 instructions: 416000000 cycles: 1064415897 heartbeat IPC: 0.632154 cumulative IPC: 0.390038 (Simulation time: 1 hr 1 min 32 sec) 
Heartbeat CPU 0 instructions: 417000002 cycles: 1065949326 heartbeat IPC: 0.652135 cumulative IPC: 0.390416 (Simulation time: 1 hr 1 min 39 sec) 
Heartbeat CPU 0 instructions: 418000000 cycles: 1067649696 heartbeat IPC: 0.588106 cumulative IPC: 0.390731 (Simulation time: 1 hr 1 min 47 sec) 
Heartbeat CPU 0 instructions: 419000000 cycles: 1070905454 heartbeat IPC: 0.307148 cumulative IPC: 0.390476 (Simulation time: 1 hr 1 min 56 sec) 
Heartbeat CPU 0 instructions: 420000000 cycles: 1074293046 heartbeat IPC: 0.295195 cumulative IPC: 0.390176 (Simulation time: 1 hr 2 min 6 sec) 
Heartbeat CPU 0 instructions: 421000000 cycles: 1077344272 heartbeat IPC: 0.327737 cumulative IPC: 0.389999 (Simulation time: 1 hr 2 min 15 sec) 
Heartbeat CPU 0 instructions: 422000000 cycles: 1081258330 heartbeat IPC: 0.255489 cumulative IPC: 0.389512 (Simulation time: 1 hr 2 min 27 sec) 
Heartbeat CPU 0 instructions: 423000000 cycles: 1083036095 heartbeat IPC: 0.562504 cumulative IPC: 0.389796 (Simulation time: 1 hr 2 min 34 sec) 
Heartbeat CPU 0 instructions: 424000001 cycles: 1084667587 heartbeat IPC: 0.612936 cumulative IPC: 0.390132 (Simulation time: 1 hr 2 min 41 sec) 
Heartbeat CPU 0 instructions: 425000003 cycles: 1086439366 heartbeat IPC: 0.564406 cumulative IPC: 0.390416 (Simulation time: 1 hr 2 min 48 sec) 
Heartbeat CPU 0 instructions: 426000000 cycles: 1088199395 heartbeat IPC: 0.568171 cumulative IPC: 0.390703 (Simulation time: 1 hr 2 min 56 sec) 
Heartbeat CPU 0 instructions: 427000001 cycles: 1089988349 heartbeat IPC: 0.558986 cumulative IPC: 0.39098 (Simulation time: 1 hr 3 min 3 sec) 
Heartbeat CPU 0 instructions: 428000002 cycles: 1093585520 heartbeat IPC: 0.277997 cumulative IPC: 0.390608 (Simulation time: 1 hr 3 min 14 sec) 
Heartbeat CPU 0 instructions: 429000000 cycles: 1095271730 heartbeat IPC: 0.593045 cumulative IPC: 0.39092 (Simulation time: 1 hr 3 min 21 sec) 
Heartbeat CPU 0 instructions: 430000000 cycles: 1096859986 heartbeat IPC: 0.629621 cumulative IPC: 0.391266 (Simulation time: 1 hr 3 min 28 sec) 
Heartbeat CPU 0 instructions: 431000000 cycles: 1098741377 heartbeat IPC: 0.531522 cumulative IPC: 0.391506 (Simulation time: 1 hr 3 min 36 sec) 
Heartbeat CPU 0 instructions: 432000001 cycles: 1100778407 heartbeat IPC: 0.490911 cumulative IPC: 0.39169 (Simulation time: 1 hr 3 min 44 sec) 
Heartbeat CPU 0 instructions: 433000001 cycles: 1103605480 heartbeat IPC: 0.353723 cumulative IPC: 0.391593 (Simulation time: 1 hr 3 min 52 sec) 
Heartbeat CPU 0 instructions: 434000000 cycles: 1108306055 heartbeat IPC: 0.21274 cumulative IPC: 0.390834 (Simulation time: 1 hr 4 min 4 sec) 
Heartbeat CPU 0 instructions: 435000001 cycles: 1110413830 heartbeat IPC: 0.474434 cumulative IPC: 0.390992 (Simulation time: 1 hr 4 min 12 sec) 
Heartbeat CPU 0 instructions: 436000001 cycles: 1112667894 heartbeat IPC: 0.443643 cumulative IPC: 0.391099 (Simulation time: 1 hr 4 min 20 sec) 
Heartbeat CPU 0 instructions: 437000002 cycles: 1114414802 heartbeat IPC: 0.572441 cumulative IPC: 0.391384 (Simulation time: 1 hr 4 min 27 sec) 
Heartbeat CPU 0 instructions: 438000001 cycles: 1116258519 heartbeat IPC: 0.542382 cumulative IPC: 0.391633 (Simulation time: 1 hr 4 min 35 sec) 
Heartbeat CPU 0 instructions: 439000001 cycles: 1118714722 heartbeat IPC: 0.407132 cumulative IPC: 0.391667 (Simulation time: 1 hr 4 min 43 sec) 
Heartbeat CPU 0 instructions: 440000000 cycles: 1122994748 heartbeat IPC: 0.233643 cumulative IPC: 0.391065 (Simulation time: 1 hr 4 min 54 sec) 
Heartbeat CPU 0 instructions: 441000001 cycles: 1128715533 heartbeat IPC: 0.174801 cumulative IPC: 0.389968 (Simulation time: 1 hr 5 min 8 sec) 
Heartbeat CPU 0 instructions: 442000000 cycles: 1133407664 heartbeat IPC: 0.213123 cumulative IPC: 0.389236 (Simulation time: 1 hr 5 min 20 sec) 
Heartbeat CPU 0 instructions: 443000001 cycles: 1135636602 heartbeat IPC: 0.448645 cumulative IPC: 0.389352 (Simulation time: 1 hr 5 min 28 sec) 
Heartbeat CPU 0 instructions: 444000001 cycles: 1138143853 heartbeat IPC: 0.398843 cumulative IPC: 0.389373 (Simulation time: 1 hr 5 min 36 sec) 
Heartbeat CPU 0 instructions: 445000002 cycles: 1139974957 heartbeat IPC: 0.546119 cumulative IPC: 0.389625 (Simulation time: 1 hr 5 min 44 sec) 
Heartbeat CPU 0 instructions: 446000003 cycles: 1141599431 heartbeat IPC: 0.615584 cumulative IPC: 0.389947 (Simulation time: 1 hr 5 min 52 sec) 
Heartbeat CPU 0 instructions: 447000000 cycles: 1143792260 heartbeat IPC: 0.456031 cumulative IPC: 0.390073 (Simulation time: 1 hr 6 min 0 sec) 
Heartbeat CPU 0 instructions: 448000001 cycles: 1145822853 heartbeat IPC: 0.492467 cumulative IPC: 0.390255 (Simulation time: 1 hr 6 min 8 sec) 
Heartbeat CPU 0 instructions: 449000001 cycles: 1149387879 heartbeat IPC: 0.280503 cumulative IPC: 0.389914 (Simulation time: 1 hr 6 min 18 sec) 
Heartbeat CPU 0 instructions: 450000002 cycles: 1151282557 heartbeat IPC: 0.527795 cumulative IPC: 0.390141 (Simulation time: 1 hr 6 min 26 sec) 

Warmup complete CPU 0 instructions: 450000002 cycles: 1151282557 (Simulation time: 1 hr 6 min 26 sec) 

Heartbeat CPU 0 instructions: 451000000 cycles: 1152901732 heartbeat IPC: 0.617597 cumulative IPC: 0.617597 (Simulation time: 1 hr 6 min 33 sec) 
Heartbeat CPU 0 instructions: 452000001 cycles: 1155368897 heartbeat IPC: 0.405324 cumulative IPC: 0.489435 (Simulation time: 1 hr 6 min 41 sec) 
Heartbeat CPU 0 instructions: 453000000 cycles: 1157320259 heartbeat IPC: 0.512462 cumulative IPC: 0.496877 (Simulation time: 1 hr 6 min 49 sec) 
Heartbeat CPU 0 instructions: 454000000 cycles: 1159398050 heartbeat IPC: 0.48128 cumulative IPC: 0.492884 (Simulation time: 1 hr 6 min 57 sec) 
Heartbeat CPU 0 instructions: 455000000 cycles: 1162390623 heartbeat IPC: 0.334161 cumulative IPC: 0.450123 (Simulation time: 1 hr 7 min 7 sec) 
Heartbeat CPU 0 instructions: 456000001 cycles: 1165661749 heartbeat IPC: 0.305705 cumulative IPC: 0.41727 (Simulation time: 1 hr 7 min 18 sec) 
Heartbeat CPU 0 instructions: 457000003 cycles: 1166906263 heartbeat IPC: 0.803528 cumulative IPC: 0.448037 (Simulation time: 1 hr 7 min 25 sec) 
Heartbeat CPU 0 instructions: 458000000 cycles: 1168595033 heartbeat IPC: 0.592145 cumulative IPC: 0.462094 (Simulation time: 1 hr 7 min 32 sec) 
Heartbeat CPU 0 instructions: 459000001 cycles: 1170808306 heartbeat IPC: 0.45182 cumulative IPC: 0.46093 (Simulation time: 1 hr 7 min 41 sec) 
Heartbeat CPU 0 instructions: 460000000 cycles: 1172290285 heartbeat IPC: 0.674773 cumulative IPC: 0.476015 (Simulation time: 1 hr 7 min 48 sec) 
Heartbeat CPU 0 instructions: 461000000 cycles: 1173869744 heartbeat IPC: 0.633128 cumulative IPC: 0.487002 (Simulation time: 1 hr 7 min 55 sec) 
Heartbeat CPU 0 instructions: 462000000 cycles: 1176405108 heartbeat IPC: 0.394421 cumulative IPC: 0.477658 (Simulation time: 1 hr 8 min 4 sec) 
Heartbeat CPU 0 instructions: 463000001 cycles: 1179567898 heartbeat IPC: 0.316177 cumulative IPC: 0.459602 (Simulation time: 1 hr 8 min 14 sec) 
Heartbeat CPU 0 instructions: 464000001 cycles: 1180951289 heartbeat IPC: 0.722861 cumulative IPC: 0.471877 (Simulation time: 1 hr 8 min 21 sec) 
Heartbeat CPU 0 instructions: 465000001 cycles: 1182288839 heartbeat IPC: 0.747636 cumulative IPC: 0.483773 (Simulation time: 1 hr 8 min 28 sec) 
Heartbeat CPU 0 instructions: 466000000 cycles: 1183713595 heartbeat IPC: 0.701874 cumulative IPC: 0.493354 (Simulation time: 1 hr 8 min 35 sec) 
Heartbeat CPU 0 instructions: 467000001 cycles: 1185058029 heartbeat IPC: 0.743808 cumulative IPC: 0.503324 (Simulation time: 1 hr 8 min 42 sec) 
Heartbeat CPU 0 instructions: 468000001 cycles: 1186807123 heartbeat IPC: 0.571725 cumulative IPC: 0.506692 (Simulation time: 1 hr 8 min 50 sec) 
Heartbeat CPU 0 instructions: 469000002 cycles: 1188942706 heartbeat IPC: 0.468257 cumulative IPC: 0.504512 (Simulation time: 1 hr 8 min 58 sec) 
Heartbeat CPU 0 instructions: 470000000 cycles: 1191893310 heartbeat IPC: 0.338913 cumulative IPC: 0.49248 (Simulation time: 1 hr 9 min 8 sec) 
Heartbeat CPU 0 instructions: 471000001 cycles: 1193611115 heartbeat IPC: 0.582139 cumulative IPC: 0.496119 (Simulation time: 1 hr 9 min 15 sec) 
Heartbeat CPU 0 instructions: 472000000 cycles: 1195074437 heartbeat IPC: 0.683376 cumulative IPC: 0.502376 (Simulation time: 1 hr 9 min 23 sec) 
Heartbeat CPU 0 instructions: 473000000 cycles: 1196474095 heartbeat IPC: 0.71446 cumulative IPC: 0.508945 (Simulation time: 1 hr 9 min 30 sec) 
Heartbeat CPU 0 instructions: 474000002 cycles: 1198001185 heartbeat IPC: 0.654842 cumulative IPC: 0.513714 (Simulation time: 1 hr 9 min 38 sec) 
Heartbeat CPU 0 instructions: 475000001 cycles: 1199650447 heartbeat IPC: 0.606331 cumulative IPC: 0.516872 (Simulation time: 1 hr 9 min 45 sec) 
Heartbeat CPU 0 instructions: 476000001 cycles: 1201441940 heartbeat IPC: 0.558194 cumulative IPC: 0.518348 (Simulation time: 1 hr 9 min 53 sec) 
Heartbeat CPU 0 instructions: 477000002 cycles: 1203763557 heartbeat IPC: 0.430735 cumulative IPC: 0.514472 (Simulation time: 1 hr 10 min 2 sec) 
Heartbeat CPU 0 instructions: 478000001 cycles: 1207252422 heartbeat IPC: 0.286626 cumulative IPC: 0.500269 (Simulation time: 1 hr 10 min 13 sec) 
Heartbeat CPU 0 instructions: 479000000 cycles: 1208519313 heartbeat IPC: 0.789333 cumulative IPC: 0.506667 (Simulation time: 1 hr 10 min 20 sec) 
Heartbeat CPU 0 instructions: 480000001 cycles: 1209815971 heartbeat IPC: 0.771214 cumulative IPC: 0.512528 (Simulation time: 1 hr 10 min 27 sec) 
Heartbeat CPU 0 instructions: 481000000 cycles: 1211208605 heartbeat IPC: 0.718063 cumulative IPC: 0.517304 (Simulation time: 1 hr 10 min 34 sec) 
Heartbeat CPU 0 instructions: 482000002 cycles: 1213756413 heartbeat IPC: 0.392495 cumulative IPC: 0.512214 (Simulation time: 1 hr 10 min 43 sec) 
Heartbeat CPU 0 instructions: 483000000 cycles: 1216179959 heartbeat IPC: 0.412618 cumulative IPC: 0.508495 (Simulation time: 1 hr 10 min 51 sec) 
Heartbeat CPU 0 instructions: 484000000 cycles: 1217679749 heartbeat IPC: 0.66676 cumulative IPC: 0.51207 (Simulation time: 1 hr 10 min 59 sec) 
Heartbeat CPU 0 instructions: 485000000 cycles: 1220431227 heartbeat IPC: 0.363441 cumulative IPC: 0.506156 (Simulation time: 1 hr 11 min 9 sec) 
Heartbeat CPU 0 instructions: 486000002 cycles: 1222299846 heartbeat IPC: 0.535156 cumulative IPC: 0.506919 (Simulation time: 1 hr 11 min 16 sec) 
Heartbeat CPU 0 instructions: 487000001 cycles: 1223577677 heartbeat IPC: 0.782575 cumulative IPC: 0.511791 (Simulation time: 1 hr 11 min 23 sec) 
Heartbeat CPU 0 instructions: 488000001 cycles: 1224816803 heartbeat IPC: 0.80702 cumulative IPC: 0.516766 (Simulation time: 1 hr 11 min 30 sec) 
Heartbeat CPU 0 instructions: 489000003 cycles: 1226421454 heartbeat IPC: 0.62319 cumulative IPC: 0.519039 (Simulation time: 1 hr 11 min 38 sec) 
Heartbeat CPU 0 instructions: 490000000 cycles: 1227891134 heartbeat IPC: 0.680418 cumulative IPC: 0.522135 (Simulation time: 1 hr 11 min 45 sec) 
Heartbeat CPU 0 instructions: 491000000 cycles: 1229895609 heartbeat IPC: 0.498884 cumulative IPC: 0.521542 (Simulation time: 1 hr 11 min 53 sec) 
Heartbeat CPU 0 instructions: 492000000 cycles: 1232428673 heartbeat IPC: 0.394779 cumulative IPC: 0.517585 (Simulation time: 1 hr 12 min 2 sec) 
Heartbeat CPU 0 instructions: 493000000 cycles: 1234632144 heartbeat IPC: 0.453829 cumulative IPC: 0.515899 (Simulation time: 1 hr 12 min 11 sec) 
Heartbeat CPU 0 instructions: 494000000 cycles: 1236296557 heartbeat IPC: 0.600812 cumulative IPC: 0.517562 (Simulation time: 1 hr 12 min 18 sec) 
Heartbeat CPU 0 instructions: 495000000 cycles: 1238065762 heartbeat IPC: 0.565226 cumulative IPC: 0.518533 (Simulation time: 1 hr 12 min 25 sec) 
Heartbeat CPU 0 instructions: 496000000 cycles: 1239944992 heartbeat IPC: 0.532133 cumulative IPC: 0.518822 (Simulation time: 1 hr 12 min 33 sec) 
Heartbeat CPU 0 instructions: 497000003 cycles: 1241206228 heartbeat IPC: 0.792875 cumulative IPC: 0.522666 (Simulation time: 1 hr 12 min 40 sec) 
Heartbeat CPU 0 instructions: 498000001 cycles: 1243226302 heartbeat IPC: 0.49503 cumulative IPC: 0.522058 (Simulation time: 1 hr 12 min 47 sec) 
Heartbeat CPU 0 instructions: 499000001 cycles: 1245689590 heartbeat IPC: 0.405961 cumulative IPC: 0.519029 (Simulation time: 1 hr 12 min 57 sec) 
Heartbeat CPU 0 instructions: 500000001 cycles: 1247191149 heartbeat IPC: 0.665974 cumulative IPC: 0.52133 (Simulation time: 1 hr 13 min 4 sec) 
Heartbeat CPU 0 instructions: 501000002 cycles: 1248430633 heartbeat IPC: 0.806788 cumulative IPC: 0.524972 (Simulation time: 1 hr 13 min 11 sec) 
Heartbeat CPU 0 instructions: 502000001 cycles: 1249684173 heartbeat IPC: 0.79774 cumulative IPC: 0.528447 (Simulation time: 1 hr 13 min 18 sec) 
Heartbeat CPU 0 instructions: 503000000 cycles: 1251719371 heartbeat IPC: 0.491352 cumulative IPC: 0.527695 (Simulation time: 1 hr 13 min 26 sec) 
Heartbeat CPU 0 instructions: 504000001 cycles: 1253673570 heartbeat IPC: 0.511719 cumulative IPC: 0.52739 (Simulation time: 1 hr 13 min 34 sec) 
Heartbeat CPU 0 instructions: 505000000 cycles: 1255247639 heartbeat IPC: 0.635296 cumulative IPC: 0.529024 (Simulation time: 1 hr 13 min 41 sec) 
Heartbeat CPU 0 instructions: 506000000 cycles: 1257615710 heartbeat IPC: 0.422285 cumulative IPC: 0.526647 (Simulation time: 1 hr 13 min 50 sec) 
Heartbeat CPU 0 instructions: 507000000 cycles: 1258807551 heartbeat IPC: 0.839038 cumulative IPC: 0.530109 (Simulation time: 1 hr 13 min 57 sec) 
Heartbeat CPU 0 instructions: 508000001 cycles: 1260440286 heartbeat IPC: 0.61247 cumulative IPC: 0.531341 (Simulation time: 1 hr 14 min 5 sec) 
Heartbeat CPU 0 instructions: 509000003 cycles: 1262600261 heartbeat IPC: 0.462969 cumulative IPC: 0.530015 (Simulation time: 1 hr 14 min 13 sec) 
Heartbeat CPU 0 instructions: 510000003 cycles: 1264037262 heartbeat IPC: 0.695894 cumulative IPC: 0.532129 (Simulation time: 1 hr 14 min 20 sec) 
Heartbeat CPU 0 instructions: 511000003 cycles: 1265428842 heartbeat IPC: 0.718608 cumulative IPC: 0.534402 (Simulation time: 1 hr 14 min 27 sec) 
Heartbeat CPU 0 instructions: 512000002 cycles: 1267002034 heartbeat IPC: 0.63565 cumulative IPC: 0.535778 (Simulation time: 1 hr 14 min 34 sec) 
Heartbeat CPU 0 instructions: 513000001 cycles: 1270244730 heartbeat IPC: 0.308385 cumulative IPC: 0.52958 (Simulation time: 1 hr 14 min 46 sec) 
Heartbeat CPU 0 instructions: 514000000 cycles: 1274280523 heartbeat IPC: 0.247783 cumulative IPC: 0.520334 (Simulation time: 1 hr 14 min 58 sec) 
Heartbeat CPU 0 instructions: 515000000 cycles: 1276296067 heartbeat IPC: 0.496144 cumulative IPC: 0.519944 (Simulation time: 1 hr 15 min 8 sec) 
Heartbeat CPU 0 instructions: 516000002 cycles: 1277772517 heartbeat IPC: 0.677302 cumulative IPC: 0.521781 (Simulation time: 1 hr 15 min 15 sec) 
Heartbeat CPU 0 instructions: 517000000 cycles: 1279761549 heartbeat IPC: 0.502756 cumulative IPC: 0.521486 (Simulation time: 1 hr 15 min 23 sec) 
Heartbeat CPU 0 instructions: 518000000 cycles: 1282026310 heartbeat IPC: 0.441548 cumulative IPC: 0.520101 (Simulation time: 1 hr 15 min 32 sec) 
Heartbeat CPU 0 instructions: 519000000 cycles: 1284576722 heartbeat IPC: 0.392094 cumulative IPC: 0.517652 (Simulation time: 1 hr 15 min 41 sec) 
Heartbeat CPU 0 instructions: 520000000 cycles: 1286461245 heartbeat IPC: 0.530638 cumulative IPC: 0.517833 (Simulation time: 1 hr 15 min 49 sec) 
Heartbeat CPU 0 instructions: 521000000 cycles: 1288571275 heartbeat IPC: 0.473927 cumulative IPC: 0.517158 (Simulation time: 1 hr 15 min 58 sec) 
Heartbeat CPU 0 instructions: 522000001 cycles: 1290607882 heartbeat IPC: 0.491013 cumulative IPC: 0.516776 (Simulation time: 1 hr 16 min 6 sec) 
Heartbeat CPU 0 instructions: 523000000 cycles: 1291990242 heartbeat IPC: 0.7234 cumulative IPC: 0.518806 (Simulation time: 1 hr 16 min 13 sec) 
Heartbeat CPU 0 instructions: 524000000 cycles: 1293166521 heartbeat IPC: 0.850138 cumulative IPC: 0.521553 (Simulation time: 1 hr 16 min 20 sec) 
Heartbeat CPU 0 instructions: 525000000 cycles: 1294322099 heartbeat IPC: 0.865368 cumulative IPC: 0.52433 (Simulation time: 1 hr 16 min 27 sec) 
Heartbeat CPU 0 instructions: 526000000 cycles: 1295531652 heartbeat IPC: 0.826752 cumulative IPC: 0.526866 (Simulation time: 1 hr 16 min 34 sec) 
Heartbeat CPU 0 instructions: 527000000 cycles: 1297800661 heartbeat IPC: 0.440721 cumulative IPC: 0.525532 (Simulation time: 1 hr 16 min 42 sec) 
Heartbeat CPU 0 instructions: 528000000 cycles: 1299900364 heartbeat IPC: 0.476258 cumulative IPC: 0.524836 (Simulation time: 1 hr 16 min 51 sec) 
Heartbeat CPU 0 instructions: 529000002 cycles: 1301289741 heartbeat IPC: 0.719748 cumulative IPC: 0.526641 (Simulation time: 1 hr 16 min 58 sec) 
Heartbeat CPU 0 instructions: 530000000 cycles: 1302969978 heartbeat IPC: 0.595153 cumulative IPC: 0.5274 (Simulation time: 1 hr 17 min 6 sec) 
Heartbeat CPU 0 instructions: 531000000 cycles: 1305248121 heartbeat IPC: 0.438954 cumulative IPC: 0.526092 (Simulation time: 1 hr 17 min 14 sec) 
Heartbeat CPU 0 instructions: 532000000 cycles: 1307587049 heartbeat IPC: 0.427546 cumulative IPC: 0.524617 (Simulation time: 1 hr 17 min 23 sec) 
Heartbeat CPU 0 instructions: 533000001 cycles: 1309183506 heartbeat IPC: 0.626388 cumulative IPC: 0.525646 (Simulation time: 1 hr 17 min 31 sec) 
Heartbeat CPU 0 instructions: 534000000 cycles: 1310820880 heartbeat IPC: 0.610733 cumulative IPC: 0.526519 (Simulation time: 1 hr 17 min 39 sec) 
Heartbeat CPU 0 instructions: 535000000 cycles: 1314463439 heartbeat IPC: 0.274532 cumulative IPC: 0.520894 (Simulation time: 1 hr 17 min 51 sec) 
Heartbeat CPU 0 instructions: 536000001 cycles: 1318167886 heartbeat IPC: 0.269946 cumulative IPC: 0.515324 (Simulation time: 1 hr 18 min 3 sec) 
Heartbeat CPU 0 instructions: 537000000 cycles: 1319893206 heartbeat IPC: 0.579602 cumulative IPC: 0.515982 (Simulation time: 1 hr 18 min 11 sec) 
Heartbeat CPU 0 instructions: 538000001 cycles: 1321287166 heartbeat IPC: 0.717381 cumulative IPC: 0.517633 (Simulation time: 1 hr 18 min 19 sec) 
Heartbeat CPU 0 instructions: 539000000 cycles: 1322757359 heartbeat IPC: 0.680182 cumulative IPC: 0.519027 (Simulation time: 1 hr 18 min 26 sec) 
Heartbeat CPU 0 instructions: 540000000 cycles: 1324214258 heartbeat IPC: 0.686389 cumulative IPC: 0.520437 (Simulation time: 1 hr 18 min 33 sec) 
Heartbeat CPU 0 instructions: 541000000 cycles: 1326412075 heartbeat IPC: 0.454997 cumulative IPC: 0.519615 (Simulation time: 1 hr 18 min 42 sec) 
Heartbeat CPU 0 instructions: 542000002 cycles: 1328264182 heartbeat IPC: 0.539927 cumulative IPC: 0.519828 (Simulation time: 1 hr 18 min 50 sec) 
Heartbeat CPU 0 instructions: 543000001 cycles: 1330171849 heartbeat IPC: 0.5242 cumulative IPC: 0.519875 (Simulation time: 1 hr 18 min 58 sec) 
Heartbeat CPU 0 instructions: 544000001 cycles: 1332267173 heartbeat IPC: 0.477253 cumulative IPC: 0.519381 (Simulation time: 1 hr 19 min 7 sec) 
Heartbeat CPU 0 instructions: 545000000 cycles: 1333504582 heartbeat IPC: 0.808139 cumulative IPC: 0.521342 (Simulation time: 1 hr 19 min 14 sec) 
Heartbeat CPU 0 instructions: 546000000 cycles: 1334706726 heartbeat IPC: 0.831847 cumulative IPC: 0.523377 (Simulation time: 1 hr 19 min 21 sec) 
[...]
Heartbeat CPU 0 instructions: 835000002 cycles: 1883163747 heartbeat IPC: 0.391315 cumulative IPC: 0.526042 (Simulation time: 1 hr 58 min 35 sec) 
Heartbeat CPU 0 instructions: 836000000 cycles: 1886946354 heartbeat IPC: 0.264367 cumulative IPC: 0.524696 (Simulation time: 1 hr 58 min 47 sec) 
Heartbeat CPU 0 instructions: 837000001 cycles: 1890635647 heartbeat IPC: 0.271055 cumulative IPC: 0.523431 (Simulation time: 1 hr 58 min 59 sec) 
Heartbeat CPU 0 instructions: 838000002 cycles: 1893844655 heartbeat IPC: 0.311623 cumulative IPC: 0.522515 (Simulation time: 1 hr 59 min 11 sec) 
Heartbeat CPU 0 instructions: 839000003 cycles: 1895126445 heartbeat IPC: 0.78016 cumulative IPC: 0.522959 (Simulation time: 1 hr 59 min 18 sec) 
Heartbeat CPU 0 instructions: 840000002 cycles: 1896362467 heartbeat IPC: 0.809046 cumulative IPC: 0.523434 (Simulation time: 1 hr 59 min 25 sec) 
Heartbeat CPU 0 instructions: 841000001 cycles: 1898044496 heartbeat IPC: 0.594519 cumulative IPC: 0.523594 (Simulation time: 1 hr 59 min 32 sec) 
Heartbeat CPU 0 instructions: 842000000 cycles: 1899411678 heartbeat IPC: 0.731431 cumulative IPC: 0.523974 (Simulation time: 1 hr 59 min 40 sec) 
Heartbeat CPU 0 instructions: 843000001 cycles: 1900946746 heartbeat IPC: 0.651438 cumulative IPC: 0.524235 (Simulation time: 1 hr 59 min 47 sec) 
Heartbeat CPU 0 instructions: 844000000 cycles: 1902815226 heartbeat IPC: 0.535194 cumulative IPC: 0.524262 (Simulation time: 1 hr 59 min 55 sec) 
Heartbeat CPU 0 instructions: 845000003 cycles: 1905212062 heartbeat IPC: 0.417218 cumulative IPC: 0.523922 (Simulation time: 2 hr 0 min 5 sec) 
Heartbeat CPU 0 instructions: 846000000 cycles: 1908826128 heartbeat IPC: 0.276696 cumulative IPC: 0.522742 (Simulation time: 2 hr 0 min 17 sec) 
Heartbeat CPU 0 instructions: 847000000 cycles: 1910256094 heartbeat IPC: 0.699317 cumulative IPC: 0.523075 (Simulation time: 2 hr 0 min 24 sec) 
Heartbeat CPU 0 instructions: 848000003 cycles: 1911482135 heartbeat IPC: 0.815636 cumulative IPC: 0.523547 (Simulation time: 2 hr 0 min 31 sec) 
Heartbeat CPU 0 instructions: 849000000 cycles: 1912646942 heartbeat IPC: 0.858509 cumulative IPC: 0.524059 (Simulation time: 2 hr 0 min 38 sec) 
Heartbeat CPU 0 instructions: 850000001 cycles: 1913795406 heartbeat IPC: 0.870729 cumulative IPC: 0.524581 (Simulation time: 2 hr 0 min 46 sec) 
Heartbeat CPU 0 instructions: 851000001 cycles: 1915001739 heartbeat IPC: 0.828959 cumulative IPC: 0.525062 (Simulation time: 2 hr 0 min 53 sec) 
Heartbeat CPU 0 instructions: 852000001 cycles: 1916357922 heartbeat IPC: 0.737364 cumulative IPC: 0.525438 (Simulation time: 2 hr 1 min 1 sec) 
Heartbeat CPU 0 instructions: 853000002 cycles: 1917719414 heartbeat IPC: 0.734489 cumulative IPC: 0.52581 (Simulation time: 2 hr 1 min 9 sec) 
Heartbeat CPU 0 instructions: 854000002 cycles: 1921086182 heartbeat IPC: 0.297021 cumulative IPC: 0.524809 (Simulation time: 2 hr 1 min 21 sec) 
Heartbeat CPU 0 instructions: 855000002 cycles: 1924981989 heartbeat IPC: 0.256686 cumulative IPC: 0.523459 (Simulation time: 2 hr 1 min 35 sec) 
Heartbeat CPU 0 instructions: 856000000 cycles: 1927097912 heartbeat IPC: 0.472606 cumulative IPC: 0.52332 (Simulation time: 2 hr 1 min 44 sec) 
Heartbeat CPU 0 instructions: 857000002 cycles: 1928994859 heartbeat IPC: 0.527164 cumulative IPC: 0.52333 (Simulation time: 2 hr 1 min 53 sec) 
Heartbeat CPU 0 instructions: 858000000 cycles: 1930802298 heartbeat IPC: 0.553268 cumulative IPC: 0.523399 (Simulation time: 2 hr 2 min 1 sec) 
Heartbeat CPU 0 instructions: 859000000 cycles: 1932295197 heartbeat IPC: 0.669838 cumulative IPC: 0.523679 (Simulation time: 2 hr 2 min 9 sec) 
Heartbeat CPU 0 instructions: 860000003 cycles: 1933682018 heartbeat IPC: 0.721076 cumulative IPC: 0.524029 (Simulation time: 2 hr 2 min 17 sec) 
Heartbeat CPU 0 instructions: 861000002 cycles: 1935421961 heartbeat IPC: 0.574731 cumulative IPC: 0.524141 (Simulation time: 2 hr 2 min 25 sec) 
Heartbeat CPU 0 instructions: 862000001 cycles: 1936812792 heartbeat IPC: 0.718994 cumulative IPC: 0.524486 (Simulation time: 2 hr 2 min 32 sec) 
Heartbeat CPU 0 instructions: 863000001 cycles: 1939263039 heartbeat IPC: 0.408122 cumulative IPC: 0.524125 (Simulation time: 2 hr 2 min 42 sec) 
Heartbeat CPU 0 instructions: 864000001 cycles: 1940489880 heartbeat IPC: 0.815102 cumulative IPC: 0.524577 (Simulation time: 2 hr 2 min 50 sec) 
Heartbeat CPU 0 instructions: 865000000 cycles: 1941993002 heartbeat IPC: 0.665281 cumulative IPC: 0.524844 (Simulation time: 2 hr 2 min 57 sec) 
Heartbeat CPU 0 instructions: 866000001 cycles: 1943406329 heartbeat IPC: 0.707551 cumulative IPC: 0.52517 (Simulation time: 2 hr 3 min 5 sec) 
Heartbeat CPU 0 instructions: 867000000 cycles: 1944613765 heartbeat IPC: 0.8282 cumulative IPC: 0.525632 (Simulation time: 2 hr 3 min 12 sec) 
Heartbeat CPU 0 instructions: 868000001 cycles: 1945789610 heartbeat IPC: 0.850453 cumulative IPC: 0.526112 (Simulation time: 2 hr 3 min 20 sec) 
Heartbeat CPU 0 instructions: 869000000 cycles: 1948092704 heartbeat IPC: 0.434198 cumulative IPC: 0.525847 (Simulation time: 2 hr 3 min 30 sec) 
Heartbeat CPU 0 instructions: 870000002 cycles: 1950513788 heartbeat IPC: 0.413039 cumulative IPC: 0.525505 (Simulation time: 2 hr 3 min 39 sec) 
Heartbeat CPU 0 instructions: 871000000 cycles: 1952156793 heartbeat IPC: 0.60864 cumulative IPC: 0.525676 (Simulation time: 2 hr 3 min 48 sec) 
Heartbeat CPU 0 instructions: 872000000 cycles: 1954073465 heartbeat IPC: 0.521738 cumulative IPC: 0.525666 (Simulation time: 2 hr 3 min 56 sec) 
Heartbeat CPU 0 instructions: 873000000 cycles: 1955751139 heartbeat IPC: 0.596063 cumulative IPC: 0.525813 (Simulation time: 2 hr 4 min 5 sec) 
Heartbeat CPU 0 instructions: 874000002 cycles: 1958213247 heartbeat IPC: 0.406157 cumulative IPC: 0.525448 (Simulation time: 2 hr 4 min 14 sec) 
Heartbeat CPU 0 instructions: 875000002 cycles: 1960151513 heartbeat IPC: 0.515925 cumulative IPC: 0.525425 (Simulation time: 2 hr 4 min 23 sec) 
Heartbeat CPU 0 instructions: 876000002 cycles: 1962655962 heartbeat IPC: 0.399289 cumulative IPC: 0.525036 (Simulation time: 2 hr 4 min 32 sec) 
Heartbeat CPU 0 instructions: 877000000 cycles: 1966893680 heartbeat IPC: 0.235976 cumulative IPC: 0.523534 (Simulation time: 2 hr 4 min 47 sec) 
Heartbeat CPU 0 instructions: 878000001 cycles: 1969019769 heartbeat IPC: 0.470348 cumulative IPC: 0.523396 (Simulation time: 2 hr 4 min 56 sec) 
Heartbeat CPU 0 instructions: 879000000 cycles: 1970729575 heartbeat IPC: 0.584861 cumulative IPC: 0.523524 (Simulation time: 2 hr 5 min 4 sec) 
Heartbeat CPU 0 instructions: 880000000 cycles: 1972632582 heartbeat IPC: 0.525484 cumulative IPC: 0.523528 (Simulation time: 2 hr 5 min 13 sec) 
Heartbeat CPU 0 instructions: 881000002 cycles: 1975245474 heartbeat IPC: 0.382718 cumulative IPC: 0.523082 (Simulation time: 2 hr 5 min 24 sec) 
Heartbeat CPU 0 instructions: 882000001 cycles: 1977248473 heartbeat IPC: 0.499251 cumulative IPC: 0.523024 (Simulation time: 2 hr 5 min 33 sec) 
Heartbeat CPU 0 instructions: 883000002 cycles: 1979299811 heartbeat IPC: 0.487487 cumulative IPC: 0.522936 (Simulation time: 2 hr 5 min 42 sec) 
Heartbeat CPU 0 instructions: 884000002 cycles: 1981364149 heartbeat IPC: 0.484417 cumulative IPC: 0.52284 (Simulation time: 2 hr 5 min 51 sec) 
Heartbeat CPU 0 instructions: 885000000 cycles: 1983874373 heartbeat IPC: 0.39837 cumulative IPC: 0.522465 (Simulation time: 2 hr 6 min 2 sec) 
Heartbeat CPU 0 instructions: 886000000 cycles: 1984956683 heartbeat IPC: 0.92395 cumulative IPC: 0.522986 (Simulation time: 2 hr 6 min 9 sec) 
Heartbeat CPU 0 instructions: 887000001 cycles: 1985992361 heartbeat IPC: 0.965552 cumulative IPC: 0.523535 (Simulation time: 2 hr 6 min 17 sec) 
Heartbeat CPU 0 instructions: 888000003 cycles: 1987023405 heartbeat IPC: 0.969893 cumulative IPC: 0.524086 (Simulation time: 2 hr 6 min 25 sec) 
Heartbeat CPU 0 instructions: 889000003 cycles: 1988090014 heartbeat IPC: 0.937551 cumulative IPC: 0.524613 (Simulation time: 2 hr 6 min 32 sec) 
Heartbeat CPU 0 instructions: 890000001 cycles: 1989230803 heartbeat IPC: 0.876585 cumulative IPC: 0.525092 (Simulation time: 2 hr 6 min 40 sec) 
Heartbeat CPU 0 instructions: 891000000 cycles: 1990792107 heartbeat IPC: 0.64049 cumulative IPC: 0.525307 (Simulation time: 2 hr 6 min 49 sec) 
Heartbeat CPU 0 instructions: 892000000 cycles: 1993509194 heartbeat IPC: 0.368041 cumulative IPC: 0.524799 (Simulation time: 2 hr 7 min 0 sec) 
Heartbeat CPU 0 instructions: 893000001 cycles: 1995029754 heartbeat IPC: 0.657653 cumulative IPC: 0.525039 (Simulation time: 2 hr 7 min 9 sec) 
Heartbeat CPU 0 instructions: 894000000 cycles: 1996586249 heartbeat IPC: 0.642469 cumulative IPC: 0.525255 (Simulation time: 2 hr 7 min 17 sec) 
Heartbeat CPU 0 instructions: 895000000 cycles: 1998423445 heartbeat IPC: 0.544308 cumulative IPC: 0.525296 (Simulation time: 2 hr 7 min 26 sec) 
Heartbeat CPU 0 instructions: 896000001 cycles: 2000466431 heartbeat IPC: 0.48948 cumulative IPC: 0.52521 (Simulation time: 2 hr 7 min 35 sec) 
Heartbeat CPU 0 instructions: 897000003 cycles: 2002048109 heartbeat IPC: 0.632241 cumulative IPC: 0.525409 (Simulation time: 2 hr 7 min 44 sec) 
Heartbeat CPU 0 instructions: 898000000 cycles: 2003258822 heartbeat IPC: 0.825957 cumulative IPC: 0.525836 (Simulation time: 2 hr 7 min 52 sec) 
Heartbeat CPU 0 instructions: 899000003 cycles: 2004440801 heartbeat IPC: 0.846041 cumulative IPC: 0.52628 (Simulation time: 2 hr 7 min 59 sec) 
Heartbeat CPU 0 instructions: 900000002 cycles: 2006936865 heartbeat IPC: 0.40063 cumulative IPC: 0.525913 (Simulation time: 2 hr 8 min 10 sec) 
Heartbeat CPU 0 instructions: 901000001 cycles: 2008671489 heartbeat IPC: 0.576493 cumulative IPC: 0.526016 (Simulation time: 2 hr 8 min 17 sec) 
Heartbeat CPU 0 instructions: 902000000 cycles: 2010060631 heartbeat IPC: 0.719868 cumulative IPC: 0.526329 (Simulation time: 2 hr 8 min 25 sec) 
Heartbeat CPU 0 instructions: 903000001 cycles: 2011628007 heartbeat IPC: 0.63801 cumulative IPC: 0.526533 (Simulation time: 2 hr 8 min 33 sec) 
Heartbeat CPU 0 instructions: 904000001 cycles: 2014176043 heartbeat IPC: 0.392459 cumulative IPC: 0.526137 (Simulation time: 2 hr 8 min 42 sec) 
Heartbeat CPU 0 instructions: 905000000 cycles: 2016286329 heartbeat IPC: 0.473869 cumulative IPC: 0.526009 (Simulation time: 2 hr 8 min 51 sec) 
Heartbeat CPU 0 instructions: 906000003 cycles: 2017868088 heartbeat IPC: 0.632209 cumulative IPC: 0.526203 (Simulation time: 2 hr 8 min 59 sec) 
Heartbeat CPU 0 instructions: 907000000 cycles: 2020919522 heartbeat IPC: 0.327714 cumulative IPC: 0.525507 (Simulation time: 2 hr 9 min 10 sec) 
Heartbeat CPU 0 instructions: 908000001 cycles: 2022905048 heartbeat IPC: 0.503645 cumulative IPC: 0.525457 (Simulation time: 2 hr 9 min 18 sec) 
Heartbeat CPU 0 instructions: 909000000 cycles: 2024710050 heartbeat IPC: 0.554015 cumulative IPC: 0.525516 (Simulation time: 2 hr 9 min 26 sec) 
Heartbeat CPU 0 instructions: 910000000 cycles: 2026087976 heartbeat IPC: 0.725728 cumulative IPC: 0.525831 (Simulation time: 2 hr 9 min 33 sec) 
Heartbeat CPU 0 instructions: 911000003 cycles: 2027710208 heartbeat IPC: 0.616436 cumulative IPC: 0.525999 (Simulation time: 2 hr 9 min 41 sec) 
Heartbeat CPU 0 instructions: 912000000 cycles: 2029319496 heartbeat IPC: 0.621391 cumulative IPC: 0.526174 (Simulation time: 2 hr 9 min 49 sec) 
Heartbeat CPU 0 instructions: 913000000 cycles: 2030918123 heartbeat IPC: 0.625537 cumulative IPC: 0.526354 (Simulation time: 2 hr 9 min 57 sec) 
Heartbeat CPU 0 instructions: 914000001 cycles: 2034480119 heartbeat IPC: 0.280742 cumulative IPC: 0.525364 (Simulation time: 2 hr 10 min 8 sec) 
Heartbeat CPU 0 instructions: 915000001 cycles: 2037927489 heartbeat IPC: 0.290076 cumulative IPC: 0.524449 (Simulation time: 2 hr 10 min 20 sec) 
Heartbeat CPU 0 instructions: 916000003 cycles: 2039657459 heartbeat IPC: 0.578046 cumulative IPC: 0.524553 (Simulation time: 2 hr 10 min 28 sec) 
Heartbeat CPU 0 instructions: 917000000 cycles: 2041506925 heartbeat IPC: 0.540695 cumulative IPC: 0.524587 (Simulation time: 2 hr 10 min 36 sec) 
Heartbeat CPU 0 instructions: 918000000 cycles: 2043016121 heartbeat IPC: 0.662604 cumulative IPC: 0.52482 (Simulation time: 2 hr 10 min 44 sec) 
Heartbeat CPU 0 instructions: 919000002 cycles: 2045401683 heartbeat IPC: 0.419189 cumulative IPC: 0.524539 (Simulation time: 2 hr 10 min 52 sec) 
Heartbeat CPU 0 instructions: 920000000 cycles: 2047750562 heartbeat IPC: 0.425734 cumulative IPC: 0.52428 (Simulation time: 2 hr 11 min 0 sec) 
Heartbeat CPU 0 instructions: 921000003 cycles: 2050315660 heartbeat IPC: 0.38985 cumulative IPC: 0.523896 (Simulation time: 2 hr 11 min 9 sec) 
Heartbeat CPU 0 instructions: 922000002 cycles: 2052979239 heartbeat IPC: 0.375434 cumulative IPC: 0.523458 (Simulation time: 2 hr 11 min 18 sec) 
Heartbeat CPU 0 instructions: 923000000 cycles: 2055348638 heartbeat IPC: 0.422047 cumulative IPC: 0.523192 (Simulation time: 2 hr 11 min 27 sec) 
Heartbeat CPU 0 instructions: 924000000 cycles: 2057387485 heartbeat IPC: 0.490473 cumulative IPC: 0.523118 (Simulation time: 2 hr 11 min 34 sec) 
Heartbeat CPU 0 instructions: 925000000 cycles: 2058774969 heartbeat IPC: 0.720729 cumulative IPC: 0.52342 (Simulation time: 2 hr 11 min 41 sec) 
Heartbeat CPU 0 instructions: 926000002 cycles: 2060251163 heartbeat IPC: 0.677419 cumulative IPC: 0.52367 (Simulation time: 2 hr 11 min 47 sec) 
Heartbeat CPU 0 instructions: 927000003 cycles: 2061979613 heartbeat IPC: 0.578554 cumulative IPC: 0.523775 (Simulation time: 2 hr 11 min 55 sec) 
Heartbeat CPU 0 instructions: 928000000 cycles: 2064064224 heartbeat IPC: 0.479704 cumulative IPC: 0.523674 (Simulation time: 2 hr 12 min 2 sec) 
Heartbeat CPU 0 instructions: 929000001 cycles: 2066131783 heartbeat IPC: 0.483663 cumulative IPC: 0.523584 (Simulation time: 2 hr 12 min 9 sec) 
Heartbeat CPU 0 instructions: 930000000 cycles: 2069011845 heartbeat IPC: 0.347214 cumulative IPC: 0.52303 (Simulation time: 2 hr 12 min 19 sec) 
Heartbeat CPU 0 instructions: 931000000 cycles: 2070734282 heartbeat IPC: 0.580573 cumulative IPC: 0.523138 (Simulation time: 2 hr 12 min 25 sec) 
Heartbeat CPU 0 instructions: 932000001 cycles: 2071927283 heartbeat IPC: 0.838223 cumulative IPC: 0.523546 (Simulation time: 2 hr 12 min 32 sec) 
Heartbeat CPU 0 instructions: 933000002 cycles: 2073387155 heartbeat IPC: 0.684992 cumulative IPC: 0.523802 (Simulation time: 2 hr 12 min 38 sec) 
Heartbeat CPU 0 instructions: 934000002 cycles: 2074546092 heartbeat IPC: 0.86286 cumulative IPC: 0.524227 (Simulation time: 2 hr 12 min 45 sec) 
Heartbeat CPU 0 instructions: 935000000 cycles: 2075794888 heartbeat IPC: 0.80077 cumulative IPC: 0.524601 (Simulation time: 2 hr 12 min 51 sec) 
Heartbeat CPU 0 instructions: 936000001 cycles: 2077572870 heartbeat IPC: 0.562436 cumulative IPC: 0.524674 (Simulation time: 2 hr 12 min 58 sec) 
Heartbeat CPU 0 instructions: 937000002 cycles: 2079667885 heartbeat IPC: 0.477324 cumulative IPC: 0.524567 (Simulation time: 2 hr 13 min 5 sec) 
Heartbeat CPU 0 instructions: 938000000 cycles: 2081006740 heartbeat IPC: 0.746905 cumulative IPC: 0.524887 (Simulation time: 2 hr 13 min 12 sec) 
Heartbeat CPU 0 instructions: 939000001 cycles: 2082338916 heartbeat IPC: 0.750652 cumulative IPC: 0.52521 (Simulation time: 2 hr 13 min 18 sec) 
Heartbeat CPU 0 instructions: 940000003 cycles: 2083830138 heartbeat IPC: 0.670592 cumulative IPC: 0.525442 (Simulation time: 2 hr 13 min 24 sec) 
Heartbeat CPU 0 instructions: 941000001 cycles: 2085262094 heartbeat IPC: 0.698344 cumulative IPC: 0.525707 (Simulation time: 2 hr 13 min 31 sec) 
Heartbeat CPU 0 instructions: 942000002 cycles: 2087750291 heartbeat IPC: 0.401898 cumulative IPC: 0.525378 (Simulation time: 2 hr 13 min 39 sec) 
Heartbeat CPU 0 instructions: 943000003 cycles: 2091430510 heartbeat IPC: 0.271723 cumulative IPC: 0.524386 (Simulation time: 2 hr 13 min 50 sec) 
Heartbeat CPU 0 instructions: 944000003 cycles: 2092987551 heartbeat IPC: 0.642244 cumulative IPC: 0.52458 (Simulation time: 2 hr 13 min 57 sec) 
Heartbeat CPU 0 instructions: 945000000 cycles: 2094211179 heartbeat IPC: 0.817239 cumulative IPC: 0.52496 (Simulation time: 2 hr 14 min 3 sec) 
Heartbeat CPU 0 instructions: 946000000 cycles: 2095468282 heartbeat IPC: 0.79548 cumulative IPC: 0.52532 (Simulation time: 2 hr 14 min 9 sec) 
Heartbeat CPU 0 instructions: 947000000 cycles: 2096955840 heartbeat IPC: 0.672243 cumulative IPC: 0.525551 (Simulation time: 2 hr 14 min 15 sec) 
Heartbeat CPU 0 instructions: 948000000 cycles: 2098885250 heartbeat IPC: 0.518293 cumulative IPC: 0.525537 (Simulation time: 2 hr 14 min 22 sec) 
Heartbeat CPU 0 instructions: 949000001 cycles: 2100427763 heartbeat IPC: 0.648293 cumulative IPC: 0.525736 (Simulation time: 2 hr 14 min 29 sec) 
Heartbeat CPU 0 instructions: 950000000 cycles: 2103682977 heartbeat IPC: 0.307199 cumulative IPC: 0.524989 (Simulation time: 2 hr 14 min 38 sec) 
Finished CPU 0 instructions: 500000000 cycles: 952400426 cumulative IPC: 0.524989 (Simulation time: 2 hr 14 min 38 sec) 

ChampSim completed all CPUs

Region of Interest Statistics

CPU 0 cumulative IPC: 0.524989 instructions: 500000000 cycles: 952400426
L1D TOTAL     ACCESS:  245419183  HIT:  232816076  MISS:   12603107
L1D LOAD      ACCESS:  105641838  HIT:   94181533  MISS:   11460305
L1D RFO       ACCESS:  139777345  HIT:  138634543  MISS:    1142802
L1D PREFETCH  ACCESS:          0  HIT:          0  MISS:          0
L1D WRITEBACK ACCESS:          0  HIT:          0  MISS:          0
L1D PREFETCH  REQUESTED:          0  ISSUED:          0  USEFUL:          0  USELESS:          0
L1D AVERAGE MISS LATENCY: 125.439 cycles
L1I TOTAL     ACCESS:  104160925  HIT:  104160925  MISS:          0
L1I LOAD      ACCESS:  104160925  HIT:  104160925  MISS:          0
L1I RFO       ACCESS:          0  HIT:          0  MISS:          0
L1I PREFETCH  ACCESS:          0  HIT:          0  MISS:          0
L1I WRITEBACK ACCESS:          0  HIT:          0  MISS:          0
L1I PREFETCH  REQUESTED:          0  ISSUED:          0  USEFUL:          0  USELESS:          0
L1I AVERAGE MISS LATENCY: -nan cycles
L2C TOTAL     ACCESS:   15576853  HIT:    3162640  MISS:   12414213
L2C LOAD      ACCESS:   11460124  HIT:     191128  MISS:   11268996
L2C RFO       ACCESS:    1142778  HIT:       7225  MISS:    1135553
L2C PREFETCH  ACCESS:          0  HIT:          0  MISS:          0
L2C WRITEBACK ACCESS:    2973951  HIT:    2964287  MISS:       9664
L2C PREFETCH  REQUESTED:          0  ISSUED:          0  USEFUL:          0  USELESS:          0
L2C AVERAGE MISS LATENCY: 111.356 cycles
LLC TOTAL     ACCESS:   19875015  HIT:    7478020  MISS:   12396995
LLC LOAD      ACCESS:   11268996  HIT:    4512195  MISS:    6756801
LLC RFO       ACCESS:    1135553  HIT:        250  MISS:    1135303
LLC PREFETCH  ACCESS:    4637749  HIT:     137998  MISS:    4499751
LLC WRITEBACK ACCESS:    2832717  HIT:    2827577  MISS:       5140
LLC PREFETCH  REQUESTED:    9039200  ISSUED:    9039200  USEFUL:    4493523  USELESS:       6198
LLC AVERAGE MISS LATENCY: 135.309 cycles
Major fault: 0 Minor fault: 224018
performance stats:
mapping cache size: 4385902
divergence: 2980088

DRAM Statistics
 CHANNEL 0
 RQ ROW_BUFFER_HIT:    4897048  ROW_BUFFER_MISS:    1305795
 DBUS_CONGESTED:    9177159
 WQ ROW_BUFFER_HIT:     991227  ROW_BUFFER_MISS:     421733  FULL:          0

 CHANNEL 1
 RQ ROW_BUFFER_HIT:    4880295  ROW_BUFFER_MISS:    1308697
 DBUS_CONGESTED:    9177159
 WQ ROW_BUFFER_HIT:     995479  ROW_BUFFER_MISS:     411376  FULL:          0

 AVG_CONGESTED_CYCLE: 17

CPU 0 Branch Prediction Accuracy: 99.1681% MPKI: 0.815588 Average ROB Occupancy at Mispredict: 282.563

Branch types
NOT_BRANCH: 450981411 90.1963%
BRANCH_DIRECT_JUMP: 2292060 0.458412%
BRANCH_INDIRECT: 0 0%
BRANCH_CONDITIONAL: 46725815 9.34516%
BRANCH_DIRECT_CALL: 214 4.28e-05%
BRANCH_INDIRECT_CALL: 0 0%
BRANCH_RETURN: 214 4.28e-05%
BRANCH_OTHER: 0 0%

