
*** ChampSim Multicore Out-of-Order Simulator ***

Warmup Instructions: 1000000
Prefetch Warmup Instructions: 450000000
Simulation Instructions: 500000000
Stat Printing Period: 1000000
Number of CPUs: 1
LLC sets: 2048
LLC ways: 16
Off-chip DRAM Size: 32768 MB Channels: 2 Width: 64-bit Data Rate: 1024 MT/s

CPU 0 runs /scratch/cluster/cmolder/ML-DPC/ChampSimTraces/spec17/605.mcf-s6.trace.xz
Read seed: 227
Heartbeat CPU 0 instructions: 1000001 cycles: 411331 heartbeat IPC: 2.43113 cumulative IPC: 2.43113 (Simulation time: 0 hr 0 min 6 sec) 

Warmup complete CPU 0 instructions: 1000001 cycles: 411331 (Simulation time: 0 hr 0 min 6 sec) 

Heartbeat CPU 0 instructions: 2000003 cycles: 2822439 heartbeat IPC: 0.414748 cumulative IPC: 0.414748 (Simulation time: 0 hr 0 min 12 sec) 
Heartbeat CPU 0 instructions: 3000000 cycles: 5232417 heartbeat IPC: 0.41494 cumulative IPC: 0.414844 (Simulation time: 0 hr 0 min 17 sec) 
Heartbeat CPU 0 instructions: 4000002 cycles: 7593955 heartbeat IPC: 0.423454 cumulative IPC: 0.417675 (Simulation time: 0 hr 0 min 23 sec) 
Heartbeat CPU 0 instructions: 5000000 cycles: 9937592 heartbeat IPC: 0.426686 cumulative IPC: 0.419892 (Simulation time: 0 hr 0 min 28 sec) 
Heartbeat CPU 0 instructions: 6000001 cycles: 12266736 heartbeat IPC: 0.429343 cumulative IPC: 0.421749 (Simulation time: 0 hr 0 min 34 sec) 
Heartbeat CPU 0 instructions: 7000001 cycles: 14847142 heartbeat IPC: 0.387536 cumulative IPC: 0.415633 (Simulation time: 0 hr 0 min 39 sec) 
Heartbeat CPU 0 instructions: 8000002 cycles: 17244739 heartbeat IPC: 0.417085 cumulative IPC: 0.41584 (Simulation time: 0 hr 0 min 44 sec) 
Heartbeat CPU 0 instructions: 9000000 cycles: 19642793 heartbeat IPC: 0.417004 cumulative IPC: 0.415985 (Simulation time: 0 hr 0 min 50 sec) 
Heartbeat CPU 0 instructions: 10000000 cycles: 22041797 heartbeat IPC: 0.41684 cumulative IPC: 0.41608 (Simulation time: 0 hr 0 min 55 sec) 
Heartbeat CPU 0 instructions: 11000000 cycles: 24421003 heartbeat IPC: 0.420308 cumulative IPC: 0.416499 (Simulation time: 0 hr 1 min 0 sec) 
Heartbeat CPU 0 instructions: 12000001 cycles: 26870014 heartbeat IPC: 0.408329 cumulative IPC: 0.415743 (Simulation time: 0 hr 1 min 5 sec) 
Heartbeat CPU 0 instructions: 13000002 cycles: 29232693 heartbeat IPC: 0.423249 cumulative IPC: 0.416358 (Simulation time: 0 hr 1 min 11 sec) 
Heartbeat CPU 0 instructions: 14000003 cycles: 31601738 heartbeat IPC: 0.422111 cumulative IPC: 0.416795 (Simulation time: 0 hr 1 min 15 sec) 
Heartbeat CPU 0 instructions: 15000001 cycles: 34094037 heartbeat IPC: 0.401235 cumulative IPC: 0.415644 (Simulation time: 0 hr 1 min 21 sec) 
Heartbeat CPU 0 instructions: 16000000 cycles: 36513504 heartbeat IPC: 0.413314 cumulative IPC: 0.415487 (Simulation time: 0 hr 1 min 26 sec) 
Heartbeat CPU 0 instructions: 17000003 cycles: 38900295 heartbeat IPC: 0.418974 cumulative IPC: 0.415704 (Simulation time: 0 hr 1 min 31 sec) 
Heartbeat CPU 0 instructions: 18000001 cycles: 41308290 heartbeat IPC: 0.415282 cumulative IPC: 0.415679 (Simulation time: 0 hr 1 min 36 sec) 
Heartbeat CPU 0 instructions: 19000000 cycles: 43722685 heartbeat IPC: 0.414182 cumulative IPC: 0.415595 (Simulation time: 0 hr 1 min 41 sec) 
Heartbeat CPU 0 instructions: 20000001 cycles: 45996757 heartbeat IPC: 0.43974 cumulative IPC: 0.4168 (Simulation time: 0 hr 1 min 45 sec) 
Heartbeat CPU 0 instructions: 21000000 cycles: 48042264 heartbeat IPC: 0.488876 cumulative IPC: 0.419895 (Simulation time: 0 hr 1 min 50 sec) 
Heartbeat CPU 0 instructions: 22000000 cycles: 50312029 heartbeat IPC: 0.440574 cumulative IPC: 0.420836 (Simulation time: 0 hr 1 min 55 sec) 
Heartbeat CPU 0 instructions: 23000000 cycles: 52682989 heartbeat IPC: 0.42177 cumulative IPC: 0.420878 (Simulation time: 0 hr 2 min 0 sec) 
Heartbeat CPU 0 instructions: 24000001 cycles: 55061614 heartbeat IPC: 0.420411 cumulative IPC: 0.420858 (Simulation time: 0 hr 2 min 5 sec) 
Heartbeat CPU 0 instructions: 25000001 cycles: 57448806 heartbeat IPC: 0.418902 cumulative IPC: 0.420776 (Simulation time: 0 hr 2 min 10 sec) 
Heartbeat CPU 0 instructions: 26000000 cycles: 59925999 heartbeat IPC: 0.403682 cumulative IPC: 0.420065 (Simulation time: 0 hr 2 min 15 sec) 
Heartbeat CPU 0 instructions: 27000000 cycles: 62325246 heartbeat IPC: 0.416797 cumulative IPC: 0.419938 (Simulation time: 0 hr 2 min 20 sec) 
Heartbeat CPU 0 instructions: 28000000 cycles: 64726461 heartbeat IPC: 0.416456 cumulative IPC: 0.419808 (Simulation time: 0 hr 2 min 25 sec) 
Heartbeat CPU 0 instructions: 29000002 cycles: 67115722 heartbeat IPC: 0.41854 cumulative IPC: 0.419762 (Simulation time: 0 hr 2 min 30 sec) 
Heartbeat CPU 0 instructions: 30000000 cycles: 69485083 heartbeat IPC: 0.422054 cumulative IPC: 0.419841 (Simulation time: 0 hr 2 min 35 sec) 
Heartbeat CPU 0 instructions: 31000003 cycles: 71926537 heartbeat IPC: 0.409593 cumulative IPC: 0.419491 (Simulation time: 0 hr 2 min 40 sec) 
Heartbeat CPU 0 instructions: 32000000 cycles: 74293902 heartbeat IPC: 0.422409 cumulative IPC: 0.419585 (Simulation time: 0 hr 2 min 45 sec) 
Heartbeat CPU 0 instructions: 33000000 cycles: 76662813 heartbeat IPC: 0.422135 cumulative IPC: 0.419664 (Simulation time: 0 hr 2 min 50 sec) 
Heartbeat CPU 0 instructions: 34000001 cycles: 79023334 heartbeat IPC: 0.423636 cumulative IPC: 0.419783 (Simulation time: 0 hr 2 min 55 sec) 
Heartbeat CPU 0 instructions: 35000001 cycles: 81379710 heartbeat IPC: 0.42438 cumulative IPC: 0.419917 (Simulation time: 0 hr 3 min 0 sec) 
Heartbeat CPU 0 instructions: 36000000 cycles: 83838844 heartbeat IPC: 0.406647 cumulative IPC: 0.419526 (Simulation time: 0 hr 3 min 5 sec) 
Heartbeat CPU 0 instructions: 37000000 cycles: 86201550 heartbeat IPC: 0.423244 cumulative IPC: 0.419628 (Simulation time: 0 hr 3 min 10 sec) 
Heartbeat CPU 0 instructions: 38000000 cycles: 88602327 heartbeat IPC: 0.416532 cumulative IPC: 0.419544 (Simulation time: 0 hr 3 min 15 sec) 
Heartbeat CPU 0 instructions: 39000000 cycles: 90953226 heartbeat IPC: 0.425369 cumulative IPC: 0.419695 (Simulation time: 0 hr 3 min 20 sec) 
Heartbeat CPU 0 instructions: 40000003 cycles: 93323428 heartbeat IPC: 0.421906 cumulative IPC: 0.419752 (Simulation time: 0 hr 3 min 25 sec) 
Heartbeat CPU 0 instructions: 41000003 cycles: 95693959 heartbeat IPC: 0.421846 cumulative IPC: 0.419804 (Simulation time: 0 hr 3 min 30 sec) 
Heartbeat CPU 0 instructions: 42000002 cycles: 98178121 heartbeat IPC: 0.40255 cumulative IPC: 0.419365 (Simulation time: 0 hr 3 min 36 sec) 
Heartbeat CPU 0 instructions: 43000003 cycles: 100578847 heartbeat IPC: 0.416541 cumulative IPC: 0.419298 (Simulation time: 0 hr 3 min 41 sec) 
Heartbeat CPU 0 instructions: 44000000 cycles: 102845899 heartbeat IPC: 0.4411 cumulative IPC: 0.41978 (Simulation time: 0 hr 3 min 46 sec) 
Heartbeat CPU 0 instructions: 45000000 cycles: 104922203 heartbeat IPC: 0.481625 cumulative IPC: 0.421009 (Simulation time: 0 hr 3 min 51 sec) 
Heartbeat CPU 0 instructions: 46000001 cycles: 107184266 heartbeat IPC: 0.442075 cumulative IPC: 0.421455 (Simulation time: 0 hr 3 min 56 sec) 
Heartbeat CPU 0 instructions: 47000003 cycles: 109570940 heartbeat IPC: 0.418994 cumulative IPC: 0.421401 (Simulation time: 0 hr 4 min 1 sec) 
Heartbeat CPU 0 instructions: 48000001 cycles: 111953976 heartbeat IPC: 0.419632 cumulative IPC: 0.421364 (Simulation time: 0 hr 4 min 6 sec) 
Heartbeat CPU 0 instructions: 49000002 cycles: 114348410 heartbeat IPC: 0.417636 cumulative IPC: 0.421285 (Simulation time: 0 hr 4 min 12 sec) 
Heartbeat CPU 0 instructions: 50000000 cycles: 116702018 heartbeat IPC: 0.424879 cumulative IPC: 0.421358 (Simulation time: 0 hr 4 min 17 sec) 
Heartbeat CPU 0 instructions: 51000001 cycles: 119083992 heartbeat IPC: 0.41982 cumulative IPC: 0.421327 (Simulation time: 0 hr 4 min 22 sec) 
Heartbeat CPU 0 instructions: 52000000 cycles: 121458155 heartbeat IPC: 0.421201 cumulative IPC: 0.421325 (Simulation time: 0 hr 4 min 27 sec) 
Heartbeat CPU 0 instructions: 53000000 cycles: 123845704 heartbeat IPC: 0.41884 cumulative IPC: 0.421276 (Simulation time: 0 hr 4 min 32 sec) 
Heartbeat CPU 0 instructions: 54000000 cycles: 126264643 heartbeat IPC: 0.413404 cumulative IPC: 0.421125 (Simulation time: 0 hr 4 min 37 sec) 
Heartbeat CPU 0 instructions: 55000000 cycles: 128746436 heartbeat IPC: 0.402934 cumulative IPC: 0.420773 (Simulation time: 0 hr 4 min 43 sec) 
Heartbeat CPU 0 instructions: 56000001 cycles: 131169245 heartbeat IPC: 0.412744 cumulative IPC: 0.420625 (Simulation time: 0 hr 4 min 48 sec) 
Heartbeat CPU 0 instructions: 57000001 cycles: 133549319 heartbeat IPC: 0.420155 cumulative IPC: 0.420616 (Simulation time: 0 hr 4 min 54 sec) 
Heartbeat CPU 0 instructions: 58000002 cycles: 136013588 heartbeat IPC: 0.4058 cumulative IPC: 0.420347 (Simulation time: 0 hr 4 min 59 sec) 
Heartbeat CPU 0 instructions: 59000002 cycles: 138364738 heartbeat IPC: 0.425324 cumulative IPC: 0.420432 (Simulation time: 0 hr 5 min 5 sec) 
Heartbeat CPU 0 instructions: 60000003 cycles: 140723412 heartbeat IPC: 0.423967 cumulative IPC: 0.420491 (Simulation time: 0 hr 5 min 10 sec) 
Heartbeat CPU 0 instructions: 61000000 cycles: 143233404 heartbeat IPC: 0.398406 cumulative IPC: 0.420103 (Simulation time: 0 hr 5 min 15 sec) 
Heartbeat CPU 0 instructions: 62000001 cycles: 145615869 heartbeat IPC: 0.419734 cumulative IPC: 0.420097 (Simulation time: 0 hr 5 min 20 sec) 
Heartbeat CPU 0 instructions: 63000001 cycles: 148009200 heartbeat IPC: 0.417828 cumulative IPC: 0.42006 (Simulation time: 0 hr 5 min 25 sec) 
Heartbeat CPU 0 instructions: 64000000 cycles: 150403554 heartbeat IPC: 0.417649 cumulative IPC: 0.420022 (Simulation time: 0 hr 5 min 30 sec) 
Heartbeat CPU 0 instructions: 65000000 cycles: 152832122 heartbeat IPC: 0.411765 cumulative IPC: 0.41989 (Simulation time: 0 hr 5 min 36 sec) 
Heartbeat CPU 0 instructions: 66000000 cycles: 155202695 heartbeat IPC: 0.421839 cumulative IPC: 0.41992 (Simulation time: 0 hr 5 min 41 sec) 
Heartbeat CPU 0 instructions: 67000003 cycles: 157311763 heartbeat IPC: 0.474145 cumulative IPC: 0.420649 (Simulation time: 0 hr 5 min 46 sec) 
Heartbeat CPU 0 instructions: 68000001 cycles: 159547713 heartbeat IPC: 0.447236 cumulative IPC: 0.421023 (Simulation time: 0 hr 5 min 51 sec) 
Heartbeat CPU 0 instructions: 69000000 cycles: 161871160 heartbeat IPC: 0.430395 cumulative IPC: 0.421157 (Simulation time: 0 hr 5 min 56 sec) 
Heartbeat CPU 0 instructions: 70000003 cycles: 164261900 heartbeat IPC: 0.418282 cumulative IPC: 0.421115 (Simulation time: 0 hr 6 min 1 sec) 
Heartbeat CPU 0 instructions: 71000000 cycles: 166604756 heartbeat IPC: 0.426828 cumulative IPC: 0.421196 (Simulation time: 0 hr 6 min 6 sec) 
Heartbeat CPU 0 instructions: 72000000 cycles: 169002842 heartbeat IPC: 0.416999 cumulative IPC: 0.421136 (Simulation time: 0 hr 6 min 12 sec) 
Heartbeat CPU 0 instructions: 73000002 cycles: 171362150 heartbeat IPC: 0.423854 cumulative IPC: 0.421174 (Simulation time: 0 hr 6 min 17 sec) 
Heartbeat CPU 0 instructions: 74000000 cycles: 173800535 heartbeat IPC: 0.410107 cumulative IPC: 0.421018 (Simulation time: 0 hr 6 min 22 sec) 
Heartbeat CPU 0 instructions: 75000000 cycles: 176203003 heartbeat IPC: 0.416239 cumulative IPC: 0.420953 (Simulation time: 0 hr 6 min 28 sec) 
Heartbeat CPU 0 instructions: 76000001 cycles: 178577975 heartbeat IPC: 0.421058 cumulative IPC: 0.420954 (Simulation time: 0 hr 6 min 33 sec) 
Heartbeat CPU 0 instructions: 77000000 cycles: 180959482 heartbeat IPC: 0.419902 cumulative IPC: 0.42094 (Simulation time: 0 hr 6 min 38 sec) 
Heartbeat CPU 0 instructions: 78000001 cycles: 183328142 heartbeat IPC: 0.42218 cumulative IPC: 0.420956 (Simulation time: 0 hr 6 min 43 sec) 
Heartbeat CPU 0 instructions: 79000002 cycles: 185694342 heartbeat IPC: 0.422619 cumulative IPC: 0.420978 (Simulation time: 0 hr 6 min 48 sec) 
Heartbeat CPU 0 instructions: 80000001 cycles: 188061335 heartbeat IPC: 0.422477 cumulative IPC: 0.420997 (Simulation time: 0 hr 6 min 53 sec) 
Heartbeat CPU 0 instructions: 81000000 cycles: 190442009 heartbeat IPC: 0.420049 cumulative IPC: 0.420985 (Simulation time: 0 hr 6 min 59 sec) 
Heartbeat CPU 0 instructions: 82000002 cycles: 192804913 heartbeat IPC: 0.423209 cumulative IPC: 0.421012 (Simulation time: 0 hr 7 min 4 sec) 
Heartbeat CPU 0 instructions: 83000003 cycles: 195194591 heartbeat IPC: 0.418467 cumulative IPC: 0.420981 (Simulation time: 0 hr 7 min 10 sec) 
Heartbeat CPU 0 instructions: 84000002 cycles: 197596887 heartbeat IPC: 0.416268 cumulative IPC: 0.420923 (Simulation time: 0 hr 7 min 16 sec) 
Heartbeat CPU 0 instructions: 85000000 cycles: 199973505 heartbeat IPC: 0.420765 cumulative IPC: 0.420921 (Simulation time: 0 hr 7 min 21 sec) 
Heartbeat CPU 0 instructions: 86000001 cycles: 202312538 heartbeat IPC: 0.427528 cumulative IPC: 0.420998 (Simulation time: 0 hr 7 min 26 sec) 
Heartbeat CPU 0 instructions: 87000003 cycles: 204596846 heartbeat IPC: 0.43777 cumulative IPC: 0.421186 (Simulation time: 0 hr 7 min 32 sec) 
Heartbeat CPU 0 instructions: 88000000 cycles: 206869520 heartbeat IPC: 0.440009 cumulative IPC: 0.421393 (Simulation time: 0 hr 7 min 36 sec) 
Heartbeat CPU 0 instructions: 89000000 cycles: 210110397 heartbeat IPC: 0.308558 cumulative IPC: 0.419649 (Simulation time: 0 hr 7 min 42 sec) 
Heartbeat CPU 0 instructions: 90000001 cycles: 212820378 heartbeat IPC: 0.369007 cumulative IPC: 0.419003 (Simulation time: 0 hr 7 min 47 sec) 
Heartbeat CPU 0 instructions: 91000000 cycles: 214689163 heartbeat IPC: 0.535106 cumulative IPC: 0.420015 (Simulation time: 0 hr 7 min 52 sec) 
Heartbeat CPU 0 instructions: 92000000 cycles: 217333592 heartbeat IPC: 0.378153 cumulative IPC: 0.419505 (Simulation time: 0 hr 7 min 58 sec) 
Heartbeat CPU 0 instructions: 93000001 cycles: 219288223 heartbeat IPC: 0.511606 cumulative IPC: 0.420328 (Simulation time: 0 hr 8 min 3 sec) 
Heartbeat CPU 0 instructions: 94000000 cycles: 221904683 heartbeat IPC: 0.382195 cumulative IPC: 0.419877 (Simulation time: 0 hr 8 min 9 sec) 
Heartbeat CPU 0 instructions: 95000003 cycles: 223815126 heartbeat IPC: 0.52344 cumulative IPC: 0.420763 (Simulation time: 0 hr 8 min 14 sec) 
Heartbeat CPU 0 instructions: 96000000 cycles: 226439274 heartbeat IPC: 0.381075 cumulative IPC: 0.420302 (Simulation time: 0 hr 8 min 20 sec) 
Heartbeat CPU 0 instructions: 97000001 cycles: 228336346 heartbeat IPC: 0.527129 cumulative IPC: 0.421191 (Simulation time: 0 hr 8 min 24 sec) 
Heartbeat CPU 0 instructions: 98000002 cycles: 230976455 heartbeat IPC: 0.378773 cumulative IPC: 0.420705 (Simulation time: 0 hr 8 min 30 sec) 
Heartbeat CPU 0 instructions: 99000000 cycles: 232870368 heartbeat IPC: 0.528006 cumulative IPC: 0.42158 (Simulation time: 0 hr 8 min 35 sec) 
Heartbeat CPU 0 instructions: 100000000 cycles: 235494911 heartbeat IPC: 0.381019 cumulative IPC: 0.421127 (Simulation time: 0 hr 8 min 40 sec) 
Heartbeat CPU 0 instructions: 101000002 cycles: 237392207 heartbeat IPC: 0.527067 cumulative IPC: 0.421975 (Simulation time: 0 hr 8 min 45 sec) 
Heartbeat CPU 0 instructions: 102000000 cycles: 240104738 heartbeat IPC: 0.368659 cumulative IPC: 0.421372 (Simulation time: 0 hr 8 min 50 sec) 
Heartbeat CPU 0 instructions: 103000003 cycles: 241971590 heartbeat IPC: 0.535663 cumulative IPC: 0.422255 (Simulation time: 0 hr 8 min 55 sec) 
Heartbeat CPU 0 instructions: 104000001 cycles: 244686281 heartbeat IPC: 0.368365 cumulative IPC: 0.421656 (Simulation time: 0 hr 9 min 0 sec) 
Heartbeat CPU 0 instructions: 105000000 cycles: 246555617 heartbeat IPC: 0.534949 cumulative IPC: 0.422516 (Simulation time: 0 hr 9 min 5 sec) 
Heartbeat CPU 0 instructions: 106000000 cycles: 249197187 heartbeat IPC: 0.378563 cumulative IPC: 0.42205 (Simulation time: 0 hr 9 min 10 sec) 
Heartbeat CPU 0 instructions: 107000001 cycles: 251098755 heartbeat IPC: 0.525882 cumulative IPC: 0.422837 (Simulation time: 0 hr 9 min 15 sec) 
Heartbeat CPU 0 instructions: 108000002 cycles: 253798093 heartbeat IPC: 0.370462 cumulative IPC: 0.422279 (Simulation time: 0 hr 9 min 20 sec) 
Heartbeat CPU 0 instructions: 109000002 cycles: 255709438 heartbeat IPC: 0.523192 cumulative IPC: 0.423035 (Simulation time: 0 hr 9 min 25 sec) 
Heartbeat CPU 0 instructions: 110000000 cycles: 258374084 heartbeat IPC: 0.375284 cumulative IPC: 0.422542 (Simulation time: 0 hr 9 min 30 sec) 
Heartbeat CPU 0 instructions: 111000000 cycles: 260287384 heartbeat IPC: 0.522657 cumulative IPC: 0.423279 (Simulation time: 0 hr 9 min 34 sec) 
Heartbeat CPU 0 instructions: 112000003 cycles: 262892192 heartbeat IPC: 0.383907 cumulative IPC: 0.422888 (Simulation time: 0 hr 9 min 40 sec) 
Heartbeat CPU 0 instructions: 113000000 cycles: 264776073 heartbeat IPC: 0.530818 cumulative IPC: 0.423657 (Simulation time: 0 hr 9 min 44 sec) 
Heartbeat CPU 0 instructions: 114000001 cycles: 267414918 heartbeat IPC: 0.378954 cumulative IPC: 0.423215 (Simulation time: 0 hr 9 min 50 sec) 
Heartbeat CPU 0 instructions: 115000002 cycles: 269288386 heartbeat IPC: 0.53377 cumulative IPC: 0.423986 (Simulation time: 0 hr 9 min 54 sec) 
Heartbeat CPU 0 instructions: 116000000 cycles: 271902429 heartbeat IPC: 0.382548 cumulative IPC: 0.423587 (Simulation time: 0 hr 10 min 0 sec) 
Heartbeat CPU 0 instructions: 117000001 cycles: 273801688 heartbeat IPC: 0.526522 cumulative IPC: 0.424302 (Simulation time: 0 hr 10 min 4 sec) 
Heartbeat CPU 0 instructions: 118000003 cycles: 276415978 heartbeat IPC: 0.382514 cumulative IPC: 0.423906 (Simulation time: 0 hr 10 min 10 sec) 
Heartbeat CPU 0 instructions: 119000000 cycles: 278293327 heartbeat IPC: 0.532664 cumulative IPC: 0.424641 (Simulation time: 0 hr 10 min 14 sec) 
Heartbeat CPU 0 instructions: 120000000 cycles: 280919479 heartbeat IPC: 0.380785 cumulative IPC: 0.42423 (Simulation time: 0 hr 10 min 19 sec) 
Heartbeat CPU 0 instructions: 121000000 cycles: 282802934 heartbeat IPC: 0.530939 cumulative IPC: 0.424942 (Simulation time: 0 hr 10 min 24 sec) 
Heartbeat CPU 0 instructions: 122000002 cycles: 285410760 heartbeat IPC: 0.383462 cumulative IPC: 0.424562 (Simulation time: 0 hr 10 min 30 sec) 
Heartbeat CPU 0 instructions: 123000000 cycles: 287301037 heartbeat IPC: 0.529022 cumulative IPC: 0.425251 (Simulation time: 0 hr 10 min 35 sec) 
Heartbeat CPU 0 instructions: 124000000 cycles: 289915939 heartbeat IPC: 0.382424 cumulative IPC: 0.424864 (Simulation time: 0 hr 10 min 40 sec) 
Heartbeat CPU 0 instructions: 125000000 cycles: 291824811 heartbeat IPC: 0.52387 cumulative IPC: 0.425512 (Simulation time: 0 hr 10 min 45 sec) 
Heartbeat CPU 0 instructions: 126000000 cycles: 294442078 heartbeat IPC: 0.382078 cumulative IPC: 0.425126 (Simulation time: 0 hr 10 min 51 sec) 
Heartbeat CPU 0 instructions: 127000000 cycles: 296405906 heartbeat IPC: 0.50921 cumulative IPC: 0.425683 (Simulation time: 0 hr 10 min 56 sec) 
Heartbeat CPU 0 instructions: 128000000 cycles: 298963924 heartbeat IPC: 0.390928 cumulative IPC: 0.425386 (Simulation time: 0 hr 11 min 2 sec) 
Heartbeat CPU 0 instructions: 129000000 cycles: 300981522 heartbeat IPC: 0.495639 cumulative IPC: 0.425857 (Simulation time: 0 hr 11 min 7 sec) 
Heartbeat CPU 0 instructions: 130000000 cycles: 303356344 heartbeat IPC: 0.421084 cumulative IPC: 0.42582 (Simulation time: 0 hr 11 min 12 sec) 
Heartbeat CPU 0 instructions: 131000000 cycles: 305513767 heartbeat IPC: 0.463516 cumulative IPC: 0.426086 (Simulation time: 0 hr 11 min 17 sec) 
Heartbeat CPU 0 instructions: 132000000 cycles: 307764302 heartbeat IPC: 0.444339 cumulative IPC: 0.42622 (Simulation time: 0 hr 11 min 22 sec) 
Heartbeat CPU 0 instructions: 133000001 cycles: 310058372 heartbeat IPC: 0.435907 cumulative IPC: 0.426292 (Simulation time: 0 hr 11 min 27 sec) 
Heartbeat CPU 0 instructions: 134000001 cycles: 312346499 heartbeat IPC: 0.437039 cumulative IPC: 0.426371 (Simulation time: 0 hr 11 min 32 sec) 
Heartbeat CPU 0 instructions: 135000003 cycles: 314609715 heartbeat IPC: 0.44185 cumulative IPC: 0.426482 (Simulation time: 0 hr 11 min 37 sec) 
Heartbeat CPU 0 instructions: 136000002 cycles: 316793998 heartbeat IPC: 0.457816 cumulative IPC: 0.426698 (Simulation time: 0 hr 11 min 42 sec) 
Heartbeat CPU 0 instructions: 137000001 cycles: 319075452 heartbeat IPC: 0.438317 cumulative IPC: 0.426782 (Simulation time: 0 hr 11 min 47 sec) 
Heartbeat CPU 0 instructions: 138000001 cycles: 321493330 heartbeat IPC: 0.413586 cumulative IPC: 0.426682 (Simulation time: 0 hr 11 min 53 sec) 
Heartbeat CPU 0 instructions: 139000000 cycles: 324140169 heartbeat IPC: 0.377809 cumulative IPC: 0.426283 (Simulation time: 0 hr 11 min 58 sec) 
Heartbeat CPU 0 instructions: 140000002 cycles: 326488318 heartbeat IPC: 0.425868 cumulative IPC: 0.42628 (Simulation time: 0 hr 12 min 3 sec) 
Heartbeat CPU 0 instructions: 141000000 cycles: 328926700 heartbeat IPC: 0.410107 cumulative IPC: 0.42616 (Simulation time: 0 hr 12 min 8 sec) 
Heartbeat CPU 0 instructions: 142000000 cycles: 330958853 heartbeat IPC: 0.492089 cumulative IPC: 0.426565 (Simulation time: 0 hr 12 min 13 sec) 
Heartbeat CPU 0 instructions: 143000000 cycles: 333550537 heartbeat IPC: 0.38585 cumulative IPC: 0.426248 (Simulation time: 0 hr 12 min 19 sec) 
Heartbeat CPU 0 instructions: 144000003 cycles: 335471453 heartbeat IPC: 0.520587 cumulative IPC: 0.426789 (Simulation time: 0 hr 12 min 23 sec) 
Heartbeat CPU 0 instructions: 145000001 cycles: 338243695 heartbeat IPC: 0.360718 cumulative IPC: 0.426247 (Simulation time: 0 hr 12 min 29 sec) 
Heartbeat CPU 0 instructions: 146000002 cycles: 340197358 heartbeat IPC: 0.51186 cumulative IPC: 0.426739 (Simulation time: 0 hr 12 min 34 sec) 
Heartbeat CPU 0 instructions: 147000003 cycles: 342853416 heartbeat IPC: 0.376498 cumulative IPC: 0.426349 (Simulation time: 0 hr 12 min 39 sec) 
Heartbeat CPU 0 instructions: 148000000 cycles: 344832647 heartbeat IPC: 0.505245 cumulative IPC: 0.426803 (Simulation time: 0 hr 12 min 44 sec) 
Heartbeat CPU 0 instructions: 149000000 cycles: 347522575 heartbeat IPC: 0.371757 cumulative IPC: 0.426376 (Simulation time: 0 hr 12 min 50 sec) 
Heartbeat CPU 0 instructions: 150000000 cycles: 349443720 heartbeat IPC: 0.520523 cumulative IPC: 0.426894 (Simulation time: 0 hr 12 min 54 sec) 
Heartbeat CPU 0 instructions: 151000000 cycles: 351725828 heartbeat IPC: 0.438191 cumulative IPC: 0.426968 (Simulation time: 0 hr 12 min 59 sec) 
Heartbeat CPU 0 instructions: 152000003 cycles: 354182927 heartbeat IPC: 0.406985 cumulative IPC: 0.426829 (Simulation time: 0 hr 13 min 4 sec) 
Heartbeat CPU 0 instructions: 153000000 cycles: 356094931 heartbeat IPC: 0.52301 cumulative IPC: 0.427346 (Simulation time: 0 hr 13 min 9 sec) 
Heartbeat CPU 0 instructions: 154000000 cycles: 358797291 heartbeat IPC: 0.370047 cumulative IPC: 0.426914 (Simulation time: 0 hr 13 min 14 sec) 
Heartbeat CPU 0 instructions: 155000000 cycles: 360807899 heartbeat IPC: 0.497362 cumulative IPC: 0.427307 (Simulation time: 0 hr 13 min 19 sec) 
Heartbeat CPU 0 instructions: 156000000 cycles: 363573605 heartbeat IPC: 0.361571 cumulative IPC: 0.426806 (Simulation time: 0 hr 13 min 24 sec) 
Heartbeat CPU 0 instructions: 157000001 cycles: 365507700 heartbeat IPC: 0.517038 cumulative IPC: 0.427284 (Simulation time: 0 hr 13 min 29 sec) 
Heartbeat CPU 0 instructions: 158000000 cycles: 367955183 heartbeat IPC: 0.408583 cumulative IPC: 0.42716 (Simulation time: 0 hr 13 min 34 sec) 
Heartbeat CPU 0 instructions: 159000000 cycles: 370139499 heartbeat IPC: 0.457809 cumulative IPC: 0.427341 (Simulation time: 0 hr 13 min 39 sec) 
Heartbeat CPU 0 instructions: 160000000 cycles: 372049113 heartbeat IPC: 0.523666 cumulative IPC: 0.427836 (Simulation time: 0 hr 13 min 44 sec) 
Heartbeat CPU 0 instructions: 161000001 cycles: 374835401 heartbeat IPC: 0.358901 cumulative IPC: 0.427323 (Simulation time: 0 hr 13 min 50 sec) 
Heartbeat CPU 0 instructions: 162000001 cycles: 376747712 heartbeat IPC: 0.522928 cumulative IPC: 0.427809 (Simulation time: 0 hr 13 min 54 sec) 
Heartbeat CPU 0 instructions: 163000000 cycles: 379418051 heartbeat IPC: 0.374484 cumulative IPC: 0.427433 (Simulation time: 0 hr 14 min 0 sec) 
Heartbeat CPU 0 instructions: 164000000 cycles: 381366932 heartbeat IPC: 0.513115 cumulative IPC: 0.427871 (Simulation time: 0 hr 14 min 5 sec) 
Heartbeat CPU 0 instructions: 165000000 cycles: 384060513 heartbeat IPC: 0.371253 cumulative IPC: 0.427474 (Simulation time: 0 hr 14 min 10 sec) 
Heartbeat CPU 0 instructions: 166000001 cycles: 386114314 heartbeat IPC: 0.486903 cumulative IPC: 0.42779 (Simulation time: 0 hr 14 min 15 sec) 
Heartbeat CPU 0 instructions: 167000002 cycles: 388128719 heartbeat IPC: 0.496425 cumulative IPC: 0.428147 (Simulation time: 0 hr 14 min 20 sec) 
Heartbeat CPU 0 instructions: 168000000 cycles: 390786292 heartbeat IPC: 0.376282 cumulative IPC: 0.427794 (Simulation time: 0 hr 14 min 25 sec) 
Heartbeat CPU 0 instructions: 169000003 cycles: 392709794 heartbeat IPC: 0.519887 cumulative IPC: 0.428245 (Simulation time: 0 hr 14 min 30 sec) 
Heartbeat CPU 0 instructions: 170000000 cycles: 395425260 heartbeat IPC: 0.36826 cumulative IPC: 0.427833 (Simulation time: 0 hr 14 min 35 sec) 
Heartbeat CPU 0 instructions: 171000001 cycles: 397361473 heartbeat IPC: 0.516473 cumulative IPC: 0.428265 (Simulation time: 0 hr 14 min 40 sec) 
Heartbeat CPU 0 instructions: 172000000 cycles: 400051211 heartbeat IPC: 0.371783 cumulative IPC: 0.427885 (Simulation time: 0 hr 14 min 45 sec) 
Heartbeat CPU 0 instructions: 173000001 cycles: 401968196 heartbeat IPC: 0.521653 cumulative IPC: 0.428333 (Simulation time: 0 hr 14 min 50 sec) 
Heartbeat CPU 0 instructions: 174000002 cycles: 404618977 heartbeat IPC: 0.377248 cumulative IPC: 0.427998 (Simulation time: 0 hr 14 min 55 sec) 
Heartbeat CPU 0 instructions: 175000003 cycles: 406547670 heartbeat IPC: 0.518486 cumulative IPC: 0.428428 (Simulation time: 0 hr 15 min 0 sec) 
Heartbeat CPU 0 instructions: 176000000 cycles: 409228995 heartbeat IPC: 0.372949 cumulative IPC: 0.428064 (Simulation time: 0 hr 15 min 5 sec) 
Heartbeat CPU 0 instructions: 177000001 cycles: 411155414 heartbeat IPC: 0.519098 cumulative IPC: 0.428491 (Simulation time: 0 hr 15 min 10 sec) 
Heartbeat CPU 0 instructions: 178000000 cycles: 413235415 heartbeat IPC: 0.480769 cumulative IPC: 0.428754 (Simulation time: 0 hr 15 min 15 sec) 
Heartbeat CPU 0 instructions: 179000001 cycles: 415765399 heartbeat IPC: 0.39526 cumulative IPC: 0.42855 (Simulation time: 0 hr 15 min 21 sec) 
Heartbeat CPU 0 instructions: 180000001 cycles: 417832683 heartbeat IPC: 0.483726 cumulative IPC: 0.428823 (Simulation time: 0 hr 15 min 26 sec) 
Heartbeat CPU 0 instructions: 181000000 cycles: 420428245 heartbeat IPC: 0.385273 cumulative IPC: 0.428554 (Simulation time: 0 hr 15 min 31 sec) 
Heartbeat CPU 0 instructions: 182000000 cycles: 422343072 heartbeat IPC: 0.52224 cumulative IPC: 0.428979 (Simulation time: 0 hr 15 min 36 sec) 
Heartbeat CPU 0 instructions: 183000000 cycles: 425037733 heartbeat IPC: 0.371104 cumulative IPC: 0.428612 (Simulation time: 0 hr 15 min 41 sec) 
Heartbeat CPU 0 instructions: 184000003 cycles: 426955469 heartbeat IPC: 0.52145 cumulative IPC: 0.429029 (Simulation time: 0 hr 15 min 46 sec) 
Heartbeat CPU 0 instructions: 185000001 cycles: 429616234 heartbeat IPC: 0.375831 cumulative IPC: 0.4287 (Simulation time: 0 hr 15 min 52 sec) 
Heartbeat CPU 0 instructions: 186000001 cycles: 431619192 heartbeat IPC: 0.499262 cumulative IPC: 0.429027 (Simulation time: 0 hr 15 min 56 sec) 
Heartbeat CPU 0 instructions: 187000000 cycles: 434175717 heartbeat IPC: 0.391156 cumulative IPC: 0.428804 (Simulation time: 0 hr 16 min 2 sec) 
Heartbeat CPU 0 instructions: 188000000 cycles: 436076406 heartbeat IPC: 0.526125 cumulative IPC: 0.429229 (Simulation time: 0 hr 16 min 6 sec) 
Heartbeat CPU 0 instructions: 189000002 cycles: 438726168 heartbeat IPC: 0.377393 cumulative IPC: 0.428915 (Simulation time: 0 hr 16 min 12 sec) 
Heartbeat CPU 0 instructions: 190000002 cycles: 440636975 heartbeat IPC: 0.523339 cumulative IPC: 0.429325 (Simulation time: 0 hr 16 min 17 sec) 
Heartbeat CPU 0 instructions: 191000002 cycles: 443323030 heartbeat IPC: 0.372293 cumulative IPC: 0.428979 (Simulation time: 0 hr 16 min 22 sec) 
Heartbeat CPU 0 instructions: 192000001 cycles: 445293276 heartbeat IPC: 0.50755 cumulative IPC: 0.429327 (Simulation time: 0 hr 16 min 27 sec) 
Heartbeat CPU 0 instructions: 193000000 cycles: 447953625 heartbeat IPC: 0.37589 cumulative IPC: 0.42901 (Simulation time: 0 hr 16 min 32 sec) 
Heartbeat CPU 0 instructions: 194000001 cycles: 449883930 heartbeat IPC: 0.518053 cumulative IPC: 0.429392 (Simulation time: 0 hr 16 min 37 sec) 
Heartbeat CPU 0 instructions: 195000001 cycles: 452511985 heartbeat IPC: 0.38051 cumulative IPC: 0.429108 (Simulation time: 0 hr 16 min 42 sec) 
Heartbeat CPU 0 instructions: 196000000 cycles: 454437643 heartbeat IPC: 0.519302 cumulative IPC: 0.429491 (Simulation time: 0 hr 16 min 47 sec) 
Heartbeat CPU 0 instructions: 197000002 cycles: 457150251 heartbeat IPC: 0.36865 cumulative IPC: 0.429129 (Simulation time: 0 hr 16 min 52 sec) 
Heartbeat CPU 0 instructions: 198000000 cycles: 459091312 heartbeat IPC: 0.515181 cumulative IPC: 0.429493 (Simulation time: 0 hr 16 min 56 sec) 
Heartbeat CPU 0 instructions: 199000000 cycles: 461774580 heartbeat IPC: 0.37268 cumulative IPC: 0.429163 (Simulation time: 0 hr 17 min 1 sec) 
Heartbeat CPU 0 instructions: 200000000 cycles: 463707137 heartbeat IPC: 0.517449 cumulative IPC: 0.429531 (Simulation time: 0 hr 17 min 6 sec) 
Heartbeat CPU 0 instructions: 201000003 cycles: 466046297 heartbeat IPC: 0.427505 cumulative IPC: 0.429521 (Simulation time: 0 hr 17 min 11 sec) 
Heartbeat CPU 0 instructions: 202000001 cycles: 468346028 heartbeat IPC: 0.434833 cumulative IPC: 0.429547 (Simulation time: 0 hr 17 min 16 sec) 
Heartbeat CPU 0 instructions: 203000001 cycles: 470360877 heartbeat IPC: 0.496315 cumulative IPC: 0.429833 (Simulation time: 0 hr 17 min 20 sec) 
Heartbeat CPU 0 instructions: 204000000 cycles: 472957882 heartbeat IPC: 0.385059 cumulative IPC: 0.429587 (Simulation time: 0 hr 17 min 26 sec) 
Heartbeat CPU 0 instructions: 205000000 cycles: 474913526 heartbeat IPC: 0.51134 cumulative IPC: 0.429924 (Simulation time: 0 hr 17 min 31 sec) 
Heartbeat CPU 0 instructions: 206000000 cycles: 477561259 heartbeat IPC: 0.377682 cumulative IPC: 0.429634 (Simulation time: 0 hr 17 min 36 sec) 
Heartbeat CPU 0 instructions: 207000003 cycles: 479443446 heartbeat IPC: 0.531298 cumulative IPC: 0.430034 (Simulation time: 0 hr 17 min 41 sec) 
Heartbeat CPU 0 instructions: 208000000 cycles: 482104945 heartbeat IPC: 0.375727 cumulative IPC: 0.429734 (Simulation time: 0 hr 17 min 46 sec) 
Heartbeat CPU 0 instructions: 209000000 cycles: 483992994 heartbeat IPC: 0.529647 cumulative IPC: 0.430124 (Simulation time: 0 hr 17 min 51 sec) 
Heartbeat CPU 0 instructions: 210000003 cycles: 486653546 heartbeat IPC: 0.375863 cumulative IPC: 0.429827 (Simulation time: 0 hr 17 min 56 sec) 
Heartbeat CPU 0 instructions: 211000000 cycles: 488544987 heartbeat IPC: 0.528696 cumulative IPC: 0.43021 (Simulation time: 0 hr 18 min 1 sec) 
Heartbeat CPU 0 instructions: 212000001 cycles: 491206977 heartbeat IPC: 0.375659 cumulative IPC: 0.429914 (Simulation time: 0 hr 18 min 7 sec) 
Heartbeat CPU 0 instructions: 213000002 cycles: 493157412 heartbeat IPC: 0.512707 cumulative IPC: 0.430242 (Simulation time: 0 hr 18 min 12 sec) 
Heartbeat CPU 0 instructions: 214000003 cycles: 495470050 heartbeat IPC: 0.432407 cumulative IPC: 0.430252 (Simulation time: 0 hr 18 min 17 sec) 
Heartbeat CPU 0 instructions: 215000002 cycles: 497687508 heartbeat IPC: 0.450966 cumulative IPC: 0.430344 (Simulation time: 0 hr 18 min 21 sec) 
Heartbeat CPU 0 instructions: 216000000 cycles: 499630912 heartbeat IPC: 0.51456 cumulative IPC: 0.430672 (Simulation time: 0 hr 18 min 27 sec) 
Heartbeat CPU 0 instructions: 217000000 cycles: 502366299 heartbeat IPC: 0.365579 cumulative IPC: 0.430317 (Simulation time: 0 hr 18 min 32 sec) 
Heartbeat CPU 0 instructions: 218000001 cycles: 504301134 heartbeat IPC: 0.51684 cumulative IPC: 0.43065 (Simulation time: 0 hr 18 min 37 sec) 
Heartbeat CPU 0 instructions: 219000000 cycles: 507000903 heartbeat IPC: 0.370402 cumulative IPC: 0.430329 (Simulation time: 0 hr 18 min 42 sec) 
Heartbeat CPU 0 instructions: 220000000 cycles: 508946718 heartbeat IPC: 0.513923 cumulative IPC: 0.430649 (Simulation time: 0 hr 18 min 47 sec) 
Heartbeat CPU 0 instructions: 221000001 cycles: 511575666 heartbeat IPC: 0.380381 cumulative IPC: 0.43039 (Simulation time: 0 hr 18 min 52 sec) 
Heartbeat CPU 0 instructions: 222000000 cycles: 513490059 heartbeat IPC: 0.522358 cumulative IPC: 0.430733 (Simulation time: 0 hr 18 min 57 sec) 
Heartbeat CPU 0 instructions: 223000001 cycles: 516121069 heartbeat IPC: 0.380083 cumulative IPC: 0.430475 (Simulation time: 0 hr 19 min 2 sec) 
Heartbeat CPU 0 instructions: 224000001 cycles: 518004636 heartbeat IPC: 0.530908 cumulative IPC: 0.43084 (Simulation time: 0 hr 19 min 7 sec) 
Heartbeat CPU 0 instructions: 225000000 cycles: 520736240 heartbeat IPC: 0.366085 cumulative IPC: 0.4305 (Simulation time: 0 hr 19 min 13 sec) 
Heartbeat CPU 0 instructions: 226000000 cycles: 523523812 heartbeat IPC: 0.358735 cumulative IPC: 0.430118 (Simulation time: 0 hr 19 min 18 sec) 
Heartbeat CPU 0 instructions: 227000003 cycles: 525482825 heartbeat IPC: 0.510463 cumulative IPC: 0.430418 (Simulation time: 0 hr 19 min 24 sec) 
Heartbeat CPU 0 instructions: 228000002 cycles: 528234911 heartbeat IPC: 0.36336 cumulative IPC: 0.430068 (Simulation time: 0 hr 19 min 29 sec) 
Heartbeat CPU 0 instructions: 229000001 cycles: 530195891 heartbeat IPC: 0.509949 cumulative IPC: 0.430364 (Simulation time: 0 hr 19 min 34 sec) 
Heartbeat CPU 0 instructions: 230000000 cycles: 532736480 heartbeat IPC: 0.393609 cumulative IPC: 0.430188 (Simulation time: 0 hr 19 min 40 sec) 
Heartbeat CPU 0 instructions: 231000000 cycles: 534857193 heartbeat IPC: 0.47154 cumulative IPC: 0.430352 (Simulation time: 0 hr 19 min 45 sec) 
Heartbeat CPU 0 instructions: 232000001 cycles: 536807191 heartbeat IPC: 0.512822 cumulative IPC: 0.430652 (Simulation time: 0 hr 19 min 50 sec) 
Heartbeat CPU 0 instructions: 233000001 cycles: 539549805 heartbeat IPC: 0.364616 cumulative IPC: 0.430316 (Simulation time: 0 hr 19 min 55 sec) 
Heartbeat CPU 0 instructions: 234000001 cycles: 541474894 heartbeat IPC: 0.519457 cumulative IPC: 0.430633 (Simulation time: 0 hr 20 min 0 sec) 
Heartbeat CPU 0 instructions: 235000003 cycles: 543429109 heartbeat IPC: 0.511715 cumulative IPC: 0.430925 (Simulation time: 0 hr 20 min 5 sec) 
Heartbeat CPU 0 instructions: 236000001 cycles: 546238489 heartbeat IPC: 0.35595 cumulative IPC: 0.430539 (Simulation time: 0 hr 20 min 10 sec) 
Heartbeat CPU 0 instructions: 237000001 cycles: 548202686 heartbeat IPC: 0.509114 cumulative IPC: 0.430821 (Simulation time: 0 hr 20 min 15 sec) 
Heartbeat CPU 0 instructions: 238000003 cycles: 550934824 heartbeat IPC: 0.366014 cumulative IPC: 0.430499 (Simulation time: 0 hr 20 min 21 sec) 
Heartbeat CPU 0 instructions: 239000001 cycles: 552900115 heartbeat IPC: 0.508829 cumulative IPC: 0.430778 (Simulation time: 0 hr 20 min 25 sec) 
Heartbeat CPU 0 instructions: 240000000 cycles: 554819316 heartbeat IPC: 0.52105 cumulative IPC: 0.43109 (Simulation time: 0 hr 20 min 30 sec) 
Heartbeat CPU 0 instructions: 241000000 cycles: 557565384 heartbeat IPC: 0.364157 cumulative IPC: 0.430761 (Simulation time: 0 hr 20 min 36 sec) 
Heartbeat CPU 0 instructions: 242000000 cycles: 559520963 heartbeat IPC: 0.511357 cumulative IPC: 0.431042 (Simulation time: 0 hr 20 min 41 sec) 
Heartbeat CPU 0 instructions: 243000002 cycles: 561693032 heartbeat IPC: 0.460391 cumulative IPC: 0.431156 (Simulation time: 0 hr 20 min 46 sec) 
Heartbeat CPU 0 instructions: 244000000 cycles: 564223253 heartbeat IPC: 0.395222 cumulative IPC: 0.430995 (Simulation time: 0 hr 20 min 51 sec) 
Heartbeat CPU 0 instructions: 245000001 cycles: 566161814 heartbeat IPC: 0.515847 cumulative IPC: 0.431286 (Simulation time: 0 hr 20 min 56 sec) 
Heartbeat CPU 0 instructions: 246000003 cycles: 568875107 heartbeat IPC: 0.368557 cumulative IPC: 0.430986 (Simulation time: 0 hr 21 min 2 sec) 
Heartbeat CPU 0 instructions: 247000000 cycles: 570841891 heartbeat IPC: 0.508443 cumulative IPC: 0.431253 (Simulation time: 0 hr 21 min 7 sec) 
Heartbeat CPU 0 instructions: 248000000 cycles: 572837456 heartbeat IPC: 0.501111 cumulative IPC: 0.431497 (Simulation time: 0 hr 21 min 12 sec) 
Heartbeat CPU 0 instructions: 249000001 cycles: 575536485 heartbeat IPC: 0.370504 cumulative IPC: 0.43121 (Simulation time: 0 hr 21 min 17 sec) 
Heartbeat CPU 0 instructions: 250000001 cycles: 577484009 heartbeat IPC: 0.513472 cumulative IPC: 0.431488 (Simulation time: 0 hr 21 min 22 sec) 
Heartbeat CPU 0 instructions: 251000003 cycles: 579704536 heartbeat IPC: 0.450344 cumulative IPC: 0.43156 (Simulation time: 0 hr 21 min 27 sec) 
Heartbeat CPU 0 instructions: 252000001 cycles: 582174595 heartbeat IPC: 0.404848 cumulative IPC: 0.431447 (Simulation time: 0 hr 21 min 33 sec) 
Heartbeat CPU 0 instructions: 253000000 cycles: 584109826 heartbeat IPC: 0.516734 cumulative IPC: 0.43173 (Simulation time: 0 hr 21 min 38 sec) 
Heartbeat CPU 0 instructions: 254000000 cycles: 586842165 heartbeat IPC: 0.365987 cumulative IPC: 0.431423 (Simulation time: 0 hr 21 min 43 sec) 
Heartbeat CPU 0 instructions: 255000000 cycles: 588801513 heartbeat IPC: 0.510374 cumulative IPC: 0.431686 (Simulation time: 0 hr 21 min 48 sec) 
Heartbeat CPU 0 instructions: 256000001 cycles: 590749999 heartbeat IPC: 0.513219 cumulative IPC: 0.431955 (Simulation time: 0 hr 21 min 53 sec) 
Heartbeat CPU 0 instructions: 257000001 cycles: 593513272 heartbeat IPC: 0.36189 cumulative IPC: 0.431629 (Simulation time: 0 hr 21 min 58 sec) 
Heartbeat CPU 0 instructions: 258000001 cycles: 595494047 heartbeat IPC: 0.504853 cumulative IPC: 0.431873 (Simulation time: 0 hr 22 min 3 sec) 
Heartbeat CPU 0 instructions: 259000000 cycles: 597893156 heartbeat IPC: 0.416821 cumulative IPC: 0.431812 (Simulation time: 0 hr 22 min 8 sec) 
Heartbeat CPU 0 instructions: 260000002 cycles: 600247816 heartbeat IPC: 0.424691 cumulative IPC: 0.431784 (Simulation time: 0 hr 22 min 13 sec) 
Heartbeat CPU 0 instructions: 261000002 cycles: 602189181 heartbeat IPC: 0.515101 cumulative IPC: 0.432053 (Simulation time: 0 hr 22 min 18 sec) 
Heartbeat CPU 0 instructions: 262000000 cycles: 604995250 heartbeat IPC: 0.35637 cumulative IPC: 0.431702 (Simulation time: 0 hr 22 min 23 sec) 
Heartbeat CPU 0 instructions: 263000003 cycles: 606940324 heartbeat IPC: 0.514121 cumulative IPC: 0.431966 (Simulation time: 0 hr 22 min 28 sec) 
Heartbeat CPU 0 instructions: 264000000 cycles: 609089822 heartbeat IPC: 0.465224 cumulative IPC: 0.432084 (Simulation time: 0 hr 22 min 33 sec) 
Heartbeat CPU 0 instructions: 265000000 cycles: 611607521 heartbeat IPC: 0.397188 cumulative IPC: 0.43194 (Simulation time: 0 hr 22 min 38 sec) 
Heartbeat CPU 0 instructions: 266000003 cycles: 613592773 heartbeat IPC: 0.503716 cumulative IPC: 0.432172 (Simulation time: 0 hr 22 min 43 sec) 
Heartbeat CPU 0 instructions: 267000000 cycles: 616327652 heartbeat IPC: 0.365646 cumulative IPC: 0.431877 (Simulation time: 0 hr 22 min 49 sec) 
Heartbeat CPU 0 instructions: 268000001 cycles: 618259829 heartbeat IPC: 0.517551 cumulative IPC: 0.432145 (Simulation time: 0 hr 22 min 53 sec) 
Heartbeat CPU 0 instructions: 269000000 cycles: 620191399 heartbeat IPC: 0.517713 cumulative IPC: 0.432411 (Simulation time: 0 hr 22 min 58 sec) 
Heartbeat CPU 0 instructions: 270000000 cycles: 622933086 heartbeat IPC: 0.364739 cumulative IPC: 0.432113 (Simulation time: 0 hr 23 min 3 sec) 
Heartbeat CPU 0 instructions: 271000000 cycles: 624899455 heartbeat IPC: 0.508552 cumulative IPC: 0.432354 (Simulation time: 0 hr 23 min 8 sec) 
Heartbeat CPU 0 instructions: 272000002 cycles: 627438751 heartbeat IPC: 0.393811 cumulative IPC: 0.432198 (Simulation time: 0 hr 23 min 13 sec) 
Heartbeat CPU 0 instructions: 273000001 cycles: 629576734 heartbeat IPC: 0.46773 cumulative IPC: 0.432319 (Simulation time: 0 hr 23 min 18 sec) 
Heartbeat CPU 0 instructions: 274000000 cycles: 631529153 heartbeat IPC: 0.512185 cumulative IPC: 0.432566 (Simulation time: 0 hr 23 min 22 sec) 
Heartbeat CPU 0 instructions: 275000000 cycles: 634293843 heartbeat IPC: 0.361704 cumulative IPC: 0.432257 (Simulation time: 0 hr 23 min 28 sec) 
Heartbeat CPU 0 instructions: 276000000 cycles: 636217241 heartbeat IPC: 0.519913 cumulative IPC: 0.432522 (Simulation time: 0 hr 23 min 32 sec) 
Heartbeat CPU 0 instructions: 277000001 cycles: 638316145 heartbeat IPC: 0.47644 cumulative IPC: 0.432666 (Simulation time: 0 hr 23 min 37 sec) 
Heartbeat CPU 0 instructions: 278000000 cycles: 640939232 heartbeat IPC: 0.38123 cumulative IPC: 0.432456 (Simulation time: 0 hr 23 min 42 sec) 
Heartbeat CPU 0 instructions: 279000003 cycles: 642881095 heartbeat IPC: 0.514971 cumulative IPC: 0.432705 (Simulation time: 0 hr 23 min 47 sec) 
Heartbeat CPU 0 instructions: 280000001 cycles: 645618839 heartbeat IPC: 0.365264 cumulative IPC: 0.432419 (Simulation time: 0 hr 23 min 52 sec) 
Heartbeat CPU 0 instructions: 281000001 cycles: 647589299 heartbeat IPC: 0.507496 cumulative IPC: 0.432648 (Simulation time: 0 hr 23 min 57 sec) 
Heartbeat CPU 0 instructions: 282000003 cycles: 649542854 heartbeat IPC: 0.511888 cumulative IPC: 0.432886 (Simulation time: 0 hr 24 min 2 sec) 
Heartbeat CPU 0 instructions: 283000001 cycles: 652297461 heartbeat IPC: 0.363027 cumulative IPC: 0.432591 (Simulation time: 0 hr 24 min 7 sec) 
Heartbeat CPU 0 instructions: 284000000 cycles: 654267498 heartbeat IPC: 0.507604 cumulative IPC: 0.432817 (Simulation time: 0 hr 24 min 12 sec) 
Heartbeat CPU 0 instructions: 285000002 cycles: 656452556 heartbeat IPC: 0.457655 cumulative IPC: 0.4329 (Simulation time: 0 hr 24 min 17 sec) 
Heartbeat CPU 0 instructions: 286000000 cycles: 658975718 heartbeat IPC: 0.396327 cumulative IPC: 0.432759 (Simulation time: 0 hr 24 min 22 sec) 
Heartbeat CPU 0 instructions: 287000003 cycles: 660942615 heartbeat IPC: 0.508417 cumulative IPC: 0.432985 (Simulation time: 0 hr 24 min 27 sec) 
Heartbeat CPU 0 instructions: 288000000 cycles: 663592235 heartbeat IPC: 0.377411 cumulative IPC: 0.432763 (Simulation time: 0 hr 24 min 32 sec) 
Heartbeat CPU 0 instructions: 289000002 cycles: 665691407 heartbeat IPC: 0.476379 cumulative IPC: 0.4329 (Simulation time: 0 hr 24 min 37 sec) 
Heartbeat CPU 0 instructions: 290000001 cycles: 667633500 heartbeat IPC: 0.514908 cumulative IPC: 0.433139 (Simulation time: 0 hr 24 min 41 sec) 
Heartbeat CPU 0 instructions: 291000000 cycles: 670398699 heartbeat IPC: 0.361637 cumulative IPC: 0.432844 (Simulation time: 0 hr 24 min 47 sec) 
Heartbeat CPU 0 instructions: 292000001 cycles: 672317594 heartbeat IPC: 0.521134 cumulative IPC: 0.433096 (Simulation time: 0 hr 24 min 51 sec) 
Heartbeat CPU 0 instructions: 293000000 cycles: 675130335 heartbeat IPC: 0.355525 cumulative IPC: 0.432773 (Simulation time: 0 hr 24 min 57 sec) 
Heartbeat CPU 0 instructions: 294000001 cycles: 677458522 heartbeat IPC: 0.429519 cumulative IPC: 0.432762 (Simulation time: 0 hr 25 min 2 sec) 
Heartbeat CPU 0 instructions: 295000001 cycles: 679742340 heartbeat IPC: 0.437863 cumulative IPC: 0.432779 (Simulation time: 0 hr 25 min 7 sec) 
Heartbeat CPU 0 instructions: 296000001 cycles: 681634816 heartbeat IPC: 0.528408 cumulative IPC: 0.433044 (Simulation time: 0 hr 25 min 11 sec) 
Heartbeat CPU 0 instructions: 297000000 cycles: 683518399 heartbeat IPC: 0.530903 cumulative IPC: 0.433314 (Simulation time: 0 hr 25 min 16 sec) 
Heartbeat CPU 0 instructions: 298000003 cycles: 685559686 heartbeat IPC: 0.489888 cumulative IPC: 0.433483 (Simulation time: 0 hr 25 min 21 sec) 
Heartbeat CPU 0 instructions: 299000001 cycles: 688077790 heartbeat IPC: 0.397123 cumulative IPC: 0.43335 (Simulation time: 0 hr 25 min 26 sec) 
Heartbeat CPU 0 instructions: 300000000 cycles: 689976248 heartbeat IPC: 0.526743 cumulative IPC: 0.433607 (Simulation time: 0 hr 25 min 31 sec) 
Heartbeat CPU 0 instructions: 301000001 cycles: 691888563 heartbeat IPC: 0.522927 cumulative IPC: 0.433854 (Simulation time: 0 hr 25 min 36 sec) 
Heartbeat CPU 0 instructions: 302000000 cycles: 693804451 heartbeat IPC: 0.521951 cumulative IPC: 0.434097 (Simulation time: 0 hr 25 min 41 sec) 
Heartbeat CPU 0 instructions: 303000000 cycles: 696473938 heartbeat IPC: 0.374604 cumulative IPC: 0.433869 (Simulation time: 0 hr 25 min 46 sec) 
Heartbeat CPU 0 instructions: 304000000 cycles: 698348613 heartbeat IPC: 0.533426 cumulative IPC: 0.434136 (Simulation time: 0 hr 25 min 51 sec) 
Heartbeat CPU 0 instructions: 305000000 cycles: 700256718 heartbeat IPC: 0.52408 cumulative IPC: 0.434382 (Simulation time: 0 hr 25 min 56 sec) 
Heartbeat CPU 0 instructions: 306000002 cycles: 702190175 heartbeat IPC: 0.517209 cumulative IPC: 0.43461 (Simulation time: 0 hr 26 min 1 sec) 
Heartbeat CPU 0 instructions: 307000000 cycles: 704675161 heartbeat IPC: 0.402416 cumulative IPC: 0.434496 (Simulation time: 0 hr 26 min 6 sec) 
Heartbeat CPU 0 instructions: 308000000 cycles: 706733321 heartbeat IPC: 0.485871 cumulative IPC: 0.434646 (Simulation time: 0 hr 26 min 11 sec) 
Heartbeat CPU 0 instructions: 309000000 cycles: 708631492 heartbeat IPC: 0.526823 cumulative IPC: 0.434893 (Simulation time: 0 hr 26 min 16 sec) 
Heartbeat CPU 0 instructions: 310000002 cycles: 710537380 heartbeat IPC: 0.524691 cumulative IPC: 0.435134 (Simulation time: 0 hr 26 min 21 sec) 
Heartbeat CPU 0 instructions: 311000002 cycles: 712614692 heartbeat IPC: 0.481391 cumulative IPC: 0.435269 (Simulation time: 0 hr 26 min 26 sec) 
Heartbeat CPU 0 instructions: 312000001 cycles: 715291695 heartbeat IPC: 0.373552 cumulative IPC: 0.435038 (Simulation time: 0 hr 26 min 32 sec) 
Heartbeat CPU 0 instructions: 313000002 cycles: 717216906 heartbeat IPC: 0.519424 cumulative IPC: 0.435264 (Simulation time: 0 hr 26 min 37 sec) 
Heartbeat CPU 0 instructions: 314000002 cycles: 719158356 heartbeat IPC: 0.515079 cumulative IPC: 0.43548 (Simulation time: 0 hr 26 min 42 sec) 
Heartbeat CPU 0 instructions: 315000002 cycles: 721801927 heartbeat IPC: 0.378276 cumulative IPC: 0.43527 (Simulation time: 0 hr 26 min 48 sec) 
Heartbeat CPU 0 instructions: 316000001 cycles: 723766189 heartbeat IPC: 0.509097 cumulative IPC: 0.435471 (Simulation time: 0 hr 26 min 53 sec) 
Heartbeat CPU 0 instructions: 317000000 cycles: 725655387 heartbeat IPC: 0.529325 cumulative IPC: 0.435715 (Simulation time: 0 hr 26 min 58 sec) 
Heartbeat CPU 0 instructions: 318000002 cycles: 727582225 heartbeat IPC: 0.518986 cumulative IPC: 0.435936 (Simulation time: 0 hr 27 min 2 sec) 
Heartbeat CPU 0 instructions: 319000000 cycles: 730219605 heartbeat IPC: 0.379163 cumulative IPC: 0.435731 (Simulation time: 0 hr 27 min 8 sec) 
Heartbeat CPU 0 instructions: 320000001 cycles: 732134565 heartbeat IPC: 0.522205 cumulative IPC: 0.435957 (Simulation time: 0 hr 27 min 12 sec) 
Heartbeat CPU 0 instructions: 321000003 cycles: 734055809 heartbeat IPC: 0.520497 cumulative IPC: 0.436179 (Simulation time: 0 hr 27 min 17 sec) 
Heartbeat CPU 0 instructions: 322000000 cycles: 736724762 heartbeat IPC: 0.374678 cumulative IPC: 0.435956 (Simulation time: 0 hr 27 min 22 sec) 
Heartbeat CPU 0 instructions: 323000001 cycles: 738600071 heartbeat IPC: 0.533246 cumulative IPC: 0.436203 (Simulation time: 0 hr 27 min 27 sec) 
Heartbeat CPU 0 instructions: 324000000 cycles: 740501244 heartbeat IPC: 0.525991 cumulative IPC: 0.436433 (Simulation time: 0 hr 27 min 32 sec) 
Heartbeat CPU 0 instructions: 325000000 cycles: 742468701 heartbeat IPC: 0.50827 cumulative IPC: 0.436624 (Simulation time: 0 hr 27 min 37 sec) 
Heartbeat CPU 0 instructions: 326000000 cycles: 745019411 heartbeat IPC: 0.392048 cumulative IPC: 0.436471 (Simulation time: 0 hr 27 min 42 sec) 
Heartbeat CPU 0 instructions: 327000001 cycles: 746909346 heartbeat IPC: 0.529119 cumulative IPC: 0.436706 (Simulation time: 0 hr 27 min 46 sec) 
Heartbeat CPU 0 instructions: 328000003 cycles: 748827523 heartbeat IPC: 0.521329 cumulative IPC: 0.436923 (Simulation time: 0 hr 27 min 51 sec) 
Heartbeat CPU 0 instructions: 329000001 cycles: 751453014 heartbeat IPC: 0.38088 cumulative IPC: 0.436727 (Simulation time: 0 hr 27 min 56 sec) 
Heartbeat CPU 0 instructions: 330000000 cycles: 753404156 heartbeat IPC: 0.51252 cumulative IPC: 0.436923 (Simulation time: 0 hr 28 min 1 sec) 
Heartbeat CPU 0 instructions: 331000001 cycles: 755276854 heartbeat IPC: 0.533989 cumulative IPC: 0.437164 (Simulation time: 0 hr 28 min 6 sec) 
Heartbeat CPU 0 instructions: 332000002 cycles: 757161049 heartbeat IPC: 0.530731 cumulative IPC: 0.437397 (Simulation time: 0 hr 28 min 10 sec) 
Heartbeat CPU 0 instructions: 333000000 cycles: 759787078 heartbeat IPC: 0.380802 cumulative IPC: 0.437201 (Simulation time: 0 hr 28 min 16 sec) 
Heartbeat CPU 0 instructions: 334000002 cycles: 761690960 heartbeat IPC: 0.525244 cumulative IPC: 0.437421 (Simulation time: 0 hr 28 min 20 sec) 
Heartbeat CPU 0 instructions: 335000001 cycles: 763615568 heartbeat IPC: 0.519586 cumulative IPC: 0.437629 (Simulation time: 0 hr 28 min 25 sec) 
Heartbeat CPU 0 instructions: 336000001 cycles: 765945758 heartbeat IPC: 0.42915 cumulative IPC: 0.437603 (Simulation time: 0 hr 28 min 30 sec) 
Heartbeat CPU 0 instructions: 337000002 cycles: 768147495 heartbeat IPC: 0.454187 cumulative IPC: 0.43765 (Simulation time: 0 hr 28 min 35 sec) 
Heartbeat CPU 0 instructions: 338000000 cycles: 770038985 heartbeat IPC: 0.528683 cumulative IPC: 0.437874 (Simulation time: 0 hr 28 min 40 sec) 
Heartbeat CPU 0 instructions: 339000002 cycles: 771945651 heartbeat IPC: 0.524477 cumulative IPC: 0.438088 (Simulation time: 0 hr 28 min 45 sec) 
Heartbeat CPU 0 instructions: 340000003 cycles: 774597534 heartbeat IPC: 0.377091 cumulative IPC: 0.437879 (Simulation time: 0 hr 28 min 50 sec) 
Heartbeat CPU 0 instructions: 341000000 cycles: 776465412 heartbeat IPC: 0.535365 cumulative IPC: 0.438114 (Simulation time: 0 hr 28 min 55 sec) 
Heartbeat CPU 0 instructions: 342000003 cycles: 778385531 heartbeat IPC: 0.520803 cumulative IPC: 0.438318 (Simulation time: 0 hr 28 min 59 sec) 
Heartbeat CPU 0 instructions: 343000003 cycles: 780635891 heartbeat IPC: 0.444373 cumulative IPC: 0.438335 (Simulation time: 0 hr 29 min 4 sec) 
Heartbeat CPU 0 instructions: 344000001 cycles: 782909752 heartbeat IPC: 0.43978 cumulative IPC: 0.43834 (Simulation time: 0 hr 29 min 9 sec) 
Heartbeat CPU 0 instructions: 345000001 cycles: 784784182 heartbeat IPC: 0.533496 cumulative IPC: 0.438567 (Simulation time: 0 hr 29 min 14 sec) 
Heartbeat CPU 0 instructions: 346000000 cycles: 786698740 heartbeat IPC: 0.522313 cumulative IPC: 0.438771 (Simulation time: 0 hr 29 min 19 sec) 
Heartbeat CPU 0 instructions: 347000001 cycles: 789364700 heartbeat IPC: 0.3751 cumulative IPC: 0.438556 (Simulation time: 0 hr 29 min 24 sec) 
Heartbeat CPU 0 instructions: 348000000 cycles: 791244492 heartbeat IPC: 0.531973 cumulative IPC: 0.438778 (Simulation time: 0 hr 29 min 29 sec) 
Heartbeat CPU 0 instructions: 349000002 cycles: 793133960 heartbeat IPC: 0.529251 cumulative IPC: 0.438993 (Simulation time: 0 hr 29 min 34 sec) 
Heartbeat CPU 0 instructions: 350000002 cycles: 795761350 heartbeat IPC: 0.380606 cumulative IPC: 0.438801 (Simulation time: 0 hr 29 min 39 sec) 
Heartbeat CPU 0 instructions: 351000000 cycles: 797649135 heartbeat IPC: 0.52972 cumulative IPC: 0.439016 (Simulation time: 0 hr 29 min 44 sec) 
Heartbeat CPU 0 instructions: 352000000 cycles: 799520774 heartbeat IPC: 0.534291 cumulative IPC: 0.439239 (Simulation time: 0 hr 29 min 48 sec) 
Heartbeat CPU 0 instructions: 353000000 cycles: 801476788 heartbeat IPC: 0.511244 cumulative IPC: 0.439415 (Simulation time: 0 hr 29 min 53 sec) 
Heartbeat CPU 0 instructions: 354000000 cycles: 804039567 heartbeat IPC: 0.390201 cumulative IPC: 0.439258 (Simulation time: 0 hr 29 min 59 sec) 
Heartbeat CPU 0 instructions: 355000000 cycles: 805915811 heartbeat IPC: 0.53298 cumulative IPC: 0.439476 (Simulation time: 0 hr 30 min 4 sec) 
Heartbeat CPU 0 instructions: 356000002 cycles: 807841836 heartbeat IPC: 0.519205 cumulative IPC: 0.439666 (Simulation time: 0 hr 30 min 8 sec) 
Heartbeat CPU 0 instructions: 357000000 cycles: 810498891 heartbeat IPC: 0.376356 cumulative IPC: 0.439459 (Simulation time: 0 hr 30 min 14 sec) 
Heartbeat CPU 0 instructions: 358000000 cycles: 812377540 heartbeat IPC: 0.532297 cumulative IPC: 0.439673 (Simulation time: 0 hr 30 min 18 sec) 
Heartbeat CPU 0 instructions: 359000000 cycles: 814296837 heartbeat IPC: 0.521024 cumulative IPC: 0.439865 (Simulation time: 0 hr 30 min 23 sec) 
Heartbeat CPU 0 instructions: 360000001 cycles: 816575023 heartbeat IPC: 0.438946 cumulative IPC: 0.439863 (Simulation time: 0 hr 30 min 28 sec) 
Heartbeat CPU 0 instructions: 361000001 cycles: 818826436 heartbeat IPC: 0.444165 cumulative IPC: 0.439875 (Simulation time: 0 hr 30 min 33 sec) 
Heartbeat CPU 0 instructions: 362000000 cycles: 820734727 heartbeat IPC: 0.524029 cumulative IPC: 0.44007 (Simulation time: 0 hr 30 min 38 sec) 
Heartbeat CPU 0 instructions: 363000000 cycles: 822643151 heartbeat IPC: 0.523993 cumulative IPC: 0.440265 (Simulation time: 0 hr 30 min 43 sec) 
Heartbeat CPU 0 instructions: 364000001 cycles: 825318917 heartbeat IPC: 0.373725 cumulative IPC: 0.440049 (Simulation time: 0 hr 30 min 48 sec) 
Heartbeat CPU 0 instructions: 365000002 cycles: 827204949 heartbeat IPC: 0.530214 cumulative IPC: 0.440255 (Simulation time: 0 hr 30 min 53 sec) 
Heartbeat CPU 0 instructions: 366000002 cycles: 829112944 heartbeat IPC: 0.52411 cumulative IPC: 0.440448 (Simulation time: 0 hr 30 min 57 sec) 
Heartbeat CPU 0 instructions: 367000000 cycles: 831384800 heartbeat IPC: 0.440168 cumulative IPC: 0.440447 (Simulation time: 0 hr 31 min 2 sec) 
Heartbeat CPU 0 instructions: 368000003 cycles: 833674145 heartbeat IPC: 0.436807 cumulative IPC: 0.440437 (Simulation time: 0 hr 31 min 7 sec) 
Heartbeat CPU 0 instructions: 369000003 cycles: 835563581 heartbeat IPC: 0.529258 cumulative IPC: 0.440638 (Simulation time: 0 hr 31 min 12 sec) 
Heartbeat CPU 0 instructions: 370000002 cycles: 837480707 heartbeat IPC: 0.521614 cumulative IPC: 0.440824 (Simulation time: 0 hr 31 min 17 sec) 
Heartbeat CPU 0 instructions: 371000003 cycles: 840122703 heartbeat IPC: 0.378502 cumulative IPC: 0.440628 (Simulation time: 0 hr 31 min 22 sec) 
Heartbeat CPU 0 instructions: 372000000 cycles: 842023292 heartbeat IPC: 0.526151 cumulative IPC: 0.440821 (Simulation time: 0 hr 31 min 26 sec) 
Heartbeat CPU 0 instructions: 373000000 cycles: 843933042 heartbeat IPC: 0.523629 cumulative IPC: 0.441008 (Simulation time: 0 hr 31 min 31 sec) 
Heartbeat CPU 0 instructions: 374000000 cycles: 846055164 heartbeat IPC: 0.471226 cumulative IPC: 0.441084 (Simulation time: 0 hr 31 min 36 sec) 
Heartbeat CPU 0 instructions: 375000000 cycles: 848457412 heartbeat IPC: 0.416277 cumulative IPC: 0.441014 (Simulation time: 0 hr 31 min 41 sec) 
Heartbeat CPU 0 instructions: 376000000 cycles: 850349208 heartbeat IPC: 0.528598 cumulative IPC: 0.441209 (Simulation time: 0 hr 31 min 46 sec) 
Heartbeat CPU 0 instructions: 377000003 cycles: 852256204 heartbeat IPC: 0.524387 cumulative IPC: 0.441395 (Simulation time: 0 hr 31 min 50 sec) 
Heartbeat CPU 0 instructions: 378000002 cycles: 854898053 heartbeat IPC: 0.378522 cumulative IPC: 0.441201 (Simulation time: 0 hr 31 min 56 sec) 
Heartbeat CPU 0 instructions: 379000001 cycles: 856809767 heartbeat IPC: 0.52309 cumulative IPC: 0.441383 (Simulation time: 0 hr 32 min 1 sec) 
Heartbeat CPU 0 instructions: 380000000 cycles: 858715762 heartbeat IPC: 0.52466 cumulative IPC: 0.441568 (Simulation time: 0 hr 32 min 6 sec) 
Heartbeat CPU 0 instructions: 381000001 cycles: 860853854 heartbeat IPC: 0.467707 cumulative IPC: 0.441633 (Simulation time: 0 hr 32 min 11 sec) 
Heartbeat CPU 0 instructions: 382000000 cycles: 863276414 heartbeat IPC: 0.412786 cumulative IPC: 0.441552 (Simulation time: 0 hr 32 min 16 sec) 
Heartbeat CPU 0 instructions: 383000002 cycles: 865187593 heartbeat IPC: 0.523238 cumulative IPC: 0.441733 (Simulation time: 0 hr 32 min 20 sec) 
Heartbeat CPU 0 instructions: 384000002 cycles: 867080619 heartbeat IPC: 0.528255 cumulative IPC: 0.441922 (Simulation time: 0 hr 32 min 25 sec) 
Heartbeat CPU 0 instructions: 385000000 cycles: 869729395 heartbeat IPC: 0.377532 cumulative IPC: 0.441726 (Simulation time: 0 hr 32 min 30 sec) 
Heartbeat CPU 0 instructions: 386000000 cycles: 871608402 heartbeat IPC: 0.532196 cumulative IPC: 0.441921 (Simulation time: 0 hr 32 min 34 sec) 
Heartbeat CPU 0 instructions: 387000000 cycles: 873513715 heartbeat IPC: 0.524848 cumulative IPC: 0.442102 (Simulation time: 0 hr 32 min 39 sec) 
Heartbeat CPU 0 instructions: 388000002 cycles: 875405092 heartbeat IPC: 0.528716 cumulative IPC: 0.442289 (Simulation time: 0 hr 32 min 44 sec) 
Heartbeat CPU 0 instructions: 389000002 cycles: 878031747 heartbeat IPC: 0.380712 cumulative IPC: 0.442105 (Simulation time: 0 hr 32 min 49 sec) 
Heartbeat CPU 0 instructions: 390000000 cycles: 879921519 heartbeat IPC: 0.529163 cumulative IPC: 0.442292 (Simulation time: 0 hr 32 min 54 sec) 
Heartbeat CPU 0 instructions: 391000000 cycles: 881844994 heartbeat IPC: 0.519892 cumulative IPC: 0.442461 (Simulation time: 0 hr 32 min 59 sec) 
Heartbeat CPU 0 instructions: 392000000 cycles: 884514919 heartbeat IPC: 0.374542 cumulative IPC: 0.442256 (Simulation time: 0 hr 33 min 4 sec) 
Heartbeat CPU 0 instructions: 393000000 cycles: 886398840 heartbeat IPC: 0.530808 cumulative IPC: 0.442444 (Simulation time: 0 hr 33 min 9 sec) 
Heartbeat CPU 0 instructions: 394000001 cycles: 888261661 heartbeat IPC: 0.536821 cumulative IPC: 0.442642 (Simulation time: 0 hr 33 min 14 sec) 
Heartbeat CPU 0 instructions: 395000003 cycles: 890529563 heartbeat IPC: 0.440937 cumulative IPC: 0.442638 (Simulation time: 0 hr 33 min 20 sec) 
Heartbeat CPU 0 instructions: 396000000 cycles: 892776363 heartbeat IPC: 0.445076 cumulative IPC: 0.442644 (Simulation time: 0 hr 33 min 25 sec) 
Heartbeat CPU 0 instructions: 397000002 cycles: 894659901 heartbeat IPC: 0.530917 cumulative IPC: 0.44283 (Simulation time: 0 hr 33 min 29 sec) 
Heartbeat CPU 0 instructions: 398000002 cycles: 896539086 heartbeat IPC: 0.532146 cumulative IPC: 0.443017 (Simulation time: 0 hr 33 min 34 sec) 
Heartbeat CPU 0 instructions: 399000000 cycles: 899150003 heartbeat IPC: 0.383006 cumulative IPC: 0.442843 (Simulation time: 0 hr 33 min 40 sec) 
Heartbeat CPU 0 instructions: 400000002 cycles: 901059824 heartbeat IPC: 0.52361 cumulative IPC: 0.443014 (Simulation time: 0 hr 33 min 44 sec) 
Heartbeat CPU 0 instructions: 401000001 cycles: 902953956 heartbeat IPC: 0.527946 cumulative IPC: 0.443192 (Simulation time: 0 hr 33 min 49 sec) 
Heartbeat CPU 0 instructions: 402000001 cycles: 905594502 heartbeat IPC: 0.37871 cumulative IPC: 0.443004 (Simulation time: 0 hr 33 min 54 sec) 
Heartbeat CPU 0 instructions: 403000003 cycles: 907492666 heartbeat IPC: 0.526826 cumulative IPC: 0.44318 (Simulation time: 0 hr 33 min 59 sec) 
Heartbeat CPU 0 instructions: 404000000 cycles: 909391221 heartbeat IPC: 0.526715 cumulative IPC: 0.443354 (Simulation time: 0 hr 34 min 4 sec) 
Heartbeat CPU 0 instructions: 405000000 cycles: 911664598 heartbeat IPC: 0.439874 cumulative IPC: 0.443345 (Simulation time: 0 hr 34 min 9 sec) 
Heartbeat CPU 0 instructions: 406000002 cycles: 913956942 heartbeat IPC: 0.436236 cumulative IPC: 0.443328 (Simulation time: 0 hr 34 min 14 sec) 
Heartbeat CPU 0 instructions: 407000000 cycles: 915856049 heartbeat IPC: 0.526562 cumulative IPC: 0.4435 (Simulation time: 0 hr 34 min 19 sec) 
Heartbeat CPU 0 instructions: 408000000 cycles: 917751205 heartbeat IPC: 0.527661 cumulative IPC: 0.443674 (Simulation time: 0 hr 34 min 23 sec) 
Heartbeat CPU 0 instructions: 409000003 cycles: 920447488 heartbeat IPC: 0.370882 cumulative IPC: 0.443461 (Simulation time: 0 hr 34 min 29 sec) 
Heartbeat CPU 0 instructions: 410000000 cycles: 922336725 heartbeat IPC: 0.529313 cumulative IPC: 0.443637 (Simulation time: 0 hr 34 min 33 sec) 
Heartbeat CPU 0 instructions: 411000000 cycles: 924262604 heartbeat IPC: 0.519243 cumulative IPC: 0.443794 (Simulation time: 0 hr 34 min 38 sec) 
Heartbeat CPU 0 instructions: 412000000 cycles: 926621288 heartbeat IPC: 0.423965 cumulative IPC: 0.443744 (Simulation time: 0 hr 34 min 43 sec) 
Heartbeat CPU 0 instructions: 413000000 cycles: 928852756 heartbeat IPC: 0.448135 cumulative IPC: 0.443754 (Simulation time: 0 hr 34 min 48 sec) 
Heartbeat CPU 0 instructions: 414000002 cycles: 930740811 heartbeat IPC: 0.529647 cumulative IPC: 0.443929 (Simulation time: 0 hr 34 min 53 sec) 
Heartbeat CPU 0 instructions: 415000000 cycles: 932634404 heartbeat IPC: 0.528096 cumulative IPC: 0.4441 (Simulation time: 0 hr 34 min 58 sec) 
Heartbeat CPU 0 instructions: 416000003 cycles: 935297162 heartbeat IPC: 0.375552 cumulative IPC: 0.443904 (Simulation time: 0 hr 35 min 4 sec) 
Heartbeat CPU 0 instructions: 417000000 cycles: 937189002 heartbeat IPC: 0.528584 cumulative IPC: 0.444075 (Simulation time: 0 hr 35 min 9 sec) 
Heartbeat CPU 0 instructions: 418000000 cycles: 939112859 heartbeat IPC: 0.519789 cumulative IPC: 0.444231 (Simulation time: 0 hr 35 min 14 sec) 
Heartbeat CPU 0 instructions: 419000002 cycles: 941035788 heartbeat IPC: 0.520041 cumulative IPC: 0.444386 (Simulation time: 0 hr 35 min 18 sec) 
Heartbeat CPU 0 instructions: 420000001 cycles: 943668267 heartbeat IPC: 0.37987 cumulative IPC: 0.444206 (Simulation time: 0 hr 35 min 24 sec) 
Heartbeat CPU 0 instructions: 421000001 cycles: 945539138 heartbeat IPC: 0.53451 cumulative IPC: 0.444384 (Simulation time: 0 hr 35 min 29 sec) 
Heartbeat CPU 0 instructions: 422000003 cycles: 947459685 heartbeat IPC: 0.520686 cumulative IPC: 0.444539 (Simulation time: 0 hr 35 min 33 sec) 
Heartbeat CPU 0 instructions: 423000000 cycles: 949877736 heartbeat IPC: 0.413555 cumulative IPC: 0.44446 (Simulation time: 0 hr 35 min 39 sec) 
Heartbeat CPU 0 instructions: 424000000 cycles: 952028893 heartbeat IPC: 0.464866 cumulative IPC: 0.444506 (Simulation time: 0 hr 35 min 44 sec) 
Heartbeat CPU 0 instructions: 425000000 cycles: 953929053 heartbeat IPC: 0.526271 cumulative IPC: 0.444669 (Simulation time: 0 hr 35 min 49 sec) 
Heartbeat CPU 0 instructions: 426000001 cycles: 956086434 heartbeat IPC: 0.463525 cumulative IPC: 0.444712 (Simulation time: 0 hr 35 min 54 sec) 
Heartbeat CPU 0 instructions: 427000000 cycles: 958519937 heartbeat IPC: 0.41093 cumulative IPC: 0.444626 (Simulation time: 0 hr 35 min 59 sec) 
Heartbeat CPU 0 instructions: 428000000 cycles: 960409700 heartbeat IPC: 0.529167 cumulative IPC: 0.444792 (Simulation time: 0 hr 36 min 5 sec) 
Heartbeat CPU 0 instructions: 429000000 cycles: 962324165 heartbeat IPC: 0.522339 cumulative IPC: 0.444947 (Simulation time: 0 hr 36 min 10 sec) 
Heartbeat CPU 0 instructions: 430000000 cycles: 964971762 heartbeat IPC: 0.377701 cumulative IPC: 0.444762 (Simulation time: 0 hr 36 min 15 sec) 
Heartbeat CPU 0 instructions: 431000000 cycles: 966867867 heartbeat IPC: 0.527397 cumulative IPC: 0.444924 (Simulation time: 0 hr 36 min 20 sec) 
Heartbeat CPU 0 instructions: 432000000 cycles: 968768862 heartbeat IPC: 0.52604 cumulative IPC: 0.445084 (Simulation time: 0 hr 36 min 24 sec) 
Heartbeat CPU 0 instructions: 433000003 cycles: 971410307 heartbeat IPC: 0.378582 cumulative IPC: 0.444903 (Simulation time: 0 hr 36 min 30 sec) 
Heartbeat CPU 0 instructions: 434000001 cycles: 973304905 heartbeat IPC: 0.527815 cumulative IPC: 0.445064 (Simulation time: 0 hr 36 min 34 sec) 
Heartbeat CPU 0 instructions: 435000002 cycles: 975209906 heartbeat IPC: 0.524935 cumulative IPC: 0.44522 (Simulation time: 0 hr 36 min 39 sec) 
Heartbeat CPU 0 instructions: 436000001 cycles: 977853231 heartbeat IPC: 0.378311 cumulative IPC: 0.445039 (Simulation time: 0 hr 36 min 44 sec) 
Heartbeat CPU 0 instructions: 437000003 cycles: 979737200 heartbeat IPC: 0.530795 cumulative IPC: 0.445204 (Simulation time: 0 hr 36 min 49 sec) 
Heartbeat CPU 0 instructions: 438000000 cycles: 981625735 heartbeat IPC: 0.529509 cumulative IPC: 0.445366 (Simulation time: 0 hr 36 min 54 sec) 
Heartbeat CPU 0 instructions: 439000003 cycles: 983862481 heartbeat IPC: 0.447079 cumulative IPC: 0.44537 (Simulation time: 0 hr 36 min 59 sec) 
Heartbeat CPU 0 instructions: 440000000 cycles: 986160483 heartbeat IPC: 0.435159 cumulative IPC: 0.445347 (Simulation time: 0 hr 37 min 5 sec) 
Heartbeat CPU 0 instructions: 441000001 cycles: 988173709 heartbeat IPC: 0.496716 cumulative IPC: 0.445451 (Simulation time: 0 hr 37 min 9 sec) 
Heartbeat CPU 0 instructions: 442000000 cycles: 990096094 heartbeat IPC: 0.520187 cumulative IPC: 0.445596 (Simulation time: 0 hr 37 min 14 sec) 
Heartbeat CPU 0 instructions: 443000000 cycles: 992744086 heartbeat IPC: 0.377645 cumulative IPC: 0.445415 (Simulation time: 0 hr 37 min 19 sec) 
Heartbeat CPU 0 instructions: 444000001 cycles: 994860064 heartbeat IPC: 0.472595 cumulative IPC: 0.445473 (Simulation time: 0 hr 37 min 24 sec) 
Heartbeat CPU 0 instructions: 445000000 cycles: 996771806 heartbeat IPC: 0.523083 cumulative IPC: 0.445622 (Simulation time: 0 hr 37 min 29 sec) 
Heartbeat CPU 0 instructions: 446000003 cycles: 999422856 heartbeat IPC: 0.37721 cumulative IPC: 0.44544 (Simulation time: 0 hr 37 min 34 sec) 
Heartbeat CPU 0 instructions: 447000003 cycles: 1001314096 heartbeat IPC: 0.528754 cumulative IPC: 0.445598 (Simulation time: 0 hr 37 min 39 sec) 
Heartbeat CPU 0 instructions: 448000000 cycles: 1003232111 heartbeat IPC: 0.521371 cumulative IPC: 0.445743 (Simulation time: 0 hr 37 min 44 sec) 
Heartbeat CPU 0 instructions: 449000001 cycles: 1005904878 heartbeat IPC: 0.374144 cumulative IPC: 0.445552 (Simulation time: 0 hr 37 min 49 sec) 
Heartbeat CPU 0 instructions: 450000000 cycles: 1007790424 heartbeat IPC: 0.53035 cumulative IPC: 0.445711 (Simulation time: 0 hr 37 min 54 sec) 

Warmup complete CPU 0 instructions: 450000004 cycles: 1007790425 (Simulation time: 0 hr 37 min 54 sec) 

Heartbeat CPU 0 instructions: 451000000 cycles: 1009539859 heartbeat IPC: 0.571613 cumulative IPC: 0.571611 (Simulation time: 0 hr 37 min 59 sec) 
Heartbeat CPU 0 instructions: 452000000 cycles: 1011960644 heartbeat IPC: 0.413089 cumulative IPC: 0.47959 (Simulation time: 0 hr 38 min 4 sec) 
Heartbeat CPU 0 instructions: 453000000 cycles: 1013756946 heartbeat IPC: 0.556699 cumulative IPC: 0.502805 (Simulation time: 0 hr 38 min 9 sec) 
Heartbeat CPU 0 instructions: 454000002 cycles: 1015565113 heartbeat IPC: 0.553047 cumulative IPC: 0.51449 (Simulation time: 0 hr 38 min 14 sec) 
Heartbeat CPU 0 instructions: 455000002 cycles: 1018002273 heartbeat IPC: 0.410314 cumulative IPC: 0.489627 (Simulation time: 0 hr 38 min 19 sec) 
Heartbeat CPU 0 instructions: 456000001 cycles: 1019777749 heartbeat IPC: 0.563229 cumulative IPC: 0.500528 (Simulation time: 0 hr 38 min 24 sec) 
Heartbeat CPU 0 instructions: 457000000 cycles: 1021560697 heartbeat IPC: 0.560868 cumulative IPC: 0.508341 (Simulation time: 0 hr 38 min 28 sec) 
Heartbeat CPU 0 instructions: 458000002 cycles: 1024350812 heartbeat IPC: 0.358409 cumulative IPC: 0.48308 (Simulation time: 0 hr 38 min 34 sec) 
Heartbeat CPU 0 instructions: 459000002 cycles: 1026134702 heartbeat IPC: 0.560573 cumulative IPC: 0.490616 (Simulation time: 0 hr 38 min 38 sec) 
Heartbeat CPU 0 instructions: 460000001 cycles: 1028170212 heartbeat IPC: 0.491277 cumulative IPC: 0.490682 (Simulation time: 0 hr 38 min 43 sec) 
Heartbeat CPU 0 instructions: 461000000 cycles: 1030413568 heartbeat IPC: 0.44576 cumulative IPC: 0.486228 (Simulation time: 0 hr 38 min 48 sec) 
Heartbeat CPU 0 instructions: 462000000 cycles: 1032211777 heartbeat IPC: 0.556109 cumulative IPC: 0.491373 (Simulation time: 0 hr 38 min 53 sec) 
Heartbeat CPU 0 instructions: 463000000 cycles: 1034728030 heartbeat IPC: 0.397416 cumulative IPC: 0.482597 (Simulation time: 0 hr 38 min 58 sec) 
Heartbeat CPU 0 instructions: 464000000 cycles: 1036524509 heartbeat IPC: 0.556644 cumulative IPC: 0.487226 (Simulation time: 0 hr 39 min 2 sec) 
Heartbeat CPU 0 instructions: 465000003 cycles: 1038943063 heartbeat IPC: 0.413471 cumulative IPC: 0.4815 (Simulation time: 0 hr 39 min 7 sec) 
Heartbeat CPU 0 instructions: 466000003 cycles: 1040725249 heartbeat IPC: 0.561109 cumulative IPC: 0.485808 (Simulation time: 0 hr 39 min 12 sec) 
Heartbeat CPU 0 instructions: 467000000 cycles: 1042542332 heartbeat IPC: 0.550331 cumulative IPC: 0.489182 (Simulation time: 0 hr 39 min 17 sec) 
Heartbeat CPU 0 instructions: 468000000 cycles: 1044992108 heartbeat IPC: 0.408201 cumulative IPC: 0.483849 (Simulation time: 0 hr 39 min 22 sec) 
Heartbeat CPU 0 instructions: 469000000 cycles: 1046796194 heartbeat IPC: 0.554297 cumulative IPC: 0.487107 (Simulation time: 0 hr 39 min 26 sec) 
Heartbeat CPU 0 instructions: 470000003 cycles: 1049211767 heartbeat IPC: 0.413982 cumulative IPC: 0.482843 (Simulation time: 0 hr 39 min 32 sec) 
Heartbeat CPU 0 instructions: 471000000 cycles: 1051013223 heartbeat IPC: 0.555105 cumulative IPC: 0.485855 (Simulation time: 0 hr 39 min 36 sec) 
Heartbeat CPU 0 instructions: 472000001 cycles: 1053225952 heartbeat IPC: 0.451931 cumulative IPC: 0.484203 (Simulation time: 0 hr 39 min 41 sec) 
Heartbeat CPU 0 instructions: 473000000 cycles: 1055251459 heartbeat IPC: 0.493703 cumulative IPC: 0.484608 (Simulation time: 0 hr 39 min 46 sec) 
Heartbeat CPU 0 instructions: 474000000 cycles: 1057068591 heartbeat IPC: 0.550318 cumulative IPC: 0.487031 (Simulation time: 0 hr 39 min 51 sec) 
Heartbeat CPU 0 instructions: 475000001 cycles: 1059541551 heartbeat IPC: 0.404374 cumulative IPC: 0.483081 (Simulation time: 0 hr 39 min 56 sec) 
Heartbeat CPU 0 instructions: 476000001 cycles: 1061349690 heartbeat IPC: 0.553055 cumulative IPC: 0.485444 (Simulation time: 0 hr 40 min 1 sec) 
Heartbeat CPU 0 instructions: 477000001 cycles: 1063795330 heartbeat IPC: 0.408891 cumulative IPC: 0.482101 (Simulation time: 0 hr 40 min 6 sec) 
Heartbeat CPU 0 instructions: 478000003 cycles: 1065562841 heartbeat IPC: 0.565768 cumulative IPC: 0.48466 (Simulation time: 0 hr 40 min 11 sec) 
Heartbeat CPU 0 instructions: 479000000 cycles: 1067703792 heartbeat IPC: 0.467081 cumulative IPC: 0.484032 (Simulation time: 0 hr 40 min 17 sec) 
Heartbeat CPU 0 instructions: 480000000 cycles: 1069755100 heartbeat IPC: 0.487494 cumulative IPC: 0.484147 (Simulation time: 0 hr 40 min 22 sec) 
Heartbeat CPU 0 instructions: 481000003 cycles: 1071559709 heartbeat IPC: 0.554138 cumulative IPC: 0.486127 (Simulation time: 0 hr 40 min 26 sec) 
Heartbeat CPU 0 instructions: 482000002 cycles: 1073978550 heartbeat IPC: 0.413421 cumulative IPC: 0.48347 (Simulation time: 0 hr 40 min 32 sec) 
Heartbeat CPU 0 instructions: 483000001 cycles: 1075773101 heartbeat IPC: 0.557242 cumulative IPC: 0.485418 (Simulation time: 0 hr 40 min 37 sec) 
Heartbeat CPU 0 instructions: 484000000 cycles: 1078168409 heartbeat IPC: 0.417482 cumulative IPC: 0.483106 (Simulation time: 0 hr 40 min 42 sec) 
Heartbeat CPU 0 instructions: 485000001 cycles: 1079960038 heartbeat IPC: 0.558152 cumulative IPC: 0.484969 (Simulation time: 0 hr 40 min 47 sec) 
Heartbeat CPU 0 instructions: 486000000 cycles: 1082310104 heartbeat IPC: 0.42552 cumulative IPC: 0.483094 (Simulation time: 0 hr 40 min 52 sec) 
Heartbeat CPU 0 instructions: 487000000 cycles: 1084229260 heartbeat IPC: 0.521062 cumulative IPC: 0.484047 (Simulation time: 0 hr 40 min 57 sec) 
Heartbeat CPU 0 instructions: 488000002 cycles: 1086042121 heartbeat IPC: 0.551615 cumulative IPC: 0.485612 (Simulation time: 0 hr 41 min 2 sec) 
Heartbeat CPU 0 instructions: 489000003 cycles: 1088443592 heartbeat IPC: 0.416412 cumulative IPC: 0.483552 (Simulation time: 0 hr 41 min 7 sec) 
Heartbeat CPU 0 instructions: 490000002 cycles: 1090243525 heartbeat IPC: 0.555576 cumulative IPC: 0.485124 (Simulation time: 0 hr 41 min 12 sec) 
Heartbeat CPU 0 instructions: 491000001 cycles: 1092692478 heartbeat IPC: 0.408337 cumulative IPC: 0.482909 (Simulation time: 0 hr 41 min 18 sec) 
Heartbeat CPU 0 instructions: 492000001 cycles: 1094479981 heartbeat IPC: 0.55944 cumulative IPC: 0.484487 (Simulation time: 0 hr 41 min 23 sec) 
Heartbeat CPU 0 instructions: 493000000 cycles: 1096914816 heartbeat IPC: 0.410705 cumulative IPC: 0.482472 (Simulation time: 0 hr 41 min 28 sec) 
Heartbeat CPU 0 instructions: 494000000 cycles: 1098719874 heartbeat IPC: 0.553999 cumulative IPC: 0.483892 (Simulation time: 0 hr 41 min 33 sec) 
Heartbeat CPU 0 instructions: 495000000 cycles: 1100555616 heartbeat IPC: 0.544739 cumulative IPC: 0.485096 (Simulation time: 0 hr 41 min 38 sec) 
Heartbeat CPU 0 instructions: 496000000 cycles: 1102950880 heartbeat IPC: 0.417491 cumulative IPC: 0.483394 (Simulation time: 0 hr 41 min 44 sec) 
Heartbeat CPU 0 instructions: 497000003 cycles: 1104765527 heartbeat IPC: 0.551073 cumulative IPC: 0.48466 (Simulation time: 0 hr 41 min 48 sec) 
Heartbeat CPU 0 instructions: 498000000 cycles: 1107221599 heartbeat IPC: 0.407153 cumulative IPC: 0.482746 (Simulation time: 0 hr 41 min 54 sec) 
Heartbeat CPU 0 instructions: 499000000 cycles: 1109047830 heartbeat IPC: 0.547576 cumulative IPC: 0.483915 (Simulation time: 0 hr 41 min 59 sec) 
Heartbeat CPU 0 instructions: 500000000 cycles: 1111542970 heartbeat IPC: 0.400779 cumulative IPC: 0.481916 (Simulation time: 0 hr 42 min 4 sec) 
Heartbeat CPU 0 instructions: 501000001 cycles: 1113314539 heartbeat IPC: 0.564472 cumulative IPC: 0.483302 (Simulation time: 0 hr 42 min 10 sec) 
Heartbeat CPU 0 instructions: 502000003 cycles: 1115242660 heartbeat IPC: 0.518641 cumulative IPC: 0.483936 (Simulation time: 0 hr 42 min 14 sec) 
Heartbeat CPU 0 instructions: 503000000 cycles: 1117524806 heartbeat IPC: 0.438183 cumulative IPC: 0.482984 (Simulation time: 0 hr 42 min 20 sec) 
Heartbeat CPU 0 instructions: 504000000 cycles: 1119316676 heartbeat IPC: 0.558076 cumulative IPC: 0.484191 (Simulation time: 0 hr 42 min 25 sec) 
Heartbeat CPU 0 instructions: 505000003 cycles: 1121720867 heartbeat IPC: 0.415942 cumulative IPC: 0.482751 (Simulation time: 0 hr 42 min 30 sec) 
Heartbeat CPU 0 instructions: 506000000 cycles: 1123513096 heartbeat IPC: 0.557963 cumulative IPC: 0.483916 (Simulation time: 0 hr 42 min 35 sec) 
Heartbeat CPU 0 instructions: 507000002 cycles: 1126001212 heartbeat IPC: 0.401911 cumulative IPC: 0.482189 (Simulation time: 0 hr 42 min 40 sec) 
Heartbeat CPU 0 instructions: 508000003 cycles: 1127806743 heartbeat IPC: 0.553854 cumulative IPC: 0.483268 (Simulation time: 0 hr 42 min 45 sec) 
Heartbeat CPU 0 instructions: 509000001 cycles: 1129696057 heartbeat IPC: 0.529292 cumulative IPC: 0.483981 (Simulation time: 0 hr 42 min 50 sec) 
Heartbeat CPU 0 instructions: 510000000 cycles: 1132006807 heartbeat IPC: 0.432759 cumulative IPC: 0.483028 (Simulation time: 0 hr 42 min 56 sec) 
Heartbeat CPU 0 instructions: 511000000 cycles: 1133805658 heartbeat IPC: 0.55591 cumulative IPC: 0.484068 (Simulation time: 0 hr 43 min 0 sec) 
Heartbeat CPU 0 instructions: 512000001 cycles: 1136220243 heartbeat IPC: 0.41415 cumulative IPC: 0.482754 (Simulation time: 0 hr 43 min 6 sec) 
Heartbeat CPU 0 instructions: 513000002 cycles: 1138010963 heartbeat IPC: 0.558435 cumulative IPC: 0.483795 (Simulation time: 0 hr 43 min 11 sec) 
Heartbeat CPU 0 instructions: 514000001 cycles: 1140460449 heartbeat IPC: 0.408249 cumulative IPC: 0.4824 (Simulation time: 0 hr 43 min 16 sec) 
Heartbeat CPU 0 instructions: 515000000 cycles: 1142286415 heartbeat IPC: 0.547655 cumulative IPC: 0.483286 (Simulation time: 0 hr 43 min 21 sec) 
Heartbeat CPU 0 instructions: 516000000 cycles: 1144117982 heartbeat IPC: 0.545981 cumulative IPC: 0.484128 (Simulation time: 0 hr 43 min 26 sec) 
Heartbeat CPU 0 instructions: 517000000 cycles: 1146517534 heartbeat IPC: 0.416744 cumulative IPC: 0.482963 (Simulation time: 0 hr 43 min 31 sec) 
Heartbeat CPU 0 instructions: 518000000 cycles: 1148327016 heartbeat IPC: 0.552644 cumulative IPC: 0.48386 (Simulation time: 0 hr 43 min 36 sec) 
Heartbeat CPU 0 instructions: 519000002 cycles: 1150756734 heartbeat IPC: 0.411571 cumulative IPC: 0.482631 (Simulation time: 0 hr 43 min 42 sec) 
Heartbeat CPU 0 instructions: 520000000 cycles: 1152534789 heartbeat IPC: 0.562411 cumulative IPC: 0.483611 (Simulation time: 0 hr 43 min 46 sec) 
Heartbeat CPU 0 instructions: 521000000 cycles: 1154958352 heartbeat IPC: 0.412616 cumulative IPC: 0.482442 (Simulation time: 0 hr 43 min 52 sec) 
Heartbeat CPU 0 instructions: 522000001 cycles: 1156733253 heartbeat IPC: 0.563412 cumulative IPC: 0.483407 (Simulation time: 0 hr 43 min 57 sec) 
Heartbeat CPU 0 instructions: 523000002 cycles: 1158947501 heartbeat IPC: 0.451621 cumulative IPC: 0.482941 (Simulation time: 0 hr 44 min 2 sec) 
Heartbeat CPU 0 instructions: 524000000 cycles: 1161004196 heartbeat IPC: 0.486216 cumulative IPC: 0.482985 (Simulation time: 0 hr 44 min 7 sec) 
Heartbeat CPU 0 instructions: 525000002 cycles: 1162799068 heartbeat IPC: 0.557144 cumulative IPC: 0.483844 (Simulation time: 0 hr 44 min 12 sec) 
Heartbeat CPU 0 instructions: 526000002 cycles: 1165202150 heartbeat IPC: 0.416132 cumulative IPC: 0.48281 (Simulation time: 0 hr 44 min 17 sec) 
Heartbeat CPU 0 instructions: 527000000 cycles: 1167001068 heartbeat IPC: 0.555889 cumulative IPC: 0.483636 (Simulation time: 0 hr 44 min 22 sec) 
Heartbeat CPU 0 instructions: 528000000 cycles: 1169488477 heartbeat IPC: 0.402025 cumulative IPC: 0.482381 (Simulation time: 0 hr 44 min 28 sec) 
Heartbeat CPU 0 instructions: 529000001 cycles: 1171271523 heartbeat IPC: 0.560839 cumulative IPC: 0.483236 (Simulation time: 0 hr 44 min 32 sec) 
Heartbeat CPU 0 instructions: 530000003 cycles: 1173695554 heartbeat IPC: 0.412537 cumulative IPC: 0.482203 (Simulation time: 0 hr 44 min 38 sec) 
Heartbeat CPU 0 instructions: 531000002 cycles: 1175474455 heartbeat IPC: 0.562144 cumulative IPC: 0.483051 (Simulation time: 0 hr 44 min 43 sec) 
Heartbeat CPU 0 instructions: 532000000 cycles: 1177711330 heartbeat IPC: 0.447051 cumulative IPC: 0.482577 (Simulation time: 0 hr 44 min 48 sec) 
Heartbeat CPU 0 instructions: 533000001 cycles: 1179742256 heartbeat IPC: 0.492387 cumulative IPC: 0.482693 (Simulation time: 0 hr 44 min 53 sec) 
Heartbeat CPU 0 instructions: 534000000 cycles: 1181878269 heartbeat IPC: 0.468161 cumulative IPC: 0.482515 (Simulation time: 0 hr 44 min 58 sec) 
Heartbeat CPU 0 instructions: 535000001 cycles: 1184029965 heartbeat IPC: 0.46475 cumulative IPC: 0.482298 (Simulation time: 0 hr 45 min 4 sec) 
Heartbeat CPU 0 instructions: 536000000 cycles: 1185813526 heartbeat IPC: 0.560676 cumulative IPC: 0.483083 (Simulation time: 0 hr 45 min 9 sec) 
Heartbeat CPU 0 instructions: 537000001 cycles: 1188272784 heartbeat IPC: 0.406627 cumulative IPC: 0.482042 (Simulation time: 0 hr 45 min 14 sec) 
Heartbeat CPU 0 instructions: 538000001 cycles: 1190046896 heartbeat IPC: 0.563662 cumulative IPC: 0.482836 (Simulation time: 0 hr 45 min 19 sec) 
Heartbeat CPU 0 instructions: 539000000 cycles: 1192503537 heartbeat IPC: 0.407059 cumulative IPC: 0.481828 (Simulation time: 0 hr 45 min 24 sec) 
Heartbeat CPU 0 instructions: 540000003 cycles: 1194292474 heartbeat IPC: 0.558993 cumulative IPC: 0.482568 (Simulation time: 0 hr 45 min 29 sec) 
Heartbeat CPU 0 instructions: 541000002 cycles: 1196740653 heartbeat IPC: 0.408466 cumulative IPC: 0.481608 (Simulation time: 0 hr 45 min 34 sec) 
Heartbeat CPU 0 instructions: 542000001 cycles: 1198543450 heartbeat IPC: 0.554693 cumulative IPC: 0.482299 (Simulation time: 0 hr 45 min 38 sec) 
Heartbeat CPU 0 instructions: 543000001 cycles: 1201008301 heartbeat IPC: 0.405704 cumulative IPC: 0.481322 (Simulation time: 0 hr 45 min 44 sec) 
Heartbeat CPU 0 instructions: 544000002 cycles: 1202812913 heartbeat IPC: 0.554136 cumulative IPC: 0.481996 (Simulation time: 0 hr 45 min 49 sec) 
Heartbeat CPU 0 instructions: 545000003 cycles: 1205239423 heartbeat IPC: 0.412115 cumulative IPC: 0.481137 (Simulation time: 0 hr 45 min 55 sec) 
Heartbeat CPU 0 instructions: 546000001 cycles: 1207038968 heartbeat IPC: 0.555695 cumulative IPC: 0.48181 (Simulation time: 0 hr 46 min 0 sec) 
[...]
Heartbeat CPU 0 instructions: 835000000 cycles: 1862101351 heartbeat IPC: 0.390342 cumulative IPC: 0.450656 (Simulation time: 1 hr 11 min 18 sec) 
Heartbeat CPU 0 instructions: 836000000 cycles: 1864583343 heartbeat IPC: 0.402902 cumulative IPC: 0.450517 (Simulation time: 1 hr 11 min 23 sec) 
Heartbeat CPU 0 instructions: 837000000 cycles: 1866755584 heartbeat IPC: 0.460354 cumulative IPC: 0.450542 (Simulation time: 1 hr 11 min 29 sec) 
Heartbeat CPU 0 instructions: 838000000 cycles: 1869309190 heartbeat IPC: 0.391603 cumulative IPC: 0.450367 (Simulation time: 1 hr 11 min 35 sec) 
Heartbeat CPU 0 instructions: 839000001 cycles: 1871606713 heartbeat IPC: 0.435252 cumulative IPC: 0.450327 (Simulation time: 1 hr 11 min 40 sec) 
Heartbeat CPU 0 instructions: 840000000 cycles: 1873901993 heartbeat IPC: 0.435676 cumulative IPC: 0.450288 (Simulation time: 1 hr 11 min 46 sec) 
Heartbeat CPU 0 instructions: 841000000 cycles: 1876439971 heartbeat IPC: 0.394014 cumulative IPC: 0.450124 (Simulation time: 1 hr 11 min 51 sec) 
Heartbeat CPU 0 instructions: 842000003 cycles: 1879229949 heartbeat IPC: 0.358427 cumulative IPC: 0.44983 (Simulation time: 1 hr 11 min 57 sec) 
Heartbeat CPU 0 instructions: 843000000 cycles: 1881487344 heartbeat IPC: 0.442987 cumulative IPC: 0.449813 (Simulation time: 1 hr 12 min 2 sec) 
Heartbeat CPU 0 instructions: 844000003 cycles: 1883956080 heartbeat IPC: 0.405067 cumulative IPC: 0.449687 (Simulation time: 1 hr 12 min 8 sec) 
Heartbeat CPU 0 instructions: 845000003 cycles: 1886518761 heartbeat IPC: 0.390216 cumulative IPC: 0.449513 (Simulation time: 1 hr 12 min 14 sec) 
Heartbeat CPU 0 instructions: 846000003 cycles: 1889035335 heartbeat IPC: 0.397366 cumulative IPC: 0.449364 (Simulation time: 1 hr 12 min 20 sec) 
Heartbeat CPU 0 instructions: 847000000 cycles: 1891549536 heartbeat IPC: 0.397739 cumulative IPC: 0.449217 (Simulation time: 1 hr 12 min 25 sec) 
Heartbeat CPU 0 instructions: 848000000 cycles: 1894449134 heartbeat IPC: 0.344875 cumulative IPC: 0.448876 (Simulation time: 1 hr 12 min 31 sec) 
Heartbeat CPU 0 instructions: 849000002 cycles: 1896904367 heartbeat IPC: 0.407294 cumulative IPC: 0.448761 (Simulation time: 1 hr 12 min 37 sec) 
Heartbeat CPU 0 instructions: 850000001 cycles: 1899164000 heartbeat IPC: 0.442549 cumulative IPC: 0.448746 (Simulation time: 1 hr 12 min 42 sec) 
Heartbeat CPU 0 instructions: 851000001 cycles: 1901523679 heartbeat IPC: 0.423786 cumulative IPC: 0.44868 (Simulation time: 1 hr 12 min 48 sec) 
Heartbeat CPU 0 instructions: 852000000 cycles: 1904025626 heartbeat IPC: 0.399688 cumulative IPC: 0.448543 (Simulation time: 1 hr 12 min 54 sec) 
Heartbeat CPU 0 instructions: 853000001 cycles: 1906544429 heartbeat IPC: 0.397014 cumulative IPC: 0.448399 (Simulation time: 1 hr 12 min 59 sec) 
Heartbeat CPU 0 instructions: 854000002 cycles: 1909047970 heartbeat IPC: 0.399435 cumulative IPC: 0.448263 (Simulation time: 1 hr 13 min 5 sec) 
Heartbeat CPU 0 instructions: 855000003 cycles: 1911548218 heartbeat IPC: 0.399961 cumulative IPC: 0.448129 (Simulation time: 1 hr 13 min 11 sec) 
Heartbeat CPU 0 instructions: 856000002 cycles: 1913863976 heartbeat IPC: 0.431824 cumulative IPC: 0.448087 (Simulation time: 1 hr 13 min 17 sec) 
Heartbeat CPU 0 instructions: 857000002 cycles: 1916168271 heartbeat IPC: 0.433972 cumulative IPC: 0.448051 (Simulation time: 1 hr 13 min 22 sec) 
Heartbeat CPU 0 instructions: 858000000 cycles: 1918582245 heartbeat IPC: 0.414254 cumulative IPC: 0.447962 (Simulation time: 1 hr 13 min 27 sec) 
Heartbeat CPU 0 instructions: 859000000 cycles: 1921088693 heartbeat IPC: 0.398971 cumulative IPC: 0.447827 (Simulation time: 1 hr 13 min 33 sec) 
Heartbeat CPU 0 instructions: 860000000 cycles: 1923581355 heartbeat IPC: 0.401178 cumulative IPC: 0.4477 (Simulation time: 1 hr 13 min 39 sec) 
Heartbeat CPU 0 instructions: 861000002 cycles: 1926094531 heartbeat IPC: 0.397904 cumulative IPC: 0.447564 (Simulation time: 1 hr 13 min 45 sec) 
Heartbeat CPU 0 instructions: 862000001 cycles: 1928576851 heartbeat IPC: 0.402849 cumulative IPC: 0.447444 (Simulation time: 1 hr 13 min 51 sec) 
Heartbeat CPU 0 instructions: 863000002 cycles: 1931089186 heartbeat IPC: 0.398036 cumulative IPC: 0.447309 (Simulation time: 1 hr 13 min 57 sec) 
Heartbeat CPU 0 instructions: 864000000 cycles: 1933313016 heartbeat IPC: 0.449674 cumulative IPC: 0.447315 (Simulation time: 1 hr 14 min 3 sec) 
Heartbeat CPU 0 instructions: 865000000 cycles: 1935700839 heartbeat IPC: 0.418792 cumulative IPC: 0.447241 (Simulation time: 1 hr 14 min 9 sec) 
Heartbeat CPU 0 instructions: 866000001 cycles: 1938237035 heartbeat IPC: 0.394292 cumulative IPC: 0.447097 (Simulation time: 1 hr 14 min 15 sec) 
Heartbeat CPU 0 instructions: 867000002 cycles: 1940757979 heartbeat IPC: 0.396677 cumulative IPC: 0.446961 (Simulation time: 1 hr 14 min 21 sec) 
Heartbeat CPU 0 instructions: 868000002 cycles: 1943265227 heartbeat IPC: 0.398844 cumulative IPC: 0.446832 (Simulation time: 1 hr 14 min 28 sec) 
Heartbeat CPU 0 instructions: 869000000 cycles: 1945749893 heartbeat IPC: 0.402468 cumulative IPC: 0.446714 (Simulation time: 1 hr 14 min 34 sec) 
Heartbeat CPU 0 instructions: 870000001 cycles: 1948244624 heartbeat IPC: 0.400845 cumulative IPC: 0.446593 (Simulation time: 1 hr 14 min 41 sec) 
Heartbeat CPU 0 instructions: 871000000 cycles: 1950766696 heartbeat IPC: 0.396499 cumulative IPC: 0.446459 (Simulation time: 1 hr 14 min 47 sec) 
Heartbeat CPU 0 instructions: 872000002 cycles: 1953279647 heartbeat IPC: 0.397939 cumulative IPC: 0.44633 (Simulation time: 1 hr 14 min 53 sec) 
Heartbeat CPU 0 instructions: 873000003 cycles: 1955781315 heartbeat IPC: 0.399734 cumulative IPC: 0.446207 (Simulation time: 1 hr 14 min 58 sec) 
Heartbeat CPU 0 instructions: 874000003 cycles: 1958246045 heartbeat IPC: 0.405724 cumulative IPC: 0.446102 (Simulation time: 1 hr 15 min 4 sec) 
Heartbeat CPU 0 instructions: 875000001 cycles: 1960774256 heartbeat IPC: 0.395536 cumulative IPC: 0.445968 (Simulation time: 1 hr 15 min 10 sec) 
Heartbeat CPU 0 instructions: 876000000 cycles: 1963258229 heartbeat IPC: 0.40258 cumulative IPC: 0.445855 (Simulation time: 1 hr 15 min 15 sec) 
Heartbeat CPU 0 instructions: 877000000 cycles: 1965774118 heartbeat IPC: 0.397474 cumulative IPC: 0.445728 (Simulation time: 1 hr 15 min 21 sec) 
Heartbeat CPU 0 instructions: 878000003 cycles: 1968157208 heartbeat IPC: 0.419625 cumulative IPC: 0.445663 (Simulation time: 1 hr 15 min 26 sec) 
Heartbeat CPU 0 instructions: 879000000 cycles: 1970549111 heartbeat IPC: 0.418076 cumulative IPC: 0.445595 (Simulation time: 1 hr 15 min 32 sec) 
Heartbeat CPU 0 instructions: 880000000 cycles: 1972906432 heartbeat IPC: 0.42421 cumulative IPC: 0.445542 (Simulation time: 1 hr 15 min 37 sec) 
Heartbeat CPU 0 instructions: 881000001 cycles: 1975368377 heartbeat IPC: 0.406183 cumulative IPC: 0.445442 (Simulation time: 1 hr 15 min 43 sec) 
Heartbeat CPU 0 instructions: 882000003 cycles: 1977848203 heartbeat IPC: 0.403255 cumulative IPC: 0.445334 (Simulation time: 1 hr 15 min 49 sec) 
Heartbeat CPU 0 instructions: 883000002 cycles: 1980354187 heartbeat IPC: 0.399044 cumulative IPC: 0.445215 (Simulation time: 1 hr 15 min 54 sec) 
Heartbeat CPU 0 instructions: 884000003 cycles: 1982878140 heartbeat IPC: 0.396204 cumulative IPC: 0.445088 (Simulation time: 1 hr 16 min 0 sec) 
Heartbeat CPU 0 instructions: 885000003 cycles: 1985366057 heartbeat IPC: 0.401943 cumulative IPC: 0.444978 (Simulation time: 1 hr 16 min 6 sec) 
Heartbeat CPU 0 instructions: 886000000 cycles: 1987852534 heartbeat IPC: 0.402174 cumulative IPC: 0.44487 (Simulation time: 1 hr 16 min 11 sec) 
Heartbeat CPU 0 instructions: 887000000 cycles: 1990321115 heartbeat IPC: 0.405091 cumulative IPC: 0.44477 (Simulation time: 1 hr 16 min 17 sec) 
Heartbeat CPU 0 instructions: 888000000 cycles: 1992806969 heartbeat IPC: 0.402276 cumulative IPC: 0.444663 (Simulation time: 1 hr 16 min 23 sec) 
Heartbeat CPU 0 instructions: 889000003 cycles: 1995296412 heartbeat IPC: 0.401697 cumulative IPC: 0.444554 (Simulation time: 1 hr 16 min 29 sec) 
Heartbeat CPU 0 instructions: 890000000 cycles: 1997766504 heartbeat IPC: 0.404842 cumulative IPC: 0.444455 (Simulation time: 1 hr 16 min 34 sec) 
Heartbeat CPU 0 instructions: 891000000 cycles: 2000219337 heartbeat IPC: 0.407692 cumulative IPC: 0.444364 (Simulation time: 1 hr 16 min 40 sec) 
Heartbeat CPU 0 instructions: 892000000 cycles: 2002726178 heartbeat IPC: 0.398908 cumulative IPC: 0.44425 (Simulation time: 1 hr 16 min 46 sec) 
Heartbeat CPU 0 instructions: 893000000 cycles: 2005365023 heartbeat IPC: 0.378954 cumulative IPC: 0.444077 (Simulation time: 1 hr 16 min 52 sec) 
Heartbeat CPU 0 instructions: 894000003 cycles: 2007766800 heartbeat IPC: 0.41636 cumulative IPC: 0.44401 (Simulation time: 1 hr 16 min 58 sec) 
Heartbeat CPU 0 instructions: 895000001 cycles: 2010224770 heartbeat IPC: 0.406839 cumulative IPC: 0.443919 (Simulation time: 1 hr 17 min 4 sec) 
Heartbeat CPU 0 instructions: 896000000 cycles: 2012663798 heartbeat IPC: 0.409999 cumulative IPC: 0.443837 (Simulation time: 1 hr 17 min 10 sec) 
Heartbeat CPU 0 instructions: 897000000 cycles: 2015117666 heartbeat IPC: 0.40752 cumulative IPC: 0.443749 (Simulation time: 1 hr 17 min 15 sec) 
Heartbeat CPU 0 instructions: 898000000 cycles: 2017583883 heartbeat IPC: 0.405479 cumulative IPC: 0.443655 (Simulation time: 1 hr 17 min 21 sec) 
Heartbeat CPU 0 instructions: 899000003 cycles: 2020029888 heartbeat IPC: 0.408831 cumulative IPC: 0.443571 (Simulation time: 1 hr 17 min 26 sec) 
Heartbeat CPU 0 instructions: 900000000 cycles: 2022474705 heartbeat IPC: 0.409027 cumulative IPC: 0.443488 (Simulation time: 1 hr 17 min 32 sec) 
Heartbeat CPU 0 instructions: 901000001 cycles: 2024931618 heartbeat IPC: 0.407015 cumulative IPC: 0.4434 (Simulation time: 1 hr 17 min 37 sec) 
Heartbeat CPU 0 instructions: 902000000 cycles: 2027382130 heartbeat IPC: 0.408078 cumulative IPC: 0.443315 (Simulation time: 1 hr 17 min 43 sec) 
Heartbeat CPU 0 instructions: 903000003 cycles: 2029805960 heartbeat IPC: 0.412571 cumulative IPC: 0.443242 (Simulation time: 1 hr 17 min 49 sec) 
Heartbeat CPU 0 instructions: 904000002 cycles: 2032258062 heartbeat IPC: 0.407813 cumulative IPC: 0.443157 (Simulation time: 1 hr 17 min 54 sec) 
Heartbeat CPU 0 instructions: 905000002 cycles: 2034723539 heartbeat IPC: 0.405601 cumulative IPC: 0.443067 (Simulation time: 1 hr 18 min 0 sec) 
Heartbeat CPU 0 instructions: 906000000 cycles: 2037176455 heartbeat IPC: 0.407677 cumulative IPC: 0.442982 (Simulation time: 1 hr 18 min 5 sec) 
Heartbeat CPU 0 instructions: 907000000 cycles: 2039641680 heartbeat IPC: 0.405642 cumulative IPC: 0.442893 (Simulation time: 1 hr 18 min 11 sec) 
Heartbeat CPU 0 instructions: 908000001 cycles: 2042103229 heartbeat IPC: 0.406249 cumulative IPC: 0.442806 (Simulation time: 1 hr 18 min 17 sec) 
Heartbeat CPU 0 instructions: 909000000 cycles: 2044539133 heartbeat IPC: 0.410525 cumulative IPC: 0.44273 (Simulation time: 1 hr 18 min 22 sec) 
Heartbeat CPU 0 instructions: 910000002 cycles: 2046997385 heartbeat IPC: 0.406794 cumulative IPC: 0.442645 (Simulation time: 1 hr 18 min 28 sec) 
Heartbeat CPU 0 instructions: 911000003 cycles: 2049419647 heartbeat IPC: 0.412838 cumulative IPC: 0.442576 (Simulation time: 1 hr 18 min 33 sec) 
Heartbeat CPU 0 instructions: 912000000 cycles: 2051885561 heartbeat IPC: 0.405528 cumulative IPC: 0.442488 (Simulation time: 1 hr 18 min 39 sec) 
Heartbeat CPU 0 instructions: 913000000 cycles: 2054554575 heartbeat IPC: 0.37467 cumulative IPC: 0.442315 (Simulation time: 1 hr 18 min 45 sec) 
Heartbeat CPU 0 instructions: 914000000 cycles: 2057169705 heartbeat IPC: 0.38239 cumulative IPC: 0.442166 (Simulation time: 1 hr 18 min 51 sec) 
Heartbeat CPU 0 instructions: 915000002 cycles: 2059756261 heartbeat IPC: 0.386615 cumulative IPC: 0.44203 (Simulation time: 1 hr 18 min 57 sec) 
Heartbeat CPU 0 instructions: 916000003 cycles: 2062237266 heartbeat IPC: 0.403063 cumulative IPC: 0.441938 (Simulation time: 1 hr 19 min 3 sec) 
Heartbeat CPU 0 instructions: 917000001 cycles: 2064684422 heartbeat IPC: 0.408637 cumulative IPC: 0.441861 (Simulation time: 1 hr 19 min 9 sec) 
Heartbeat CPU 0 instructions: 918000001 cycles: 2067130062 heartbeat IPC: 0.408891 cumulative IPC: 0.441785 (Simulation time: 1 hr 19 min 14 sec) 
Heartbeat CPU 0 instructions: 919000000 cycles: 2069624128 heartbeat IPC: 0.400951 cumulative IPC: 0.441689 (Simulation time: 1 hr 19 min 20 sec) 
Heartbeat CPU 0 instructions: 920000000 cycles: 2072059034 heartbeat IPC: 0.410693 cumulative IPC: 0.441618 (Simulation time: 1 hr 19 min 26 sec) 
Heartbeat CPU 0 instructions: 921000002 cycles: 2074528532 heartbeat IPC: 0.404941 cumulative IPC: 0.441533 (Simulation time: 1 hr 19 min 32 sec) 
Heartbeat CPU 0 instructions: 922000000 cycles: 2077027121 heartbeat IPC: 0.400225 cumulative IPC: 0.441436 (Simulation time: 1 hr 19 min 37 sec) 
Heartbeat CPU 0 instructions: 923000000 cycles: 2079523532 heartbeat IPC: 0.400575 cumulative IPC: 0.441341 (Simulation time: 1 hr 19 min 43 sec) 
Heartbeat CPU 0 instructions: 924000000 cycles: 2082002817 heartbeat IPC: 0.403342 cumulative IPC: 0.441254 (Simulation time: 1 hr 19 min 49 sec) 
Heartbeat CPU 0 instructions: 925000000 cycles: 2084499137 heartbeat IPC: 0.40059 cumulative IPC: 0.441159 (Simulation time: 1 hr 19 min 55 sec) 
Heartbeat CPU 0 instructions: 926000002 cycles: 2086977579 heartbeat IPC: 0.40348 cumulative IPC: 0.441073 (Simulation time: 1 hr 20 min 0 sec) 
Heartbeat CPU 0 instructions: 927000000 cycles: 2089465631 heartbeat IPC: 0.40192 cumulative IPC: 0.440983 (Simulation time: 1 hr 20 min 6 sec) 
Heartbeat CPU 0 instructions: 928000002 cycles: 2091902920 heartbeat IPC: 0.410293 cumulative IPC: 0.440914 (Simulation time: 1 hr 20 min 11 sec) 
Heartbeat CPU 0 instructions: 929000002 cycles: 2094370971 heartbeat IPC: 0.405178 cumulative IPC: 0.440832 (Simulation time: 1 hr 20 min 17 sec) 
Heartbeat CPU 0 instructions: 930000003 cycles: 2096921058 heartbeat IPC: 0.392144 cumulative IPC: 0.440718 (Simulation time: 1 hr 20 min 23 sec) 
Heartbeat CPU 0 instructions: 931000003 cycles: 2099562197 heartbeat IPC: 0.378625 cumulative IPC: 0.440568 (Simulation time: 1 hr 20 min 29 sec) 
Heartbeat CPU 0 instructions: 932000002 cycles: 2102137274 heartbeat IPC: 0.388338 cumulative IPC: 0.440445 (Simulation time: 1 hr 20 min 35 sec) 
Heartbeat CPU 0 instructions: 933000000 cycles: 2104666486 heartbeat IPC: 0.395379 cumulative IPC: 0.440341 (Simulation time: 1 hr 20 min 40 sec) 
Heartbeat CPU 0 instructions: 934000000 cycles: 2107169229 heartbeat IPC: 0.399562 cumulative IPC: 0.440249 (Simulation time: 1 hr 20 min 46 sec) 
Heartbeat CPU 0 instructions: 935000000 cycles: 2109608976 heartbeat IPC: 0.409879 cumulative IPC: 0.440181 (Simulation time: 1 hr 20 min 52 sec) 
Heartbeat CPU 0 instructions: 936000001 cycles: 2112116381 heartbeat IPC: 0.398819 cumulative IPC: 0.440087 (Simulation time: 1 hr 20 min 57 sec) 
Heartbeat CPU 0 instructions: 937000001 cycles: 2114582051 heartbeat IPC: 0.405569 cumulative IPC: 0.440011 (Simulation time: 1 hr 21 min 3 sec) 
Heartbeat CPU 0 instructions: 938000000 cycles: 2117020215 heartbeat IPC: 0.410144 cumulative IPC: 0.439945 (Simulation time: 1 hr 21 min 9 sec) 
Heartbeat CPU 0 instructions: 939000000 cycles: 2119471100 heartbeat IPC: 0.408016 cumulative IPC: 0.439875 (Simulation time: 1 hr 21 min 14 sec) 
Heartbeat CPU 0 instructions: 940000000 cycles: 2121979315 heartbeat IPC: 0.39869 cumulative IPC: 0.439782 (Simulation time: 1 hr 21 min 20 sec) 
Heartbeat CPU 0 instructions: 941000002 cycles: 2124423434 heartbeat IPC: 0.409146 cumulative IPC: 0.439715 (Simulation time: 1 hr 21 min 26 sec) 
Heartbeat CPU 0 instructions: 942000003 cycles: 2126980868 heartbeat IPC: 0.391017 cumulative IPC: 0.439603 (Simulation time: 1 hr 21 min 31 sec) 
Heartbeat CPU 0 instructions: 943000000 cycles: 2129519155 heartbeat IPC: 0.393965 cumulative IPC: 0.4395 (Simulation time: 1 hr 21 min 37 sec) 
Heartbeat CPU 0 instructions: 944000002 cycles: 2132159449 heartbeat IPC: 0.378746 cumulative IPC: 0.439358 (Simulation time: 1 hr 21 min 43 sec) 
Heartbeat CPU 0 instructions: 945000000 cycles: 2134711564 heartbeat IPC: 0.391831 cumulative IPC: 0.43925 (Simulation time: 1 hr 21 min 49 sec) 
Heartbeat CPU 0 instructions: 946000000 cycles: 2137176988 heartbeat IPC: 0.40561 cumulative IPC: 0.439176 (Simulation time: 1 hr 21 min 54 sec) 
Heartbeat CPU 0 instructions: 947000000 cycles: 2139655305 heartbeat IPC: 0.4035 cumulative IPC: 0.439098 (Simulation time: 1 hr 22 min 0 sec) 
Heartbeat CPU 0 instructions: 948000002 cycles: 2142119318 heartbeat IPC: 0.405843 cumulative IPC: 0.439026 (Simulation time: 1 hr 22 min 6 sec) 
Heartbeat CPU 0 instructions: 949000000 cycles: 2144568773 heartbeat IPC: 0.408253 cumulative IPC: 0.43896 (Simulation time: 1 hr 22 min 11 sec) 
Heartbeat CPU 0 instructions: 950000001 cycles: 2147006768 heartbeat IPC: 0.410174 cumulative IPC: 0.438898 (Simulation time: 1 hr 22 min 17 sec) 
Finished CPU 0 instructions: 500000001 cycles: 1139216344 cumulative IPC: 0.438898 (Simulation time: 1 hr 22 min 17 sec) 

ChampSim completed all CPUs

Region of Interest Statistics

CPU 0 cumulative IPC: 0.438898 instructions: 500000001 cycles: 1139216344
L1D TOTAL     ACCESS:  182244309  HIT:  162142130  MISS:   20102179
L1D LOAD      ACCESS:  127803665  HIT:  109531799  MISS:   18271866
L1D RFO       ACCESS:   54440644  HIT:   52610331  MISS:    1830313
L1D PREFETCH  ACCESS:          0  HIT:          0  MISS:          0
L1D WRITEBACK ACCESS:          0  HIT:          0  MISS:          0
L1D PREFETCH  REQUESTED:          0  ISSUED:          0  USEFUL:          0  USELESS:          0
L1D AVERAGE MISS LATENCY: 70.1907 cycles
L1I TOTAL     ACCESS:   96487629  HIT:   96487629  MISS:          0
L1I LOAD      ACCESS:   96487629  HIT:   96487629  MISS:          0
L1I RFO       ACCESS:          0  HIT:          0  MISS:          0
L1I PREFETCH  ACCESS:          0  HIT:          0  MISS:          0
L1I WRITEBACK ACCESS:          0  HIT:          0  MISS:          0
L1I PREFETCH  REQUESTED:          0  ISSUED:          0  USEFUL:          0  USELESS:          0
L1I AVERAGE MISS LATENCY: -nan cycles
L2C TOTAL     ACCESS:   22881115  HIT:    8590271  MISS:   14290844
L2C LOAD      ACCESS:   18271767  HIT:    4825853  MISS:   13445914
L2C RFO       ACCESS:    1830280  HIT:     987240  MISS:     843040
L2C PREFETCH  ACCESS:          0  HIT:          0  MISS:          0
L2C WRITEBACK ACCESS:    2779068  HIT:    2777178  MISS:       1890
L2C PREFETCH  REQUESTED:          0  ISSUED:          0  USEFUL:          0  USELESS:          0
L2C AVERAGE MISS LATENCY: 78.3172 cycles
LLC TOTAL     ACCESS:   28539326  HIT:   16582769  MISS:   11956557
LLC LOAD      ACCESS:   13445900  HIT:   10373425  MISS:    3072475
LLC RFO       ACCESS:     843020  HIT:     812221  MISS:      30799
LLC PREFETCH  ACCESS:   12592239  HIT:    3801791  MISS:    8790448
LLC WRITEBACK ACCESS:    1658167  HIT:    1595332  MISS:      62835
LLC PREFETCH  REQUESTED:   13338858  ISSUED:   12820201  USEFUL:    4198548  USELESS:    4580828
LLC AVERAGE MISS LATENCY: 199.382 cycles
Major fault: 0 Minor fault: 121652

DRAM Statistics
 CHANNEL 0
 RQ ROW_BUFFER_HIT:    2685841  ROW_BUFFER_MISS:    3267011
 DBUS_CONGESTED:    5028033
 WQ ROW_BUFFER_HIT:      54355  ROW_BUFFER_MISS:      42799  FULL:          0

 CHANNEL 1
 RQ ROW_BUFFER_HIT:    2686446  ROW_BUFFER_MISS:    3253177
 DBUS_CONGESTED:    5028033
 WQ ROW_BUFFER_HIT:      53581  ROW_BUFFER_MISS:      42011  FULL:          0

 AVG_CONGESTED_CYCLE: 14

CPU 0 Branch Prediction Accuracy: 93.4378% MPKI: 16.5871 Average ROB Occupancy at Mispredict: 26.6002

Branch types
NOT_BRANCH: 373615666 74.7231%
BRANCH_DIRECT_JUMP: 13596032 2.71921%
BRANCH_INDIRECT: 0 0%
BRANCH_CONDITIONAL: 86167671 17.2335%
BRANCH_DIRECT_CALL: 12564851 2.51297%
BRANCH_INDIRECT_CALL: 745446 0.149089%
BRANCH_RETURN: 13310294 2.66206%
BRANCH_OTHER: 0 0%

