
*** ChampSim Multicore Out-of-Order Simulator ***

Warmup Instructions: 1000000
Prefetch Warmup Instructions: 450000000
Simulation Instructions: 500000000
Stat Printing Period: 1000000
Number of CPUs: 1
LLC sets: 2048
LLC ways: 16
Off-chip DRAM Size: 32768 MB Channels: 2 Width: 64-bit Data Rate: 1024 MT/s

CPU 0 runs /scratch/cluster/cmolder/ML-DPC/ChampSimTraces/spec17/605.mcf-s8.trace.xz
Read seed: 232
Heartbeat CPU 0 instructions: 1000001 cycles: 405728 heartbeat IPC: 2.46471 cumulative IPC: 2.46471 (Simulation time: 0 hr 0 min 6 sec) 

Warmup complete CPU 0 instructions: 1000001 cycles: 405728 (Simulation time: 0 hr 0 min 6 sec) 

Heartbeat CPU 0 instructions: 2000001 cycles: 1693133 heartbeat IPC: 0.776756 cumulative IPC: 0.776756 (Simulation time: 0 hr 0 min 10 sec) 
Heartbeat CPU 0 instructions: 3000000 cycles: 2668974 heartbeat IPC: 1.02476 cumulative IPC: 0.883686 (Simulation time: 0 hr 0 min 14 sec) 
Heartbeat CPU 0 instructions: 4000001 cycles: 6421259 heartbeat IPC: 0.266505 cumulative IPC: 0.498709 (Simulation time: 0 hr 0 min 21 sec) 
Heartbeat CPU 0 instructions: 5000000 cycles: 8570229 heartbeat IPC: 0.465339 cumulative IPC: 0.489926 (Simulation time: 0 hr 0 min 26 sec) 
Heartbeat CPU 0 instructions: 6000000 cycles: 9575587 heartbeat IPC: 0.994671 cumulative IPC: 0.545265 (Simulation time: 0 hr 0 min 30 sec) 
Heartbeat CPU 0 instructions: 7000001 cycles: 11472632 heartbeat IPC: 0.527136 cumulative IPC: 0.542157 (Simulation time: 0 hr 0 min 34 sec) 
Heartbeat CPU 0 instructions: 8000000 cycles: 12513886 heartbeat IPC: 0.960379 cumulative IPC: 0.578123 (Simulation time: 0 hr 0 min 38 sec) 
Heartbeat CPU 0 instructions: 9000000 cycles: 13632109 heartbeat IPC: 0.894276 cumulative IPC: 0.604852 (Simulation time: 0 hr 0 min 42 sec) 
Heartbeat CPU 0 instructions: 10000000 cycles: 15160701 heartbeat IPC: 0.654197 cumulative IPC: 0.609964 (Simulation time: 0 hr 0 min 47 sec) 
Heartbeat CPU 0 instructions: 11000000 cycles: 16120668 heartbeat IPC: 1.0417 cumulative IPC: 0.636337 (Simulation time: 0 hr 0 min 51 sec) 
Heartbeat CPU 0 instructions: 12000003 cycles: 22612387 heartbeat IPC: 0.154043 cumulative IPC: 0.495347 (Simulation time: 0 hr 0 min 59 sec) 
Heartbeat CPU 0 instructions: 13000000 cycles: 26554620 heartbeat IPC: 0.253663 cumulative IPC: 0.45891 (Simulation time: 0 hr 1 min 5 sec) 
Heartbeat CPU 0 instructions: 14000002 cycles: 27524045 heartbeat IPC: 1.03154 cumulative IPC: 0.479381 (Simulation time: 0 hr 1 min 9 sec) 
Heartbeat CPU 0 instructions: 15000001 cycles: 28839909 heartbeat IPC: 0.759956 cumulative IPC: 0.492365 (Simulation time: 0 hr 1 min 13 sec) 
Heartbeat CPU 0 instructions: 16000002 cycles: 29854998 heartbeat IPC: 0.985136 cumulative IPC: 0.509351 (Simulation time: 0 hr 1 min 17 sec) 
Heartbeat CPU 0 instructions: 17000001 cycles: 31691179 heartbeat IPC: 0.544608 cumulative IPC: 0.51142 (Simulation time: 0 hr 1 min 21 sec) 
Heartbeat CPU 0 instructions: 18000000 cycles: 32894698 heartbeat IPC: 0.830896 cumulative IPC: 0.523254 (Simulation time: 0 hr 1 min 26 sec) 
Heartbeat CPU 0 instructions: 19000002 cycles: 34615738 heartbeat IPC: 0.581045 cumulative IPC: 0.526162 (Simulation time: 0 hr 1 min 30 sec) 
Heartbeat CPU 0 instructions: 20000000 cycles: 37781872 heartbeat IPC: 0.315842 cumulative IPC: 0.508346 (Simulation time: 0 hr 1 min 36 sec) 
Heartbeat CPU 0 instructions: 21000001 cycles: 38774377 heartbeat IPC: 1.00755 cumulative IPC: 0.521259 (Simulation time: 0 hr 1 min 40 sec) 
Heartbeat CPU 0 instructions: 22000000 cycles: 40204095 heartbeat IPC: 0.699438 cumulative IPC: 0.52766 (Simulation time: 0 hr 1 min 44 sec) 
Heartbeat CPU 0 instructions: 23000003 cycles: 41250960 heartbeat IPC: 0.955236 cumulative IPC: 0.538619 (Simulation time: 0 hr 1 min 48 sec) 
Heartbeat CPU 0 instructions: 24000000 cycles: 42539038 heartbeat IPC: 0.776348 cumulative IPC: 0.545886 (Simulation time: 0 hr 1 min 52 sec) 
Heartbeat CPU 0 instructions: 25000002 cycles: 46952068 heartbeat IPC: 0.226602 cumulative IPC: 0.515615 (Simulation time: 0 hr 1 min 58 sec) 
Heartbeat CPU 0 instructions: 26000001 cycles: 54400152 heartbeat IPC: 0.134263 cumulative IPC: 0.463011 (Simulation time: 0 hr 2 min 6 sec) 
Heartbeat CPU 0 instructions: 27000001 cycles: 56532457 heartbeat IPC: 0.468976 cumulative IPC: 0.463237 (Simulation time: 0 hr 2 min 11 sec) 
Heartbeat CPU 0 instructions: 28000001 cycles: 57812477 heartbeat IPC: 0.781238 cumulative IPC: 0.470328 (Simulation time: 0 hr 2 min 15 sec) 
Heartbeat CPU 0 instructions: 29000002 cycles: 58762726 heartbeat IPC: 1.05236 cumulative IPC: 0.479805 (Simulation time: 0 hr 2 min 19 sec) 
Heartbeat CPU 0 instructions: 30000003 cycles: 61439271 heartbeat IPC: 0.373616 cumulative IPC: 0.475149 (Simulation time: 0 hr 2 min 24 sec) 
Heartbeat CPU 0 instructions: 31000000 cycles: 62471265 heartbeat IPC: 0.968995 cumulative IPC: 0.48336 (Simulation time: 0 hr 2 min 28 sec) 
Heartbeat CPU 0 instructions: 32000000 cycles: 63793233 heartbeat IPC: 0.756448 cumulative IPC: 0.489055 (Simulation time: 0 hr 2 min 33 sec) 
Heartbeat CPU 0 instructions: 33000000 cycles: 64894382 heartbeat IPC: 0.908142 cumulative IPC: 0.496211 (Simulation time: 0 hr 2 min 37 sec) 
Heartbeat CPU 0 instructions: 34000000 cycles: 67818235 heartbeat IPC: 0.342014 cumulative IPC: 0.489523 (Simulation time: 0 hr 2 min 42 sec) 
Heartbeat CPU 0 instructions: 35000000 cycles: 72776360 heartbeat IPC: 0.201689 cumulative IPC: 0.469804 (Simulation time: 0 hr 2 min 48 sec) 
Heartbeat CPU 0 instructions: 36000000 cycles: 73894061 heartbeat IPC: 0.894694 cumulative IPC: 0.476266 (Simulation time: 0 hr 2 min 52 sec) 
Heartbeat CPU 0 instructions: 37000002 cycles: 75222305 heartbeat IPC: 0.752875 cumulative IPC: 0.481177 (Simulation time: 0 hr 2 min 56 sec) 
Heartbeat CPU 0 instructions: 38000001 cycles: 78614220 heartbeat IPC: 0.294818 cumulative IPC: 0.473094 (Simulation time: 0 hr 3 min 3 sec) 
Heartbeat CPU 0 instructions: 39000001 cycles: 80192579 heartbeat IPC: 0.633569 cumulative IPC: 0.476269 (Simulation time: 0 hr 3 min 7 sec) 
Heartbeat CPU 0 instructions: 40000001 cycles: 81343007 heartbeat IPC: 0.869242 cumulative IPC: 0.481855 (Simulation time: 0 hr 3 min 12 sec) 
Heartbeat CPU 0 instructions: 41000003 cycles: 82223632 heartbeat IPC: 1.13556 cumulative IPC: 0.488891 (Simulation time: 0 hr 3 min 16 sec) 
Heartbeat CPU 0 instructions: 42000001 cycles: 84160027 heartbeat IPC: 0.516423 cumulative IPC: 0.489527 (Simulation time: 0 hr 3 min 20 sec) 
Heartbeat CPU 0 instructions: 43000000 cycles: 85169726 heartbeat IPC: 0.990393 cumulative IPC: 0.495493 (Simulation time: 0 hr 3 min 25 sec) 
Heartbeat CPU 0 instructions: 44000000 cycles: 94696722 heartbeat IPC: 0.104965 cumulative IPC: 0.456035 (Simulation time: 0 hr 3 min 34 sec) 
Heartbeat CPU 0 instructions: 45000001 cycles: 104027811 heartbeat IPC: 0.107169 cumulative IPC: 0.42462 (Simulation time: 0 hr 3 min 43 sec) 
Heartbeat CPU 0 instructions: 46000001 cycles: 113326828 heartbeat IPC: 0.107538 cumulative IPC: 0.398508 (Simulation time: 0 hr 3 min 52 sec) 
Heartbeat CPU 0 instructions: 47000001 cycles: 122382779 heartbeat IPC: 0.110425 cumulative IPC: 0.37712 (Simulation time: 0 hr 4 min 1 sec) 
Heartbeat CPU 0 instructions: 48000000 cycles: 132283300 heartbeat IPC: 0.101005 cumulative IPC: 0.356391 (Simulation time: 0 hr 4 min 10 sec) 
Heartbeat CPU 0 instructions: 49000001 cycles: 142642190 heartbeat IPC: 0.0965355 cumulative IPC: 0.337466 (Simulation time: 0 hr 4 min 19 sec) 
Heartbeat CPU 0 instructions: 50000001 cycles: 152169469 heartbeat IPC: 0.104962 cumulative IPC: 0.32287 (Simulation time: 0 hr 4 min 28 sec) 
Heartbeat CPU 0 instructions: 51000002 cycles: 162684127 heartbeat IPC: 0.0951054 cumulative IPC: 0.308112 (Simulation time: 0 hr 4 min 38 sec) 
Heartbeat CPU 0 instructions: 52000001 cycles: 171264538 heartbeat IPC: 0.116544 cumulative IPC: 0.298492 (Simulation time: 0 hr 4 min 47 sec) 
Heartbeat CPU 0 instructions: 53000003 cycles: 173553677 heartbeat IPC: 0.436846 cumulative IPC: 0.300321 (Simulation time: 0 hr 4 min 52 sec) 
Heartbeat CPU 0 instructions: 54000000 cycles: 174688093 heartbeat IPC: 0.881508 cumulative IPC: 0.304104 (Simulation time: 0 hr 4 min 57 sec) 
Heartbeat CPU 0 instructions: 55000000 cycles: 176073217 heartbeat IPC: 0.721957 cumulative IPC: 0.307399 (Simulation time: 0 hr 5 min 1 sec) 
Heartbeat CPU 0 instructions: 56000001 cycles: 177013115 heartbeat IPC: 1.06395 cumulative IPC: 0.311425 (Simulation time: 0 hr 5 min 5 sec) 
Heartbeat CPU 0 instructions: 57000001 cycles: 180291069 heartbeat IPC: 0.305068 cumulative IPC: 0.311309 (Simulation time: 0 hr 5 min 11 sec) 
Heartbeat CPU 0 instructions: 58000002 cycles: 181533469 heartbeat IPC: 0.804895 cumulative IPC: 0.314695 (Simulation time: 0 hr 5 min 15 sec) 
Heartbeat CPU 0 instructions: 59000000 cycles: 182646573 heartbeat IPC: 0.898387 cumulative IPC: 0.31826 (Simulation time: 0 hr 5 min 19 sec) 
Heartbeat CPU 0 instructions: 60000000 cycles: 184115651 heartbeat IPC: 0.680699 cumulative IPC: 0.321158 (Simulation time: 0 hr 5 min 23 sec) 
Heartbeat CPU 0 instructions: 61000000 cycles: 185156675 heartbeat IPC: 0.960593 cumulative IPC: 0.324762 (Simulation time: 0 hr 5 min 27 sec) 
Heartbeat CPU 0 instructions: 62000001 cycles: 193955135 heartbeat IPC: 0.113656 cumulative IPC: 0.315165 (Simulation time: 0 hr 5 min 36 sec) 
Heartbeat CPU 0 instructions: 63000000 cycles: 203535971 heartbeat IPC: 0.104375 cumulative IPC: 0.305223 (Simulation time: 0 hr 5 min 45 sec) 
Heartbeat CPU 0 instructions: 64000000 cycles: 210574421 heartbeat IPC: 0.142077 cumulative IPC: 0.299759 (Simulation time: 0 hr 5 min 52 sec) 
Heartbeat CPU 0 instructions: 65000000 cycles: 212589904 heartbeat IPC: 0.496159 cumulative IPC: 0.301625 (Simulation time: 0 hr 5 min 57 sec) 
Heartbeat CPU 0 instructions: 66000000 cycles: 213884210 heartbeat IPC: 0.772615 cumulative IPC: 0.30448 (Simulation time: 0 hr 6 min 1 sec) 
Heartbeat CPU 0 instructions: 67000000 cycles: 215533374 heartbeat IPC: 0.606368 cumulative IPC: 0.306795 (Simulation time: 0 hr 6 min 5 sec) 
Heartbeat CPU 0 instructions: 68000000 cycles: 216818890 heartbeat IPC: 0.777898 cumulative IPC: 0.309593 (Simulation time: 0 hr 6 min 10 sec) 
Heartbeat CPU 0 instructions: 69000000 cycles: 221500124 heartbeat IPC: 0.213619 cumulative IPC: 0.307561 (Simulation time: 0 hr 6 min 16 sec) 
Heartbeat CPU 0 instructions: 70000000 cycles: 223658058 heartbeat IPC: 0.463406 cumulative IPC: 0.309067 (Simulation time: 0 hr 6 min 21 sec) 
Heartbeat CPU 0 instructions: 71000001 cycles: 226553857 heartbeat IPC: 0.345328 cumulative IPC: 0.309532 (Simulation time: 0 hr 6 min 26 sec) 
Heartbeat CPU 0 instructions: 72000000 cycles: 228209844 heartbeat IPC: 0.603869 cumulative IPC: 0.311671 (Simulation time: 0 hr 6 min 30 sec) 
Heartbeat CPU 0 instructions: 73000001 cycles: 229402559 heartbeat IPC: 0.838424 cumulative IPC: 0.314415 (Simulation time: 0 hr 6 min 34 sec) 
Heartbeat CPU 0 instructions: 74000002 cycles: 230728643 heartbeat IPC: 0.754101 cumulative IPC: 0.316946 (Simulation time: 0 hr 6 min 38 sec) 
Heartbeat CPU 0 instructions: 75000000 cycles: 232104147 heartbeat IPC: 0.727005 cumulative IPC: 0.319381 (Simulation time: 0 hr 6 min 42 sec) 
Heartbeat CPU 0 instructions: 76000003 cycles: 238242060 heartbeat IPC: 0.162922 cumulative IPC: 0.315343 (Simulation time: 0 hr 6 min 50 sec) 
Heartbeat CPU 0 instructions: 77000000 cycles: 239667009 heartbeat IPC: 0.701777 cumulative IPC: 0.317644 (Simulation time: 0 hr 6 min 54 sec) 
Heartbeat CPU 0 instructions: 78000000 cycles: 241264932 heartbeat IPC: 0.625812 cumulative IPC: 0.319689 (Simulation time: 0 hr 6 min 59 sec) 
Heartbeat CPU 0 instructions: 79000001 cycles: 242292890 heartbeat IPC: 0.972803 cumulative IPC: 0.322464 (Simulation time: 0 hr 7 min 3 sec) 
Heartbeat CPU 0 instructions: 80000003 cycles: 246048409 heartbeat IPC: 0.266275 cumulative IPC: 0.321605 (Simulation time: 0 hr 7 min 9 sec) 
Heartbeat CPU 0 instructions: 81000001 cycles: 246960548 heartbeat IPC: 1.09632 cumulative IPC: 0.324471 (Simulation time: 0 hr 7 min 13 sec) 
Heartbeat CPU 0 instructions: 82000002 cycles: 248101953 heartbeat IPC: 0.876114 cumulative IPC: 0.327013 (Simulation time: 0 hr 7 min 17 sec) 
Heartbeat CPU 0 instructions: 83000002 cycles: 249413218 heartbeat IPC: 0.762622 cumulative IPC: 0.329307 (Simulation time: 0 hr 7 min 21 sec) 
Heartbeat CPU 0 instructions: 84000001 cycles: 250351179 heartbeat IPC: 1.06614 cumulative IPC: 0.332072 (Simulation time: 0 hr 7 min 25 sec) 
Heartbeat CPU 0 instructions: 85000001 cycles: 254767695 heartbeat IPC: 0.226423 cumulative IPC: 0.330238 (Simulation time: 0 hr 7 min 33 sec) 
Heartbeat CPU 0 instructions: 86000003 cycles: 261834751 heartbeat IPC: 0.141502 cumulative IPC: 0.325136 (Simulation time: 0 hr 7 min 42 sec) 
Heartbeat CPU 0 instructions: 87000002 cycles: 265070867 heartbeat IPC: 0.309012 cumulative IPC: 0.324939 (Simulation time: 0 hr 7 min 47 sec) 
Heartbeat CPU 0 instructions: 88000000 cycles: 266049573 heartbeat IPC: 1.02176 cumulative IPC: 0.327506 (Simulation time: 0 hr 7 min 51 sec) 
Heartbeat CPU 0 instructions: 89000003 cycles: 267036147 heartbeat IPC: 1.01361 cumulative IPC: 0.330045 (Simulation time: 0 hr 7 min 55 sec) 
Heartbeat CPU 0 instructions: 90000001 cycles: 268160840 heartbeat IPC: 0.88913 cumulative IPC: 0.332393 (Simulation time: 0 hr 7 min 59 sec) 
Heartbeat CPU 0 instructions: 91000000 cycles: 271257211 heartbeat IPC: 0.322958 cumulative IPC: 0.332285 (Simulation time: 0 hr 8 min 5 sec) 
Heartbeat CPU 0 instructions: 92000002 cycles: 273236063 heartbeat IPC: 0.505345 cumulative IPC: 0.333541 (Simulation time: 0 hr 8 min 10 sec) 
Heartbeat CPU 0 instructions: 93000000 cycles: 275102305 heartbeat IPC: 0.535835 cumulative IPC: 0.334915 (Simulation time: 0 hr 8 min 14 sec) 
Heartbeat CPU 0 instructions: 94000001 cycles: 277286058 heartbeat IPC: 0.457928 cumulative IPC: 0.335885 (Simulation time: 0 hr 8 min 19 sec) 
Heartbeat CPU 0 instructions: 95000000 cycles: 278372101 heartbeat IPC: 0.920773 cumulative IPC: 0.33817 (Simulation time: 0 hr 8 min 23 sec) 
Heartbeat CPU 0 instructions: 96000001 cycles: 280288991 heartbeat IPC: 0.521679 cumulative IPC: 0.339427 (Simulation time: 0 hr 8 min 27 sec) 
Heartbeat CPU 0 instructions: 97000002 cycles: 281470143 heartbeat IPC: 0.846632 cumulative IPC: 0.341559 (Simulation time: 0 hr 8 min 31 sec) 
Heartbeat CPU 0 instructions: 98000001 cycles: 282604216 heartbeat IPC: 0.881777 cumulative IPC: 0.34373 (Simulation time: 0 hr 8 min 35 sec) 
Heartbeat CPU 0 instructions: 99000000 cycles: 285357150 heartbeat IPC: 0.363248 cumulative IPC: 0.343918 (Simulation time: 0 hr 8 min 40 sec) 
Heartbeat CPU 0 instructions: 100000001 cycles: 287319156 heartbeat IPC: 0.509683 cumulative IPC: 0.345052 (Simulation time: 0 hr 8 min 45 sec) 
Heartbeat CPU 0 instructions: 101000000 cycles: 298588417 heartbeat IPC: 0.0887369 cumulative IPC: 0.335365 (Simulation time: 0 hr 8 min 54 sec) 
Heartbeat CPU 0 instructions: 102000002 cycles: 308465251 heartbeat IPC: 0.101247 cumulative IPC: 0.327859 (Simulation time: 0 hr 9 min 3 sec) 
Heartbeat CPU 0 instructions: 103000000 cycles: 314799794 heartbeat IPC: 0.157864 cumulative IPC: 0.324434 (Simulation time: 0 hr 9 min 12 sec) 
Heartbeat CPU 0 instructions: 104000003 cycles: 316369424 heartbeat IPC: 0.637095 cumulative IPC: 0.325987 (Simulation time: 0 hr 9 min 16 sec) 
Heartbeat CPU 0 instructions: 105000001 cycles: 317636303 heartbeat IPC: 0.78934 cumulative IPC: 0.327837 (Simulation time: 0 hr 9 min 20 sec) 
Heartbeat CPU 0 instructions: 106000000 cycles: 319295858 heartbeat IPC: 0.602571 cumulative IPC: 0.329267 (Simulation time: 0 hr 9 min 25 sec) 
Heartbeat CPU 0 instructions: 107000000 cycles: 325019424 heartbeat IPC: 0.174716 cumulative IPC: 0.326542 (Simulation time: 0 hr 9 min 33 sec) 
Heartbeat CPU 0 instructions: 108000002 cycles: 326256202 heartbeat IPC: 0.808554 cumulative IPC: 0.328371 (Simulation time: 0 hr 9 min 37 sec) 
Heartbeat CPU 0 instructions: 109000001 cycles: 327971944 heartbeat IPC: 0.582838 cumulative IPC: 0.329704 (Simulation time: 0 hr 9 min 42 sec) 
Heartbeat CPU 0 instructions: 110000000 cycles: 332047528 heartbeat IPC: 0.245363 cumulative IPC: 0.328668 (Simulation time: 0 hr 9 min 49 sec) 
Heartbeat CPU 0 instructions: 111000002 cycles: 333135376 heartbeat IPC: 0.919248 cumulative IPC: 0.330599 (Simulation time: 0 hr 9 min 53 sec) 
Heartbeat CPU 0 instructions: 112000001 cycles: 336685579 heartbeat IPC: 0.281674 cumulative IPC: 0.330082 (Simulation time: 0 hr 9 min 59 sec) 
Heartbeat CPU 0 instructions: 113000001 cycles: 338139869 heartbeat IPC: 0.687621 cumulative IPC: 0.331622 (Simulation time: 0 hr 10 min 4 sec) 
Heartbeat CPU 0 instructions: 114000003 cycles: 339181622 heartbeat IPC: 0.959922 cumulative IPC: 0.333554 (Simulation time: 0 hr 10 min 8 sec) 
Heartbeat CPU 0 instructions: 115000003 cycles: 340876155 heartbeat IPC: 0.590133 cumulative IPC: 0.334831 (Simulation time: 0 hr 10 min 13 sec) 
Heartbeat CPU 0 instructions: 116000001 cycles: 342522009 heartbeat IPC: 0.607586 cumulative IPC: 0.336143 (Simulation time: 0 hr 10 min 18 sec) 
Heartbeat CPU 0 instructions: 117000002 cycles: 343667933 heartbeat IPC: 0.872659 cumulative IPC: 0.337934 (Simulation time: 0 hr 10 min 22 sec) 
Heartbeat CPU 0 instructions: 118000000 cycles: 351155672 heartbeat IPC: 0.133551 cumulative IPC: 0.333571 (Simulation time: 0 hr 10 min 31 sec) 
Heartbeat CPU 0 instructions: 119000003 cycles: 360546745 heartbeat IPC: 0.106484 cumulative IPC: 0.327649 (Simulation time: 0 hr 10 min 40 sec) 
Heartbeat CPU 0 instructions: 120000000 cycles: 362665357 heartbeat IPC: 0.472006 cumulative IPC: 0.328494 (Simulation time: 0 hr 10 min 45 sec) 
Heartbeat CPU 0 instructions: 121000000 cycles: 364019353 heartbeat IPC: 0.738555 cumulative IPC: 0.330021 (Simulation time: 0 hr 10 min 50 sec) 
Heartbeat CPU 0 instructions: 122000000 cycles: 366975719 heartbeat IPC: 0.338253 cumulative IPC: 0.330087 (Simulation time: 0 hr 10 min 55 sec) 
Heartbeat CPU 0 instructions: 123000001 cycles: 369506611 heartbeat IPC: 0.395118 cumulative IPC: 0.330533 (Simulation time: 0 hr 11 min 0 sec) 
Heartbeat CPU 0 instructions: 124000003 cycles: 370960265 heartbeat IPC: 0.687923 cumulative IPC: 0.331935 (Simulation time: 0 hr 11 min 5 sec) 
Heartbeat CPU 0 instructions: 125000001 cycles: 373462801 heartbeat IPC: 0.399594 cumulative IPC: 0.332389 (Simulation time: 0 hr 11 min 10 sec) 
Heartbeat CPU 0 instructions: 126000003 cycles: 374877395 heartbeat IPC: 0.706918 cumulative IPC: 0.333804 (Simulation time: 0 hr 11 min 15 sec) 
Heartbeat CPU 0 instructions: 127000001 cycles: 376134279 heartbeat IPC: 0.795617 cumulative IPC: 0.335348 (Simulation time: 0 hr 11 min 19 sec) 
Heartbeat CPU 0 instructions: 128000002 cycles: 383209075 heartbeat IPC: 0.141347 cumulative IPC: 0.331763 (Simulation time: 0 hr 11 min 29 sec) 
Heartbeat CPU 0 instructions: 129000003 cycles: 388631792 heartbeat IPC: 0.18441 cumulative IPC: 0.329705 (Simulation time: 0 hr 11 min 36 sec) 
Heartbeat CPU 0 instructions: 130000000 cycles: 389685344 heartbeat IPC: 0.949167 cumulative IPC: 0.331381 (Simulation time: 0 hr 11 min 40 sec) 
Heartbeat CPU 0 instructions: 131000000 cycles: 391244106 heartbeat IPC: 0.641535 cumulative IPC: 0.332618 (Simulation time: 0 hr 11 min 45 sec) 
Heartbeat CPU 0 instructions: 132000000 cycles: 392986622 heartbeat IPC: 0.573883 cumulative IPC: 0.333689 (Simulation time: 0 hr 11 min 50 sec) 
Heartbeat CPU 0 instructions: 133000001 cycles: 394176367 heartbeat IPC: 0.840517 cumulative IPC: 0.335221 (Simulation time: 0 hr 11 min 54 sec) 
Heartbeat CPU 0 instructions: 134000000 cycles: 396153410 heartbeat IPC: 0.505805 cumulative IPC: 0.336073 (Simulation time: 0 hr 11 min 59 sec) 
Heartbeat CPU 0 instructions: 135000003 cycles: 397281263 heartbeat IPC: 0.886643 cumulative IPC: 0.337637 (Simulation time: 0 hr 12 min 3 sec) 
Heartbeat CPU 0 instructions: 136000000 cycles: 399450352 heartbeat IPC: 0.461022 cumulative IPC: 0.338308 (Simulation time: 0 hr 12 min 9 sec) 
Heartbeat CPU 0 instructions: 137000001 cycles: 400755014 heartbeat IPC: 0.766483 cumulative IPC: 0.339703 (Simulation time: 0 hr 12 min 13 sec) 
Heartbeat CPU 0 instructions: 138000003 cycles: 403020903 heartbeat IPC: 0.441329 cumulative IPC: 0.340275 (Simulation time: 0 hr 12 min 18 sec) 
Heartbeat CPU 0 instructions: 139000000 cycles: 413103945 heartbeat IPC: 0.0991761 cumulative IPC: 0.334385 (Simulation time: 0 hr 12 min 28 sec) 
Heartbeat CPU 0 instructions: 140000000 cycles: 424001100 heartbeat IPC: 0.0917671 cumulative IPC: 0.328143 (Simulation time: 0 hr 12 min 38 sec) 
Heartbeat CPU 0 instructions: 141000000 cycles: 434783312 heartbeat IPC: 0.0927453 cumulative IPC: 0.3223 (Simulation time: 0 hr 12 min 48 sec) 
Heartbeat CPU 0 instructions: 142000003 cycles: 445333900 heartbeat IPC: 0.0947817 cumulative IPC: 0.316905 (Simulation time: 0 hr 12 min 57 sec) 
Heartbeat CPU 0 instructions: 143000000 cycles: 454916338 heartbeat IPC: 0.104357 cumulative IPC: 0.312424 (Simulation time: 0 hr 13 min 7 sec) 
Heartbeat CPU 0 instructions: 144000002 cycles: 462290654 heartbeat IPC: 0.135606 cumulative IPC: 0.309601 (Simulation time: 0 hr 13 min 18 sec) 
Heartbeat CPU 0 instructions: 145000001 cycles: 468548682 heartbeat IPC: 0.159795 cumulative IPC: 0.307598 (Simulation time: 0 hr 13 min 27 sec) 
Heartbeat CPU 0 instructions: 146000003 cycles: 475605041 heartbeat IPC: 0.141716 cumulative IPC: 0.305135 (Simulation time: 0 hr 13 min 37 sec) 
Heartbeat CPU 0 instructions: 147000001 cycles: 476991649 heartbeat IPC: 0.721183 cumulative IPC: 0.306346 (Simulation time: 0 hr 13 min 41 sec) 
Heartbeat CPU 0 instructions: 148000000 cycles: 478405831 heartbeat IPC: 0.707122 cumulative IPC: 0.307531 (Simulation time: 0 hr 13 min 46 sec) 
Heartbeat CPU 0 instructions: 149000000 cycles: 479798819 heartbeat IPC: 0.717881 cumulative IPC: 0.308724 (Simulation time: 0 hr 13 min 50 sec) 
Heartbeat CPU 0 instructions: 150000003 cycles: 481202410 heartbeat IPC: 0.71246 cumulative IPC: 0.309902 (Simulation time: 0 hr 13 min 55 sec) 
Heartbeat CPU 0 instructions: 151000000 cycles: 482228362 heartbeat IPC: 0.974702 cumulative IPC: 0.311318 (Simulation time: 0 hr 14 min 0 sec) 
Heartbeat CPU 0 instructions: 152000003 cycles: 489779536 heartbeat IPC: 0.13243 cumulative IPC: 0.308558 (Simulation time: 0 hr 14 min 9 sec) 
Heartbeat CPU 0 instructions: 153000003 cycles: 492595710 heartbeat IPC: 0.355092 cumulative IPC: 0.308824 (Simulation time: 0 hr 14 min 16 sec) 
Heartbeat CPU 0 instructions: 154000000 cycles: 493587464 heartbeat IPC: 1.00831 cumulative IPC: 0.31023 (Simulation time: 0 hr 14 min 20 sec) 
Heartbeat CPU 0 instructions: 155000000 cycles: 495880148 heartbeat IPC: 0.43617 cumulative IPC: 0.310813 (Simulation time: 0 hr 14 min 26 sec) 
Heartbeat CPU 0 instructions: 156000001 cycles: 496913884 heartbeat IPC: 0.967366 cumulative IPC: 0.31218 (Simulation time: 0 hr 14 min 30 sec) 
Heartbeat CPU 0 instructions: 157000001 cycles: 498171380 heartbeat IPC: 0.795231 cumulative IPC: 0.3134 (Simulation time: 0 hr 14 min 35 sec) 
Heartbeat CPU 0 instructions: 158000000 cycles: 499130522 heartbeat IPC: 1.0426 cumulative IPC: 0.314803 (Simulation time: 0 hr 14 min 39 sec) 
Heartbeat CPU 0 instructions: 159000003 cycles: 503198270 heartbeat IPC: 0.245837 cumulative IPC: 0.314245 (Simulation time: 0 hr 14 min 46 sec) 
Heartbeat CPU 0 instructions: 160000000 cycles: 504327488 heartbeat IPC: 0.885566 cumulative IPC: 0.315525 (Simulation time: 0 hr 14 min 51 sec) 
Heartbeat CPU 0 instructions: 161000000 cycles: 505351670 heartbeat IPC: 0.976389 cumulative IPC: 0.316866 (Simulation time: 0 hr 14 min 55 sec) 
Heartbeat CPU 0 instructions: 162000001 cycles: 507013304 heartbeat IPC: 0.601818 cumulative IPC: 0.3178 (Simulation time: 0 hr 15 min 0 sec) 
Heartbeat CPU 0 instructions: 163000000 cycles: 508010190 heartbeat IPC: 1.00312 cumulative IPC: 0.319146 (Simulation time: 0 hr 15 min 5 sec) 
Heartbeat CPU 0 instructions: 164000003 cycles: 509008966 heartbeat IPC: 1.00123 cumulative IPC: 0.320486 (Simulation time: 0 hr 15 min 9 sec) 
Heartbeat CPU 0 instructions: 165000000 cycles: 510137686 heartbeat IPC: 0.885957 cumulative IPC: 0.321738 (Simulation time: 0 hr 15 min 14 sec) 
Heartbeat CPU 0 instructions: 166000000 cycles: 513767050 heartbeat IPC: 0.27553 cumulative IPC: 0.321411 (Simulation time: 0 hr 15 min 21 sec) 
Heartbeat CPU 0 instructions: 167000001 cycles: 514681327 heartbeat IPC: 1.09376 cumulative IPC: 0.322784 (Simulation time: 0 hr 15 min 26 sec) 
Heartbeat CPU 0 instructions: 168000002 cycles: 516651262 heartbeat IPC: 0.507631 cumulative IPC: 0.323489 (Simulation time: 0 hr 15 min 32 sec) 
Heartbeat CPU 0 instructions: 169000003 cycles: 517512031 heartbeat IPC: 1.16175 cumulative IPC: 0.324885 (Simulation time: 0 hr 15 min 36 sec) 
Heartbeat CPU 0 instructions: 170000003 cycles: 518927283 heartbeat IPC: 0.706588 cumulative IPC: 0.325927 (Simulation time: 0 hr 15 min 41 sec) 
Heartbeat CPU 0 instructions: 171000000 cycles: 519858321 heartbeat IPC: 1.07407 cumulative IPC: 0.327268 (Simulation time: 0 hr 15 min 45 sec) 
Heartbeat CPU 0 instructions: 172000001 cycles: 521267186 heartbeat IPC: 0.709792 cumulative IPC: 0.328302 (Simulation time: 0 hr 15 min 50 sec) 
Heartbeat CPU 0 instructions: 173000000 cycles: 532979680 heartbeat IPC: 0.0853788 cumulative IPC: 0.32296 (Simulation time: 0 hr 16 min 0 sec) 
Heartbeat CPU 0 instructions: 174000001 cycles: 544916965 heartbeat IPC: 0.0837712 cumulative IPC: 0.317716 (Simulation time: 0 hr 16 min 10 sec) 
Heartbeat CPU 0 instructions: 175000003 cycles: 556593905 heartbeat IPC: 0.085639 cumulative IPC: 0.312844 (Simulation time: 0 hr 16 min 21 sec) 
Heartbeat CPU 0 instructions: 176000000 cycles: 565584437 heartbeat IPC: 0.111228 cumulative IPC: 0.309637 (Simulation time: 0 hr 16 min 31 sec) 
Heartbeat CPU 0 instructions: 177000001 cycles: 572277033 heartbeat IPC: 0.149419 cumulative IPC: 0.307762 (Simulation time: 0 hr 16 min 42 sec) 
Heartbeat CPU 0 instructions: 178000000 cycles: 579539711 heartbeat IPC: 0.13769 cumulative IPC: 0.305629 (Simulation time: 0 hr 16 min 52 sec) 
Heartbeat CPU 0 instructions: 179000001 cycles: 584098809 heartbeat IPC: 0.219342 cumulative IPC: 0.304955 (Simulation time: 0 hr 16 min 59 sec) 
Heartbeat CPU 0 instructions: 180000000 cycles: 585400744 heartbeat IPC: 0.768087 cumulative IPC: 0.305986 (Simulation time: 0 hr 17 min 4 sec) 
Heartbeat CPU 0 instructions: 181000000 cycles: 586306803 heartbeat IPC: 1.10368 cumulative IPC: 0.307219 (Simulation time: 0 hr 17 min 8 sec) 
Heartbeat CPU 0 instructions: 182000000 cycles: 587339175 heartbeat IPC: 0.968643 cumulative IPC: 0.308382 (Simulation time: 0 hr 17 min 13 sec) 
Heartbeat CPU 0 instructions: 183000000 cycles: 590873269 heartbeat IPC: 0.282958 cumulative IPC: 0.30823 (Simulation time: 0 hr 17 min 19 sec) 
Heartbeat CPU 0 instructions: 184000002 cycles: 591785635 heartbeat IPC: 1.09605 cumulative IPC: 0.309446 (Simulation time: 0 hr 17 min 24 sec) 
Heartbeat CPU 0 instructions: 185000001 cycles: 592885931 heartbeat IPC: 0.908845 cumulative IPC: 0.310559 (Simulation time: 0 hr 17 min 28 sec) 
Heartbeat CPU 0 instructions: 186000001 cycles: 594315241 heartbeat IPC: 0.699638 cumulative IPC: 0.311495 (Simulation time: 0 hr 17 min 33 sec) 
Heartbeat CPU 0 instructions: 187000000 cycles: 595220638 heartbeat IPC: 1.10449 cumulative IPC: 0.312702 (Simulation time: 0 hr 17 min 37 sec) 
Heartbeat CPU 0 instructions: 188000000 cycles: 596199329 heartbeat IPC: 1.02177 cumulative IPC: 0.313867 (Simulation time: 0 hr 17 min 42 sec) 
Heartbeat CPU 0 instructions: 189000002 cycles: 600363983 heartbeat IPC: 0.240116 cumulative IPC: 0.313355 (Simulation time: 0 hr 17 min 49 sec) 
Heartbeat CPU 0 instructions: 190000000 cycles: 601233691 heartbeat IPC: 1.14981 cumulative IPC: 0.314566 (Simulation time: 0 hr 17 min 54 sec) 
Heartbeat CPU 0 instructions: 191000000 cycles: 605235325 heartbeat IPC: 0.249898 cumulative IPC: 0.314138 (Simulation time: 0 hr 18 min 1 sec) 
Heartbeat CPU 0 instructions: 192000000 cycles: 606297883 heartbeat IPC: 0.941125 cumulative IPC: 0.315238 (Simulation time: 0 hr 18 min 5 sec) 
Heartbeat CPU 0 instructions: 193000000 cycles: 607351928 heartbeat IPC: 0.948726 cumulative IPC: 0.316338 (Simulation time: 0 hr 18 min 9 sec) 
Heartbeat CPU 0 instructions: 194000000 cycles: 608737814 heartbeat IPC: 0.72156 cumulative IPC: 0.317261 (Simulation time: 0 hr 18 min 14 sec) 
Heartbeat CPU 0 instructions: 195000000 cycles: 609636260 heartbeat IPC: 1.11303 cumulative IPC: 0.318434 (Simulation time: 0 hr 18 min 18 sec) 
Heartbeat CPU 0 instructions: 196000003 cycles: 610956597 heartbeat IPC: 0.757385 cumulative IPC: 0.319384 (Simulation time: 0 hr 18 min 22 sec) 
Heartbeat CPU 0 instructions: 197000000 cycles: 611843859 heartbeat IPC: 1.12706 cumulative IPC: 0.320556 (Simulation time: 0 hr 18 min 27 sec) 
Heartbeat CPU 0 instructions: 198000000 cycles: 615812859 heartbeat IPC: 0.251953 cumulative IPC: 0.320113 (Simulation time: 0 hr 18 min 32 sec) 
Heartbeat CPU 0 instructions: 199000001 cycles: 617227245 heartbeat IPC: 0.707021 cumulative IPC: 0.321 (Simulation time: 0 hr 18 min 37 sec) 
Heartbeat CPU 0 instructions: 200000000 cycles: 624283212 heartbeat IPC: 0.141724 cumulative IPC: 0.318973 (Simulation time: 0 hr 18 min 45 sec) 
Heartbeat CPU 0 instructions: 201000003 cycles: 635698210 heartbeat IPC: 0.0876043 cumulative IPC: 0.314816 (Simulation time: 0 hr 18 min 56 sec) 
Heartbeat CPU 0 instructions: 202000002 cycles: 645700275 heartbeat IPC: 0.0999793 cumulative IPC: 0.311486 (Simulation time: 0 hr 19 min 7 sec) 
Heartbeat CPU 0 instructions: 203000000 cycles: 651966035 heartbeat IPC: 0.159597 cumulative IPC: 0.310025 (Simulation time: 0 hr 19 min 15 sec) 
Heartbeat CPU 0 instructions: 204000001 cycles: 653488186 heartbeat IPC: 0.656966 cumulative IPC: 0.310834 (Simulation time: 0 hr 19 min 20 sec) 
Heartbeat CPU 0 instructions: 205000002 cycles: 654480080 heartbeat IPC: 1.00817 cumulative IPC: 0.311891 (Simulation time: 0 hr 19 min 24 sec) 
Heartbeat CPU 0 instructions: 206000000 cycles: 658584489 heartbeat IPC: 0.24364 cumulative IPC: 0.311466 (Simulation time: 0 hr 19 min 31 sec) 
Heartbeat CPU 0 instructions: 207000002 cycles: 659633415 heartbeat IPC: 0.953358 cumulative IPC: 0.312487 (Simulation time: 0 hr 19 min 35 sec) 
Heartbeat CPU 0 instructions: 208000000 cycles: 661473498 heartbeat IPC: 0.543453 cumulative IPC: 0.31313 (Simulation time: 0 hr 19 min 40 sec) 
Heartbeat CPU 0 instructions: 209000000 cycles: 662897007 heartbeat IPC: 0.702489 cumulative IPC: 0.313966 (Simulation time: 0 hr 19 min 45 sec) 
Heartbeat CPU 0 instructions: 210000002 cycles: 664148352 heartbeat IPC: 0.799142 cumulative IPC: 0.314881 (Simulation time: 0 hr 19 min 49 sec) 
Heartbeat CPU 0 instructions: 211000000 cycles: 666230079 heartbeat IPC: 0.480369 cumulative IPC: 0.315398 (Simulation time: 0 hr 19 min 54 sec) 
Heartbeat CPU 0 instructions: 212000000 cycles: 667298745 heartbeat IPC: 0.935746 cumulative IPC: 0.316393 (Simulation time: 0 hr 19 min 59 sec) 
Heartbeat CPU 0 instructions: 213000000 cycles: 675084215 heartbeat IPC: 0.128444 cumulative IPC: 0.314224 (Simulation time: 0 hr 20 min 8 sec) 
Heartbeat CPU 0 instructions: 214000000 cycles: 685625126 heartbeat IPC: 0.0948685 cumulative IPC: 0.310849 (Simulation time: 0 hr 20 min 18 sec) 
Heartbeat CPU 0 instructions: 215000001 cycles: 694914923 heartbeat IPC: 0.107645 cumulative IPC: 0.308131 (Simulation time: 0 hr 20 min 28 sec) 
Heartbeat CPU 0 instructions: 216000002 cycles: 705236803 heartbeat IPC: 0.0968817 cumulative IPC: 0.305038 (Simulation time: 0 hr 20 min 38 sec) 
Heartbeat CPU 0 instructions: 217000003 cycles: 708138844 heartbeat IPC: 0.344585 cumulative IPC: 0.3052 (Simulation time: 0 hr 20 min 44 sec) 
Heartbeat CPU 0 instructions: 218000000 cycles: 709751766 heartbeat IPC: 0.619991 cumulative IPC: 0.305916 (Simulation time: 0 hr 20 min 49 sec) 
Heartbeat CPU 0 instructions: 219000002 cycles: 716888391 heartbeat IPC: 0.140123 cumulative IPC: 0.304264 (Simulation time: 0 hr 20 min 56 sec) 
Heartbeat CPU 0 instructions: 220000000 cycles: 717968159 heartbeat IPC: 0.926123 cumulative IPC: 0.3052 (Simulation time: 0 hr 21 min 1 sec) 
Heartbeat CPU 0 instructions: 221000000 cycles: 719769899 heartbeat IPC: 0.555019 cumulative IPC: 0.305826 (Simulation time: 0 hr 21 min 5 sec) 
Heartbeat CPU 0 instructions: 222000000 cycles: 721127337 heartbeat IPC: 0.736682 cumulative IPC: 0.306637 (Simulation time: 0 hr 21 min 10 sec) 
Heartbeat CPU 0 instructions: 223000000 cycles: 723124998 heartbeat IPC: 0.500585 cumulative IPC: 0.307173 (Simulation time: 0 hr 21 min 15 sec) 
Heartbeat CPU 0 instructions: 224000001 cycles: 724312213 heartbeat IPC: 0.842308 cumulative IPC: 0.308051 (Simulation time: 0 hr 21 min 19 sec) 
Heartbeat CPU 0 instructions: 225000002 cycles: 728274044 heartbeat IPC: 0.252409 cumulative IPC: 0.307748 (Simulation time: 0 hr 21 min 25 sec) 
Heartbeat CPU 0 instructions: 226000001 cycles: 736647190 heartbeat IPC: 0.119429 cumulative IPC: 0.305606 (Simulation time: 0 hr 21 min 34 sec) 
Heartbeat CPU 0 instructions: 227000002 cycles: 738104821 heartbeat IPC: 0.686045 cumulative IPC: 0.306358 (Simulation time: 0 hr 21 min 38 sec) 
Heartbeat CPU 0 instructions: 228000003 cycles: 739443117 heartbeat IPC: 0.74722 cumulative IPC: 0.307156 (Simulation time: 0 hr 21 min 43 sec) 
Heartbeat CPU 0 instructions: 229000003 cycles: 741462390 heartbeat IPC: 0.495228 cumulative IPC: 0.307669 (Simulation time: 0 hr 21 min 47 sec) 
Heartbeat CPU 0 instructions: 230000000 cycles: 742778471 heartbeat IPC: 0.759829 cumulative IPC: 0.30847 (Simulation time: 0 hr 21 min 52 sec) 
Heartbeat CPU 0 instructions: 231000000 cycles: 746897834 heartbeat IPC: 0.242756 cumulative IPC: 0.308108 (Simulation time: 0 hr 21 min 58 sec) 
Heartbeat CPU 0 instructions: 232000003 cycles: 751557592 heartbeat IPC: 0.214604 cumulative IPC: 0.307528 (Simulation time: 0 hr 22 min 4 sec) 
Heartbeat CPU 0 instructions: 233000001 cycles: 752994808 heartbeat IPC: 0.695788 cumulative IPC: 0.308269 (Simulation time: 0 hr 22 min 9 sec) 
Heartbeat CPU 0 instructions: 234000001 cycles: 754093711 heartbeat IPC: 0.909998 cumulative IPC: 0.309146 (Simulation time: 0 hr 22 min 13 sec) 
Heartbeat CPU 0 instructions: 235000000 cycles: 755721506 heartbeat IPC: 0.614327 cumulative IPC: 0.309804 (Simulation time: 0 hr 22 min 18 sec) 
Heartbeat CPU 0 instructions: 236000003 cycles: 758310942 heartbeat IPC: 0.386186 cumulative IPC: 0.310065 (Simulation time: 0 hr 22 min 23 sec) 
Heartbeat CPU 0 instructions: 237000000 cycles: 759599579 heartbeat IPC: 0.776011 cumulative IPC: 0.310856 (Simulation time: 0 hr 22 min 28 sec) 
Heartbeat CPU 0 instructions: 238000000 cycles: 760993105 heartbeat IPC: 0.717604 cumulative IPC: 0.311601 (Simulation time: 0 hr 22 min 32 sec) 
Heartbeat CPU 0 instructions: 239000000 cycles: 762507762 heartbeat IPC: 0.660215 cumulative IPC: 0.312294 (Simulation time: 0 hr 22 min 37 sec) 
Heartbeat CPU 0 instructions: 240000003 cycles: 770006629 heartbeat IPC: 0.133354 cumulative IPC: 0.310551 (Simulation time: 0 hr 22 min 46 sec) 
Heartbeat CPU 0 instructions: 241000001 cycles: 773524199 heartbeat IPC: 0.284287 cumulative IPC: 0.310431 (Simulation time: 0 hr 22 min 53 sec) 
Heartbeat CPU 0 instructions: 242000000 cycles: 775003899 heartbeat IPC: 0.675812 cumulative IPC: 0.311129 (Simulation time: 0 hr 22 min 58 sec) 
Heartbeat CPU 0 instructions: 243000000 cycles: 776130013 heartbeat IPC: 0.88801 cumulative IPC: 0.311967 (Simulation time: 0 hr 23 min 3 sec) 
Heartbeat CPU 0 instructions: 244000001 cycles: 777043552 heartbeat IPC: 1.09465 cumulative IPC: 0.312887 (Simulation time: 0 hr 23 min 7 sec) 
Heartbeat CPU 0 instructions: 245000000 cycles: 779185177 heartbeat IPC: 0.466935 cumulative IPC: 0.313311 (Simulation time: 0 hr 23 min 13 sec) 
Heartbeat CPU 0 instructions: 246000000 cycles: 780310955 heartbeat IPC: 0.888275 cumulative IPC: 0.314141 (Simulation time: 0 hr 23 min 17 sec) 
Heartbeat CPU 0 instructions: 247000000 cycles: 781206864 heartbeat IPC: 1.11618 cumulative IPC: 0.315061 (Simulation time: 0 hr 23 min 22 sec) 
Heartbeat CPU 0 instructions: 248000002 cycles: 783114016 heartbeat IPC: 0.524343 cumulative IPC: 0.315571 (Simulation time: 0 hr 23 min 27 sec) 
Heartbeat CPU 0 instructions: 249000001 cycles: 784592564 heartbeat IPC: 0.676339 cumulative IPC: 0.316251 (Simulation time: 0 hr 23 min 32 sec) 
Heartbeat CPU 0 instructions: 250000003 cycles: 786057177 heartbeat IPC: 0.682776 cumulative IPC: 0.316934 (Simulation time: 0 hr 23 min 37 sec) 
Heartbeat CPU 0 instructions: 251000001 cycles: 787064318 heartbeat IPC: 0.992908 cumulative IPC: 0.3178 (Simulation time: 0 hr 23 min 41 sec) 
Heartbeat CPU 0 instructions: 252000000 cycles: 787968212 heartbeat IPC: 1.10632 cumulative IPC: 0.318705 (Simulation time: 0 hr 23 min 45 sec) 
Heartbeat CPU 0 instructions: 253000000 cycles: 796162211 heartbeat IPC: 0.122041 cumulative IPC: 0.31668 (Simulation time: 0 hr 23 min 54 sec) 
Heartbeat CPU 0 instructions: 254000001 cycles: 805722338 heartbeat IPC: 0.104601 cumulative IPC: 0.314162 (Simulation time: 0 hr 24 min 4 sec) 
Heartbeat CPU 0 instructions: 255000001 cycles: 815887467 heartbeat IPC: 0.0983755 cumulative IPC: 0.311472 (Simulation time: 0 hr 24 min 14 sec) 
Heartbeat CPU 0 instructions: 256000000 cycles: 825712664 heartbeat IPC: 0.101779 cumulative IPC: 0.308976 (Simulation time: 0 hr 24 min 24 sec) 
Heartbeat CPU 0 instructions: 257000001 cycles: 835326185 heartbeat IPC: 0.10402 cumulative IPC: 0.306616 (Simulation time: 0 hr 24 min 34 sec) 
Heartbeat CPU 0 instructions: 258000000 cycles: 844954157 heartbeat IPC: 0.103864 cumulative IPC: 0.304305 (Simulation time: 0 hr 24 min 43 sec) 
Heartbeat CPU 0 instructions: 259000002 cycles: 854547628 heartbeat IPC: 0.104238 cumulative IPC: 0.302058 (Simulation time: 0 hr 24 min 53 sec) 
Heartbeat CPU 0 instructions: 260000001 cycles: 864088320 heartbeat IPC: 0.104814 cumulative IPC: 0.299879 (Simulation time: 0 hr 25 min 3 sec) 
Heartbeat CPU 0 instructions: 261000002 cycles: 873278742 heartbeat IPC: 0.108809 cumulative IPC: 0.297867 (Simulation time: 0 hr 25 min 13 sec) 
Heartbeat CPU 0 instructions: 262000000 cycles: 883165673 heartbeat IPC: 0.101143 cumulative IPC: 0.295664 (Simulation time: 0 hr 25 min 22 sec) 
Heartbeat CPU 0 instructions: 263000001 cycles: 893003257 heartbeat IPC: 0.101651 cumulative IPC: 0.293525 (Simulation time: 0 hr 25 min 32 sec) 
Heartbeat CPU 0 instructions: 264000000 cycles: 902893923 heartbeat IPC: 0.101105 cumulative IPC: 0.291417 (Simulation time: 0 hr 25 min 41 sec) 
Heartbeat CPU 0 instructions: 265000001 cycles: 913259621 heartbeat IPC: 0.0964721 cumulative IPC: 0.289203 (Simulation time: 0 hr 25 min 51 sec) 
Heartbeat CPU 0 instructions: 266000000 cycles: 924446958 heartbeat IPC: 0.0893867 cumulative IPC: 0.286784 (Simulation time: 0 hr 26 min 0 sec) 
Heartbeat CPU 0 instructions: 267000000 cycles: 936175488 heartbeat IPC: 0.0852622 cumulative IPC: 0.284258 (Simulation time: 0 hr 26 min 10 sec) 
Heartbeat CPU 0 instructions: 268000001 cycles: 946876210 heartbeat IPC: 0.0934517 cumulative IPC: 0.282101 (Simulation time: 0 hr 26 min 20 sec) 
Heartbeat CPU 0 instructions: 269000001 cycles: 958288676 heartbeat IPC: 0.0876235 cumulative IPC: 0.279784 (Simulation time: 0 hr 26 min 30 sec) 
Heartbeat CPU 0 instructions: 270000001 cycles: 968393940 heartbeat IPC: 0.0989583 cumulative IPC: 0.277896 (Simulation time: 0 hr 26 min 39 sec) 
Heartbeat CPU 0 instructions: 271000001 cycles: 978089274 heartbeat IPC: 0.103142 cumulative IPC: 0.276163 (Simulation time: 0 hr 26 min 50 sec) 
Heartbeat CPU 0 instructions: 272000000 cycles: 987520802 heartbeat IPC: 0.106027 cumulative IPC: 0.274537 (Simulation time: 0 hr 27 min 1 sec) 
Heartbeat CPU 0 instructions: 273000002 cycles: 993467492 heartbeat IPC: 0.168161 cumulative IPC: 0.2739 (Simulation time: 0 hr 27 min 10 sec) 
Heartbeat CPU 0 instructions: 274000000 cycles: 994366353 heartbeat IPC: 1.11252 cumulative IPC: 0.274659 (Simulation time: 0 hr 27 min 14 sec) 
Heartbeat CPU 0 instructions: 275000000 cycles: 995401903 heartbeat IPC: 0.96567 cumulative IPC: 0.275378 (Simulation time: 0 hr 27 min 19 sec) 
Heartbeat CPU 0 instructions: 276000001 cycles: 997428478 heartbeat IPC: 0.493444 cumulative IPC: 0.275821 (Simulation time: 0 hr 27 min 24 sec) 
Heartbeat CPU 0 instructions: 277000001 cycles: 1002186285 heartbeat IPC: 0.210181 cumulative IPC: 0.275509 (Simulation time: 0 hr 27 min 33 sec) 
Heartbeat CPU 0 instructions: 278000002 cycles: 1003520733 heartbeat IPC: 0.749374 cumulative IPC: 0.27614 (Simulation time: 0 hr 27 min 37 sec) 
Heartbeat CPU 0 instructions: 279000000 cycles: 1004640677 heartbeat IPC: 0.8929 cumulative IPC: 0.276828 (Simulation time: 0 hr 27 min 41 sec) 
Heartbeat CPU 0 instructions: 280000001 cycles: 1005533772 heartbeat IPC: 1.1197 cumulative IPC: 0.277577 (Simulation time: 0 hr 27 min 46 sec) 
Heartbeat CPU 0 instructions: 281000002 cycles: 1006723650 heartbeat IPC: 0.840423 cumulative IPC: 0.278242 (Simulation time: 0 hr 27 min 50 sec) 
Heartbeat CPU 0 instructions: 282000001 cycles: 1007841527 heartbeat IPC: 0.894552 cumulative IPC: 0.278926 (Simulation time: 0 hr 27 min 54 sec) 
Heartbeat CPU 0 instructions: 283000002 cycles: 1009703391 heartbeat IPC: 0.537097 cumulative IPC: 0.279402 (Simulation time: 0 hr 27 min 59 sec) 
Heartbeat CPU 0 instructions: 284000000 cycles: 1010811517 heartbeat IPC: 0.902423 cumulative IPC: 0.280085 (Simulation time: 0 hr 28 min 4 sec) 
Heartbeat CPU 0 instructions: 285000002 cycles: 1016217436 heartbeat IPC: 0.184983 cumulative IPC: 0.279579 (Simulation time: 0 hr 28 min 11 sec) 
Heartbeat CPU 0 instructions: 286000000 cycles: 1028542289 heartbeat IPC: 0.0811367 cumulative IPC: 0.277201 (Simulation time: 0 hr 28 min 22 sec) 
Heartbeat CPU 0 instructions: 287000001 cycles: 1039149547 heartbeat IPC: 0.0942752 cumulative IPC: 0.275333 (Simulation time: 0 hr 28 min 32 sec) 
Heartbeat CPU 0 instructions: 288000003 cycles: 1041399736 heartbeat IPC: 0.444408 cumulative IPC: 0.275698 (Simulation time: 0 hr 28 min 37 sec) 
Heartbeat CPU 0 instructions: 289000001 cycles: 1043173554 heartbeat IPC: 0.563755 cumulative IPC: 0.276188 (Simulation time: 0 hr 28 min 42 sec) 
Heartbeat CPU 0 instructions: 290000001 cycles: 1046765752 heartbeat IPC: 0.278381 cumulative IPC: 0.276196 (Simulation time: 0 hr 28 min 48 sec) 
Heartbeat CPU 0 instructions: 291000001 cycles: 1047877510 heartbeat IPC: 0.899476 cumulative IPC: 0.276857 (Simulation time: 0 hr 28 min 52 sec) 
Heartbeat CPU 0 instructions: 292000002 cycles: 1048880436 heartbeat IPC: 0.997084 cumulative IPC: 0.277546 (Simulation time: 0 hr 28 min 57 sec) 
Heartbeat CPU 0 instructions: 293000002 cycles: 1050401479 heartbeat IPC: 0.657444 cumulative IPC: 0.278096 (Simulation time: 0 hr 29 min 2 sec) 
Heartbeat CPU 0 instructions: 294000002 cycles: 1051962250 heartbeat IPC: 0.640709 cumulative IPC: 0.278635 (Simulation time: 0 hr 29 min 7 sec) 
Heartbeat CPU 0 instructions: 295000001 cycles: 1060534065 heartbeat IPC: 0.116661 cumulative IPC: 0.277325 (Simulation time: 0 hr 29 min 16 sec) 
Heartbeat CPU 0 instructions: 296000003 cycles: 1072379012 heartbeat IPC: 0.0844244 cumulative IPC: 0.275193 (Simulation time: 0 hr 29 min 27 sec) 
Heartbeat CPU 0 instructions: 297000000 cycles: 1082499363 heartbeat IPC: 0.0988105 cumulative IPC: 0.273544 (Simulation time: 0 hr 29 min 37 sec) 
Heartbeat CPU 0 instructions: 298000002 cycles: 1087571825 heartbeat IPC: 0.197143 cumulative IPC: 0.273187 (Simulation time: 0 hr 29 min 45 sec) 
Heartbeat CPU 0 instructions: 299000001 cycles: 1088665880 heartbeat IPC: 0.91403 cumulative IPC: 0.273832 (Simulation time: 0 hr 29 min 49 sec) 
Heartbeat CPU 0 instructions: 300000002 cycles: 1090157858 heartbeat IPC: 0.670252 cumulative IPC: 0.274374 (Simulation time: 0 hr 29 min 54 sec) 
Heartbeat CPU 0 instructions: 301000002 cycles: 1091420715 heartbeat IPC: 0.791855 cumulative IPC: 0.274973 (Simulation time: 0 hr 29 min 58 sec) 
Heartbeat CPU 0 instructions: 302000000 cycles: 1093535890 heartbeat IPC: 0.472773 cumulative IPC: 0.275356 (Simulation time: 0 hr 30 min 4 sec) 
Heartbeat CPU 0 instructions: 303000000 cycles: 1094811332 heartbeat IPC: 0.784042 cumulative IPC: 0.275949 (Simulation time: 0 hr 30 min 8 sec) 
Heartbeat CPU 0 instructions: 304000001 cycles: 1095826109 heartbeat IPC: 0.985439 cumulative IPC: 0.276606 (Simulation time: 0 hr 30 min 13 sec) 
Heartbeat CPU 0 instructions: 305000001 cycles: 1103069642 heartbeat IPC: 0.138054 cumulative IPC: 0.275696 (Simulation time: 0 hr 30 min 21 sec) 
Heartbeat CPU 0 instructions: 306000000 cycles: 1105936283 heartbeat IPC: 0.34884 cumulative IPC: 0.275886 (Simulation time: 0 hr 30 min 27 sec) 
Heartbeat CPU 0 instructions: 307000002 cycles: 1107337054 heartbeat IPC: 0.713894 cumulative IPC: 0.27644 (Simulation time: 0 hr 30 min 31 sec) 
Heartbeat CPU 0 instructions: 308000000 cycles: 1108858658 heartbeat IPC: 0.6572 cumulative IPC: 0.276963 (Simulation time: 0 hr 30 min 36 sec) 
Heartbeat CPU 0 instructions: 309000001 cycles: 1110052248 heartbeat IPC: 0.837809 cumulative IPC: 0.277566 (Simulation time: 0 hr 30 min 40 sec) 
Heartbeat CPU 0 instructions: 310000003 cycles: 1114689156 heartbeat IPC: 0.215661 cumulative IPC: 0.277308 (Simulation time: 0 hr 30 min 47 sec) 
Heartbeat CPU 0 instructions: 311000000 cycles: 1115815053 heartbeat IPC: 0.888178 cumulative IPC: 0.277925 (Simulation time: 0 hr 30 min 51 sec) 
Heartbeat CPU 0 instructions: 312000000 cycles: 1118343832 heartbeat IPC: 0.395448 cumulative IPC: 0.278191 (Simulation time: 0 hr 30 min 56 sec) 
Heartbeat CPU 0 instructions: 313000002 cycles: 1120144979 heartbeat IPC: 0.555203 cumulative IPC: 0.278636 (Simulation time: 0 hr 31 min 1 sec) 
Heartbeat CPU 0 instructions: 314000001 cycles: 1121529549 heartbeat IPC: 0.722245 cumulative IPC: 0.279184 (Simulation time: 0 hr 31 min 6 sec) 
Heartbeat CPU 0 instructions: 315000000 cycles: 1128178606 heartbeat IPC: 0.150397 cumulative IPC: 0.278425 (Simulation time: 0 hr 31 min 14 sec) 
Heartbeat CPU 0 instructions: 316000001 cycles: 1132202447 heartbeat IPC: 0.248519 cumulative IPC: 0.278319 (Simulation time: 0 hr 31 min 20 sec) 
Heartbeat CPU 0 instructions: 317000000 cycles: 1133650958 heartbeat IPC: 0.690363 cumulative IPC: 0.278845 (Simulation time: 0 hr 31 min 24 sec) 
Heartbeat CPU 0 instructions: 318000002 cycles: 1135371940 heartbeat IPC: 0.581065 cumulative IPC: 0.279303 (Simulation time: 0 hr 31 min 29 sec) 
Heartbeat CPU 0 instructions: 319000000 cycles: 1136608438 heartbeat IPC: 0.808734 cumulative IPC: 0.27988 (Simulation time: 0 hr 31 min 34 sec) 
Heartbeat CPU 0 instructions: 320000002 cycles: 1140438841 heartbeat IPC: 0.26107 cumulative IPC: 0.279816 (Simulation time: 0 hr 31 min 40 sec) 
Heartbeat CPU 0 instructions: 321000001 cycles: 1142012247 heartbeat IPC: 0.635563 cumulative IPC: 0.280307 (Simulation time: 0 hr 31 min 45 sec) 
Heartbeat CPU 0 instructions: 322000001 cycles: 1143866224 heartbeat IPC: 0.539381 cumulative IPC: 0.280727 (Simulation time: 0 hr 31 min 49 sec) 
Heartbeat CPU 0 instructions: 323000001 cycles: 1145277842 heartbeat IPC: 0.708407 cumulative IPC: 0.281254 (Simulation time: 0 hr 31 min 54 sec) 
Heartbeat CPU 0 instructions: 324000003 cycles: 1146440027 heartbeat IPC: 0.86045 cumulative IPC: 0.281841 (Simulation time: 0 hr 31 min 59 sec) 
Heartbeat CPU 0 instructions: 325000000 cycles: 1153079982 heartbeat IPC: 0.150603 cumulative IPC: 0.281085 (Simulation time: 0 hr 32 min 7 sec) 
Heartbeat CPU 0 instructions: 326000000 cycles: 1163640709 heartbeat IPC: 0.0946904 cumulative IPC: 0.279393 (Simulation time: 0 hr 32 min 17 sec) 
Heartbeat CPU 0 instructions: 327000002 cycles: 1174662723 heartbeat IPC: 0.0907277 cumulative IPC: 0.277622 (Simulation time: 0 hr 32 min 28 sec) 
Heartbeat CPU 0 instructions: 328000000 cycles: 1182450949 heartbeat IPC: 0.128399 cumulative IPC: 0.276639 (Simulation time: 0 hr 32 min 37 sec) 
Heartbeat CPU 0 instructions: 329000001 cycles: 1189703285 heartbeat IPC: 0.137887 cumulative IPC: 0.275793 (Simulation time: 0 hr 32 min 48 sec) 
Heartbeat CPU 0 instructions: 330000000 cycles: 1192822590 heartbeat IPC: 0.320584 cumulative IPC: 0.27591 (Simulation time: 0 hr 32 min 55 sec) 
Heartbeat CPU 0 instructions: 331000000 cycles: 1193926620 heartbeat IPC: 0.905773 cumulative IPC: 0.276493 (Simulation time: 0 hr 32 min 59 sec) 
Heartbeat CPU 0 instructions: 332000003 cycles: 1197858176 heartbeat IPC: 0.254353 cumulative IPC: 0.27642 (Simulation time: 0 hr 33 min 6 sec) 
Heartbeat CPU 0 instructions: 333000002 cycles: 1198732580 heartbeat IPC: 1.14364 cumulative IPC: 0.277053 (Simulation time: 0 hr 33 min 11 sec) 
Heartbeat CPU 0 instructions: 334000000 cycles: 1199862342 heartbeat IPC: 0.88514 cumulative IPC: 0.277626 (Simulation time: 0 hr 33 min 15 sec) 
Heartbeat CPU 0 instructions: 335000000 cycles: 1200774432 heartbeat IPC: 1.09638 cumulative IPC: 0.278248 (Simulation time: 0 hr 33 min 20 sec) 
Heartbeat CPU 0 instructions: 336000000 cycles: 1202648072 heartbeat IPC: 0.53372 cumulative IPC: 0.278646 (Simulation time: 0 hr 33 min 25 sec) 
Heartbeat CPU 0 instructions: 337000000 cycles: 1203972934 heartbeat IPC: 0.754796 cumulative IPC: 0.27917 (Simulation time: 0 hr 33 min 30 sec) 
Heartbeat CPU 0 instructions: 338000001 cycles: 1204975650 heartbeat IPC: 0.997292 cumulative IPC: 0.279768 (Simulation time: 0 hr 33 min 34 sec) 
Heartbeat CPU 0 instructions: 339000000 cycles: 1209595892 heartbeat IPC: 0.216439 cumulative IPC: 0.279526 (Simulation time: 0 hr 33 min 42 sec) 
Heartbeat CPU 0 instructions: 340000001 cycles: 1214812500 heartbeat IPC: 0.191696 cumulative IPC: 0.279149 (Simulation time: 0 hr 33 min 50 sec) 
Heartbeat CPU 0 instructions: 341000000 cycles: 1215820110 heartbeat IPC: 0.992446 cumulative IPC: 0.27974 (Simulation time: 0 hr 33 min 54 sec) 
Heartbeat CPU 0 instructions: 342000001 cycles: 1217185457 heartbeat IPC: 0.732415 cumulative IPC: 0.280248 (Simulation time: 0 hr 33 min 59 sec) 
Heartbeat CPU 0 instructions: 343000001 cycles: 1218271986 heartbeat IPC: 0.920362 cumulative IPC: 0.280819 (Simulation time: 0 hr 34 min 3 sec) 
Heartbeat CPU 0 instructions: 344000000 cycles: 1219237568 heartbeat IPC: 1.03564 cumulative IPC: 0.281417 (Simulation time: 0 hr 34 min 7 sec) 
Heartbeat CPU 0 instructions: 345000000 cycles: 1221540877 heartbeat IPC: 0.434158 cumulative IPC: 0.281705 (Simulation time: 0 hr 34 min 13 sec) 
Heartbeat CPU 0 instructions: 346000001 cycles: 1225118964 heartbeat IPC: 0.279479 cumulative IPC: 0.281699 (Simulation time: 0 hr 34 min 19 sec) 
Heartbeat CPU 0 instructions: 347000000 cycles: 1226136702 heartbeat IPC: 0.98257 cumulative IPC: 0.282281 (Simulation time: 0 hr 34 min 24 sec) 
Heartbeat CPU 0 instructions: 348000000 cycles: 1227052809 heartbeat IPC: 1.09158 cumulative IPC: 0.282885 (Simulation time: 0 hr 34 min 28 sec) 
Heartbeat CPU 0 instructions: 349000000 cycles: 1228283463 heartbeat IPC: 0.812576 cumulative IPC: 0.283416 (Simulation time: 0 hr 34 min 33 sec) 
Heartbeat CPU 0 instructions: 350000002 cycles: 1229193236 heartbeat IPC: 1.09918 cumulative IPC: 0.28402 (Simulation time: 0 hr 34 min 37 sec) 
Heartbeat CPU 0 instructions: 351000000 cycles: 1230626409 heartbeat IPC: 0.697751 cumulative IPC: 0.284502 (Simulation time: 0 hr 34 min 42 sec) 
Heartbeat CPU 0 instructions: 352000000 cycles: 1231544358 heartbeat IPC: 1.08939 cumulative IPC: 0.285102 (Simulation time: 0 hr 34 min 46 sec) 
Heartbeat CPU 0 instructions: 353000000 cycles: 1240961827 heartbeat IPC: 0.106186 cumulative IPC: 0.283744 (Simulation time: 0 hr 34 min 55 sec) 
Heartbeat CPU 0 instructions: 354000002 cycles: 1253227317 heartbeat IPC: 0.0815297 cumulative IPC: 0.281764 (Simulation time: 0 hr 35 min 5 sec) 
Heartbeat CPU 0 instructions: 355000002 cycles: 1263896186 heartbeat IPC: 0.0937307 cumulative IPC: 0.280176 (Simulation time: 0 hr 35 min 14 sec) 
Heartbeat CPU 0 instructions: 356000000 cycles: 1270029861 heartbeat IPC: 0.163034 cumulative IPC: 0.27961 (Simulation time: 0 hr 35 min 23 sec) 
Heartbeat CPU 0 instructions: 357000000 cycles: 1271274580 heartbeat IPC: 0.803394 cumulative IPC: 0.280123 (Simulation time: 0 hr 35 min 27 sec) 
Heartbeat CPU 0 instructions: 358000000 cycles: 1272289667 heartbeat IPC: 0.985137 cumulative IPC: 0.280686 (Simulation time: 0 hr 35 min 31 sec) 
Heartbeat CPU 0 instructions: 359000002 cycles: 1273184082 heartbeat IPC: 1.11805 cumulative IPC: 0.281274 (Simulation time: 0 hr 35 min 35 sec) 
Heartbeat CPU 0 instructions: 360000001 cycles: 1276147449 heartbeat IPC: 0.337454 cumulative IPC: 0.281405 (Simulation time: 0 hr 35 min 41 sec) 
Heartbeat CPU 0 instructions: 361000003 cycles: 1277039692 heartbeat IPC: 1.12077 cumulative IPC: 0.281992 (Simulation time: 0 hr 35 min 45 sec) 
Heartbeat CPU 0 instructions: 362000003 cycles: 1278158227 heartbeat IPC: 0.894027 cumulative IPC: 0.282527 (Simulation time: 0 hr 35 min 50 sec) 
Heartbeat CPU 0 instructions: 363000000 cycles: 1279341263 heartbeat IPC: 0.84528 cumulative IPC: 0.283048 (Simulation time: 0 hr 35 min 55 sec) 
Heartbeat CPU 0 instructions: 364000001 cycles: 1280258214 heartbeat IPC: 1.09057 cumulative IPC: 0.283626 (Simulation time: 0 hr 35 min 59 sec) 
Heartbeat CPU 0 instructions: 365000003 cycles: 1288987789 heartbeat IPC: 0.114553 cumulative IPC: 0.282481 (Simulation time: 0 hr 36 min 9 sec) 
Heartbeat CPU 0 instructions: 366000000 cycles: 1290862519 heartbeat IPC: 0.533409 cumulative IPC: 0.282846 (Simulation time: 0 hr 36 min 14 sec) 
Heartbeat CPU 0 instructions: 367000000 cycles: 1292018553 heartbeat IPC: 0.865026 cumulative IPC: 0.283367 (Simulation time: 0 hr 36 min 18 sec) 
Heartbeat CPU 0 instructions: 368000003 cycles: 1293328536 heartbeat IPC: 0.763371 cumulative IPC: 0.283853 (Simulation time: 0 hr 36 min 23 sec) 
Heartbeat CPU 0 instructions: 369000002 cycles: 1297417329 heartbeat IPC: 0.244571 cumulative IPC: 0.283729 (Simulation time: 0 hr 36 min 30 sec) 
Heartbeat CPU 0 instructions: 370000003 cycles: 1302698931 heartbeat IPC: 0.189337 cumulative IPC: 0.283346 (Simulation time: 0 hr 36 min 37 sec) 
Heartbeat CPU 0 instructions: 371000003 cycles: 1304083697 heartbeat IPC: 0.722144 cumulative IPC: 0.283812 (Simulation time: 0 hr 36 min 41 sec) 
Heartbeat CPU 0 instructions: 372000002 cycles: 1305275496 heartbeat IPC: 0.839067 cumulative IPC: 0.28432 (Simulation time: 0 hr 36 min 46 sec) 
Heartbeat CPU 0 instructions: 373000000 cycles: 1307784677 heartbeat IPC: 0.398536 cumulative IPC: 0.284539 (Simulation time: 0 hr 36 min 52 sec) 
Heartbeat CPU 0 instructions: 374000000 cycles: 1310531749 heartbeat IPC: 0.364024 cumulative IPC: 0.284705 (Simulation time: 0 hr 36 min 58 sec) 
Heartbeat CPU 0 instructions: 375000000 cycles: 1312212901 heartbeat IPC: 0.59483 cumulative IPC: 0.285103 (Simulation time: 0 hr 37 min 2 sec) 
Heartbeat CPU 0 instructions: 376000000 cycles: 1313426902 heartbeat IPC: 0.823723 cumulative IPC: 0.285601 (Simulation time: 0 hr 37 min 7 sec) 
Heartbeat CPU 0 instructions: 377000000 cycles: 1315340865 heartbeat IPC: 0.522476 cumulative IPC: 0.285946 (Simulation time: 0 hr 37 min 13 sec) 
Heartbeat CPU 0 instructions: 378000000 cycles: 1316510172 heartbeat IPC: 0.855207 cumulative IPC: 0.286451 (Simulation time: 0 hr 37 min 17 sec) 
Heartbeat CPU 0 instructions: 379000002 cycles: 1319551971 heartbeat IPC: 0.328753 cumulative IPC: 0.286549 (Simulation time: 0 hr 37 min 24 sec) 
Heartbeat CPU 0 instructions: 380000001 cycles: 1323069555 heartbeat IPC: 0.284286 cumulative IPC: 0.286543 (Simulation time: 0 hr 37 min 30 sec) 
Heartbeat CPU 0 instructions: 381000000 cycles: 1324180395 heartbeat IPC: 0.900219 cumulative IPC: 0.287058 (Simulation time: 0 hr 37 min 34 sec) 
Heartbeat CPU 0 instructions: 382000000 cycles: 1327118674 heartbeat IPC: 0.340335 cumulative IPC: 0.287176 (Simulation time: 0 hr 37 min 40 sec) 
Heartbeat CPU 0 instructions: 383000002 cycles: 1328373118 heartbeat IPC: 0.797168 cumulative IPC: 0.287658 (Simulation time: 0 hr 37 min 44 sec) 
Heartbeat CPU 0 instructions: 384000003 cycles: 1330801156 heartbeat IPC: 0.411856 cumulative IPC: 0.287884 (Simulation time: 0 hr 37 min 49 sec) 
Heartbeat CPU 0 instructions: 385000000 cycles: 1332070603 heartbeat IPC: 0.787742 cumulative IPC: 0.288361 (Simulation time: 0 hr 37 min 54 sec) 
Heartbeat CPU 0 instructions: 386000002 cycles: 1337834846 heartbeat IPC: 0.173484 cumulative IPC: 0.287866 (Simulation time: 0 hr 38 min 1 sec) 
Heartbeat CPU 0 instructions: 387000002 cycles: 1348556519 heartbeat IPC: 0.093269 cumulative IPC: 0.286318 (Simulation time: 0 hr 38 min 12 sec) 
Heartbeat CPU 0 instructions: 388000002 cycles: 1359337451 heartbeat IPC: 0.0927564 cumulative IPC: 0.284783 (Simulation time: 0 hr 38 min 22 sec) 
Heartbeat CPU 0 instructions: 389000003 cycles: 1369154494 heartbeat IPC: 0.101864 cumulative IPC: 0.283471 (Simulation time: 0 hr 38 min 32 sec) 
Heartbeat CPU 0 instructions: 390000000 cycles: 1379792805 heartbeat IPC: 0.0939996 cumulative IPC: 0.282009 (Simulation time: 0 hr 38 min 41 sec) 
Heartbeat CPU 0 instructions: 391000001 cycles: 1390441581 heartbeat IPC: 0.0939076 cumulative IPC: 0.280568 (Simulation time: 0 hr 38 min 51 sec) 
Heartbeat CPU 0 instructions: 392000000 cycles: 1400547150 heartbeat IPC: 0.0989552 cumulative IPC: 0.279258 (Simulation time: 0 hr 39 min 1 sec) 
Heartbeat CPU 0 instructions: 393000003 cycles: 1408214914 heartbeat IPC: 0.130417 cumulative IPC: 0.278447 (Simulation time: 0 hr 39 min 12 sec) 
Heartbeat CPU 0 instructions: 394000000 cycles: 1415910756 heartbeat IPC: 0.12994 cumulative IPC: 0.277639 (Simulation time: 0 hr 39 min 23 sec) 
Heartbeat CPU 0 instructions: 395000001 cycles: 1423414459 heartbeat IPC: 0.133268 cumulative IPC: 0.276878 (Simulation time: 0 hr 39 min 32 sec) 
Heartbeat CPU 0 instructions: 396000000 cycles: 1431857024 heartbeat IPC: 0.118447 cumulative IPC: 0.275944 (Simulation time: 0 hr 39 min 42 sec) 
Heartbeat CPU 0 instructions: 397000000 cycles: 1436187913 heartbeat IPC: 0.230899 cumulative IPC: 0.275808 (Simulation time: 0 hr 39 min 48 sec) 
Heartbeat CPU 0 instructions: 398000001 cycles: 1437373801 heartbeat IPC: 0.843251 cumulative IPC: 0.276276 (Simulation time: 0 hr 39 min 53 sec) 
Heartbeat CPU 0 instructions: 399000000 cycles: 1438767502 heartbeat IPC: 0.717513 cumulative IPC: 0.276704 (Simulation time: 0 hr 39 min 57 sec) 
Heartbeat CPU 0 instructions: 400000000 cycles: 1441279821 heartbeat IPC: 0.398039 cumulative IPC: 0.276915 (Simulation time: 0 hr 40 min 3 sec) 
Heartbeat CPU 0 instructions: 401000001 cycles: 1442530203 heartbeat IPC: 0.799756 cumulative IPC: 0.277369 (Simulation time: 0 hr 40 min 7 sec) 
Heartbeat CPU 0 instructions: 402000000 cycles: 1445439026 heartbeat IPC: 0.343781 cumulative IPC: 0.277502 (Simulation time: 0 hr 40 min 13 sec) 
Heartbeat CPU 0 instructions: 403000002 cycles: 1447016270 heartbeat IPC: 0.634019 cumulative IPC: 0.277891 (Simulation time: 0 hr 40 min 17 sec) 
Heartbeat CPU 0 instructions: 404000000 cycles: 1448258749 heartbeat IPC: 0.804841 cumulative IPC: 0.278343 (Simulation time: 0 hr 40 min 22 sec) 
Heartbeat CPU 0 instructions: 405000003 cycles: 1453351799 heartbeat IPC: 0.196347 cumulative IPC: 0.278056 (Simulation time: 0 hr 40 min 30 sec) 
Heartbeat CPU 0 instructions: 406000000 cycles: 1459656177 heartbeat IPC: 0.158619 cumulative IPC: 0.27754 (Simulation time: 0 hr 40 min 39 sec) 
Heartbeat CPU 0 instructions: 407000000 cycles: 1460838657 heartbeat IPC: 0.84568 cumulative IPC: 0.278 (Simulation time: 0 hr 40 min 43 sec) 
Heartbeat CPU 0 instructions: 408000001 cycles: 1462131855 heartbeat IPC: 0.773278 cumulative IPC: 0.278438 (Simulation time: 0 hr 40 min 48 sec) 
Heartbeat CPU 0 instructions: 409000003 cycles: 1463077556 heartbeat IPC: 1.05742 cumulative IPC: 0.278942 (Simulation time: 0 hr 40 min 53 sec) 
Heartbeat CPU 0 instructions: 410000002 cycles: 1464583135 heartbeat IPC: 0.664196 cumulative IPC: 0.279338 (Simulation time: 0 hr 40 min 58 sec) 
Heartbeat CPU 0 instructions: 411000002 cycles: 1465610411 heartbeat IPC: 0.973448 cumulative IPC: 0.279824 (Simulation time: 0 hr 41 min 3 sec) 
Heartbeat CPU 0 instructions: 412000000 cycles: 1466532589 heartbeat IPC: 1.08439 cumulative IPC: 0.28033 (Simulation time: 0 hr 41 min 7 sec) 
Heartbeat CPU 0 instructions: 413000003 cycles: 1471181345 heartbeat IPC: 0.215112 cumulative IPC: 0.280124 (Simulation time: 0 hr 41 min 15 sec) 
Heartbeat CPU 0 instructions: 414000001 cycles: 1472234291 heartbeat IPC: 0.949714 cumulative IPC: 0.280603 (Simulation time: 0 hr 41 min 20 sec) 
Heartbeat CPU 0 instructions: 415000001 cycles: 1473188657 heartbeat IPC: 1.04782 cumulative IPC: 0.2811 (Simulation time: 0 hr 41 min 24 sec) 
Heartbeat CPU 0 instructions: 416000001 cycles: 1474298123 heartbeat IPC: 0.901335 cumulative IPC: 0.281567 (Simulation time: 0 hr 41 min 29 sec) 
Heartbeat CPU 0 instructions: 417000003 cycles: 1475919645 heartbeat IPC: 0.616706 cumulative IPC: 0.281936 (Simulation time: 0 hr 41 min 34 sec) 
Heartbeat CPU 0 instructions: 418000000 cycles: 1476878392 heartbeat IPC: 1.04302 cumulative IPC: 0.28243 (Simulation time: 0 hr 41 min 39 sec) 
Heartbeat CPU 0 instructions: 419000001 cycles: 1477908725 heartbeat IPC: 0.970561 cumulative IPC: 0.28291 (Simulation time: 0 hr 41 min 43 sec) 
Heartbeat CPU 0 instructions: 420000002 cycles: 1480968200 heartbeat IPC: 0.326854 cumulative IPC: 0.283001 (Simulation time: 0 hr 41 min 50 sec) 
Heartbeat CPU 0 instructions: 421000003 cycles: 1484272712 heartbeat IPC: 0.302617 cumulative IPC: 0.283044 (Simulation time: 0 hr 41 min 57 sec) 
Heartbeat CPU 0 instructions: 422000002 cycles: 1485217493 heartbeat IPC: 1.05845 cumulative IPC: 0.283538 (Simulation time: 0 hr 42 min 2 sec) 
Heartbeat CPU 0 instructions: 423000000 cycles: 1486234615 heartbeat IPC: 0.983164 cumulative IPC: 0.284017 (Simulation time: 0 hr 42 min 6 sec) 
Heartbeat CPU 0 instructions: 424000003 cycles: 1488507656 heartbeat IPC: 0.439941 cumulative IPC: 0.284255 (Simulation time: 0 hr 42 min 11 sec) 
Heartbeat CPU 0 instructions: 425000002 cycles: 1489773244 heartbeat IPC: 0.790146 cumulative IPC: 0.284685 (Simulation time: 0 hr 42 min 16 sec) 
Heartbeat CPU 0 instructions: 426000002 cycles: 1490736361 heartbeat IPC: 1.0383 cumulative IPC: 0.285172 (Simulation time: 0 hr 42 min 20 sec) 
Heartbeat CPU 0 instructions: 427000000 cycles: 1491999668 heartbeat IPC: 0.791572 cumulative IPC: 0.285601 (Simulation time: 0 hr 42 min 25 sec) 
Heartbeat CPU 0 instructions: 428000000 cycles: 1492945137 heartbeat IPC: 1.05768 cumulative IPC: 0.28609 (Simulation time: 0 hr 42 min 29 sec) 
Heartbeat CPU 0 instructions: 429000000 cycles: 1497146754 heartbeat IPC: 0.238004 cumulative IPC: 0.285955 (Simulation time: 0 hr 42 min 36 sec) 
Heartbeat CPU 0 instructions: 430000001 cycles: 1507562714 heartbeat IPC: 0.0960066 cumulative IPC: 0.284642 (Simulation time: 0 hr 42 min 46 sec) 
Heartbeat CPU 0 instructions: 431000001 cycles: 1518000398 heartbeat IPC: 0.0958067 cumulative IPC: 0.283343 (Simulation time: 0 hr 42 min 56 sec) 
Heartbeat CPU 0 instructions: 432000003 cycles: 1528228328 heartbeat IPC: 0.0977717 cumulative IPC: 0.282101 (Simulation time: 0 hr 43 min 7 sec) 
Heartbeat CPU 0 instructions: 433000002 cycles: 1537830051 heartbeat IPC: 0.104148 cumulative IPC: 0.280989 (Simulation time: 0 hr 43 min 17 sec) 
Heartbeat CPU 0 instructions: 434000001 cycles: 1545569529 heartbeat IPC: 0.129208 cumulative IPC: 0.280229 (Simulation time: 0 hr 43 min 26 sec) 
Heartbeat CPU 0 instructions: 435000001 cycles: 1553542808 heartbeat IPC: 0.125419 cumulative IPC: 0.279434 (Simulation time: 0 hr 43 min 36 sec) 
Heartbeat CPU 0 instructions: 436000001 cycles: 1561659213 heartbeat IPC: 0.123207 cumulative IPC: 0.278622 (Simulation time: 0 hr 43 min 46 sec) 
Heartbeat CPU 0 instructions: 437000001 cycles: 1568865927 heartbeat IPC: 0.138759 cumulative IPC: 0.27798 (Simulation time: 0 hr 43 min 56 sec) 
Heartbeat CPU 0 instructions: 438000000 cycles: 1575690252 heartbeat IPC: 0.146534 cumulative IPC: 0.27741 (Simulation time: 0 hr 44 min 5 sec) 
Heartbeat CPU 0 instructions: 439000001 cycles: 1578097044 heartbeat IPC: 0.415491 cumulative IPC: 0.277621 (Simulation time: 0 hr 44 min 11 sec) 
Heartbeat CPU 0 instructions: 440000000 cycles: 1579003153 heartbeat IPC: 1.10362 cumulative IPC: 0.278095 (Simulation time: 0 hr 44 min 15 sec) 
Heartbeat CPU 0 instructions: 441000003 cycles: 1580330646 heartbeat IPC: 0.753302 cumulative IPC: 0.278494 (Simulation time: 0 hr 44 min 20 sec) 
Heartbeat CPU 0 instructions: 442000003 cycles: 1581289743 heartbeat IPC: 1.04265 cumulative IPC: 0.278958 (Simulation time: 0 hr 44 min 24 sec) 
Heartbeat CPU 0 instructions: 443000000 cycles: 1582529506 heartbeat IPC: 0.806603 cumulative IPC: 0.279371 (Simulation time: 0 hr 44 min 28 sec) 
Heartbeat CPU 0 instructions: 444000000 cycles: 1583411864 heartbeat IPC: 1.13333 cumulative IPC: 0.279847 (Simulation time: 0 hr 44 min 32 sec) 
Heartbeat CPU 0 instructions: 445000002 cycles: 1586139617 heartbeat IPC: 0.366603 cumulative IPC: 0.279997 (Simulation time: 0 hr 44 min 38 sec) 
Heartbeat CPU 0 instructions: 446000003 cycles: 1587329133 heartbeat IPC: 0.840679 cumulative IPC: 0.280417 (Simulation time: 0 hr 44 min 43 sec) 
Heartbeat CPU 0 instructions: 447000003 cycles: 1588361861 heartbeat IPC: 0.968309 cumulative IPC: 0.280864 (Simulation time: 0 hr 44 min 47 sec) 
Heartbeat CPU 0 instructions: 448000001 cycles: 1589276122 heartbeat IPC: 1.09378 cumulative IPC: 0.281332 (Simulation time: 0 hr 44 min 51 sec) 
Heartbeat CPU 0 instructions: 449000000 cycles: 1592161104 heartbeat IPC: 0.346622 cumulative IPC: 0.28145 (Simulation time: 0 hr 44 min 57 sec) 
Heartbeat CPU 0 instructions: 450000003 cycles: 1593840722 heartbeat IPC: 0.595375 cumulative IPC: 0.281781 (Simulation time: 0 hr 45 min 3 sec) 

Warmup complete CPU 0 instructions: 450000003 cycles: 1593840722 (Simulation time: 0 hr 45 min 3 sec) 

Heartbeat CPU 0 instructions: 451000000 cycles: 1594778714 heartbeat IPC: 1.0661 cumulative IPC: 1.0661 (Simulation time: 0 hr 45 min 8 sec) 
Heartbeat CPU 0 instructions: 452000001 cycles: 1596453062 heartbeat IPC: 0.597248 cumulative IPC: 0.765596 (Simulation time: 0 hr 45 min 13 sec) 
Heartbeat CPU 0 instructions: 453000000 cycles: 1597443890 heartbeat IPC: 1.00926 cumulative IPC: 0.8326 (Simulation time: 0 hr 45 min 17 sec) 
Heartbeat CPU 0 instructions: 454000000 cycles: 1598512069 heartbeat IPC: 0.936173 cumulative IPC: 0.856283 (Simulation time: 0 hr 45 min 22 sec) 
Heartbeat CPU 0 instructions: 455000001 cycles: 1599431119 heartbeat IPC: 1.08808 cumulative IPC: 0.894391 (Simulation time: 0 hr 45 min 26 sec) 
Heartbeat CPU 0 instructions: 456000000 cycles: 1605002137 heartbeat IPC: 0.1795 cumulative IPC: 0.537566 (Simulation time: 0 hr 45 min 34 sec) 
Heartbeat CPU 0 instructions: 457000002 cycles: 1612190410 heartbeat IPC: 0.139116 cumulative IPC: 0.381478 (Simulation time: 0 hr 45 min 44 sec) 
Heartbeat CPU 0 instructions: 458000001 cycles: 1618375806 heartbeat IPC: 0.161671 cumulative IPC: 0.326064 (Simulation time: 0 hr 45 min 53 sec) 
Heartbeat CPU 0 instructions: 459000000 cycles: 1620480383 heartbeat IPC: 0.475154 cumulative IPC: 0.337842 (Simulation time: 0 hr 45 min 58 sec) 
Heartbeat CPU 0 instructions: 460000001 cycles: 1621518521 heartbeat IPC: 0.963264 cumulative IPC: 0.3613 (Simulation time: 0 hr 46 min 2 sec) 
Heartbeat CPU 0 instructions: 461000000 cycles: 1622704166 heartbeat IPC: 0.843422 cumulative IPC: 0.381105 (Simulation time: 0 hr 46 min 7 sec) 
Heartbeat CPU 0 instructions: 462000000 cycles: 1625181998 heartbeat IPC: 0.403579 cumulative IPC: 0.382882 (Simulation time: 0 hr 46 min 13 sec) 
Heartbeat CPU 0 instructions: 463000002 cycles: 1626246734 heartbeat IPC: 0.939202 cumulative IPC: 0.40116 (Simulation time: 0 hr 46 min 17 sec) 
Heartbeat CPU 0 instructions: 464000003 cycles: 1627147172 heartbeat IPC: 1.11057 cumulative IPC: 0.420339 (Simulation time: 0 hr 46 min 22 sec) 
Heartbeat CPU 0 instructions: 465000003 cycles: 1628341324 heartbeat IPC: 0.837414 cumulative IPC: 0.434775 (Simulation time: 0 hr 46 min 26 sec) 
Heartbeat CPU 0 instructions: 466000000 cycles: 1629380997 heartbeat IPC: 0.961838 cumulative IPC: 0.450193 (Simulation time: 0 hr 46 min 31 sec) 
Heartbeat CPU 0 instructions: 467000003 cycles: 1631869405 heartbeat IPC: 0.401865 cumulative IPC: 0.447031 (Simulation time: 0 hr 46 min 36 sec) 
Heartbeat CPU 0 instructions: 468000001 cycles: 1633191594 heartbeat IPC: 0.75632 cumulative IPC: 0.457423 (Simulation time: 0 hr 46 min 41 sec) 
Heartbeat CPU 0 instructions: 469000002 cycles: 1634200532 heartbeat IPC: 0.991142 cumulative IPC: 0.470765 (Simulation time: 0 hr 46 min 45 sec) 
Heartbeat CPU 0 instructions: 470000000 cycles: 1638355854 heartbeat IPC: 0.240655 cumulative IPC: 0.449285 (Simulation time: 0 hr 46 min 52 sec) 
Heartbeat CPU 0 instructions: 471000002 cycles: 1642192812 heartbeat IPC: 0.260624 cumulative IPC: 0.434314 (Simulation time: 0 hr 47 min 0 sec) 
Heartbeat CPU 0 instructions: 472000003 cycles: 1643487596 heartbeat IPC: 0.77233 cumulative IPC: 0.44313 (Simulation time: 0 hr 47 min 5 sec) 
Heartbeat CPU 0 instructions: 473000000 cycles: 1644571740 heartbeat IPC: 0.922384 cumulative IPC: 0.453371 (Simulation time: 0 hr 47 min 9 sec) 
Heartbeat CPU 0 instructions: 474000000 cycles: 1645473014 heartbeat IPC: 1.10954 cumulative IPC: 0.464825 (Simulation time: 0 hr 47 min 13 sec) 
Heartbeat CPU 0 instructions: 475000002 cycles: 1651401875 heartbeat IPC: 0.168667 cumulative IPC: 0.434321 (Simulation time: 0 hr 47 min 22 sec) 
Heartbeat CPU 0 instructions: 476000001 cycles: 1652829842 heartbeat IPC: 0.700296 cumulative IPC: 0.440759 (Simulation time: 0 hr 47 min 27 sec) 
Heartbeat CPU 0 instructions: 477000000 cycles: 1653893446 heartbeat IPC: 0.940199 cumulative IPC: 0.449605 (Simulation time: 0 hr 47 min 31 sec) 
Heartbeat CPU 0 instructions: 478000003 cycles: 1654969284 heartbeat IPC: 0.929511 cumulative IPC: 0.458051 (Simulation time: 0 hr 47 min 35 sec) 
Heartbeat CPU 0 instructions: 479000003 cycles: 1656412772 heartbeat IPC: 0.692766 cumulative IPC: 0.463466 (Simulation time: 0 hr 47 min 40 sec) 
Heartbeat CPU 0 instructions: 480000000 cycles: 1658792957 heartbeat IPC: 0.420134 cumulative IPC: 0.461878 (Simulation time: 0 hr 47 min 46 sec) 
Heartbeat CPU 0 instructions: 481000000 cycles: 1660038148 heartbeat IPC: 0.80309 cumulative IPC: 0.468296 (Simulation time: 0 hr 47 min 50 sec) 
Heartbeat CPU 0 instructions: 482000001 cycles: 1661378097 heartbeat IPC: 0.746298 cumulative IPC: 0.473812 (Simulation time: 0 hr 47 min 55 sec) 
Heartbeat CPU 0 instructions: 483000000 cycles: 1662338933 heartbeat IPC: 1.04076 cumulative IPC: 0.481764 (Simulation time: 0 hr 47 min 59 sec) 
Heartbeat CPU 0 instructions: 484000000 cycles: 1669130626 heartbeat IPC: 0.147239 cumulative IPC: 0.451588 (Simulation time: 0 hr 48 min 8 sec) 
Heartbeat CPU 0 instructions: 485000001 cycles: 1678615639 heartbeat IPC: 0.10543 cumulative IPC: 0.412858 (Simulation time: 0 hr 48 min 19 sec) 
Heartbeat CPU 0 instructions: 486000000 cycles: 1687059681 heartbeat IPC: 0.118427 cumulative IPC: 0.386187 (Simulation time: 0 hr 48 min 29 sec) 
Heartbeat CPU 0 instructions: 487000000 cycles: 1695345867 heartbeat IPC: 0.120683 cumulative IPC: 0.364514 (Simulation time: 0 hr 48 min 38 sec) 
Heartbeat CPU 0 instructions: 488000001 cycles: 1703457395 heartbeat IPC: 0.123281 cumulative IPC: 0.346663 (Simulation time: 0 hr 48 min 47 sec) 
Heartbeat CPU 0 instructions: 489000000 cycles: 1712948699 heartbeat IPC: 0.105359 cumulative IPC: 0.327434 (Simulation time: 0 hr 48 min 57 sec) 
Heartbeat CPU 0 instructions: 490000002 cycles: 1715835669 heartbeat IPC: 0.346385 cumulative IPC: 0.327882 (Simulation time: 0 hr 49 min 3 sec) 
Heartbeat CPU 0 instructions: 491000000 cycles: 1716874393 heartbeat IPC: 0.962718 cumulative IPC: 0.333242 (Simulation time: 0 hr 49 min 7 sec) 
Heartbeat CPU 0 instructions: 492000000 cycles: 1718944746 heartbeat IPC: 0.483009 cumulative IPC: 0.335721 (Simulation time: 0 hr 49 min 12 sec) 
Heartbeat CPU 0 instructions: 493000001 cycles: 1720717520 heartbeat IPC: 0.564088 cumulative IPC: 0.338911 (Simulation time: 0 hr 49 min 17 sec) 
Heartbeat CPU 0 instructions: 494000002 cycles: 1722065342 heartbeat IPC: 0.741938 cumulative IPC: 0.343148 (Simulation time: 0 hr 49 min 21 sec) 
Heartbeat CPU 0 instructions: 495000000 cycles: 1724286813 heartbeat IPC: 0.450151 cumulative IPC: 0.34497 (Simulation time: 0 hr 49 min 26 sec) 
Heartbeat CPU 0 instructions: 496000000 cycles: 1727135191 heartbeat IPC: 0.351077 cumulative IPC: 0.345101 (Simulation time: 0 hr 49 min 32 sec) 
Heartbeat CPU 0 instructions: 497000001 cycles: 1733888122 heartbeat IPC: 0.148084 cumulative IPC: 0.335601 (Simulation time: 0 hr 49 min 41 sec) 
Heartbeat CPU 0 instructions: 498000000 cycles: 1736185760 heartbeat IPC: 0.435229 cumulative IPC: 0.337209 (Simulation time: 0 hr 49 min 46 sec) 
Heartbeat CPU 0 instructions: 499000001 cycles: 1737250995 heartbeat IPC: 0.938761 cumulative IPC: 0.341677 (Simulation time: 0 hr 49 min 51 sec) 
Heartbeat CPU 0 instructions: 500000003 cycles: 1738277415 heartbeat IPC: 0.974262 cumulative IPC: 0.346172 (Simulation time: 0 hr 49 min 55 sec) 
Heartbeat CPU 0 instructions: 501000001 cycles: 1739619226 heartbeat IPC: 0.74526 cumulative IPC: 0.349846 (Simulation time: 0 hr 49 min 59 sec) 
Heartbeat CPU 0 instructions: 502000000 cycles: 1741646975 heartbeat IPC: 0.493157 cumulative IPC: 0.351812 (Simulation time: 0 hr 50 min 4 sec) 
Heartbeat CPU 0 instructions: 503000002 cycles: 1743906705 heartbeat IPC: 0.442532 cumulative IPC: 0.353178 (Simulation time: 0 hr 50 min 10 sec) 
Heartbeat CPU 0 instructions: 504000001 cycles: 1745874870 heartbeat IPC: 0.508087 cumulative IPC: 0.355183 (Simulation time: 0 hr 50 min 15 sec) 
Heartbeat CPU 0 instructions: 505000001 cycles: 1747036829 heartbeat IPC: 0.860616 cumulative IPC: 0.359017 (Simulation time: 0 hr 50 min 19 sec) 
Heartbeat CPU 0 instructions: 506000000 cycles: 1747999969 heartbeat IPC: 1.03827 cumulative IPC: 0.363261 (Simulation time: 0 hr 50 min 23 sec) 
Heartbeat CPU 0 instructions: 507000002 cycles: 1755696663 heartbeat IPC: 0.129926 cumulative IPC: 0.352165 (Simulation time: 0 hr 50 min 33 sec) 
Heartbeat CPU 0 instructions: 508000000 cycles: 1761375930 heartbeat IPC: 0.176079 cumulative IPC: 0.346196 (Simulation time: 0 hr 50 min 42 sec) 
Heartbeat CPU 0 instructions: 509000001 cycles: 1762409867 heartbeat IPC: 0.967178 cumulative IPC: 0.350005 (Simulation time: 0 hr 50 min 46 sec) 
Heartbeat CPU 0 instructions: 510000000 cycles: 1763479295 heartbeat IPC: 0.935078 cumulative IPC: 0.353693 (Simulation time: 0 hr 50 min 51 sec) 
Heartbeat CPU 0 instructions: 511000000 cycles: 1765546182 heartbeat IPC: 0.483819 cumulative IPC: 0.35526 (Simulation time: 0 hr 50 min 56 sec) 
Heartbeat CPU 0 instructions: 512000003 cycles: 1766576059 heartbeat IPC: 0.970993 cumulative IPC: 0.358931 (Simulation time: 0 hr 51 min 0 sec) 
Heartbeat CPU 0 instructions: 513000003 cycles: 1767639955 heartbeat IPC: 0.939942 cumulative IPC: 0.362487 (Simulation time: 0 hr 51 min 4 sec) 
Heartbeat CPU 0 instructions: 514000000 cycles: 1769177272 heartbeat IPC: 0.650482 cumulative IPC: 0.365012 (Simulation time: 0 hr 51 min 9 sec) 
Heartbeat CPU 0 instructions: 515000002 cycles: 1771739792 heartbeat IPC: 0.390242 cumulative IPC: 0.365376 (Simulation time: 0 hr 51 min 14 sec) 
Heartbeat CPU 0 instructions: 516000000 cycles: 1774884758 heartbeat IPC: 0.317968 cumulative IPC: 0.364552 (Simulation time: 0 hr 51 min 21 sec) 
Heartbeat CPU 0 instructions: 517000000 cycles: 1776107862 heartbeat IPC: 0.817592 cumulative IPC: 0.367592 (Simulation time: 0 hr 51 min 25 sec) 
Heartbeat CPU 0 instructions: 518000000 cycles: 1777683208 heartbeat IPC: 0.634781 cumulative IPC: 0.369882 (Simulation time: 0 hr 51 min 30 sec) 
Heartbeat CPU 0 instructions: 519000001 cycles: 1779474497 heartbeat IPC: 0.558258 cumulative IPC: 0.3717 (Simulation time: 0 hr 51 min 35 sec) 
Heartbeat CPU 0 instructions: 520000000 cycles: 1780479765 heartbeat IPC: 0.994759 cumulative IPC: 0.375055 (Simulation time: 0 hr 51 min 39 sec) 
Heartbeat CPU 0 instructions: 521000002 cycles: 1781661756 heartbeat IPC: 0.846032 cumulative IPC: 0.378019 (Simulation time: 0 hr 51 min 43 sec) 
Heartbeat CPU 0 instructions: 522000002 cycles: 1784670534 heartbeat IPC: 0.332361 cumulative IPC: 0.3773 (Simulation time: 0 hr 51 min 49 sec) 
Heartbeat CPU 0 instructions: 523000000 cycles: 1790017158 heartbeat IPC: 0.187034 cumulative IPC: 0.372114 (Simulation time: 0 hr 51 min 58 sec) 
Heartbeat CPU 0 instructions: 524000001 cycles: 1791094740 heartbeat IPC: 0.928005 cumulative IPC: 0.375151 (Simulation time: 0 hr 52 min 2 sec) 
Heartbeat CPU 0 instructions: 525000003 cycles: 1792107853 heartbeat IPC: 0.987059 cumulative IPC: 0.378278 (Simulation time: 0 hr 52 min 6 sec) 
Heartbeat CPU 0 instructions: 526000001 cycles: 1797112086 heartbeat IPC: 0.19983 cumulative IPC: 0.373884 (Simulation time: 0 hr 52 min 14 sec) 
Heartbeat CPU 0 instructions: 527000001 cycles: 1798049275 heartbeat IPC: 1.06702 cumulative IPC: 0.377065 (Simulation time: 0 hr 52 min 18 sec) 
Heartbeat CPU 0 instructions: 528000000 cycles: 1799232141 heartbeat IPC: 0.845403 cumulative IPC: 0.379763 (Simulation time: 0 hr 52 min 22 sec) 
Heartbeat CPU 0 instructions: 529000000 cycles: 1802002016 heartbeat IPC: 0.361027 cumulative IPC: 0.379513 (Simulation time: 0 hr 52 min 28 sec) 
Heartbeat CPU 0 instructions: 530000001 cycles: 1802900363 heartbeat IPC: 1.11316 cumulative IPC: 0.382666 (Simulation time: 0 hr 52 min 32 sec) 
Heartbeat CPU 0 instructions: 531000002 cycles: 1805286659 heartbeat IPC: 0.41906 cumulative IPC: 0.383077 (Simulation time: 0 hr 52 min 38 sec) 
Heartbeat CPU 0 instructions: 532000003 cycles: 1806667645 heartbeat IPC: 0.724121 cumulative IPC: 0.38529 (Simulation time: 0 hr 52 min 42 sec) 
Heartbeat CPU 0 instructions: 533000000 cycles: 1808204894 heartbeat IPC: 0.650511 cumulative IPC: 0.387192 (Simulation time: 0 hr 52 min 47 sec) 
Heartbeat CPU 0 instructions: 534000000 cycles: 1815557778 heartbeat IPC: 0.136001 cumulative IPC: 0.378861 (Simulation time: 0 hr 52 min 57 sec) 
Heartbeat CPU 0 instructions: 535000000 cycles: 1823550668 heartbeat IPC: 0.125111 cumulative IPC: 0.370032 (Simulation time: 0 hr 53 min 7 sec) 
Heartbeat CPU 0 instructions: 536000001 cycles: 1830874527 heartbeat IPC: 0.13654 cumulative IPC: 0.362817 (Simulation time: 0 hr 53 min 16 sec) 
Heartbeat CPU 0 instructions: 537000000 cycles: 1838871980 heartbeat IPC: 0.12504 cumulative IPC: 0.355057 (Simulation time: 0 hr 53 min 26 sec) 
Heartbeat CPU 0 instructions: 538000002 cycles: 1846579221 heartbeat IPC: 0.129748 cumulative IPC: 0.348186 (Simulation time: 0 hr 53 min 36 sec) 
Heartbeat CPU 0 instructions: 539000000 cycles: 1853764419 heartbeat IPC: 0.139175 cumulative IPC: 0.342408 (Simulation time: 0 hr 53 min 45 sec) 
Heartbeat CPU 0 instructions: 540000000 cycles: 1861452050 heartbeat IPC: 0.130079 cumulative IPC: 0.336309 (Simulation time: 0 hr 53 min 54 sec) 
Heartbeat CPU 0 instructions: 541000003 cycles: 1869480723 heartbeat IPC: 0.124554 cumulative IPC: 0.330141 (Simulation time: 0 hr 54 min 3 sec) 
Heartbeat CPU 0 instructions: 542000001 cycles: 1877510295 heartbeat IPC: 0.124539 cumulative IPC: 0.324321 (Simulation time: 0 hr 54 min 13 sec) 
Heartbeat CPU 0 instructions: 543000000 cycles: 1885440650 heartbeat IPC: 0.126098 cumulative IPC: 0.31893 (Simulation time: 0 hr 54 min 22 sec) 
Heartbeat CPU 0 instructions: 544000002 cycles: 1892767587 heartbeat IPC: 0.136483 cumulative IPC: 0.314458 (Simulation time: 0 hr 54 min 31 sec) 
Heartbeat CPU 0 instructions: 545000001 cycles: 1900603116 heartbeat IPC: 0.127624 cumulative IPC: 0.309686 (Simulation time: 0 hr 54 min 40 sec) 
[...]
Heartbeat CPU 0 instructions: 836000000 cycles: 3493270837 heartbeat IPC: 0.112618 cumulative IPC: 0.203219 (Simulation time: 1 hr 32 min 25 sec) 
Heartbeat CPU 0 instructions: 837000001 cycles: 3501616617 heartbeat IPC: 0.119821 cumulative IPC: 0.202854 (Simulation time: 1 hr 32 min 35 sec) 
Heartbeat CPU 0 instructions: 838000003 cycles: 3510317842 heartbeat IPC: 0.114927 cumulative IPC: 0.202455 (Simulation time: 1 hr 32 min 45 sec) 
Heartbeat CPU 0 instructions: 839000000 cycles: 3518346244 heartbeat IPC: 0.124557 cumulative IPC: 0.20213 (Simulation time: 1 hr 32 min 55 sec) 
Heartbeat CPU 0 instructions: 840000001 cycles: 3525405081 heartbeat IPC: 0.141667 cumulative IPC: 0.201909 (Simulation time: 1 hr 33 min 6 sec) 
Heartbeat CPU 0 instructions: 841000002 cycles: 3533007956 heartbeat IPC: 0.131529 cumulative IPC: 0.201633 (Simulation time: 1 hr 33 min 16 sec) 
Heartbeat CPU 0 instructions: 842000001 cycles: 3540620072 heartbeat IPC: 0.131369 cumulative IPC: 0.201358 (Simulation time: 1 hr 33 min 26 sec) 
Heartbeat CPU 0 instructions: 843000000 cycles: 3547185682 heartbeat IPC: 0.152309 cumulative IPC: 0.201193 (Simulation time: 1 hr 33 min 36 sec) 
Heartbeat CPU 0 instructions: 844000000 cycles: 3553784764 heartbeat IPC: 0.151536 cumulative IPC: 0.201026 (Simulation time: 1 hr 33 min 47 sec) 
Heartbeat CPU 0 instructions: 845000001 cycles: 3556128772 heartbeat IPC: 0.42662 cumulative IPC: 0.201296 (Simulation time: 1 hr 33 min 53 sec) 
Heartbeat CPU 0 instructions: 846000001 cycles: 3557092270 heartbeat IPC: 1.03788 cumulative IPC: 0.201706 (Simulation time: 1 hr 33 min 57 sec) 
Heartbeat CPU 0 instructions: 847000000 cycles: 3558394528 heartbeat IPC: 0.767896 cumulative IPC: 0.202082 (Simulation time: 1 hr 34 min 2 sec) 
Heartbeat CPU 0 instructions: 848000000 cycles: 3559479295 heartbeat IPC: 0.921857 cumulative IPC: 0.202479 (Simulation time: 1 hr 34 min 6 sec) 
Heartbeat CPU 0 instructions: 849000001 cycles: 3565638366 heartbeat IPC: 0.162362 cumulative IPC: 0.202353 (Simulation time: 1 hr 34 min 17 sec) 
Heartbeat CPU 0 instructions: 850000001 cycles: 3570530136 heartbeat IPC: 0.204425 cumulative IPC: 0.202359 (Simulation time: 1 hr 34 min 26 sec) 
Heartbeat CPU 0 instructions: 851000001 cycles: 3571511567 heartbeat IPC: 1.01892 cumulative IPC: 0.202764 (Simulation time: 1 hr 34 min 30 sec) 
Heartbeat CPU 0 instructions: 852000002 cycles: 3572741051 heartbeat IPC: 0.81335 cumulative IPC: 0.203143 (Simulation time: 1 hr 34 min 35 sec) 
Heartbeat CPU 0 instructions: 853000001 cycles: 3574012038 heartbeat IPC: 0.786789 cumulative IPC: 0.203518 (Simulation time: 1 hr 34 min 40 sec) 
Heartbeat CPU 0 instructions: 854000000 cycles: 3574971834 heartbeat IPC: 1.04189 cumulative IPC: 0.203924 (Simulation time: 1 hr 34 min 45 sec) 
Heartbeat CPU 0 instructions: 855000001 cycles: 3580331172 heartbeat IPC: 0.18659 cumulative IPC: 0.203877 (Simulation time: 1 hr 34 min 54 sec) 
Heartbeat CPU 0 instructions: 856000000 cycles: 3586609573 heartbeat IPC: 0.159276 cumulative IPC: 0.203737 (Simulation time: 1 hr 35 min 4 sec) 
Heartbeat CPU 0 instructions: 857000000 cycles: 3589096055 heartbeat IPC: 0.402175 cumulative IPC: 0.203984 (Simulation time: 1 hr 35 min 10 sec) 
Heartbeat CPU 0 instructions: 858000000 cycles: 3590929922 heartbeat IPC: 0.545296 cumulative IPC: 0.204297 (Simulation time: 1 hr 35 min 15 sec) 
Heartbeat CPU 0 instructions: 859000002 cycles: 3592674540 heartbeat IPC: 0.573193 cumulative IPC: 0.204619 (Simulation time: 1 hr 35 min 20 sec) 
Heartbeat CPU 0 instructions: 860000001 cycles: 3593720144 heartbeat IPC: 0.956384 cumulative IPC: 0.205012 (Simulation time: 1 hr 35 min 24 sec) 
Heartbeat CPU 0 instructions: 861000001 cycles: 3594912369 heartbeat IPC: 0.838768 cumulative IPC: 0.20539 (Simulation time: 1 hr 35 min 29 sec) 
Heartbeat CPU 0 instructions: 862000000 cycles: 3595814394 heartbeat IPC: 1.10862 cumulative IPC: 0.205797 (Simulation time: 1 hr 35 min 34 sec) 
Heartbeat CPU 0 instructions: 863000002 cycles: 3598654036 heartbeat IPC: 0.352158 cumulative IPC: 0.206004 (Simulation time: 1 hr 35 min 40 sec) 
Heartbeat CPU 0 instructions: 864000001 cycles: 3600261991 heartbeat IPC: 0.621907 cumulative IPC: 0.206338 (Simulation time: 1 hr 35 min 45 sec) 
Heartbeat CPU 0 instructions: 865000000 cycles: 3601225924 heartbeat IPC: 1.03742 cumulative IPC: 0.206737 (Simulation time: 1 hr 35 min 49 sec) 
Heartbeat CPU 0 instructions: 866000000 cycles: 3602319643 heartbeat IPC: 0.914312 cumulative IPC: 0.207122 (Simulation time: 1 hr 35 min 54 sec) 
Heartbeat CPU 0 instructions: 867000001 cycles: 3604782555 heartbeat IPC: 0.406024 cumulative IPC: 0.207366 (Simulation time: 1 hr 36 min 0 sec) 
Heartbeat CPU 0 instructions: 868000000 cycles: 3606111056 heartbeat IPC: 0.752727 cumulative IPC: 0.207726 (Simulation time: 1 hr 36 min 4 sec) 
Heartbeat CPU 0 instructions: 869000000 cycles: 3607642669 heartbeat IPC: 0.652906 cumulative IPC: 0.208064 (Simulation time: 1 hr 36 min 9 sec) 
Heartbeat CPU 0 instructions: 870000002 cycles: 3608549583 heartbeat IPC: 1.10264 cumulative IPC: 0.208467 (Simulation time: 1 hr 36 min 14 sec) 
Heartbeat CPU 0 instructions: 871000002 cycles: 3610578009 heartbeat IPC: 0.492993 cumulative IPC: 0.208753 (Simulation time: 1 hr 36 min 19 sec) 
Heartbeat CPU 0 instructions: 872000000 cycles: 3619172065 heartbeat IPC: 0.116359 cumulative IPC: 0.208361 (Simulation time: 1 hr 36 min 29 sec) 
Heartbeat CPU 0 instructions: 873000000 cycles: 3626517747 heartbeat IPC: 0.136134 cumulative IPC: 0.2081 (Simulation time: 1 hr 36 min 39 sec) 
Heartbeat CPU 0 instructions: 874000000 cycles: 3629848407 heartbeat IPC: 0.300241 cumulative IPC: 0.208251 (Simulation time: 1 hr 36 min 45 sec) 
Heartbeat CPU 0 instructions: 875000003 cycles: 3631018270 heartbeat IPC: 0.854804 cumulative IPC: 0.208622 (Simulation time: 1 hr 36 min 50 sec) 
Heartbeat CPU 0 instructions: 876000000 cycles: 3631949326 heartbeat IPC: 1.07405 cumulative IPC: 0.209017 (Simulation time: 1 hr 36 min 54 sec) 
Heartbeat CPU 0 instructions: 877000002 cycles: 3633521440 heartbeat IPC: 0.636087 cumulative IPC: 0.209346 (Simulation time: 1 hr 36 min 59 sec) 
Heartbeat CPU 0 instructions: 878000003 cycles: 3634528570 heartbeat IPC: 0.992921 cumulative IPC: 0.209733 (Simulation time: 1 hr 37 min 3 sec) 
Heartbeat CPU 0 instructions: 879000002 cycles: 3635396544 heartbeat IPC: 1.15211 cumulative IPC: 0.210134 (Simulation time: 1 hr 37 min 8 sec) 
Heartbeat CPU 0 instructions: 880000000 cycles: 3638278603 heartbeat IPC: 0.346973 cumulative IPC: 0.210327 (Simulation time: 1 hr 37 min 13 sec) 
Heartbeat CPU 0 instructions: 881000001 cycles: 3639287017 heartbeat IPC: 0.991657 cumulative IPC: 0.210712 (Simulation time: 1 hr 37 min 18 sec) 
Heartbeat CPU 0 instructions: 882000003 cycles: 3640887338 heartbeat IPC: 0.624876 cumulative IPC: 0.211036 (Simulation time: 1 hr 37 min 22 sec) 
Heartbeat CPU 0 instructions: 883000001 cycles: 3644143253 heartbeat IPC: 0.307133 cumulative IPC: 0.211188 (Simulation time: 1 hr 37 min 28 sec) 
Heartbeat CPU 0 instructions: 884000000 cycles: 3651799246 heartbeat IPC: 0.130617 cumulative IPC: 0.210889 (Simulation time: 1 hr 37 min 38 sec) 
Heartbeat CPU 0 instructions: 885000002 cycles: 3653929734 heartbeat IPC: 0.469377 cumulative IPC: 0.211156 (Simulation time: 1 hr 37 min 42 sec) 
Heartbeat CPU 0 instructions: 886000003 cycles: 3655323637 heartbeat IPC: 0.717411 cumulative IPC: 0.211498 (Simulation time: 1 hr 37 min 47 sec) 
Heartbeat CPU 0 instructions: 887000000 cycles: 3656320856 heartbeat IPC: 1.00279 cumulative IPC: 0.211881 (Simulation time: 1 hr 37 min 51 sec) 
Heartbeat CPU 0 instructions: 888000003 cycles: 3658157934 heartbeat IPC: 0.544344 cumulative IPC: 0.212177 (Simulation time: 1 hr 37 min 57 sec) 
Heartbeat CPU 0 instructions: 889000002 cycles: 3659494629 heartbeat IPC: 0.748113 cumulative IPC: 0.212524 (Simulation time: 1 hr 38 min 1 sec) 
Heartbeat CPU 0 instructions: 890000000 cycles: 3660611243 heartbeat IPC: 0.895563 cumulative IPC: 0.212893 (Simulation time: 1 hr 38 min 6 sec) 
Heartbeat CPU 0 instructions: 891000000 cycles: 3663878470 heartbeat IPC: 0.30607 cumulative IPC: 0.21304 (Simulation time: 1 hr 38 min 12 sec) 
Heartbeat CPU 0 instructions: 892000001 cycles: 3666016168 heartbeat IPC: 0.467793 cumulative IPC: 0.213302 (Simulation time: 1 hr 38 min 17 sec) 
Heartbeat CPU 0 instructions: 893000000 cycles: 3667566092 heartbeat IPC: 0.645192 cumulative IPC: 0.213625 (Simulation time: 1 hr 38 min 22 sec) 
Heartbeat CPU 0 instructions: 894000000 cycles: 3668686669 heartbeat IPC: 0.892397 cumulative IPC: 0.213992 (Simulation time: 1 hr 38 min 26 sec) 
Heartbeat CPU 0 instructions: 895000001 cycles: 3669973944 heartbeat IPC: 0.776836 cumulative IPC: 0.214341 (Simulation time: 1 hr 38 min 30 sec) 
Heartbeat CPU 0 instructions: 896000000 cycles: 3674276092 heartbeat IPC: 0.232442 cumulative IPC: 0.214378 (Simulation time: 1 hr 38 min 37 sec) 
Heartbeat CPU 0 instructions: 897000002 cycles: 3684539695 heartbeat IPC: 0.0974319 cumulative IPC: 0.213804 (Simulation time: 1 hr 38 min 47 sec) 
Heartbeat CPU 0 instructions: 898000002 cycles: 3694468818 heartbeat IPC: 0.100714 cumulative IPC: 0.21327 (Simulation time: 1 hr 38 min 57 sec) 
Heartbeat CPU 0 instructions: 899000000 cycles: 3701869475 heartbeat IPC: 0.135123 cumulative IPC: 0.212995 (Simulation time: 1 hr 39 min 6 sec) 
Heartbeat CPU 0 instructions: 900000001 cycles: 3704338147 heartbeat IPC: 0.405077 cumulative IPC: 0.21322 (Simulation time: 1 hr 39 min 12 sec) 
Heartbeat CPU 0 instructions: 901000000 cycles: 3705822885 heartbeat IPC: 0.673519 cumulative IPC: 0.213543 (Simulation time: 1 hr 39 min 16 sec) 
Heartbeat CPU 0 instructions: 902000000 cycles: 3707046936 heartbeat IPC: 0.816959 cumulative IPC: 0.213893 (Simulation time: 1 hr 39 min 21 sec) 
Heartbeat CPU 0 instructions: 903000002 cycles: 3708434313 heartbeat IPC: 0.720786 cumulative IPC: 0.214226 (Simulation time: 1 hr 39 min 25 sec) 
Heartbeat CPU 0 instructions: 904000001 cycles: 3709442980 heartbeat IPC: 0.991407 cumulative IPC: 0.214596 (Simulation time: 1 hr 39 min 29 sec) 
Heartbeat CPU 0 instructions: 905000001 cycles: 3711203621 heartbeat IPC: 0.567975 cumulative IPC: 0.21489 (Simulation time: 1 hr 39 min 34 sec) 
Heartbeat CPU 0 instructions: 906000002 cycles: 3713747968 heartbeat IPC: 0.393029 cumulative IPC: 0.215104 (Simulation time: 1 hr 39 min 40 sec) 
Heartbeat CPU 0 instructions: 907000000 cycles: 3718212327 heartbeat IPC: 0.223996 cumulative IPC: 0.215122 (Simulation time: 1 hr 39 min 46 sec) 
Heartbeat CPU 0 instructions: 908000000 cycles: 3719673931 heartbeat IPC: 0.68418 cumulative IPC: 0.215445 (Simulation time: 1 hr 39 min 50 sec) 
Heartbeat CPU 0 instructions: 909000000 cycles: 3721593565 heartbeat IPC: 0.520933 cumulative IPC: 0.215721 (Simulation time: 1 hr 39 min 55 sec) 
Heartbeat CPU 0 instructions: 910000002 cycles: 3723262537 heartbeat IPC: 0.599172 cumulative IPC: 0.216021 (Simulation time: 1 hr 40 min 0 sec) 
Heartbeat CPU 0 instructions: 911000000 cycles: 3724584659 heartbeat IPC: 0.756358 cumulative IPC: 0.216356 (Simulation time: 1 hr 40 min 5 sec) 
Heartbeat CPU 0 instructions: 912000001 cycles: 3726519428 heartbeat IPC: 0.516858 cumulative IPC: 0.216629 (Simulation time: 1 hr 40 min 9 sec) 
Heartbeat CPU 0 instructions: 913000000 cycles: 3735404661 heartbeat IPC: 0.112546 cumulative IPC: 0.216197 (Simulation time: 1 hr 40 min 20 sec) 
Heartbeat CPU 0 instructions: 914000000 cycles: 3741911018 heartbeat IPC: 0.153696 cumulative IPC: 0.216008 (Simulation time: 1 hr 40 min 28 sec) 
Heartbeat CPU 0 instructions: 915000003 cycles: 3743064245 heartbeat IPC: 0.867135 cumulative IPC: 0.216357 (Simulation time: 1 hr 40 min 33 sec) 
Heartbeat CPU 0 instructions: 916000000 cycles: 3744458397 heartbeat IPC: 0.71728 cumulative IPC: 0.216682 (Simulation time: 1 hr 40 min 37 sec) 
Heartbeat CPU 0 instructions: 917000003 cycles: 3745497891 heartbeat IPC: 0.962009 cumulative IPC: 0.217042 (Simulation time: 1 hr 40 min 41 sec) 
Heartbeat CPU 0 instructions: 918000002 cycles: 3749014035 heartbeat IPC: 0.284402 cumulative IPC: 0.217152 (Simulation time: 1 hr 40 min 48 sec) 
Heartbeat CPU 0 instructions: 919000002 cycles: 3750506917 heartbeat IPC: 0.669845 cumulative IPC: 0.217465 (Simulation time: 1 hr 40 min 52 sec) 
Heartbeat CPU 0 instructions: 920000001 cycles: 3751828266 heartbeat IPC: 0.756802 cumulative IPC: 0.217796 (Simulation time: 1 hr 40 min 57 sec) 
Heartbeat CPU 0 instructions: 921000001 cycles: 3753514231 heartbeat IPC: 0.593132 cumulative IPC: 0.218089 (Simulation time: 1 hr 41 min 2 sec) 
Heartbeat CPU 0 instructions: 922000003 cycles: 3754778806 heartbeat IPC: 0.790781 cumulative IPC: 0.218424 (Simulation time: 1 hr 41 min 6 sec) 
Heartbeat CPU 0 instructions: 923000000 cycles: 3760905409 heartbeat IPC: 0.163222 cumulative IPC: 0.218268 (Simulation time: 1 hr 41 min 15 sec) 
Heartbeat CPU 0 instructions: 924000000 cycles: 3763592207 heartbeat IPC: 0.37219 cumulative IPC: 0.218458 (Simulation time: 1 hr 41 min 20 sec) 
Heartbeat CPU 0 instructions: 925000002 cycles: 3765245227 heartbeat IPC: 0.604955 cumulative IPC: 0.218752 (Simulation time: 1 hr 41 min 25 sec) 
Heartbeat CPU 0 instructions: 926000002 cycles: 3766376890 heartbeat IPC: 0.883655 cumulative IPC: 0.219099 (Simulation time: 1 hr 41 min 29 sec) 
Heartbeat CPU 0 instructions: 927000002 cycles: 3768149627 heartbeat IPC: 0.564099 cumulative IPC: 0.21938 (Simulation time: 1 hr 41 min 34 sec) 
Heartbeat CPU 0 instructions: 928000002 cycles: 3769252313 heartbeat IPC: 0.906877 cumulative IPC: 0.219729 (Simulation time: 1 hr 41 min 38 sec) 
Heartbeat CPU 0 instructions: 929000002 cycles: 3771510760 heartbeat IPC: 0.442782 cumulative IPC: 0.21996 (Simulation time: 1 hr 41 min 43 sec) 
Heartbeat CPU 0 instructions: 930000003 cycles: 3773086096 heartbeat IPC: 0.634786 cumulative IPC: 0.22026 (Simulation time: 1 hr 41 min 47 sec) 
Heartbeat CPU 0 instructions: 931000003 cycles: 3774975832 heartbeat IPC: 0.529174 cumulative IPC: 0.220527 (Simulation time: 1 hr 41 min 52 sec) 
Heartbeat CPU 0 instructions: 932000000 cycles: 3783129381 heartbeat IPC: 0.122646 cumulative IPC: 0.220163 (Simulation time: 1 hr 42 min 2 sec) 
Heartbeat CPU 0 instructions: 933000001 cycles: 3790655698 heartbeat IPC: 0.132867 cumulative IPC: 0.219864 (Simulation time: 1 hr 42 min 12 sec) 
Heartbeat CPU 0 instructions: 934000003 cycles: 3798843950 heartbeat IPC: 0.122126 cumulative IPC: 0.219501 (Simulation time: 1 hr 42 min 22 sec) 
Heartbeat CPU 0 instructions: 935000000 cycles: 3806732876 heartbeat IPC: 0.12676 cumulative IPC: 0.21917 (Simulation time: 1 hr 42 min 31 sec) 
Heartbeat CPU 0 instructions: 936000000 cycles: 3814828538 heartbeat IPC: 0.123523 cumulative IPC: 0.218822 (Simulation time: 1 hr 42 min 42 sec) 
Heartbeat CPU 0 instructions: 937000000 cycles: 3822637390 heartbeat IPC: 0.12806 cumulative IPC: 0.218504 (Simulation time: 1 hr 42 min 52 sec) 
Heartbeat CPU 0 instructions: 938000003 cycles: 3830540480 heartbeat IPC: 0.126533 cumulative IPC: 0.218179 (Simulation time: 1 hr 43 min 2 sec) 
Heartbeat CPU 0 instructions: 939000003 cycles: 3838548558 heartbeat IPC: 0.124874 cumulative IPC: 0.217846 (Simulation time: 1 hr 43 min 11 sec) 
Heartbeat CPU 0 instructions: 940000002 cycles: 3846468231 heartbeat IPC: 0.126268 cumulative IPC: 0.217524 (Simulation time: 1 hr 43 min 21 sec) 
Heartbeat CPU 0 instructions: 941000001 cycles: 3854458719 heartbeat IPC: 0.125149 cumulative IPC: 0.217197 (Simulation time: 1 hr 43 min 31 sec) 
Heartbeat CPU 0 instructions: 942000000 cycles: 3862297819 heartbeat IPC: 0.127566 cumulative IPC: 0.216888 (Simulation time: 1 hr 43 min 41 sec) 
Heartbeat CPU 0 instructions: 943000003 cycles: 3869938564 heartbeat IPC: 0.130878 cumulative IPC: 0.216599 (Simulation time: 1 hr 43 min 50 sec) 
Heartbeat CPU 0 instructions: 944000003 cycles: 3878244060 heartbeat IPC: 0.120402 cumulative IPC: 0.216249 (Simulation time: 1 hr 44 min 0 sec) 
Heartbeat CPU 0 instructions: 945000002 cycles: 3887161969 heartbeat IPC: 0.112134 cumulative IPC: 0.215844 (Simulation time: 1 hr 44 min 11 sec) 
Heartbeat CPU 0 instructions: 946000000 cycles: 3895964713 heartbeat IPC: 0.113601 cumulative IPC: 0.215453 (Simulation time: 1 hr 44 min 21 sec) 
Heartbeat CPU 0 instructions: 947000001 cycles: 3904565220 heartbeat IPC: 0.116272 cumulative IPC: 0.215084 (Simulation time: 1 hr 44 min 32 sec) 
Heartbeat CPU 0 instructions: 948000000 cycles: 3912197968 heartbeat IPC: 0.131014 cumulative IPC: 0.214807 (Simulation time: 1 hr 44 min 41 sec) 
Heartbeat CPU 0 instructions: 949000000 cycles: 3919927509 heartbeat IPC: 0.129374 cumulative IPC: 0.214523 (Simulation time: 1 hr 44 min 51 sec) 
Heartbeat CPU 0 instructions: 950000000 cycles: 3927764337 heartbeat IPC: 0.127603 cumulative IPC: 0.214232 (Simulation time: 1 hr 45 min 1 sec) 
Finished CPU 0 instructions: 500000001 cycles: 2333923616 cumulative IPC: 0.214232 (Simulation time: 1 hr 45 min 1 sec) 

ChampSim completed all CPUs

Region of Interest Statistics

CPU 0 cumulative IPC: 0.214232 instructions: 500000001 cycles: 2333923616
L1D TOTAL     ACCESS:  194088805  HIT:  174582687  MISS:   19506118
L1D LOAD      ACCESS:  144009059  HIT:  124578958  MISS:   19430101
L1D RFO       ACCESS:   50079746  HIT:   50003729  MISS:      76017
L1D PREFETCH  ACCESS:          0  HIT:          0  MISS:          0
L1D WRITEBACK ACCESS:          0  HIT:          0  MISS:          0
L1D PREFETCH  REQUESTED:          0  ISSUED:          0  USEFUL:          0  USELESS:          0
L1D AVERAGE MISS LATENCY: 186.565 cycles
L1I TOTAL     ACCESS:   92327845  HIT:   92327845  MISS:          0
L1I LOAD      ACCESS:   92327845  HIT:   92327845  MISS:          0
L1I RFO       ACCESS:          0  HIT:          0  MISS:          0
L1I PREFETCH  ACCESS:          0  HIT:          0  MISS:          0
L1I WRITEBACK ACCESS:          0  HIT:          0  MISS:          0
L1I PREFETCH  REQUESTED:          0  ISSUED:          0  USEFUL:          0  USELESS:          0
L1I AVERAGE MISS LATENCY: -nan cycles
L2C TOTAL     ACCESS:   21102515  HIT:    5556834  MISS:   15545681
L2C LOAD      ACCESS:   19430068  HIT:    3897606  MISS:   15532462
L2C RFO       ACCESS:      76017  HIT:      63884  MISS:      12133
L2C PREFETCH  ACCESS:          0  HIT:          0  MISS:          0
L2C WRITEBACK ACCESS:    1596430  HIT:    1595344  MISS:       1086
L2C PREFETCH  REQUESTED:          0  ISSUED:          0  USEFUL:          0  USELESS:          0
L2C AVERAGE MISS LATENCY: 207.55 cycles
LLC TOTAL     ACCESS:   26718866  HIT:    9063533  MISS:   17655333
LLC LOAD      ACCESS:   15532462  HIT:    3746358  MISS:   11786104
LLC RFO       ACCESS:      12133  HIT:       7385  MISS:       4748
LLC PREFETCH  ACCESS:    9873276  HIT:    4009667  MISS:    5863609
LLC WRITEBACK ACCESS:    1300995  HIT:    1300123  MISS:        872
LLC PREFETCH  REQUESTED:   11310065  ISSUED:   11310065  USEFUL:    1779326  USELESS:    4079407
LLC AVERAGE MISS LATENCY: 235.379 cycles
Major fault: 0 Minor fault: 323437
performance stats:
mapping cache size: 5901991
divergence: 17441659

DRAM Statistics
 CHANNEL 0
 RQ ROW_BUFFER_HIT:    1672735  ROW_BUFFER_MISS:    7175774
 DBUS_CONGESTED:    6241896
 WQ ROW_BUFFER_HIT:     234968  ROW_BUFFER_MISS:     350867  FULL:          0

 CHANNEL 1
 RQ ROW_BUFFER_HIT:    1660072  ROW_BUFFER_MISS:    7145833
 DBUS_CONGESTED:    6241896
 WQ ROW_BUFFER_HIT:     233552  ROW_BUFFER_MISS:     352389  FULL:          0

 AVG_CONGESTED_CYCLE: 14

CPU 0 Branch Prediction Accuracy: 94.5058% MPKI: 14.7688 Average ROB Occupancy at Mispredict: 37.5258

Branch types
NOT_BRANCH: 365597306 73.1195%
BRANCH_DIRECT_JUMP: 12607990 2.5216%
BRANCH_INDIRECT: 0 0%
BRANCH_CONDITIONAL: 87164518 17.4329%
BRANCH_DIRECT_CALL: 16970373 3.39407%
BRANCH_INDIRECT_CALL: 344640 0.068928%
BRANCH_RETURN: 17315016 3.463%
BRANCH_OTHER: 0 0%

