
*** ChampSim Multicore Out-of-Order Simulator ***

Warmup Instructions: 1000000
Prefetch Warmup Instructions: 450000000
Simulation Instructions: 500000000
Stat Printing Period: 1000000
Number of CPUs: 1
LLC sets: 2048
LLC ways: 16
Off-chip DRAM Size: 32768 MB Channels: 2 Width: 64-bit Data Rate: 1024 MT/s

CPU 0 runs /scratch/cluster/cmolder/ML-DPC/ChampSimTraces/spec17/620.omnetpp-s1.trace.xz
Read seed: 229
Heartbeat CPU 0 instructions: 1000000 cycles: 560395 heartbeat IPC: 1.78446 cumulative IPC: 1.78446 (Simulation time: 0 hr 0 min 6 sec) 

Warmup complete CPU 0 instructions: 1000002 cycles: 560396 (Simulation time: 0 hr 0 min 6 sec) 

Heartbeat CPU 0 instructions: 2000003 cycles: 3105603 heartbeat IPC: 0.392896 cumulative IPC: 0.392896 (Simulation time: 0 hr 0 min 14 sec) 
Heartbeat CPU 0 instructions: 3000000 cycles: 5759997 heartbeat IPC: 0.376733 cumulative IPC: 0.384645 (Simulation time: 0 hr 0 min 21 sec) 
Heartbeat CPU 0 instructions: 4000002 cycles: 8542475 heartbeat IPC: 0.359393 cumulative IPC: 0.375842 (Simulation time: 0 hr 0 min 28 sec) 
Heartbeat CPU 0 instructions: 5000000 cycles: 11236849 heartbeat IPC: 0.371143 cumulative IPC: 0.374656 (Simulation time: 0 hr 0 min 36 sec) 
Heartbeat CPU 0 instructions: 6000000 cycles: 13930487 heartbeat IPC: 0.371245 cumulative IPC: 0.373969 (Simulation time: 0 hr 0 min 43 sec) 
Heartbeat CPU 0 instructions: 7000000 cycles: 16772443 heartbeat IPC: 0.35187 cumulative IPC: 0.370095 (Simulation time: 0 hr 0 min 51 sec) 
Heartbeat CPU 0 instructions: 8000000 cycles: 19387784 heartbeat IPC: 0.382359 cumulative IPC: 0.371799 (Simulation time: 0 hr 0 min 58 sec) 
Heartbeat CPU 0 instructions: 9000000 cycles: 22079099 heartbeat IPC: 0.371566 cumulative IPC: 0.37177 (Simulation time: 0 hr 1 min 6 sec) 
Heartbeat CPU 0 instructions: 10000001 cycles: 24835497 heartbeat IPC: 0.362793 cumulative IPC: 0.37075 (Simulation time: 0 hr 1 min 14 sec) 
Heartbeat CPU 0 instructions: 11000000 cycles: 27542915 heartbeat IPC: 0.369355 cumulative IPC: 0.37061 (Simulation time: 0 hr 1 min 21 sec) 
Heartbeat CPU 0 instructions: 12000001 cycles: 30339902 heartbeat IPC: 0.357528 cumulative IPC: 0.369382 (Simulation time: 0 hr 1 min 28 sec) 
Heartbeat CPU 0 instructions: 13000002 cycles: 32977462 heartbeat IPC: 0.379139 cumulative IPC: 0.370175 (Simulation time: 0 hr 1 min 36 sec) 
Heartbeat CPU 0 instructions: 14000000 cycles: 35718858 heartbeat IPC: 0.364777 cumulative IPC: 0.369754 (Simulation time: 0 hr 1 min 43 sec) 
Heartbeat CPU 0 instructions: 15000001 cycles: 38311133 heartbeat IPC: 0.385762 cumulative IPC: 0.370854 (Simulation time: 0 hr 1 min 51 sec) 
Heartbeat CPU 0 instructions: 16000003 cycles: 40912929 heartbeat IPC: 0.384351 cumulative IPC: 0.371724 (Simulation time: 0 hr 1 min 58 sec) 
Heartbeat CPU 0 instructions: 17000002 cycles: 43715396 heartbeat IPC: 0.356828 cumulative IPC: 0.370757 (Simulation time: 0 hr 2 min 6 sec) 
Heartbeat CPU 0 instructions: 18000002 cycles: 46478924 heartbeat IPC: 0.361856 cumulative IPC: 0.370221 (Simulation time: 0 hr 2 min 14 sec) 
Heartbeat CPU 0 instructions: 19000000 cycles: 49437896 heartbeat IPC: 0.337955 cumulative IPC: 0.368268 (Simulation time: 0 hr 2 min 21 sec) 
Heartbeat CPU 0 instructions: 20000000 cycles: 52429439 heartbeat IPC: 0.334276 cumulative IPC: 0.366307 (Simulation time: 0 hr 2 min 29 sec) 
Heartbeat CPU 0 instructions: 21000002 cycles: 55120494 heartbeat IPC: 0.371602 cumulative IPC: 0.366568 (Simulation time: 0 hr 2 min 37 sec) 
Heartbeat CPU 0 instructions: 22000000 cycles: 57759765 heartbeat IPC: 0.378892 cumulative IPC: 0.367137 (Simulation time: 0 hr 2 min 45 sec) 
Heartbeat CPU 0 instructions: 23000002 cycles: 60802745 heartbeat IPC: 0.328626 cumulative IPC: 0.365192 (Simulation time: 0 hr 2 min 53 sec) 
Heartbeat CPU 0 instructions: 24000002 cycles: 63571076 heartbeat IPC: 0.361228 cumulative IPC: 0.365017 (Simulation time: 0 hr 3 min 1 sec) 
Heartbeat CPU 0 instructions: 25000000 cycles: 66248940 heartbeat IPC: 0.373431 cumulative IPC: 0.36536 (Simulation time: 0 hr 3 min 9 sec) 
Heartbeat CPU 0 instructions: 26000001 cycles: 69204553 heartbeat IPC: 0.33834 cumulative IPC: 0.364197 (Simulation time: 0 hr 3 min 17 sec) 
Heartbeat CPU 0 instructions: 27000000 cycles: 71935854 heartbeat IPC: 0.366126 cumulative IPC: 0.364271 (Simulation time: 0 hr 3 min 25 sec) 
Heartbeat CPU 0 instructions: 28000002 cycles: 74865628 heartbeat IPC: 0.341324 cumulative IPC: 0.363366 (Simulation time: 0 hr 3 min 33 sec) 
Heartbeat CPU 0 instructions: 29000003 cycles: 77745471 heartbeat IPC: 0.347241 cumulative IPC: 0.362764 (Simulation time: 0 hr 3 min 40 sec) 
Heartbeat CPU 0 instructions: 30000002 cycles: 80776584 heartbeat IPC: 0.329912 cumulative IPC: 0.361523 (Simulation time: 0 hr 3 min 48 sec) 
Heartbeat CPU 0 instructions: 31000000 cycles: 83572240 heartbeat IPC: 0.357697 cumulative IPC: 0.361394 (Simulation time: 0 hr 3 min 57 sec) 
Heartbeat CPU 0 instructions: 32000000 cycles: 86486945 heartbeat IPC: 0.343088 cumulative IPC: 0.360773 (Simulation time: 0 hr 4 min 4 sec) 
Heartbeat CPU 0 instructions: 33000000 cycles: 89299325 heartbeat IPC: 0.355571 cumulative IPC: 0.360608 (Simulation time: 0 hr 4 min 12 sec) 
Heartbeat CPU 0 instructions: 34000000 cycles: 92083809 heartbeat IPC: 0.359133 cumulative IPC: 0.360563 (Simulation time: 0 hr 4 min 20 sec) 
Heartbeat CPU 0 instructions: 35000000 cycles: 95062716 heartbeat IPC: 0.335694 cumulative IPC: 0.35978 (Simulation time: 0 hr 4 min 28 sec) 
Heartbeat CPU 0 instructions: 36000000 cycles: 97899905 heartbeat IPC: 0.352462 cumulative IPC: 0.359566 (Simulation time: 0 hr 4 min 36 sec) 
Heartbeat CPU 0 instructions: 37000003 cycles: 100856719 heartbeat IPC: 0.338203 cumulative IPC: 0.358936 (Simulation time: 0 hr 4 min 44 sec) 
Heartbeat CPU 0 instructions: 38000001 cycles: 103927607 heartbeat IPC: 0.325638 cumulative IPC: 0.357947 (Simulation time: 0 hr 4 min 53 sec) 
Heartbeat CPU 0 instructions: 39000003 cycles: 106867293 heartbeat IPC: 0.340173 cumulative IPC: 0.357456 (Simulation time: 0 hr 5 min 1 sec) 
Heartbeat CPU 0 instructions: 40000001 cycles: 109393853 heartbeat IPC: 0.395794 cumulative IPC: 0.358346 (Simulation time: 0 hr 5 min 9 sec) 
Heartbeat CPU 0 instructions: 41000001 cycles: 111967001 heartbeat IPC: 0.388629 cumulative IPC: 0.359045 (Simulation time: 0 hr 5 min 17 sec) 
Heartbeat CPU 0 instructions: 42000002 cycles: 114884766 heartbeat IPC: 0.342728 cumulative IPC: 0.358629 (Simulation time: 0 hr 5 min 25 sec) 
Heartbeat CPU 0 instructions: 43000001 cycles: 117783507 heartbeat IPC: 0.344977 cumulative IPC: 0.358291 (Simulation time: 0 hr 5 min 33 sec) 
Heartbeat CPU 0 instructions: 44000000 cycles: 120705148 heartbeat IPC: 0.342273 cumulative IPC: 0.357902 (Simulation time: 0 hr 5 min 41 sec) 
Heartbeat CPU 0 instructions: 45000001 cycles: 123826994 heartbeat IPC: 0.320324 cumulative IPC: 0.35695 (Simulation time: 0 hr 5 min 49 sec) 
Heartbeat CPU 0 instructions: 46000000 cycles: 126649721 heartbeat IPC: 0.354267 cumulative IPC: 0.35689 (Simulation time: 0 hr 5 min 57 sec) 
Heartbeat CPU 0 instructions: 47000001 cycles: 129656864 heartbeat IPC: 0.332542 cumulative IPC: 0.356323 (Simulation time: 0 hr 6 min 5 sec) 
Heartbeat CPU 0 instructions: 48000002 cycles: 132716910 heartbeat IPC: 0.326793 cumulative IPC: 0.355639 (Simulation time: 0 hr 6 min 13 sec) 
Heartbeat CPU 0 instructions: 49000003 cycles: 135434493 heartbeat IPC: 0.367974 cumulative IPC: 0.355887 (Simulation time: 0 hr 6 min 20 sec) 
Heartbeat CPU 0 instructions: 50000000 cycles: 138463413 heartbeat IPC: 0.33015 cumulative IPC: 0.355322 (Simulation time: 0 hr 6 min 28 sec) 
Heartbeat CPU 0 instructions: 51000000 cycles: 141160451 heartbeat IPC: 0.370777 cumulative IPC: 0.355619 (Simulation time: 0 hr 6 min 36 sec) 
Heartbeat CPU 0 instructions: 52000000 cycles: 144490953 heartbeat IPC: 0.300255 cumulative IPC: 0.354338 (Simulation time: 0 hr 6 min 44 sec) 
Heartbeat CPU 0 instructions: 53000002 cycles: 147592353 heartbeat IPC: 0.322436 cumulative IPC: 0.353665 (Simulation time: 0 hr 6 min 52 sec) 
Heartbeat CPU 0 instructions: 54000000 cycles: 150176718 heartbeat IPC: 0.386941 cumulative IPC: 0.354239 (Simulation time: 0 hr 7 min 0 sec) 
Heartbeat CPU 0 instructions: 55000000 cycles: 152830199 heartbeat IPC: 0.376863 cumulative IPC: 0.354634 (Simulation time: 0 hr 7 min 8 sec) 
Heartbeat CPU 0 instructions: 56000001 cycles: 155722842 heartbeat IPC: 0.345705 cumulative IPC: 0.354467 (Simulation time: 0 hr 7 min 15 sec) 
Heartbeat CPU 0 instructions: 57000000 cycles: 158649976 heartbeat IPC: 0.341631 cumulative IPC: 0.35423 (Simulation time: 0 hr 7 min 23 sec) 
Heartbeat CPU 0 instructions: 58000000 cycles: 161494877 heartbeat IPC: 0.351506 cumulative IPC: 0.354181 (Simulation time: 0 hr 7 min 31 sec) 
Heartbeat CPU 0 instructions: 59000003 cycles: 164467952 heartbeat IPC: 0.336353 cumulative IPC: 0.353858 (Simulation time: 0 hr 7 min 39 sec) 
Heartbeat CPU 0 instructions: 60000001 cycles: 167217891 heartbeat IPC: 0.363644 cumulative IPC: 0.354019 (Simulation time: 0 hr 7 min 47 sec) 
Heartbeat CPU 0 instructions: 61000003 cycles: 170113218 heartbeat IPC: 0.345385 cumulative IPC: 0.353872 (Simulation time: 0 hr 7 min 55 sec) 
Heartbeat CPU 0 instructions: 62000001 cycles: 173040362 heartbeat IPC: 0.341629 cumulative IPC: 0.353664 (Simulation time: 0 hr 8 min 3 sec) 
Heartbeat CPU 0 instructions: 63000003 cycles: 175846618 heartbeat IPC: 0.356347 cumulative IPC: 0.353707 (Simulation time: 0 hr 8 min 10 sec) 
Heartbeat CPU 0 instructions: 64000003 cycles: 178599771 heartbeat IPC: 0.36322 cumulative IPC: 0.353854 (Simulation time: 0 hr 8 min 18 sec) 
Heartbeat CPU 0 instructions: 65000001 cycles: 181529101 heartbeat IPC: 0.341374 cumulative IPC: 0.353652 (Simulation time: 0 hr 8 min 26 sec) 
Heartbeat CPU 0 instructions: 66000000 cycles: 184223826 heartbeat IPC: 0.371095 cumulative IPC: 0.353908 (Simulation time: 0 hr 8 min 34 sec) 
Heartbeat CPU 0 instructions: 67000002 cycles: 187243116 heartbeat IPC: 0.331204 cumulative IPC: 0.353541 (Simulation time: 0 hr 8 min 41 sec) 
Heartbeat CPU 0 instructions: 68000000 cycles: 189827856 heartbeat IPC: 0.386885 cumulative IPC: 0.353996 (Simulation time: 0 hr 8 min 49 sec) 
Heartbeat CPU 0 instructions: 69000000 cycles: 192841807 heartbeat IPC: 0.33179 cumulative IPC: 0.353648 (Simulation time: 0 hr 8 min 57 sec) 
Heartbeat CPU 0 instructions: 70000001 cycles: 195509062 heartbeat IPC: 0.374918 cumulative IPC: 0.353939 (Simulation time: 0 hr 9 min 4 sec) 
Heartbeat CPU 0 instructions: 71000001 cycles: 198215360 heartbeat IPC: 0.369508 cumulative IPC: 0.354153 (Simulation time: 0 hr 9 min 12 sec) 
Heartbeat CPU 0 instructions: 72000003 cycles: 201029473 heartbeat IPC: 0.355352 cumulative IPC: 0.354169 (Simulation time: 0 hr 9 min 20 sec) 
Heartbeat CPU 0 instructions: 73000000 cycles: 204018754 heartbeat IPC: 0.334528 cumulative IPC: 0.353881 (Simulation time: 0 hr 9 min 28 sec) 
Heartbeat CPU 0 instructions: 74000000 cycles: 207097814 heartbeat IPC: 0.324774 cumulative IPC: 0.353447 (Simulation time: 0 hr 9 min 36 sec) 
Heartbeat CPU 0 instructions: 75000000 cycles: 209932805 heartbeat IPC: 0.352735 cumulative IPC: 0.353437 (Simulation time: 0 hr 9 min 43 sec) 
Heartbeat CPU 0 instructions: 76000002 cycles: 212914934 heartbeat IPC: 0.335332 cumulative IPC: 0.353183 (Simulation time: 0 hr 9 min 52 sec) 
Heartbeat CPU 0 instructions: 77000000 cycles: 215819121 heartbeat IPC: 0.34433 cumulative IPC: 0.353063 (Simulation time: 0 hr 10 min 0 sec) 
Heartbeat CPU 0 instructions: 78000001 cycles: 218600550 heartbeat IPC: 0.359528 cumulative IPC: 0.353146 (Simulation time: 0 hr 10 min 8 sec) 
Heartbeat CPU 0 instructions: 79000000 cycles: 221569749 heartbeat IPC: 0.336791 cumulative IPC: 0.352926 (Simulation time: 0 hr 10 min 17 sec) 
Heartbeat CPU 0 instructions: 80000002 cycles: 224438268 heartbeat IPC: 0.348613 cumulative IPC: 0.352871 (Simulation time: 0 hr 10 min 24 sec) 
Heartbeat CPU 0 instructions: 81000003 cycles: 227273405 heartbeat IPC: 0.352717 cumulative IPC: 0.352869 (Simulation time: 0 hr 10 min 32 sec) 
Heartbeat CPU 0 instructions: 82000001 cycles: 230146622 heartbeat IPC: 0.348041 cumulative IPC: 0.352809 (Simulation time: 0 hr 10 min 40 sec) 
Heartbeat CPU 0 instructions: 83000002 cycles: 233014910 heartbeat IPC: 0.34864 cumulative IPC: 0.352757 (Simulation time: 0 hr 10 min 48 sec) 
Heartbeat CPU 0 instructions: 84000000 cycles: 236038216 heartbeat IPC: 0.330763 cumulative IPC: 0.352475 (Simulation time: 0 hr 10 min 56 sec) 
Heartbeat CPU 0 instructions: 85000000 cycles: 238818556 heartbeat IPC: 0.359668 cumulative IPC: 0.352559 (Simulation time: 0 hr 11 min 4 sec) 
Heartbeat CPU 0 instructions: 86000001 cycles: 241585729 heartbeat IPC: 0.36138 cumulative IPC: 0.35266 (Simulation time: 0 hr 11 min 12 sec) 
Heartbeat CPU 0 instructions: 87000001 cycles: 244028359 heartbeat IPC: 0.409395 cumulative IPC: 0.353229 (Simulation time: 0 hr 11 min 19 sec) 
Heartbeat CPU 0 instructions: 88000000 cycles: 246660812 heartbeat IPC: 0.379873 cumulative IPC: 0.353514 (Simulation time: 0 hr 11 min 27 sec) 
Heartbeat CPU 0 instructions: 89000001 cycles: 249140149 heartbeat IPC: 0.403334 cumulative IPC: 0.354011 (Simulation time: 0 hr 11 min 35 sec) 
Heartbeat CPU 0 instructions: 90000003 cycles: 252345473 heartbeat IPC: 0.311982 cumulative IPC: 0.353476 (Simulation time: 0 hr 11 min 44 sec) 
Heartbeat CPU 0 instructions: 91000000 cycles: 254965920 heartbeat IPC: 0.381613 cumulative IPC: 0.353766 (Simulation time: 0 hr 11 min 52 sec) 
Heartbeat CPU 0 instructions: 92000002 cycles: 258028863 heartbeat IPC: 0.326484 cumulative IPC: 0.353441 (Simulation time: 0 hr 12 min 0 sec) 
Heartbeat CPU 0 instructions: 93000003 cycles: 261018692 heartbeat IPC: 0.334468 cumulative IPC: 0.353224 (Simulation time: 0 hr 12 min 8 sec) 
Heartbeat CPU 0 instructions: 94000000 cycles: 264166633 heartbeat IPC: 0.317667 cumulative IPC: 0.352799 (Simulation time: 0 hr 12 min 16 sec) 
Heartbeat CPU 0 instructions: 95000003 cycles: 266817538 heartbeat IPC: 0.377231 cumulative IPC: 0.353042 (Simulation time: 0 hr 12 min 24 sec) 
Heartbeat CPU 0 instructions: 96000002 cycles: 269656941 heartbeat IPC: 0.352186 cumulative IPC: 0.353033 (Simulation time: 0 hr 12 min 32 sec) 
Heartbeat CPU 0 instructions: 97000000 cycles: 272951260 heartbeat IPC: 0.303552 cumulative IPC: 0.352435 (Simulation time: 0 hr 12 min 40 sec) 
Heartbeat CPU 0 instructions: 98000001 cycles: 275890705 heartbeat IPC: 0.340201 cumulative IPC: 0.352304 (Simulation time: 0 hr 12 min 48 sec) 
Heartbeat CPU 0 instructions: 99000000 cycles: 278934810 heartbeat IPC: 0.328503 cumulative IPC: 0.352044 (Simulation time: 0 hr 12 min 56 sec) 
Heartbeat CPU 0 instructions: 100000000 cycles: 281805743 heartbeat IPC: 0.348319 cumulative IPC: 0.352006 (Simulation time: 0 hr 13 min 4 sec) 
Heartbeat CPU 0 instructions: 101000002 cycles: 284674144 heartbeat IPC: 0.348627 cumulative IPC: 0.351972 (Simulation time: 0 hr 13 min 12 sec) 
Heartbeat CPU 0 instructions: 102000000 cycles: 287786356 heartbeat IPC: 0.321314 cumulative IPC: 0.35164 (Simulation time: 0 hr 13 min 21 sec) 
Heartbeat CPU 0 instructions: 103000000 cycles: 290386307 heartbeat IPC: 0.384623 cumulative IPC: 0.351935 (Simulation time: 0 hr 13 min 29 sec) 
Heartbeat CPU 0 instructions: 104000002 cycles: 293441749 heartbeat IPC: 0.327286 cumulative IPC: 0.351678 (Simulation time: 0 hr 13 min 38 sec) 
Heartbeat CPU 0 instructions: 105000000 cycles: 296161035 heartbeat IPC: 0.367743 cumulative IPC: 0.351826 (Simulation time: 0 hr 13 min 46 sec) 
Heartbeat CPU 0 instructions: 106000000 cycles: 299289543 heartbeat IPC: 0.319641 cumulative IPC: 0.351489 (Simulation time: 0 hr 13 min 56 sec) 
Heartbeat CPU 0 instructions: 107000000 cycles: 302577805 heartbeat IPC: 0.304112 cumulative IPC: 0.350973 (Simulation time: 0 hr 14 min 5 sec) 
Heartbeat CPU 0 instructions: 108000002 cycles: 305212988 heartbeat IPC: 0.379481 cumulative IPC: 0.35122 (Simulation time: 0 hr 14 min 14 sec) 
Heartbeat CPU 0 instructions: 109000000 cycles: 307623463 heartbeat IPC: 0.414855 cumulative IPC: 0.351719 (Simulation time: 0 hr 14 min 22 sec) 
Heartbeat CPU 0 instructions: 110000000 cycles: 310284833 heartbeat IPC: 0.375746 cumulative IPC: 0.351926 (Simulation time: 0 hr 14 min 30 sec) 
Heartbeat CPU 0 instructions: 111000000 cycles: 313320536 heartbeat IPC: 0.329413 cumulative IPC: 0.351707 (Simulation time: 0 hr 14 min 39 sec) 
Heartbeat CPU 0 instructions: 112000000 cycles: 316117904 heartbeat IPC: 0.357479 cumulative IPC: 0.351758 (Simulation time: 0 hr 14 min 47 sec) 
Heartbeat CPU 0 instructions: 113000001 cycles: 319219389 heartbeat IPC: 0.322427 cumulative IPC: 0.351473 (Simulation time: 0 hr 14 min 55 sec) 
Heartbeat CPU 0 instructions: 114000001 cycles: 322130371 heartbeat IPC: 0.343527 cumulative IPC: 0.351401 (Simulation time: 0 hr 15 min 4 sec) 
Heartbeat CPU 0 instructions: 115000003 cycles: 324708789 heartbeat IPC: 0.387835 cumulative IPC: 0.351691 (Simulation time: 0 hr 15 min 12 sec) 
Heartbeat CPU 0 instructions: 116000000 cycles: 327545222 heartbeat IPC: 0.352554 cumulative IPC: 0.351698 (Simulation time: 0 hr 15 min 20 sec) 
Heartbeat CPU 0 instructions: 117000002 cycles: 330546664 heartbeat IPC: 0.333174 cumulative IPC: 0.35153 (Simulation time: 0 hr 15 min 28 sec) 
Heartbeat CPU 0 instructions: 118000000 cycles: 333386067 heartbeat IPC: 0.352186 cumulative IPC: 0.351535 (Simulation time: 0 hr 15 min 36 sec) 
Heartbeat CPU 0 instructions: 119000000 cycles: 336121872 heartbeat IPC: 0.365523 cumulative IPC: 0.351649 (Simulation time: 0 hr 15 min 44 sec) 
Heartbeat CPU 0 instructions: 120000003 cycles: 338941260 heartbeat IPC: 0.354688 cumulative IPC: 0.351675 (Simulation time: 0 hr 15 min 52 sec) 
Heartbeat CPU 0 instructions: 121000000 cycles: 341767519 heartbeat IPC: 0.353824 cumulative IPC: 0.351693 (Simulation time: 0 hr 16 min 0 sec) 
Heartbeat CPU 0 instructions: 122000001 cycles: 344842583 heartbeat IPC: 0.325197 cumulative IPC: 0.351456 (Simulation time: 0 hr 16 min 8 sec) 
Heartbeat CPU 0 instructions: 123000003 cycles: 347582431 heartbeat IPC: 0.364984 cumulative IPC: 0.351563 (Simulation time: 0 hr 16 min 16 sec) 
Heartbeat CPU 0 instructions: 124000000 cycles: 350725841 heartbeat IPC: 0.318125 cumulative IPC: 0.351263 (Simulation time: 0 hr 16 min 24 sec) 
Heartbeat CPU 0 instructions: 125000000 cycles: 353480112 heartbeat IPC: 0.363072 cumulative IPC: 0.351355 (Simulation time: 0 hr 16 min 33 sec) 
Heartbeat CPU 0 instructions: 126000002 cycles: 356312935 heartbeat IPC: 0.353005 cumulative IPC: 0.351368 (Simulation time: 0 hr 16 min 41 sec) 
Heartbeat CPU 0 instructions: 127000000 cycles: 359112730 heartbeat IPC: 0.357168 cumulative IPC: 0.351413 (Simulation time: 0 hr 16 min 49 sec) 
Heartbeat CPU 0 instructions: 128000003 cycles: 361902317 heartbeat IPC: 0.358477 cumulative IPC: 0.351468 (Simulation time: 0 hr 16 min 57 sec) 
Heartbeat CPU 0 instructions: 129000000 cycles: 365009873 heartbeat IPC: 0.321795 cumulative IPC: 0.351215 (Simulation time: 0 hr 17 min 6 sec) 
Heartbeat CPU 0 instructions: 130000000 cycles: 368120410 heartbeat IPC: 0.321488 cumulative IPC: 0.350963 (Simulation time: 0 hr 17 min 14 sec) 
Heartbeat CPU 0 instructions: 131000002 cycles: 370783212 heartbeat IPC: 0.375545 cumulative IPC: 0.35114 (Simulation time: 0 hr 17 min 22 sec) 
Heartbeat CPU 0 instructions: 132000000 cycles: 373824190 heartbeat IPC: 0.328841 cumulative IPC: 0.350958 (Simulation time: 0 hr 17 min 30 sec) 
Heartbeat CPU 0 instructions: 133000003 cycles: 376819655 heartbeat IPC: 0.333839 cumulative IPC: 0.350822 (Simulation time: 0 hr 17 min 38 sec) 
Heartbeat CPU 0 instructions: 134000002 cycles: 379657888 heartbeat IPC: 0.352332 cumulative IPC: 0.350833 (Simulation time: 0 hr 17 min 47 sec) 
Heartbeat CPU 0 instructions: 135000000 cycles: 382520103 heartbeat IPC: 0.349379 cumulative IPC: 0.350822 (Simulation time: 0 hr 17 min 55 sec) 
Heartbeat CPU 0 instructions: 136000001 cycles: 385354099 heartbeat IPC: 0.352859 cumulative IPC: 0.350837 (Simulation time: 0 hr 18 min 4 sec) 
Heartbeat CPU 0 instructions: 137000003 cycles: 388083724 heartbeat IPC: 0.366351 cumulative IPC: 0.350947 (Simulation time: 0 hr 18 min 12 sec) 
Heartbeat CPU 0 instructions: 138000001 cycles: 390926468 heartbeat IPC: 0.351772 cumulative IPC: 0.350953 (Simulation time: 0 hr 18 min 20 sec) 
Heartbeat CPU 0 instructions: 139000000 cycles: 394262911 heartbeat IPC: 0.29972 cumulative IPC: 0.350518 (Simulation time: 0 hr 18 min 29 sec) 
Heartbeat CPU 0 instructions: 140000001 cycles: 396763886 heartbeat IPC: 0.399844 cumulative IPC: 0.35083 (Simulation time: 0 hr 18 min 38 sec) 
Heartbeat CPU 0 instructions: 141000001 cycles: 399660622 heartbeat IPC: 0.345216 cumulative IPC: 0.350789 (Simulation time: 0 hr 18 min 46 sec) 
Heartbeat CPU 0 instructions: 142000001 cycles: 402326139 heartbeat IPC: 0.375162 cumulative IPC: 0.350951 (Simulation time: 0 hr 18 min 54 sec) 
Heartbeat CPU 0 instructions: 143000000 cycles: 405309583 heartbeat IPC: 0.335183 cumulative IPC: 0.350835 (Simulation time: 0 hr 19 min 3 sec) 
Heartbeat CPU 0 instructions: 144000000 cycles: 408210850 heartbeat IPC: 0.344677 cumulative IPC: 0.350791 (Simulation time: 0 hr 19 min 12 sec) 
Heartbeat CPU 0 instructions: 145000001 cycles: 411140054 heartbeat IPC: 0.34139 cumulative IPC: 0.350724 (Simulation time: 0 hr 19 min 20 sec) 
Heartbeat CPU 0 instructions: 146000000 cycles: 414121901 heartbeat IPC: 0.335362 cumulative IPC: 0.350613 (Simulation time: 0 hr 19 min 28 sec) 
Heartbeat CPU 0 instructions: 147000003 cycles: 417007349 heartbeat IPC: 0.346568 cumulative IPC: 0.350585 (Simulation time: 0 hr 19 min 36 sec) 
Heartbeat CPU 0 instructions: 148000003 cycles: 420040630 heartbeat IPC: 0.329676 cumulative IPC: 0.350434 (Simulation time: 0 hr 19 min 44 sec) 
Heartbeat CPU 0 instructions: 149000001 cycles: 422890100 heartbeat IPC: 0.350942 cumulative IPC: 0.350437 (Simulation time: 0 hr 19 min 52 sec) 
Heartbeat CPU 0 instructions: 150000002 cycles: 425670758 heartbeat IPC: 0.359627 cumulative IPC: 0.350497 (Simulation time: 0 hr 20 min 1 sec) 
Heartbeat CPU 0 instructions: 151000003 cycles: 428759026 heartbeat IPC: 0.323806 cumulative IPC: 0.350305 (Simulation time: 0 hr 20 min 9 sec) 
Heartbeat CPU 0 instructions: 152000000 cycles: 431703121 heartbeat IPC: 0.339662 cumulative IPC: 0.350232 (Simulation time: 0 hr 20 min 17 sec) 
Heartbeat CPU 0 instructions: 153000001 cycles: 434625399 heartbeat IPC: 0.342199 cumulative IPC: 0.350178 (Simulation time: 0 hr 20 min 25 sec) 
Heartbeat CPU 0 instructions: 154000000 cycles: 437494165 heartbeat IPC: 0.348582 cumulative IPC: 0.350167 (Simulation time: 0 hr 20 min 33 sec) 
Heartbeat CPU 0 instructions: 155000002 cycles: 440663208 heartbeat IPC: 0.315553 cumulative IPC: 0.349918 (Simulation time: 0 hr 20 min 41 sec) 
Heartbeat CPU 0 instructions: 156000002 cycles: 443704104 heartbeat IPC: 0.32885 cumulative IPC: 0.349774 (Simulation time: 0 hr 20 min 49 sec) 
Heartbeat CPU 0 instructions: 157000000 cycles: 446401832 heartbeat IPC: 0.370682 cumulative IPC: 0.3499 (Simulation time: 0 hr 20 min 56 sec) 
Heartbeat CPU 0 instructions: 158000002 cycles: 449437852 heartbeat IPC: 0.329379 cumulative IPC: 0.349761 (Simulation time: 0 hr 21 min 4 sec) 
Heartbeat CPU 0 instructions: 159000001 cycles: 451934826 heartbeat IPC: 0.400484 cumulative IPC: 0.350042 (Simulation time: 0 hr 21 min 12 sec) 
Heartbeat CPU 0 instructions: 160000000 cycles: 455011989 heartbeat IPC: 0.324974 cumulative IPC: 0.349872 (Simulation time: 0 hr 21 min 20 sec) 
Heartbeat CPU 0 instructions: 161000002 cycles: 458177018 heartbeat IPC: 0.315953 cumulative IPC: 0.349638 (Simulation time: 0 hr 21 min 29 sec) 
Heartbeat CPU 0 instructions: 162000001 cycles: 460437887 heartbeat IPC: 0.442307 cumulative IPC: 0.350093 (Simulation time: 0 hr 21 min 36 sec) 
Heartbeat CPU 0 instructions: 163000001 cycles: 463261534 heartbeat IPC: 0.354152 cumulative IPC: 0.350118 (Simulation time: 0 hr 21 min 44 sec) 
Heartbeat CPU 0 instructions: 164000001 cycles: 466041479 heartbeat IPC: 0.359719 cumulative IPC: 0.350175 (Simulation time: 0 hr 21 min 52 sec) 
Heartbeat CPU 0 instructions: 165000000 cycles: 468999250 heartbeat IPC: 0.338092 cumulative IPC: 0.350099 (Simulation time: 0 hr 22 min 0 sec) 
Heartbeat CPU 0 instructions: 166000003 cycles: 471935121 heartbeat IPC: 0.340615 cumulative IPC: 0.35004 (Simulation time: 0 hr 22 min 8 sec) 
Heartbeat CPU 0 instructions: 167000000 cycles: 474852458 heartbeat IPC: 0.342777 cumulative IPC: 0.349995 (Simulation time: 0 hr 22 min 15 sec) 
Heartbeat CPU 0 instructions: 168000001 cycles: 477727418 heartbeat IPC: 0.347831 cumulative IPC: 0.349982 (Simulation time: 0 hr 22 min 23 sec) 
Heartbeat CPU 0 instructions: 169000001 cycles: 480743444 heartbeat IPC: 0.331562 cumulative IPC: 0.349867 (Simulation time: 0 hr 22 min 31 sec) 
Heartbeat CPU 0 instructions: 170000000 cycles: 483362453 heartbeat IPC: 0.381823 cumulative IPC: 0.35004 (Simulation time: 0 hr 22 min 39 sec) 
Heartbeat CPU 0 instructions: 171000001 cycles: 486261937 heartbeat IPC: 0.344889 cumulative IPC: 0.350009 (Simulation time: 0 hr 22 min 47 sec) 
Heartbeat CPU 0 instructions: 172000003 cycles: 489118540 heartbeat IPC: 0.350067 cumulative IPC: 0.35001 (Simulation time: 0 hr 22 min 55 sec) 
Heartbeat CPU 0 instructions: 173000000 cycles: 491815863 heartbeat IPC: 0.370737 cumulative IPC: 0.350123 (Simulation time: 0 hr 23 min 2 sec) 
Heartbeat CPU 0 instructions: 174000002 cycles: 494882599 heartbeat IPC: 0.32608 cumulative IPC: 0.349974 (Simulation time: 0 hr 23 min 10 sec) 
Heartbeat CPU 0 instructions: 175000000 cycles: 497736026 heartbeat IPC: 0.350455 cumulative IPC: 0.349977 (Simulation time: 0 hr 23 min 18 sec) 
Heartbeat CPU 0 instructions: 176000000 cycles: 500680480 heartbeat IPC: 0.339622 cumulative IPC: 0.349916 (Simulation time: 0 hr 23 min 25 sec) 
Heartbeat CPU 0 instructions: 177000000 cycles: 503595941 heartbeat IPC: 0.342999 cumulative IPC: 0.349876 (Simulation time: 0 hr 23 min 33 sec) 
Heartbeat CPU 0 instructions: 178000000 cycles: 506245235 heartbeat IPC: 0.377459 cumulative IPC: 0.35002 (Simulation time: 0 hr 23 min 41 sec) 
Heartbeat CPU 0 instructions: 179000002 cycles: 509329037 heartbeat IPC: 0.324276 cumulative IPC: 0.349864 (Simulation time: 0 hr 23 min 49 sec) 
Heartbeat CPU 0 instructions: 180000000 cycles: 512111197 heartbeat IPC: 0.359432 cumulative IPC: 0.349916 (Simulation time: 0 hr 23 min 57 sec) 
Heartbeat CPU 0 instructions: 181000000 cycles: 515135860 heartbeat IPC: 0.330615 cumulative IPC: 0.349803 (Simulation time: 0 hr 24 min 5 sec) 
Heartbeat CPU 0 instructions: 182000002 cycles: 517953820 heartbeat IPC: 0.354867 cumulative IPC: 0.349831 (Simulation time: 0 hr 24 min 12 sec) 
Heartbeat CPU 0 instructions: 183000002 cycles: 520650980 heartbeat IPC: 0.37076 cumulative IPC: 0.349939 (Simulation time: 0 hr 24 min 20 sec) 
Heartbeat CPU 0 instructions: 184000000 cycles: 523562913 heartbeat IPC: 0.343414 cumulative IPC: 0.349903 (Simulation time: 0 hr 24 min 29 sec) 
Heartbeat CPU 0 instructions: 185000001 cycles: 526559508 heartbeat IPC: 0.333712 cumulative IPC: 0.34981 (Simulation time: 0 hr 24 min 37 sec) 
Heartbeat CPU 0 instructions: 186000001 cycles: 529717864 heartbeat IPC: 0.31662 cumulative IPC: 0.349612 (Simulation time: 0 hr 24 min 45 sec) 
Heartbeat CPU 0 instructions: 187000000 cycles: 532605109 heartbeat IPC: 0.346351 cumulative IPC: 0.349595 (Simulation time: 0 hr 24 min 53 sec) 
Heartbeat CPU 0 instructions: 188000003 cycles: 535404488 heartbeat IPC: 0.357223 cumulative IPC: 0.349635 (Simulation time: 0 hr 25 min 1 sec) 
Heartbeat CPU 0 instructions: 189000001 cycles: 538361579 heartbeat IPC: 0.33817 cumulative IPC: 0.349572 (Simulation time: 0 hr 25 min 9 sec) 
Heartbeat CPU 0 instructions: 190000003 cycles: 541157337 heartbeat IPC: 0.357685 cumulative IPC: 0.349614 (Simulation time: 0 hr 25 min 17 sec) 
Heartbeat CPU 0 instructions: 191000001 cycles: 543900201 heartbeat IPC: 0.364582 cumulative IPC: 0.349689 (Simulation time: 0 hr 25 min 25 sec) 
Heartbeat CPU 0 instructions: 192000000 cycles: 546850435 heartbeat IPC: 0.338956 cumulative IPC: 0.349631 (Simulation time: 0 hr 25 min 33 sec) 
Heartbeat CPU 0 instructions: 193000000 cycles: 549790443 heartbeat IPC: 0.340135 cumulative IPC: 0.34958 (Simulation time: 0 hr 25 min 41 sec) 
Heartbeat CPU 0 instructions: 194000000 cycles: 552612196 heartbeat IPC: 0.35439 cumulative IPC: 0.349605 (Simulation time: 0 hr 25 min 49 sec) 
Heartbeat CPU 0 instructions: 195000002 cycles: 555483885 heartbeat IPC: 0.348228 cumulative IPC: 0.349598 (Simulation time: 0 hr 25 min 57 sec) 
Heartbeat CPU 0 instructions: 196000003 cycles: 558540150 heartbeat IPC: 0.327197 cumulative IPC: 0.349475 (Simulation time: 0 hr 26 min 4 sec) 
Heartbeat CPU 0 instructions: 197000000 cycles: 561154908 heartbeat IPC: 0.382443 cumulative IPC: 0.349629 (Simulation time: 0 hr 26 min 12 sec) 
Heartbeat CPU 0 instructions: 198000000 cycles: 564153610 heartbeat IPC: 0.333478 cumulative IPC: 0.349543 (Simulation time: 0 hr 26 min 20 sec) 
Heartbeat CPU 0 instructions: 199000002 cycles: 567013893 heartbeat IPC: 0.349616 cumulative IPC: 0.349543 (Simulation time: 0 hr 26 min 28 sec) 
Heartbeat CPU 0 instructions: 200000000 cycles: 569876178 heartbeat IPC: 0.349371 cumulative IPC: 0.349542 (Simulation time: 0 hr 26 min 36 sec) 
Heartbeat CPU 0 instructions: 201000000 cycles: 572774911 heartbeat IPC: 0.344978 cumulative IPC: 0.349519 (Simulation time: 0 hr 26 min 44 sec) 
Heartbeat CPU 0 instructions: 202000002 cycles: 575568798 heartbeat IPC: 0.357925 cumulative IPC: 0.34956 (Simulation time: 0 hr 26 min 52 sec) 
Heartbeat CPU 0 instructions: 203000000 cycles: 578435713 heartbeat IPC: 0.348806 cumulative IPC: 0.349556 (Simulation time: 0 hr 27 min 0 sec) 
Heartbeat CPU 0 instructions: 204000003 cycles: 581470225 heartbeat IPC: 0.329543 cumulative IPC: 0.349452 (Simulation time: 0 hr 27 min 8 sec) 
Heartbeat CPU 0 instructions: 205000002 cycles: 584242527 heartbeat IPC: 0.360711 cumulative IPC: 0.349505 (Simulation time: 0 hr 27 min 16 sec) 
Heartbeat CPU 0 instructions: 206000002 cycles: 587055350 heartbeat IPC: 0.355515 cumulative IPC: 0.349534 (Simulation time: 0 hr 27 min 24 sec) 
Heartbeat CPU 0 instructions: 207000002 cycles: 590224717 heartbeat IPC: 0.31552 cumulative IPC: 0.349351 (Simulation time: 0 hr 27 min 32 sec) 
Heartbeat CPU 0 instructions: 208000000 cycles: 593221080 heartbeat IPC: 0.333737 cumulative IPC: 0.349272 (Simulation time: 0 hr 27 min 40 sec) 
Heartbeat CPU 0 instructions: 209000000 cycles: 595903378 heartbeat IPC: 0.372815 cumulative IPC: 0.349378 (Simulation time: 0 hr 27 min 48 sec) 
Heartbeat CPU 0 instructions: 210000000 cycles: 598810505 heartbeat IPC: 0.343982 cumulative IPC: 0.349352 (Simulation time: 0 hr 27 min 56 sec) 
Heartbeat CPU 0 instructions: 211000003 cycles: 601978506 heartbeat IPC: 0.315657 cumulative IPC: 0.349175 (Simulation time: 0 hr 28 min 4 sec) 
Heartbeat CPU 0 instructions: 212000000 cycles: 604870329 heartbeat IPC: 0.345802 cumulative IPC: 0.349159 (Simulation time: 0 hr 28 min 12 sec) 
Heartbeat CPU 0 instructions: 213000003 cycles: 607607780 heartbeat IPC: 0.365304 cumulative IPC: 0.349231 (Simulation time: 0 hr 28 min 20 sec) 
Heartbeat CPU 0 instructions: 214000002 cycles: 610438536 heartbeat IPC: 0.353262 cumulative IPC: 0.34925 (Simulation time: 0 hr 28 min 28 sec) 
Heartbeat CPU 0 instructions: 215000000 cycles: 613231937 heartbeat IPC: 0.357986 cumulative IPC: 0.34929 (Simulation time: 0 hr 28 min 36 sec) 
Heartbeat CPU 0 instructions: 216000003 cycles: 616267901 heartbeat IPC: 0.329386 cumulative IPC: 0.349192 (Simulation time: 0 hr 28 min 44 sec) 
Heartbeat CPU 0 instructions: 217000000 cycles: 619564189 heartbeat IPC: 0.303371 cumulative IPC: 0.348948 (Simulation time: 0 hr 28 min 52 sec) 
Heartbeat CPU 0 instructions: 218000000 cycles: 621680635 heartbeat IPC: 0.47249 cumulative IPC: 0.349369 (Simulation time: 0 hr 28 min 59 sec) 
Heartbeat CPU 0 instructions: 219000003 cycles: 624577041 heartbeat IPC: 0.345257 cumulative IPC: 0.34935 (Simulation time: 0 hr 29 min 7 sec) 
Heartbeat CPU 0 instructions: 220000000 cycles: 627507877 heartbeat IPC: 0.341199 cumulative IPC: 0.349312 (Simulation time: 0 hr 29 min 15 sec) 
Heartbeat CPU 0 instructions: 221000000 cycles: 630430167 heartbeat IPC: 0.342197 cumulative IPC: 0.349279 (Simulation time: 0 hr 29 min 23 sec) 
Heartbeat CPU 0 instructions: 222000003 cycles: 632917007 heartbeat IPC: 0.402118 cumulative IPC: 0.349486 (Simulation time: 0 hr 29 min 30 sec) 
Heartbeat CPU 0 instructions: 223000001 cycles: 635843458 heartbeat IPC: 0.34171 cumulative IPC: 0.349451 (Simulation time: 0 hr 29 min 38 sec) 
Heartbeat CPU 0 instructions: 224000003 cycles: 638700215 heartbeat IPC: 0.350048 cumulative IPC: 0.349453 (Simulation time: 0 hr 29 min 46 sec) 
Heartbeat CPU 0 instructions: 225000000 cycles: 641623643 heartbeat IPC: 0.342063 cumulative IPC: 0.34942 (Simulation time: 0 hr 29 min 54 sec) 
Heartbeat CPU 0 instructions: 226000000 cycles: 644223991 heartbeat IPC: 0.384564 cumulative IPC: 0.349561 (Simulation time: 0 hr 30 min 1 sec) 
Heartbeat CPU 0 instructions: 227000001 cycles: 647150517 heartbeat IPC: 0.341702 cumulative IPC: 0.349526 (Simulation time: 0 hr 30 min 9 sec) 
Heartbeat CPU 0 instructions: 228000000 cycles: 650073773 heartbeat IPC: 0.342084 cumulative IPC: 0.349492 (Simulation time: 0 hr 30 min 17 sec) 
Heartbeat CPU 0 instructions: 229000001 cycles: 652986567 heartbeat IPC: 0.343313 cumulative IPC: 0.349465 (Simulation time: 0 hr 30 min 25 sec) 
Heartbeat CPU 0 instructions: 230000002 cycles: 655888102 heartbeat IPC: 0.344646 cumulative IPC: 0.349443 (Simulation time: 0 hr 30 min 33 sec) 
Heartbeat CPU 0 instructions: 231000000 cycles: 658853878 heartbeat IPC: 0.337179 cumulative IPC: 0.349388 (Simulation time: 0 hr 30 min 41 sec) 
Heartbeat CPU 0 instructions: 232000003 cycles: 661742967 heartbeat IPC: 0.346131 cumulative IPC: 0.349374 (Simulation time: 0 hr 30 min 49 sec) 
Heartbeat CPU 0 instructions: 233000002 cycles: 664692734 heartbeat IPC: 0.339009 cumulative IPC: 0.349328 (Simulation time: 0 hr 30 min 57 sec) 
Heartbeat CPU 0 instructions: 234000002 cycles: 667582136 heartbeat IPC: 0.346092 cumulative IPC: 0.349314 (Simulation time: 0 hr 31 min 5 sec) 
Heartbeat CPU 0 instructions: 235000003 cycles: 670464188 heartbeat IPC: 0.346975 cumulative IPC: 0.349304 (Simulation time: 0 hr 31 min 13 sec) 
Heartbeat CPU 0 instructions: 236000003 cycles: 673452643 heartbeat IPC: 0.334621 cumulative IPC: 0.349239 (Simulation time: 0 hr 31 min 21 sec) 
Heartbeat CPU 0 instructions: 237000000 cycles: 676228469 heartbeat IPC: 0.360252 cumulative IPC: 0.349284 (Simulation time: 0 hr 31 min 29 sec) 
Heartbeat CPU 0 instructions: 238000000 cycles: 679260560 heartbeat IPC: 0.329805 cumulative IPC: 0.349197 (Simulation time: 0 hr 31 min 37 sec) 
Heartbeat CPU 0 instructions: 239000001 cycles: 681996190 heartbeat IPC: 0.365547 cumulative IPC: 0.349263 (Simulation time: 0 hr 31 min 44 sec) 
Heartbeat CPU 0 instructions: 240000001 cycles: 684805720 heartbeat IPC: 0.355931 cumulative IPC: 0.34929 (Simulation time: 0 hr 31 min 52 sec) 
Heartbeat CPU 0 instructions: 241000003 cycles: 687837232 heartbeat IPC: 0.329869 cumulative IPC: 0.349204 (Simulation time: 0 hr 32 min 0 sec) 
Heartbeat CPU 0 instructions: 242000000 cycles: 690869798 heartbeat IPC: 0.329753 cumulative IPC: 0.349119 (Simulation time: 0 hr 32 min 8 sec) 
Heartbeat CPU 0 instructions: 243000003 cycles: 693660625 heartbeat IPC: 0.358318 cumulative IPC: 0.349156 (Simulation time: 0 hr 32 min 16 sec) 
Heartbeat CPU 0 instructions: 244000000 cycles: 696551267 heartbeat IPC: 0.345943 cumulative IPC: 0.349143 (Simulation time: 0 hr 32 min 24 sec) 
Heartbeat CPU 0 instructions: 245000000 cycles: 699600256 heartbeat IPC: 0.327978 cumulative IPC: 0.34905 (Simulation time: 0 hr 32 min 32 sec) 
Heartbeat CPU 0 instructions: 246000000 cycles: 702339682 heartbeat IPC: 0.36504 cumulative IPC: 0.349113 (Simulation time: 0 hr 32 min 40 sec) 
Heartbeat CPU 0 instructions: 247000001 cycles: 705263250 heartbeat IPC: 0.342048 cumulative IPC: 0.349083 (Simulation time: 0 hr 32 min 48 sec) 
Heartbeat CPU 0 instructions: 248000000 cycles: 708141393 heartbeat IPC: 0.347446 cumulative IPC: 0.349077 (Simulation time: 0 hr 32 min 56 sec) 
Heartbeat CPU 0 instructions: 249000001 cycles: 710928993 heartbeat IPC: 0.358732 cumulative IPC: 0.349115 (Simulation time: 0 hr 33 min 3 sec) 
Heartbeat CPU 0 instructions: 250000000 cycles: 713787742 heartbeat IPC: 0.349803 cumulative IPC: 0.349117 (Simulation time: 0 hr 33 min 11 sec) 
Heartbeat CPU 0 instructions: 251000002 cycles: 716655349 heartbeat IPC: 0.348724 cumulative IPC: 0.349116 (Simulation time: 0 hr 33 min 19 sec) 
Heartbeat CPU 0 instructions: 252000000 cycles: 719578949 heartbeat IPC: 0.342043 cumulative IPC: 0.349087 (Simulation time: 0 hr 33 min 27 sec) 
Heartbeat CPU 0 instructions: 253000000 cycles: 722342046 heartbeat IPC: 0.361913 cumulative IPC: 0.349136 (Simulation time: 0 hr 33 min 35 sec) 
Heartbeat CPU 0 instructions: 254000001 cycles: 725512956 heartbeat IPC: 0.315367 cumulative IPC: 0.348988 (Simulation time: 0 hr 33 min 43 sec) 
Heartbeat CPU 0 instructions: 255000003 cycles: 728462561 heartbeat IPC: 0.339029 cumulative IPC: 0.348948 (Simulation time: 0 hr 33 min 51 sec) 
Heartbeat CPU 0 instructions: 256000001 cycles: 730992717 heartbeat IPC: 0.395232 cumulative IPC: 0.349108 (Simulation time: 0 hr 33 min 59 sec) 
Heartbeat CPU 0 instructions: 257000000 cycles: 734029795 heartbeat IPC: 0.329264 cumulative IPC: 0.349026 (Simulation time: 0 hr 34 min 7 sec) 
Heartbeat CPU 0 instructions: 258000002 cycles: 736902118 heartbeat IPC: 0.348151 cumulative IPC: 0.349023 (Simulation time: 0 hr 34 min 15 sec) 
Heartbeat CPU 0 instructions: 259000001 cycles: 739931616 heartbeat IPC: 0.330087 cumulative IPC: 0.348945 (Simulation time: 0 hr 34 min 22 sec) 
Heartbeat CPU 0 instructions: 260000000 cycles: 742729614 heartbeat IPC: 0.357398 cumulative IPC: 0.348977 (Simulation time: 0 hr 34 min 30 sec) 
Heartbeat CPU 0 instructions: 261000000 cycles: 745514848 heartbeat IPC: 0.359036 cumulative IPC: 0.349015 (Simulation time: 0 hr 34 min 37 sec) 
Heartbeat CPU 0 instructions: 262000001 cycles: 748649923 heartbeat IPC: 0.318972 cumulative IPC: 0.348889 (Simulation time: 0 hr 34 min 45 sec) 
Heartbeat CPU 0 instructions: 263000003 cycles: 751548446 heartbeat IPC: 0.345004 cumulative IPC: 0.348874 (Simulation time: 0 hr 34 min 52 sec) 
Heartbeat CPU 0 instructions: 264000000 cycles: 754343093 heartbeat IPC: 0.357826 cumulative IPC: 0.348907 (Simulation time: 0 hr 35 min 0 sec) 
Heartbeat CPU 0 instructions: 265000000 cycles: 757317073 heartbeat IPC: 0.33625 cumulative IPC: 0.348857 (Simulation time: 0 hr 35 min 8 sec) 
Heartbeat CPU 0 instructions: 266000001 cycles: 760315196 heartbeat IPC: 0.333542 cumulative IPC: 0.348797 (Simulation time: 0 hr 35 min 16 sec) 
Heartbeat CPU 0 instructions: 267000001 cycles: 763147782 heartbeat IPC: 0.353034 cumulative IPC: 0.348812 (Simulation time: 0 hr 35 min 23 sec) 
Heartbeat CPU 0 instructions: 268000000 cycles: 765974733 heartbeat IPC: 0.353738 cumulative IPC: 0.348831 (Simulation time: 0 hr 35 min 31 sec) 
Heartbeat CPU 0 instructions: 269000002 cycles: 768906688 heartbeat IPC: 0.34107 cumulative IPC: 0.348801 (Simulation time: 0 hr 35 min 39 sec) 
Heartbeat CPU 0 instructions: 270000000 cycles: 771884108 heartbeat IPC: 0.335861 cumulative IPC: 0.348751 (Simulation time: 0 hr 35 min 47 sec) 
Heartbeat CPU 0 instructions: 271000001 cycles: 774846165 heartbeat IPC: 0.337604 cumulative IPC: 0.348708 (Simulation time: 0 hr 35 min 55 sec) 
Heartbeat CPU 0 instructions: 272000003 cycles: 778102621 heartbeat IPC: 0.307083 cumulative IPC: 0.348534 (Simulation time: 0 hr 36 min 4 sec) 
Heartbeat CPU 0 instructions: 273000002 cycles: 780318856 heartbeat IPC: 0.451215 cumulative IPC: 0.348826 (Simulation time: 0 hr 36 min 11 sec) 
Heartbeat CPU 0 instructions: 274000001 cycles: 783369299 heartbeat IPC: 0.327821 cumulative IPC: 0.348744 (Simulation time: 0 hr 36 min 19 sec) 
Heartbeat CPU 0 instructions: 275000000 cycles: 786186577 heartbeat IPC: 0.354952 cumulative IPC: 0.348766 (Simulation time: 0 hr 36 min 27 sec) 
Heartbeat CPU 0 instructions: 276000000 cycles: 789340134 heartbeat IPC: 0.317102 cumulative IPC: 0.34864 (Simulation time: 0 hr 36 min 35 sec) 
Heartbeat CPU 0 instructions: 277000000 cycles: 792181431 heartbeat IPC: 0.351952 cumulative IPC: 0.348652 (Simulation time: 0 hr 36 min 42 sec) 
Heartbeat CPU 0 instructions: 278000000 cycles: 795142253 heartbeat IPC: 0.337744 cumulative IPC: 0.348611 (Simulation time: 0 hr 36 min 50 sec) 
Heartbeat CPU 0 instructions: 279000001 cycles: 797785936 heartbeat IPC: 0.378261 cumulative IPC: 0.348709 (Simulation time: 0 hr 36 min 58 sec) 
Heartbeat CPU 0 instructions: 280000001 cycles: 800730976 heartbeat IPC: 0.339554 cumulative IPC: 0.348676 (Simulation time: 0 hr 37 min 6 sec) 
Heartbeat CPU 0 instructions: 281000001 cycles: 803669272 heartbeat IPC: 0.340333 cumulative IPC: 0.348645 (Simulation time: 0 hr 37 min 13 sec) 
Heartbeat CPU 0 instructions: 282000001 cycles: 806775519 heartbeat IPC: 0.321932 cumulative IPC: 0.348542 (Simulation time: 0 hr 37 min 21 sec) 
Heartbeat CPU 0 instructions: 283000000 cycles: 809593463 heartbeat IPC: 0.354868 cumulative IPC: 0.348564 (Simulation time: 0 hr 37 min 29 sec) 
Heartbeat CPU 0 instructions: 284000003 cycles: 812415045 heartbeat IPC: 0.354412 cumulative IPC: 0.348585 (Simulation time: 0 hr 37 min 36 sec) 
Heartbeat CPU 0 instructions: 285000000 cycles: 815217385 heartbeat IPC: 0.356844 cumulative IPC: 0.348613 (Simulation time: 0 hr 37 min 44 sec) 
Heartbeat CPU 0 instructions: 286000000 cycles: 818224365 heartbeat IPC: 0.33256 cumulative IPC: 0.348554 (Simulation time: 0 hr 37 min 52 sec) 
Heartbeat CPU 0 instructions: 287000002 cycles: 821115998 heartbeat IPC: 0.345826 cumulative IPC: 0.348544 (Simulation time: 0 hr 38 min 0 sec) 
Heartbeat CPU 0 instructions: 288000000 cycles: 823898809 heartbeat IPC: 0.359348 cumulative IPC: 0.348581 (Simulation time: 0 hr 38 min 8 sec) 
Heartbeat CPU 0 instructions: 289000001 cycles: 827022138 heartbeat IPC: 0.320172 cumulative IPC: 0.348473 (Simulation time: 0 hr 38 min 15 sec) 
Heartbeat CPU 0 instructions: 290000000 cycles: 829893670 heartbeat IPC: 0.348246 cumulative IPC: 0.348473 (Simulation time: 0 hr 38 min 23 sec) 
Heartbeat CPU 0 instructions: 291000002 cycles: 832654467 heartbeat IPC: 0.362215 cumulative IPC: 0.348518 (Simulation time: 0 hr 38 min 31 sec) 
Heartbeat CPU 0 instructions: 292000001 cycles: 835514023 heartbeat IPC: 0.349704 cumulative IPC: 0.348522 (Simulation time: 0 hr 38 min 39 sec) 
Heartbeat CPU 0 instructions: 293000003 cycles: 838499979 heartbeat IPC: 0.334902 cumulative IPC: 0.348474 (Simulation time: 0 hr 38 min 46 sec) 
Heartbeat CPU 0 instructions: 294000001 cycles: 841521342 heartbeat IPC: 0.330976 cumulative IPC: 0.348411 (Simulation time: 0 hr 38 min 54 sec) 
Heartbeat CPU 0 instructions: 295000000 cycles: 844512351 heartbeat IPC: 0.334335 cumulative IPC: 0.348361 (Simulation time: 0 hr 39 min 2 sec) 
Heartbeat CPU 0 instructions: 296000000 cycles: 847296631 heartbeat IPC: 0.359159 cumulative IPC: 0.348397 (Simulation time: 0 hr 39 min 9 sec) 
Heartbeat CPU 0 instructions: 297000000 cycles: 850202743 heartbeat IPC: 0.344102 cumulative IPC: 0.348382 (Simulation time: 0 hr 39 min 17 sec) 
Heartbeat CPU 0 instructions: 298000003 cycles: 853193196 heartbeat IPC: 0.334399 cumulative IPC: 0.348333 (Simulation time: 0 hr 39 min 25 sec) 
Heartbeat CPU 0 instructions: 299000003 cycles: 856068566 heartbeat IPC: 0.347781 cumulative IPC: 0.348331 (Simulation time: 0 hr 39 min 33 sec) 
Heartbeat CPU 0 instructions: 300000000 cycles: 858732676 heartbeat IPC: 0.375359 cumulative IPC: 0.348415 (Simulation time: 0 hr 39 min 41 sec) 
Heartbeat CPU 0 instructions: 301000003 cycles: 861641139 heartbeat IPC: 0.343825 cumulative IPC: 0.348399 (Simulation time: 0 hr 39 min 49 sec) 
Heartbeat CPU 0 instructions: 302000000 cycles: 864318286 heartbeat IPC: 0.373531 cumulative IPC: 0.348477 (Simulation time: 0 hr 39 min 57 sec) 
Heartbeat CPU 0 instructions: 303000001 cycles: 867293617 heartbeat IPC: 0.336097 cumulative IPC: 0.348435 (Simulation time: 0 hr 40 min 5 sec) 
Heartbeat CPU 0 instructions: 304000000 cycles: 869891545 heartbeat IPC: 0.384922 cumulative IPC: 0.348544 (Simulation time: 0 hr 40 min 12 sec) 
Heartbeat CPU 0 instructions: 305000000 cycles: 872980578 heartbeat IPC: 0.323726 cumulative IPC: 0.348456 (Simulation time: 0 hr 40 min 21 sec) 
Heartbeat CPU 0 instructions: 306000001 cycles: 875706372 heartbeat IPC: 0.366866 cumulative IPC: 0.348513 (Simulation time: 0 hr 40 min 28 sec) 
Heartbeat CPU 0 instructions: 307000000 cycles: 878597134 heartbeat IPC: 0.345929 cumulative IPC: 0.348505 (Simulation time: 0 hr 40 min 36 sec) 
Heartbeat CPU 0 instructions: 308000000 cycles: 881627103 heartbeat IPC: 0.330036 cumulative IPC: 0.348441 (Simulation time: 0 hr 40 min 44 sec) 
Heartbeat CPU 0 instructions: 309000001 cycles: 884392235 heartbeat IPC: 0.361647 cumulative IPC: 0.348483 (Simulation time: 0 hr 40 min 52 sec) 
Heartbeat CPU 0 instructions: 310000000 cycles: 887268611 heartbeat IPC: 0.347659 cumulative IPC: 0.34848 (Simulation time: 0 hr 41 min 0 sec) 
Heartbeat CPU 0 instructions: 311000000 cycles: 890202988 heartbeat IPC: 0.340788 cumulative IPC: 0.348455 (Simulation time: 0 hr 41 min 8 sec) 
Heartbeat CPU 0 instructions: 312000002 cycles: 893213671 heartbeat IPC: 0.332151 cumulative IPC: 0.3484 (Simulation time: 0 hr 41 min 16 sec) 
Heartbeat CPU 0 instructions: 313000001 cycles: 895827383 heartbeat IPC: 0.382597 cumulative IPC: 0.348499 (Simulation time: 0 hr 41 min 24 sec) 
Heartbeat CPU 0 instructions: 314000000 cycles: 898893506 heartbeat IPC: 0.326144 cumulative IPC: 0.348423 (Simulation time: 0 hr 41 min 31 sec) 
Heartbeat CPU 0 instructions: 315000000 cycles: 901647162 heartbeat IPC: 0.363154 cumulative IPC: 0.348468 (Simulation time: 0 hr 41 min 39 sec) 
Heartbeat CPU 0 instructions: 316000001 cycles: 904369837 heartbeat IPC: 0.367286 cumulative IPC: 0.348525 (Simulation time: 0 hr 41 min 47 sec) 
Heartbeat CPU 0 instructions: 317000003 cycles: 907439181 heartbeat IPC: 0.325803 cumulative IPC: 0.348448 (Simulation time: 0 hr 41 min 54 sec) 
Heartbeat CPU 0 instructions: 318000000 cycles: 910217838 heartbeat IPC: 0.359885 cumulative IPC: 0.348483 (Simulation time: 0 hr 42 min 2 sec) 
Heartbeat CPU 0 instructions: 319000000 cycles: 913324155 heartbeat IPC: 0.321925 cumulative IPC: 0.348392 (Simulation time: 0 hr 42 min 10 sec) 
Heartbeat CPU 0 instructions: 320000001 cycles: 916267606 heartbeat IPC: 0.339738 cumulative IPC: 0.348365 (Simulation time: 0 hr 42 min 18 sec) 
Heartbeat CPU 0 instructions: 321000003 cycles: 918865964 heartbeat IPC: 0.384859 cumulative IPC: 0.348468 (Simulation time: 0 hr 42 min 25 sec) 
Heartbeat CPU 0 instructions: 322000002 cycles: 921777483 heartbeat IPC: 0.343463 cumulative IPC: 0.348452 (Simulation time: 0 hr 42 min 33 sec) 
Heartbeat CPU 0 instructions: 323000000 cycles: 924941298 heartbeat IPC: 0.316073 cumulative IPC: 0.348341 (Simulation time: 0 hr 42 min 42 sec) 
Heartbeat CPU 0 instructions: 324000000 cycles: 927658943 heartbeat IPC: 0.367966 cumulative IPC: 0.348399 (Simulation time: 0 hr 42 min 49 sec) 
Heartbeat CPU 0 instructions: 325000002 cycles: 930698205 heartbeat IPC: 0.329028 cumulative IPC: 0.348335 (Simulation time: 0 hr 42 min 57 sec) 
Heartbeat CPU 0 instructions: 326000000 cycles: 933492883 heartbeat IPC: 0.357822 cumulative IPC: 0.348364 (Simulation time: 0 hr 43 min 5 sec) 
Heartbeat CPU 0 instructions: 327000002 cycles: 936512809 heartbeat IPC: 0.331135 cumulative IPC: 0.348308 (Simulation time: 0 hr 43 min 13 sec) 
Heartbeat CPU 0 instructions: 328000000 cycles: 939772781 heartbeat IPC: 0.30675 cumulative IPC: 0.348164 (Simulation time: 0 hr 43 min 21 sec) 
Heartbeat CPU 0 instructions: 329000001 cycles: 942120951 heartbeat IPC: 0.425864 cumulative IPC: 0.348358 (Simulation time: 0 hr 43 min 28 sec) 
Heartbeat CPU 0 instructions: 330000000 cycles: 945254571 heartbeat IPC: 0.319119 cumulative IPC: 0.348261 (Simulation time: 0 hr 43 min 36 sec) 
Heartbeat CPU 0 instructions: 331000000 cycles: 948106031 heartbeat IPC: 0.350698 cumulative IPC: 0.348268 (Simulation time: 0 hr 43 min 44 sec) 
Heartbeat CPU 0 instructions: 332000002 cycles: 950947607 heartbeat IPC: 0.351918 cumulative IPC: 0.348279 (Simulation time: 0 hr 43 min 51 sec) 
Heartbeat CPU 0 instructions: 333000003 cycles: 953739121 heartbeat IPC: 0.358229 cumulative IPC: 0.348308 (Simulation time: 0 hr 43 min 59 sec) 
Heartbeat CPU 0 instructions: 334000000 cycles: 956684604 heartbeat IPC: 0.339502 cumulative IPC: 0.348281 (Simulation time: 0 hr 44 min 7 sec) 
Heartbeat CPU 0 instructions: 335000000 cycles: 959886285 heartbeat IPC: 0.312336 cumulative IPC: 0.348161 (Simulation time: 0 hr 44 min 14 sec) 
Heartbeat CPU 0 instructions: 336000002 cycles: 962854855 heartbeat IPC: 0.336863 cumulative IPC: 0.348126 (Simulation time: 0 hr 44 min 22 sec) 
Heartbeat CPU 0 instructions: 337000001 cycles: 965684863 heartbeat IPC: 0.353356 cumulative IPC: 0.348142 (Simulation time: 0 hr 44 min 30 sec) 
Heartbeat CPU 0 instructions: 338000000 cycles: 968579847 heartbeat IPC: 0.345425 cumulative IPC: 0.348134 (Simulation time: 0 hr 44 min 37 sec) 
Heartbeat CPU 0 instructions: 339000001 cycles: 971578711 heartbeat IPC: 0.33346 cumulative IPC: 0.348088 (Simulation time: 0 hr 44 min 45 sec) 
Heartbeat CPU 0 instructions: 340000001 cycles: 974477426 heartbeat IPC: 0.34498 cumulative IPC: 0.348079 (Simulation time: 0 hr 44 min 52 sec) 
Heartbeat CPU 0 instructions: 341000000 cycles: 977243667 heartbeat IPC: 0.361501 cumulative IPC: 0.348117 (Simulation time: 0 hr 45 min 0 sec) 
Heartbeat CPU 0 instructions: 342000001 cycles: 979995555 heartbeat IPC: 0.363387 cumulative IPC: 0.34816 (Simulation time: 0 hr 45 min 7 sec) 
Heartbeat CPU 0 instructions: 343000002 cycles: 982846741 heartbeat IPC: 0.350732 cumulative IPC: 0.348167 (Simulation time: 0 hr 45 min 15 sec) 
Heartbeat CPU 0 instructions: 344000002 cycles: 986144375 heartbeat IPC: 0.303248 cumulative IPC: 0.348017 (Simulation time: 0 hr 45 min 23 sec) 
Heartbeat CPU 0 instructions: 345000002 cycles: 989290612 heartbeat IPC: 0.31784 cumulative IPC: 0.347921 (Simulation time: 0 hr 45 min 31 sec) 
Heartbeat CPU 0 instructions: 346000000 cycles: 991446567 heartbeat IPC: 0.463831 cumulative IPC: 0.348173 (Simulation time: 0 hr 45 min 38 sec) 
Heartbeat CPU 0 instructions: 347000001 cycles: 994565901 heartbeat IPC: 0.320582 cumulative IPC: 0.348087 (Simulation time: 0 hr 45 min 46 sec) 
Heartbeat CPU 0 instructions: 348000001 cycles: 997545103 heartbeat IPC: 0.33566 cumulative IPC: 0.348049 (Simulation time: 0 hr 45 min 53 sec) 
Heartbeat CPU 0 instructions: 349000002 cycles: 1000456132 heartbeat IPC: 0.343521 cumulative IPC: 0.348036 (Simulation time: 0 hr 46 min 1 sec) 
Heartbeat CPU 0 instructions: 350000000 cycles: 1003525619 heartbeat IPC: 0.325787 cumulative IPC: 0.347968 (Simulation time: 0 hr 46 min 8 sec) 
Heartbeat CPU 0 instructions: 351000002 cycles: 1006483192 heartbeat IPC: 0.338116 cumulative IPC: 0.347939 (Simulation time: 0 hr 46 min 16 sec) 
Heartbeat CPU 0 instructions: 352000000 cycles: 1009343741 heartbeat IPC: 0.349583 cumulative IPC: 0.347944 (Simulation time: 0 hr 46 min 23 sec) 
Heartbeat CPU 0 instructions: 353000003 cycles: 1012353435 heartbeat IPC: 0.332261 cumulative IPC: 0.347897 (Simulation time: 0 hr 46 min 31 sec) 
Heartbeat CPU 0 instructions: 354000001 cycles: 1015338040 heartbeat IPC: 0.335052 cumulative IPC: 0.347859 (Simulation time: 0 hr 46 min 39 sec) 
Heartbeat CPU 0 instructions: 355000001 cycles: 1018255115 heartbeat IPC: 0.342809 cumulative IPC: 0.347845 (Simulation time: 0 hr 46 min 46 sec) 
Heartbeat CPU 0 instructions: 356000000 cycles: 1020986603 heartbeat IPC: 0.3661 cumulative IPC: 0.347894 (Simulation time: 0 hr 46 min 54 sec) 
Heartbeat CPU 0 instructions: 357000002 cycles: 1024029278 heartbeat IPC: 0.328659 cumulative IPC: 0.347837 (Simulation time: 0 hr 47 min 1 sec) 
Heartbeat CPU 0 instructions: 358000000 cycles: 1027101347 heartbeat IPC: 0.325513 cumulative IPC: 0.34777 (Simulation time: 0 hr 47 min 9 sec) 
Heartbeat CPU 0 instructions: 359000000 cycles: 1029850091 heartbeat IPC: 0.363803 cumulative IPC: 0.347813 (Simulation time: 0 hr 47 min 16 sec) 
Heartbeat CPU 0 instructions: 360000003 cycles: 1032595138 heartbeat IPC: 0.364294 cumulative IPC: 0.347857 (Simulation time: 0 hr 47 min 24 sec) 
Heartbeat CPU 0 instructions: 361000000 cycles: 1035556077 heartbeat IPC: 0.33773 cumulative IPC: 0.347828 (Simulation time: 0 hr 47 min 31 sec) 
Heartbeat CPU 0 instructions: 362000001 cycles: 1038365493 heartbeat IPC: 0.355946 cumulative IPC: 0.34785 (Simulation time: 0 hr 47 min 39 sec) 
Heartbeat CPU 0 instructions: 363000000 cycles: 1041388802 heartbeat IPC: 0.330763 cumulative IPC: 0.3478 (Simulation time: 0 hr 47 min 47 sec) 
Heartbeat CPU 0 instructions: 364000000 cycles: 1044028997 heartbeat IPC: 0.37876 cumulative IPC: 0.347878 (Simulation time: 0 hr 47 min 54 sec) 
Heartbeat CPU 0 instructions: 365000000 cycles: 1047072754 heartbeat IPC: 0.328541 cumulative IPC: 0.347822 (Simulation time: 0 hr 48 min 2 sec) 
Heartbeat CPU 0 instructions: 366000000 cycles: 1049973794 heartbeat IPC: 0.344704 cumulative IPC: 0.347813 (Simulation time: 0 hr 48 min 9 sec) 
Heartbeat CPU 0 instructions: 367000000 cycles: 1052826748 heartbeat IPC: 0.350514 cumulative IPC: 0.347821 (Simulation time: 0 hr 48 min 17 sec) 
Heartbeat CPU 0 instructions: 368000001 cycles: 1055701354 heartbeat IPC: 0.347874 cumulative IPC: 0.347821 (Simulation time: 0 hr 48 min 24 sec) 
Heartbeat CPU 0 instructions: 369000001 cycles: 1058617785 heartbeat IPC: 0.342885 cumulative IPC: 0.347807 (Simulation time: 0 hr 48 min 32 sec) 
Heartbeat CPU 0 instructions: 370000000 cycles: 1061507935 heartbeat IPC: 0.346002 cumulative IPC: 0.347802 (Simulation time: 0 hr 48 min 39 sec) 
Heartbeat CPU 0 instructions: 371000000 cycles: 1064455102 heartbeat IPC: 0.339309 cumulative IPC: 0.347779 (Simulation time: 0 hr 48 min 47 sec) 
Heartbeat CPU 0 instructions: 372000003 cycles: 1067402911 heartbeat IPC: 0.339236 cumulative IPC: 0.347755 (Simulation time: 0 hr 48 min 54 sec) 
Heartbeat CPU 0 instructions: 373000000 cycles: 1070287682 heartbeat IPC: 0.346647 cumulative IPC: 0.347752 (Simulation time: 0 hr 49 min 2 sec) 
Heartbeat CPU 0 instructions: 374000000 cycles: 1073208816 heartbeat IPC: 0.342333 cumulative IPC: 0.347737 (Simulation time: 0 hr 49 min 9 sec) 
Heartbeat CPU 0 instructions: 375000000 cycles: 1075921661 heartbeat IPC: 0.368617 cumulative IPC: 0.34779 (Simulation time: 0 hr 49 min 17 sec) 
Heartbeat CPU 0 instructions: 376000002 cycles: 1078609828 heartbeat IPC: 0.372001 cumulative IPC: 0.34785 (Simulation time: 0 hr 49 min 24 sec) 
Heartbeat CPU 0 instructions: 377000000 cycles: 1081623062 heartbeat IPC: 0.331869 cumulative IPC: 0.347806 (Simulation time: 0 hr 49 min 32 sec) 
Heartbeat CPU 0 instructions: 378000000 cycles: 1084625717 heartbeat IPC: 0.333039 cumulative IPC: 0.347765 (Simulation time: 0 hr 49 min 39 sec) 
Heartbeat CPU 0 instructions: 379000001 cycles: 1087500884 heartbeat IPC: 0.347806 cumulative IPC: 0.347765 (Simulation time: 0 hr 49 min 47 sec) 
Heartbeat CPU 0 instructions: 380000001 cycles: 1090541958 heartbeat IPC: 0.328831 cumulative IPC: 0.347712 (Simulation time: 0 hr 49 min 54 sec) 
Heartbeat CPU 0 instructions: 381000001 cycles: 1093103722 heartbeat IPC: 0.390356 cumulative IPC: 0.347812 (Simulation time: 0 hr 50 min 2 sec) 
Heartbeat CPU 0 instructions: 382000001 cycles: 1096065293 heartbeat IPC: 0.337659 cumulative IPC: 0.347785 (Simulation time: 0 hr 50 min 9 sec) 
Heartbeat CPU 0 instructions: 383000000 cycles: 1098744737 heartbeat IPC: 0.373211 cumulative IPC: 0.347847 (Simulation time: 0 hr 50 min 17 sec) 
Heartbeat CPU 0 instructions: 384000000 cycles: 1101807028 heartbeat IPC: 0.326553 cumulative IPC: 0.347788 (Simulation time: 0 hr 50 min 24 sec) 
Heartbeat CPU 0 instructions: 385000000 cycles: 1104571100 heartbeat IPC: 0.361785 cumulative IPC: 0.347823 (Simulation time: 0 hr 50 min 32 sec) 
Heartbeat CPU 0 instructions: 386000000 cycles: 1107497124 heartbeat IPC: 0.341761 cumulative IPC: 0.347807 (Simulation time: 0 hr 50 min 39 sec) 
Heartbeat CPU 0 instructions: 387000002 cycles: 1110440260 heartbeat IPC: 0.339774 cumulative IPC: 0.347785 (Simulation time: 0 hr 50 min 47 sec) 
Heartbeat CPU 0 instructions: 388000000 cycles: 1113181894 heartbeat IPC: 0.364745 cumulative IPC: 0.347827 (Simulation time: 0 hr 50 min 54 sec) 
Heartbeat CPU 0 instructions: 389000002 cycles: 1115968330 heartbeat IPC: 0.358882 cumulative IPC: 0.347855 (Simulation time: 0 hr 51 min 2 sec) 
Heartbeat CPU 0 instructions: 390000003 cycles: 1118909605 heartbeat IPC: 0.339989 cumulative IPC: 0.347834 (Simulation time: 0 hr 51 min 9 sec) 
Heartbeat CPU 0 instructions: 391000003 cycles: 1121837723 heartbeat IPC: 0.341516 cumulative IPC: 0.347818 (Simulation time: 0 hr 51 min 17 sec) 
Heartbeat CPU 0 instructions: 392000000 cycles: 1124689428 heartbeat IPC: 0.350666 cumulative IPC: 0.347825 (Simulation time: 0 hr 51 min 24 sec) 
Heartbeat CPU 0 instructions: 393000000 cycles: 1127627934 heartbeat IPC: 0.340309 cumulative IPC: 0.347805 (Simulation time: 0 hr 51 min 32 sec) 
Heartbeat CPU 0 instructions: 394000002 cycles: 1130464750 heartbeat IPC: 0.352509 cumulative IPC: 0.347817 (Simulation time: 0 hr 51 min 40 sec) 
Heartbeat CPU 0 instructions: 395000002 cycles: 1133697853 heartbeat IPC: 0.3093 cumulative IPC: 0.347707 (Simulation time: 0 hr 51 min 48 sec) 
Heartbeat CPU 0 instructions: 396000000 cycles: 1136701557 heartbeat IPC: 0.332922 cumulative IPC: 0.347668 (Simulation time: 0 hr 51 min 56 sec) 
Heartbeat CPU 0 instructions: 397000000 cycles: 1139516558 heartbeat IPC: 0.35524 cumulative IPC: 0.347687 (Simulation time: 0 hr 52 min 4 sec) 
Heartbeat CPU 0 instructions: 398000000 cycles: 1142457926 heartbeat IPC: 0.339978 cumulative IPC: 0.347667 (Simulation time: 0 hr 52 min 12 sec) 
Heartbeat CPU 0 instructions: 399000000 cycles: 1145454801 heartbeat IPC: 0.333681 cumulative IPC: 0.34763 (Simulation time: 0 hr 52 min 19 sec) 
Heartbeat CPU 0 instructions: 400000000 cycles: 1148228026 heartbeat IPC: 0.360591 cumulative IPC: 0.347662 (Simulation time: 0 hr 52 min 27 sec) 
Heartbeat CPU 0 instructions: 401000001 cycles: 1151040892 heartbeat IPC: 0.35551 cumulative IPC: 0.347681 (Simulation time: 0 hr 52 min 35 sec) 
Heartbeat CPU 0 instructions: 402000003 cycles: 1153871438 heartbeat IPC: 0.353289 cumulative IPC: 0.347695 (Simulation time: 0 hr 52 min 42 sec) 
Heartbeat CPU 0 instructions: 403000001 cycles: 1156907675 heartbeat IPC: 0.329354 cumulative IPC: 0.347646 (Simulation time: 0 hr 52 min 50 sec) 
Heartbeat CPU 0 instructions: 404000002 cycles: 1159869322 heartbeat IPC: 0.33765 cumulative IPC: 0.347621 (Simulation time: 0 hr 52 min 58 sec) 
Heartbeat CPU 0 instructions: 405000000 cycles: 1162789209 heartbeat IPC: 0.342478 cumulative IPC: 0.347608 (Simulation time: 0 hr 53 min 6 sec) 
Heartbeat CPU 0 instructions: 406000000 cycles: 1165512042 heartbeat IPC: 0.367265 cumulative IPC: 0.347654 (Simulation time: 0 hr 53 min 13 sec) 
Heartbeat CPU 0 instructions: 407000000 cycles: 1168582879 heartbeat IPC: 0.325644 cumulative IPC: 0.347596 (Simulation time: 0 hr 53 min 21 sec) 
Heartbeat CPU 0 instructions: 408000001 cycles: 1171515502 heartbeat IPC: 0.340992 cumulative IPC: 0.34758 (Simulation time: 0 hr 53 min 29 sec) 
Heartbeat CPU 0 instructions: 409000003 cycles: 1174333320 heartbeat IPC: 0.354885 cumulative IPC: 0.347597 (Simulation time: 0 hr 53 min 36 sec) 
Heartbeat CPU 0 instructions: 410000001 cycles: 1177110081 heartbeat IPC: 0.360131 cumulative IPC: 0.347627 (Simulation time: 0 hr 53 min 44 sec) 
Heartbeat CPU 0 instructions: 411000003 cycles: 1180174910 heartbeat IPC: 0.326283 cumulative IPC: 0.347571 (Simulation time: 0 hr 53 min 52 sec) 
Heartbeat CPU 0 instructions: 412000000 cycles: 1183183273 heartbeat IPC: 0.332406 cumulative IPC: 0.347533 (Simulation time: 0 hr 53 min 59 sec) 
Heartbeat CPU 0 instructions: 413000003 cycles: 1186069056 heartbeat IPC: 0.346527 cumulative IPC: 0.34753 (Simulation time: 0 hr 54 min 7 sec) 
Heartbeat CPU 0 instructions: 414000000 cycles: 1188427883 heartbeat IPC: 0.423938 cumulative IPC: 0.347682 (Simulation time: 0 hr 54 min 15 sec) 
Heartbeat CPU 0 instructions: 415000001 cycles: 1191356623 heartbeat IPC: 0.341444 cumulative IPC: 0.347667 (Simulation time: 0 hr 54 min 23 sec) 
Heartbeat CPU 0 instructions: 416000003 cycles: 1194283241 heartbeat IPC: 0.341692 cumulative IPC: 0.347652 (Simulation time: 0 hr 54 min 30 sec) 
Heartbeat CPU 0 instructions: 417000001 cycles: 1197223104 heartbeat IPC: 0.340151 cumulative IPC: 0.347633 (Simulation time: 0 hr 54 min 38 sec) 
Heartbeat CPU 0 instructions: 418000000 cycles: 1200121918 heartbeat IPC: 0.344968 cumulative IPC: 0.347627 (Simulation time: 0 hr 54 min 46 sec) 
Heartbeat CPU 0 instructions: 419000002 cycles: 1202948258 heartbeat IPC: 0.353815 cumulative IPC: 0.347642 (Simulation time: 0 hr 54 min 55 sec) 
Heartbeat CPU 0 instructions: 420000000 cycles: 1205853321 heartbeat IPC: 0.344226 cumulative IPC: 0.347633 (Simulation time: 0 hr 55 min 3 sec) 
Heartbeat CPU 0 instructions: 421000002 cycles: 1208778697 heartbeat IPC: 0.341837 cumulative IPC: 0.347619 (Simulation time: 0 hr 55 min 11 sec) 
Heartbeat CPU 0 instructions: 422000000 cycles: 1211597346 heartbeat IPC: 0.354779 cumulative IPC: 0.347636 (Simulation time: 0 hr 55 min 19 sec) 
Heartbeat CPU 0 instructions: 423000001 cycles: 1214439897 heartbeat IPC: 0.351797 cumulative IPC: 0.347646 (Simulation time: 0 hr 55 min 26 sec) 
Heartbeat CPU 0 instructions: 424000003 cycles: 1217664895 heartbeat IPC: 0.310078 cumulative IPC: 0.347546 (Simulation time: 0 hr 55 min 34 sec) 
Heartbeat CPU 0 instructions: 425000003 cycles: 1220461968 heartbeat IPC: 0.357517 cumulative IPC: 0.347569 (Simulation time: 0 hr 55 min 42 sec) 
Heartbeat CPU 0 instructions: 426000002 cycles: 1223513585 heartbeat IPC: 0.327695 cumulative IPC: 0.347519 (Simulation time: 0 hr 55 min 50 sec) 
Heartbeat CPU 0 instructions: 427000000 cycles: 1226230450 heartbeat IPC: 0.368071 cumulative IPC: 0.347565 (Simulation time: 0 hr 55 min 58 sec) 
Heartbeat CPU 0 instructions: 428000000 cycles: 1229382325 heartbeat IPC: 0.317271 cumulative IPC: 0.347487 (Simulation time: 0 hr 56 min 5 sec) 
Heartbeat CPU 0 instructions: 429000000 cycles: 1232180986 heartbeat IPC: 0.357314 cumulative IPC: 0.34751 (Simulation time: 0 hr 56 min 13 sec) 
Heartbeat CPU 0 instructions: 430000000 cycles: 1235025687 heartbeat IPC: 0.351531 cumulative IPC: 0.347519 (Simulation time: 0 hr 56 min 20 sec) 
Heartbeat CPU 0 instructions: 431000001 cycles: 1237898933 heartbeat IPC: 0.348039 cumulative IPC: 0.34752 (Simulation time: 0 hr 56 min 28 sec) 
Heartbeat CPU 0 instructions: 432000003 cycles: 1240761117 heartbeat IPC: 0.349384 cumulative IPC: 0.347524 (Simulation time: 0 hr 56 min 36 sec) 
Heartbeat CPU 0 instructions: 433000001 cycles: 1243617567 heartbeat IPC: 0.350084 cumulative IPC: 0.34753 (Simulation time: 0 hr 56 min 43 sec) 
Heartbeat CPU 0 instructions: 434000002 cycles: 1246467032 heartbeat IPC: 0.350943 cumulative IPC: 0.347538 (Simulation time: 0 hr 56 min 51 sec) 
Heartbeat CPU 0 instructions: 435000002 cycles: 1249350751 heartbeat IPC: 0.346774 cumulative IPC: 0.347536 (Simulation time: 0 hr 56 min 58 sec) 
Heartbeat CPU 0 instructions: 436000000 cycles: 1252136544 heartbeat IPC: 0.358963 cumulative IPC: 0.347562 (Simulation time: 0 hr 57 min 6 sec) 
Heartbeat CPU 0 instructions: 437000002 cycles: 1255150235 heartbeat IPC: 0.33182 cumulative IPC: 0.347524 (Simulation time: 0 hr 57 min 14 sec) 
Heartbeat CPU 0 instructions: 438000000 cycles: 1258107708 heartbeat IPC: 0.338126 cumulative IPC: 0.347502 (Simulation time: 0 hr 57 min 21 sec) 
Heartbeat CPU 0 instructions: 439000003 cycles: 1260690997 heartbeat IPC: 0.387105 cumulative IPC: 0.347583 (Simulation time: 0 hr 57 min 29 sec) 
Heartbeat CPU 0 instructions: 440000000 cycles: 1263613036 heartbeat IPC: 0.342226 cumulative IPC: 0.347571 (Simulation time: 0 hr 57 min 37 sec) 
Heartbeat CPU 0 instructions: 441000000 cycles: 1266564505 heartbeat IPC: 0.338814 cumulative IPC: 0.34755 (Simulation time: 0 hr 57 min 45 sec) 
Heartbeat CPU 0 instructions: 442000001 cycles: 1269391838 heartbeat IPC: 0.353691 cumulative IPC: 0.347564 (Simulation time: 0 hr 57 min 52 sec) 
Heartbeat CPU 0 instructions: 443000001 cycles: 1272253799 heartbeat IPC: 0.349411 cumulative IPC: 0.347568 (Simulation time: 0 hr 58 min 0 sec) 
Heartbeat CPU 0 instructions: 444000003 cycles: 1275352234 heartbeat IPC: 0.322744 cumulative IPC: 0.347508 (Simulation time: 0 hr 58 min 8 sec) 
Heartbeat CPU 0 instructions: 445000000 cycles: 1278274332 heartbeat IPC: 0.342219 cumulative IPC: 0.347496 (Simulation time: 0 hr 58 min 16 sec) 
Heartbeat CPU 0 instructions: 446000000 cycles: 1281087751 heartbeat IPC: 0.355439 cumulative IPC: 0.347513 (Simulation time: 0 hr 58 min 23 sec) 
Heartbeat CPU 0 instructions: 447000000 cycles: 1283990128 heartbeat IPC: 0.344545 cumulative IPC: 0.347506 (Simulation time: 0 hr 58 min 31 sec) 
Heartbeat CPU 0 instructions: 448000000 cycles: 1286895841 heartbeat IPC: 0.34415 cumulative IPC: 0.347499 (Simulation time: 0 hr 58 min 39 sec) 
Heartbeat CPU 0 instructions: 449000000 cycles: 1289825263 heartbeat IPC: 0.341364 cumulative IPC: 0.347485 (Simulation time: 0 hr 58 min 47 sec) 
Heartbeat CPU 0 instructions: 450000001 cycles: 1292610523 heartbeat IPC: 0.359033 cumulative IPC: 0.34751 (Simulation time: 0 hr 58 min 54 sec) 

Warmup complete CPU 0 instructions: 450000001 cycles: 1292610523 (Simulation time: 0 hr 58 min 54 sec) 

Heartbeat CPU 0 instructions: 451000000 cycles: 1295484516 heartbeat IPC: 0.347948 cumulative IPC: 0.347948 (Simulation time: 0 hr 59 min 2 sec) 
Heartbeat CPU 0 instructions: 452000000 cycles: 1298063724 heartbeat IPC: 0.387716 cumulative IPC: 0.366757 (Simulation time: 0 hr 59 min 10 sec) 
Heartbeat CPU 0 instructions: 453000000 cycles: 1301019530 heartbeat IPC: 0.338317 cumulative IPC: 0.35676 (Simulation time: 0 hr 59 min 18 sec) 
Heartbeat CPU 0 instructions: 454000001 cycles: 1303597392 heartbeat IPC: 0.387919 cumulative IPC: 0.364071 (Simulation time: 0 hr 59 min 25 sec) 
Heartbeat CPU 0 instructions: 455000000 cycles: 1306477871 heartbeat IPC: 0.347164 cumulative IPC: 0.360559 (Simulation time: 0 hr 59 min 33 sec) 
Heartbeat CPU 0 instructions: 456000003 cycles: 1309120245 heartbeat IPC: 0.378449 cumulative IPC: 0.363422 (Simulation time: 0 hr 59 min 41 sec) 
Heartbeat CPU 0 instructions: 457000001 cycles: 1311912740 heartbeat IPC: 0.358102 cumulative IPC: 0.362653 (Simulation time: 0 hr 59 min 48 sec) 
Heartbeat CPU 0 instructions: 458000003 cycles: 1314950811 heartbeat IPC: 0.329157 cumulative IPC: 0.358098 (Simulation time: 0 hr 59 min 56 sec) 
Heartbeat CPU 0 instructions: 459000000 cycles: 1317925420 heartbeat IPC: 0.336178 cumulative IPC: 0.355522 (Simulation time: 1 hr 0 min 4 sec) 
Heartbeat CPU 0 instructions: 460000002 cycles: 1320744444 heartbeat IPC: 0.354733 cumulative IPC: 0.355443 (Simulation time: 1 hr 0 min 12 sec) 
Heartbeat CPU 0 instructions: 461000000 cycles: 1323531851 heartbeat IPC: 0.358756 cumulative IPC: 0.355741 (Simulation time: 1 hr 0 min 19 sec) 
Heartbeat CPU 0 instructions: 462000000 cycles: 1326492082 heartbeat IPC: 0.337811 cumulative IPC: 0.354175 (Simulation time: 1 hr 0 min 27 sec) 
Heartbeat CPU 0 instructions: 463000002 cycles: 1329427325 heartbeat IPC: 0.340688 cumulative IPC: 0.3531 (Simulation time: 1 hr 0 min 35 sec) 
Heartbeat CPU 0 instructions: 464000002 cycles: 1332386028 heartbeat IPC: 0.337986 cumulative IPC: 0.351975 (Simulation time: 1 hr 0 min 43 sec) 
Heartbeat CPU 0 instructions: 465000000 cycles: 1335287694 heartbeat IPC: 0.344629 cumulative IPC: 0.351476 (Simulation time: 1 hr 0 min 50 sec) 
Heartbeat CPU 0 instructions: 466000000 cycles: 1338333570 heartbeat IPC: 0.328313 cumulative IPC: 0.349933 (Simulation time: 1 hr 0 min 58 sec) 
Heartbeat CPU 0 instructions: 467000001 cycles: 1341066777 heartbeat IPC: 0.365871 cumulative IPC: 0.350832 (Simulation time: 1 hr 1 min 6 sec) 
Heartbeat CPU 0 instructions: 468000002 cycles: 1343855112 heartbeat IPC: 0.358637 cumulative IPC: 0.351257 (Simulation time: 1 hr 1 min 13 sec) 
Heartbeat CPU 0 instructions: 469000001 cycles: 1346796558 heartbeat IPC: 0.339969 cumulative IPC: 0.350644 (Simulation time: 1 hr 1 min 21 sec) 
Heartbeat CPU 0 instructions: 470000002 cycles: 1349661197 heartbeat IPC: 0.349084 cumulative IPC: 0.350566 (Simulation time: 1 hr 1 min 29 sec) 
Heartbeat CPU 0 instructions: 471000002 cycles: 1352473008 heartbeat IPC: 0.355643 cumulative IPC: 0.350804 (Simulation time: 1 hr 1 min 36 sec) 
Heartbeat CPU 0 instructions: 472000000 cycles: 1355638736 heartbeat IPC: 0.315882 cumulative IPC: 0.34905 (Simulation time: 1 hr 1 min 44 sec) 
Heartbeat CPU 0 instructions: 473000000 cycles: 1357807610 heartbeat IPC: 0.461069 cumulative IPC: 0.352776 (Simulation time: 1 hr 1 min 52 sec) 
Heartbeat CPU 0 instructions: 474000000 cycles: 1360678640 heartbeat IPC: 0.348307 cumulative IPC: 0.352588 (Simulation time: 1 hr 2 min 0 sec) 
Heartbeat CPU 0 instructions: 475000000 cycles: 1363637540 heartbeat IPC: 0.337963 cumulative IPC: 0.351979 (Simulation time: 1 hr 2 min 7 sec) 
Heartbeat CPU 0 instructions: 476000002 cycles: 1366641585 heartbeat IPC: 0.332885 cumulative IPC: 0.351204 (Simulation time: 1 hr 2 min 15 sec) 
Heartbeat CPU 0 instructions: 477000001 cycles: 1369614005 heartbeat IPC: 0.336426 cumulative IPC: 0.350634 (Simulation time: 1 hr 2 min 23 sec) 
Heartbeat CPU 0 instructions: 478000000 cycles: 1372265203 heartbeat IPC: 0.377188 cumulative IPC: 0.351517 (Simulation time: 1 hr 2 min 30 sec) 
Heartbeat CPU 0 instructions: 479000000 cycles: 1375529405 heartbeat IPC: 0.306354 cumulative IPC: 0.349739 (Simulation time: 1 hr 2 min 38 sec) 
Heartbeat CPU 0 instructions: 480000000 cycles: 1378471667 heartbeat IPC: 0.339875 cumulative IPC: 0.349401 (Simulation time: 1 hr 2 min 46 sec) 
Heartbeat CPU 0 instructions: 481000000 cycles: 1381338002 heartbeat IPC: 0.348878 cumulative IPC: 0.349384 (Simulation time: 1 hr 2 min 53 sec) 
Heartbeat CPU 0 instructions: 482000002 cycles: 1384190436 heartbeat IPC: 0.350578 cumulative IPC: 0.349422 (Simulation time: 1 hr 3 min 1 sec) 
Heartbeat CPU 0 instructions: 483000000 cycles: 1387041976 heartbeat IPC: 0.350687 cumulative IPC: 0.34946 (Simulation time: 1 hr 3 min 8 sec) 
Heartbeat CPU 0 instructions: 484000000 cycles: 1389984362 heartbeat IPC: 0.33986 cumulative IPC: 0.34917 (Simulation time: 1 hr 3 min 16 sec) 
Heartbeat CPU 0 instructions: 485000002 cycles: 1393011623 heartbeat IPC: 0.330332 cumulative IPC: 0.348602 (Simulation time: 1 hr 3 min 24 sec) 
Heartbeat CPU 0 instructions: 486000001 cycles: 1395748526 heartbeat IPC: 0.365376 cumulative IPC: 0.349047 (Simulation time: 1 hr 3 min 32 sec) 
Heartbeat CPU 0 instructions: 487000003 cycles: 1398778264 heartbeat IPC: 0.330062 cumulative IPC: 0.348505 (Simulation time: 1 hr 3 min 39 sec) 
Heartbeat CPU 0 instructions: 488000000 cycles: 1401600549 heartbeat IPC: 0.354322 cumulative IPC: 0.348656 (Simulation time: 1 hr 3 min 47 sec) 
Heartbeat CPU 0 instructions: 489000002 cycles: 1404252873 heartbeat IPC: 0.377029 cumulative IPC: 0.34933 (Simulation time: 1 hr 3 min 54 sec) 
Heartbeat CPU 0 instructions: 490000000 cycles: 1407198198 heartbeat IPC: 0.33952 cumulative IPC: 0.349078 (Simulation time: 1 hr 4 min 1 sec) 
Heartbeat CPU 0 instructions: 491000002 cycles: 1410076307 heartbeat IPC: 0.347451 cumulative IPC: 0.349038 (Simulation time: 1 hr 4 min 9 sec) 
Heartbeat CPU 0 instructions: 492000000 cycles: 1412931756 heartbeat IPC: 0.350207 cumulative IPC: 0.349066 (Simulation time: 1 hr 4 min 17 sec) 
Heartbeat CPU 0 instructions: 493000002 cycles: 1415816047 heartbeat IPC: 0.346706 cumulative IPC: 0.34901 (Simulation time: 1 hr 4 min 24 sec) 
Heartbeat CPU 0 instructions: 494000000 cycles: 1418750507 heartbeat IPC: 0.340778 cumulative IPC: 0.348819 (Simulation time: 1 hr 4 min 32 sec) 
Heartbeat CPU 0 instructions: 495000000 cycles: 1421470632 heartbeat IPC: 0.36763 cumulative IPC: 0.349216 (Simulation time: 1 hr 4 min 39 sec) 
Heartbeat CPU 0 instructions: 496000001 cycles: 1424472209 heartbeat IPC: 0.333159 cumulative IPC: 0.34885 (Simulation time: 1 hr 4 min 47 sec) 
Heartbeat CPU 0 instructions: 497000001 cycles: 1427470126 heartbeat IPC: 0.333565 cumulative IPC: 0.348511 (Simulation time: 1 hr 4 min 55 sec) 
Heartbeat CPU 0 instructions: 498000001 cycles: 1430204380 heartbeat IPC: 0.36573 cumulative IPC: 0.348853 (Simulation time: 1 hr 5 min 2 sec) 
Heartbeat CPU 0 instructions: 499000001 cycles: 1433079376 heartbeat IPC: 0.347827 cumulative IPC: 0.348832 (Simulation time: 1 hr 5 min 10 sec) 
Heartbeat CPU 0 instructions: 500000003 cycles: 1435688687 heartbeat IPC: 0.383244 cumulative IPC: 0.349459 (Simulation time: 1 hr 5 min 17 sec) 
Heartbeat CPU 0 instructions: 501000001 cycles: 1438629509 heartbeat IPC: 0.34004 cumulative IPC: 0.34927 (Simulation time: 1 hr 5 min 25 sec) 
Heartbeat CPU 0 instructions: 502000002 cycles: 1441347283 heartbeat IPC: 0.367949 cumulative IPC: 0.349611 (Simulation time: 1 hr 5 min 33 sec) 
Heartbeat CPU 0 instructions: 503000002 cycles: 1444241628 heartbeat IPC: 0.345501 cumulative IPC: 0.349533 (Simulation time: 1 hr 5 min 40 sec) 
Heartbeat CPU 0 instructions: 504000000 cycles: 1447220362 heartbeat IPC: 0.335712 cumulative IPC: 0.349266 (Simulation time: 1 hr 5 min 48 sec) 
Heartbeat CPU 0 instructions: 505000002 cycles: 1450161910 heartbeat IPC: 0.339958 cumulative IPC: 0.349092 (Simulation time: 1 hr 5 min 56 sec) 
Heartbeat CPU 0 instructions: 506000000 cycles: 1452807762 heartbeat IPC: 0.377949 cumulative IPC: 0.349569 (Simulation time: 1 hr 6 min 4 sec) 
Heartbeat CPU 0 instructions: 507000002 cycles: 1455653714 heartbeat IPC: 0.351377 cumulative IPC: 0.349601 (Simulation time: 1 hr 6 min 11 sec) 
Heartbeat CPU 0 instructions: 508000001 cycles: 1458522365 heartbeat IPC: 0.348596 cumulative IPC: 0.349583 (Simulation time: 1 hr 6 min 19 sec) 
Heartbeat CPU 0 instructions: 509000001 cycles: 1461470064 heartbeat IPC: 0.339248 cumulative IPC: 0.349403 (Simulation time: 1 hr 6 min 27 sec) 
Heartbeat CPU 0 instructions: 510000003 cycles: 1464297533 heartbeat IPC: 0.353674 cumulative IPC: 0.349473 (Simulation time: 1 hr 6 min 34 sec) 
Heartbeat CPU 0 instructions: 511000000 cycles: 1466904827 heartbeat IPC: 0.383538 cumulative IPC: 0.349983 (Simulation time: 1 hr 6 min 42 sec) 
Heartbeat CPU 0 instructions: 512000001 cycles: 1469636617 heartbeat IPC: 0.366061 cumulative IPC: 0.350231 (Simulation time: 1 hr 6 min 50 sec) 
Heartbeat CPU 0 instructions: 513000000 cycles: 1472396368 heartbeat IPC: 0.362351 cumulative IPC: 0.350417 (Simulation time: 1 hr 6 min 57 sec) 
Heartbeat CPU 0 instructions: 514000003 cycles: 1475178024 heartbeat IPC: 0.359499 cumulative IPC: 0.350555 (Simulation time: 1 hr 7 min 5 sec) 
Heartbeat CPU 0 instructions: 515000001 cycles: 1478061687 heartbeat IPC: 0.34678 cumulative IPC: 0.350497 (Simulation time: 1 hr 7 min 12 sec) 
Heartbeat CPU 0 instructions: 516000001 cycles: 1481046553 heartbeat IPC: 0.335023 cumulative IPC: 0.350251 (Simulation time: 1 hr 7 min 20 sec) 
Heartbeat CPU 0 instructions: 517000000 cycles: 1483676497 heartbeat IPC: 0.380236 cumulative IPC: 0.350664 (Simulation time: 1 hr 7 min 28 sec) 
Heartbeat CPU 0 instructions: 518000000 cycles: 1486739118 heartbeat IPC: 0.326518 cumulative IPC: 0.350283 (Simulation time: 1 hr 7 min 36 sec) 
Heartbeat CPU 0 instructions: 519000002 cycles: 1489676045 heartbeat IPC: 0.340493 cumulative IPC: 0.350137 (Simulation time: 1 hr 7 min 43 sec) 
Heartbeat CPU 0 instructions: 520000001 cycles: 1492681185 heartbeat IPC: 0.332763 cumulative IPC: 0.349876 (Simulation time: 1 hr 7 min 51 sec) 
Heartbeat CPU 0 instructions: 521000002 cycles: 1495455202 heartbeat IPC: 0.360488 cumulative IPC: 0.350022 (Simulation time: 1 hr 7 min 59 sec) 
Heartbeat CPU 0 instructions: 522000000 cycles: 1498185827 heartbeat IPC: 0.366216 cumulative IPC: 0.350237 (Simulation time: 1 hr 8 min 6 sec) 
Heartbeat CPU 0 instructions: 523000000 cycles: 1501154746 heartbeat IPC: 0.336823 cumulative IPC: 0.350046 (Simulation time: 1 hr 8 min 14 sec) 
Heartbeat CPU 0 instructions: 524000002 cycles: 1504062032 heartbeat IPC: 0.343964 cumulative IPC: 0.349962 (Simulation time: 1 hr 8 min 22 sec) 
Heartbeat CPU 0 instructions: 525000001 cycles: 1506921912 heartbeat IPC: 0.349665 cumulative IPC: 0.349958 (Simulation time: 1 hr 8 min 29 sec) 
Heartbeat CPU 0 instructions: 526000002 cycles: 1509784250 heartbeat IPC: 0.349365 cumulative IPC: 0.34995 (Simulation time: 1 hr 8 min 37 sec) 
Heartbeat CPU 0 instructions: 527000000 cycles: 1512610462 heartbeat IPC: 0.35383 cumulative IPC: 0.35 (Simulation time: 1 hr 8 min 45 sec) 
Heartbeat CPU 0 instructions: 528000000 cycles: 1515461885 heartbeat IPC: 0.350702 cumulative IPC: 0.350009 (Simulation time: 1 hr 8 min 52 sec) 
Heartbeat CPU 0 instructions: 529000002 cycles: 1518474658 heartbeat IPC: 0.331921 cumulative IPC: 0.349768 (Simulation time: 1 hr 9 min 1 sec) 
Heartbeat CPU 0 instructions: 530000001 cycles: 1521664001 heartbeat IPC: 0.313544 cumulative IPC: 0.349263 (Simulation time: 1 hr 9 min 9 sec) 
Heartbeat CPU 0 instructions: 531000003 cycles: 1523764038 heartbeat IPC: 0.476183 cumulative IPC: 0.350416 (Simulation time: 1 hr 9 min 16 sec) 
Heartbeat CPU 0 instructions: 532000000 cycles: 1526785987 heartbeat IPC: 0.330911 cumulative IPC: 0.350165 (Simulation time: 1 hr 9 min 24 sec) 
Heartbeat CPU 0 instructions: 533000000 cycles: 1529602940 heartbeat IPC: 0.354993 cumulative IPC: 0.350222 (Simulation time: 1 hr 9 min 32 sec) 
Heartbeat CPU 0 instructions: 534000000 cycles: 1532643613 heartbeat IPC: 0.328875 cumulative IPC: 0.349952 (Simulation time: 1 hr 9 min 39 sec) 
Heartbeat CPU 0 instructions: 535000002 cycles: 1535511543 heartbeat IPC: 0.348684 cumulative IPC: 0.349937 (Simulation time: 1 hr 9 min 47 sec) 
Heartbeat CPU 0 instructions: 536000001 cycles: 1538268374 heartbeat IPC: 0.362735 cumulative IPC: 0.35008 (Simulation time: 1 hr 9 min 55 sec) 
Heartbeat CPU 0 instructions: 537000001 cycles: 1540928497 heartbeat IPC: 0.375922 cumulative IPC: 0.350357 (Simulation time: 1 hr 10 min 2 sec) 
Heartbeat CPU 0 instructions: 538000001 cycles: 1544020332 heartbeat IPC: 0.323433 cumulative IPC: 0.350026 (Simulation time: 1 hr 10 min 10 sec) 
Heartbeat CPU 0 instructions: 539000000 cycles: 1546897779 heartbeat IPC: 0.34753 cumulative IPC: 0.349998 (Simulation time: 1 hr 10 min 18 sec) 
Heartbeat CPU 0 instructions: 540000001 cycles: 1549683616 heartbeat IPC: 0.358959 cumulative IPC: 0.350095 (Simulation time: 1 hr 10 min 25 sec) 
Heartbeat CPU 0 instructions: 541000001 cycles: 1552569979 heartbeat IPC: 0.346457 cumulative IPC: 0.350055 (Simulation time: 1 hr 10 min 33 sec) 
Heartbeat CPU 0 instructions: 542000002 cycles: 1555593741 heartbeat IPC: 0.330714 cumulative IPC: 0.349832 (Simulation time: 1 hr 10 min 41 sec) 
Heartbeat CPU 0 instructions: 543000001 cycles: 1558237776 heartbeat IPC: 0.378209 cumulative IPC: 0.350115 (Simulation time: 1 hr 10 min 48 sec) 
Heartbeat CPU 0 instructions: 544000001 cycles: 1561343257 heartbeat IPC: 0.322011 cumulative IPC: 0.34979 (Simulation time: 1 hr 10 min 56 sec) 
Heartbeat CPU 0 instructions: 545000002 cycles: 1564128505 heartbeat IPC: 0.359035 cumulative IPC: 0.349885 (Simulation time: 1 hr 11 min 3 sec) 
[...]
Heartbeat CPU 0 instructions: 835000001 cycles: 2406187579 heartbeat IPC: 0.331996 cumulative IPC: 0.345733 (Simulation time: 1 hr 48 min 33 sec) 
Heartbeat CPU 0 instructions: 836000000 cycles: 2409290561 heartbeat IPC: 0.32227 cumulative IPC: 0.345668 (Simulation time: 1 hr 48 min 41 sec) 
Heartbeat CPU 0 instructions: 837000000 cycles: 2411948031 heartbeat IPC: 0.376298 cumulative IPC: 0.34574 (Simulation time: 1 hr 48 min 48 sec) 
Heartbeat CPU 0 instructions: 838000000 cycles: 2414764557 heartbeat IPC: 0.355047 cumulative IPC: 0.345764 (Simulation time: 1 hr 48 min 56 sec) 
Heartbeat CPU 0 instructions: 839000001 cycles: 2417737550 heartbeat IPC: 0.336362 cumulative IPC: 0.345739 (Simulation time: 1 hr 49 min 4 sec) 
Heartbeat CPU 0 instructions: 840000003 cycles: 2421179606 heartbeat IPC: 0.290525 cumulative IPC: 0.34557 (Simulation time: 1 hr 49 min 12 sec) 
Heartbeat CPU 0 instructions: 841000000 cycles: 2423962841 heartbeat IPC: 0.359293 cumulative IPC: 0.345604 (Simulation time: 1 hr 49 min 19 sec) 
Heartbeat CPU 0 instructions: 842000002 cycles: 2426982990 heartbeat IPC: 0.33111 cumulative IPC: 0.345565 (Simulation time: 1 hr 49 min 27 sec) 
Heartbeat CPU 0 instructions: 843000001 cycles: 2430015882 heartbeat IPC: 0.329718 cumulative IPC: 0.345523 (Simulation time: 1 hr 49 min 35 sec) 
Heartbeat CPU 0 instructions: 844000000 cycles: 2432957448 heartbeat IPC: 0.339955 cumulative IPC: 0.345509 (Simulation time: 1 hr 49 min 43 sec) 
Heartbeat CPU 0 instructions: 845000000 cycles: 2435953126 heartbeat IPC: 0.333814 cumulative IPC: 0.345478 (Simulation time: 1 hr 49 min 51 sec) 
Heartbeat CPU 0 instructions: 846000003 cycles: 2438849851 heartbeat IPC: 0.345218 cumulative IPC: 0.345478 (Simulation time: 1 hr 49 min 59 sec) 
Heartbeat CPU 0 instructions: 847000000 cycles: 2441778169 heartbeat IPC: 0.341492 cumulative IPC: 0.345467 (Simulation time: 1 hr 50 min 7 sec) 
Heartbeat CPU 0 instructions: 848000000 cycles: 2444714545 heartbeat IPC: 0.340556 cumulative IPC: 0.345455 (Simulation time: 1 hr 50 min 15 sec) 
Heartbeat CPU 0 instructions: 849000000 cycles: 2447593552 heartbeat IPC: 0.347342 cumulative IPC: 0.34546 (Simulation time: 1 hr 50 min 22 sec) 
Heartbeat CPU 0 instructions: 850000000 cycles: 2450631360 heartbeat IPC: 0.329185 cumulative IPC: 0.345417 (Simulation time: 1 hr 50 min 30 sec) 
Heartbeat CPU 0 instructions: 851000000 cycles: 2453565529 heartbeat IPC: 0.340812 cumulative IPC: 0.345405 (Simulation time: 1 hr 50 min 38 sec) 
Heartbeat CPU 0 instructions: 852000002 cycles: 2456490693 heartbeat IPC: 0.341862 cumulative IPC: 0.345396 (Simulation time: 1 hr 50 min 46 sec) 
Heartbeat CPU 0 instructions: 853000003 cycles: 2459308041 heartbeat IPC: 0.354944 cumulative IPC: 0.345419 (Simulation time: 1 hr 50 min 54 sec) 
Heartbeat CPU 0 instructions: 854000000 cycles: 2462377129 heartbeat IPC: 0.325829 cumulative IPC: 0.345368 (Simulation time: 1 hr 51 min 2 sec) 
Heartbeat CPU 0 instructions: 855000000 cycles: 2465295433 heartbeat IPC: 0.342665 cumulative IPC: 0.345361 (Simulation time: 1 hr 51 min 10 sec) 
Heartbeat CPU 0 instructions: 856000000 cycles: 2468294080 heartbeat IPC: 0.333484 cumulative IPC: 0.345331 (Simulation time: 1 hr 51 min 18 sec) 
Heartbeat CPU 0 instructions: 857000000 cycles: 2471141344 heartbeat IPC: 0.351214 cumulative IPC: 0.345345 (Simulation time: 1 hr 51 min 26 sec) 
Heartbeat CPU 0 instructions: 858000000 cycles: 2474199824 heartbeat IPC: 0.32696 cumulative IPC: 0.345298 (Simulation time: 1 hr 51 min 34 sec) 
Heartbeat CPU 0 instructions: 859000000 cycles: 2477162889 heartbeat IPC: 0.337488 cumulative IPC: 0.345278 (Simulation time: 1 hr 51 min 42 sec) 
Heartbeat CPU 0 instructions: 860000000 cycles: 2480123445 heartbeat IPC: 0.337774 cumulative IPC: 0.345259 (Simulation time: 1 hr 51 min 50 sec) 
Heartbeat CPU 0 instructions: 861000000 cycles: 2482929572 heartbeat IPC: 0.356363 cumulative IPC: 0.345286 (Simulation time: 1 hr 51 min 58 sec) 
Heartbeat CPU 0 instructions: 862000003 cycles: 2486197005 heartbeat IPC: 0.306052 cumulative IPC: 0.345178 (Simulation time: 1 hr 52 min 6 sec) 
Heartbeat CPU 0 instructions: 863000000 cycles: 2489183111 heartbeat IPC: 0.334883 cumulative IPC: 0.345152 (Simulation time: 1 hr 52 min 14 sec) 
Heartbeat CPU 0 instructions: 864000002 cycles: 2492122942 heartbeat IPC: 0.340156 cumulative IPC: 0.34514 (Simulation time: 1 hr 52 min 22 sec) 
Heartbeat CPU 0 instructions: 865000003 cycles: 2495084132 heartbeat IPC: 0.337702 cumulative IPC: 0.345122 (Simulation time: 1 hr 52 min 30 sec) 
Heartbeat CPU 0 instructions: 866000000 cycles: 2498014656 heartbeat IPC: 0.341235 cumulative IPC: 0.345112 (Simulation time: 1 hr 52 min 37 sec) 
Heartbeat CPU 0 instructions: 867000002 cycles: 2501310466 heartbeat IPC: 0.303416 cumulative IPC: 0.344999 (Simulation time: 1 hr 52 min 46 sec) 
Heartbeat CPU 0 instructions: 868000000 cycles: 2504050407 heartbeat IPC: 0.364971 cumulative IPC: 0.345044 (Simulation time: 1 hr 52 min 53 sec) 
Heartbeat CPU 0 instructions: 869000000 cycles: 2506924952 heartbeat IPC: 0.347881 cumulative IPC: 0.345051 (Simulation time: 1 hr 53 min 1 sec) 
Heartbeat CPU 0 instructions: 870000001 cycles: 2510085088 heartbeat IPC: 0.316442 cumulative IPC: 0.344976 (Simulation time: 1 hr 53 min 9 sec) 
Heartbeat CPU 0 instructions: 871000000 cycles: 2512909313 heartbeat IPC: 0.354079 cumulative IPC: 0.344997 (Simulation time: 1 hr 53 min 17 sec) 
Heartbeat CPU 0 instructions: 872000000 cycles: 2515755509 heartbeat IPC: 0.351346 cumulative IPC: 0.345012 (Simulation time: 1 hr 53 min 25 sec) 
Heartbeat CPU 0 instructions: 873000002 cycles: 2518714640 heartbeat IPC: 0.337938 cumulative IPC: 0.344995 (Simulation time: 1 hr 53 min 33 sec) 
Heartbeat CPU 0 instructions: 874000001 cycles: 2521517816 heartbeat IPC: 0.356738 cumulative IPC: 0.345022 (Simulation time: 1 hr 53 min 41 sec) 
Heartbeat CPU 0 instructions: 875000003 cycles: 2524597489 heartbeat IPC: 0.32471 cumulative IPC: 0.344971 (Simulation time: 1 hr 53 min 49 sec) 
Heartbeat CPU 0 instructions: 876000001 cycles: 2527311873 heartbeat IPC: 0.368407 cumulative IPC: 0.345023 (Simulation time: 1 hr 53 min 57 sec) 
Heartbeat CPU 0 instructions: 877000001 cycles: 2530009012 heartbeat IPC: 0.370763 cumulative IPC: 0.345079 (Simulation time: 1 hr 54 min 5 sec) 
Heartbeat CPU 0 instructions: 878000003 cycles: 2532978372 heartbeat IPC: 0.336774 cumulative IPC: 0.345059 (Simulation time: 1 hr 54 min 13 sec) 
Heartbeat CPU 0 instructions: 879000000 cycles: 2535856437 heartbeat IPC: 0.347455 cumulative IPC: 0.345064 (Simulation time: 1 hr 54 min 20 sec) 
Heartbeat CPU 0 instructions: 880000000 cycles: 2538915248 heartbeat IPC: 0.326924 cumulative IPC: 0.34502 (Simulation time: 1 hr 54 min 28 sec) 
Heartbeat CPU 0 instructions: 881000002 cycles: 2541906303 heartbeat IPC: 0.334331 cumulative IPC: 0.344994 (Simulation time: 1 hr 54 min 36 sec) 
Heartbeat CPU 0 instructions: 882000002 cycles: 2544886408 heartbeat IPC: 0.335559 cumulative IPC: 0.344972 (Simulation time: 1 hr 54 min 44 sec) 
Heartbeat CPU 0 instructions: 883000002 cycles: 2547505922 heartbeat IPC: 0.38175 cumulative IPC: 0.345049 (Simulation time: 1 hr 54 min 52 sec) 
Heartbeat CPU 0 instructions: 884000001 cycles: 2551155410 heartbeat IPC: 0.274011 cumulative IPC: 0.344843 (Simulation time: 1 hr 55 min 0 sec) 
Heartbeat CPU 0 instructions: 885000003 cycles: 2553772532 heartbeat IPC: 0.3821 cumulative IPC: 0.34492 (Simulation time: 1 hr 55 min 8 sec) 
Heartbeat CPU 0 instructions: 886000003 cycles: 2557082022 heartbeat IPC: 0.302161 cumulative IPC: 0.344808 (Simulation time: 1 hr 55 min 16 sec) 
Heartbeat CPU 0 instructions: 887000001 cycles: 2559851228 heartbeat IPC: 0.361114 cumulative IPC: 0.344844 (Simulation time: 1 hr 55 min 24 sec) 
Heartbeat CPU 0 instructions: 888000000 cycles: 2562729395 heartbeat IPC: 0.347443 cumulative IPC: 0.34485 (Simulation time: 1 hr 55 min 32 sec) 
Heartbeat CPU 0 instructions: 889000001 cycles: 2565407995 heartbeat IPC: 0.37333 cumulative IPC: 0.34491 (Simulation time: 1 hr 55 min 39 sec) 
Heartbeat CPU 0 instructions: 890000003 cycles: 2568320076 heartbeat IPC: 0.343398 cumulative IPC: 0.344906 (Simulation time: 1 hr 55 min 47 sec) 
Heartbeat CPU 0 instructions: 891000000 cycles: 2571359370 heartbeat IPC: 0.329023 cumulative IPC: 0.344868 (Simulation time: 1 hr 55 min 55 sec) 
Heartbeat CPU 0 instructions: 892000000 cycles: 2574221794 heartbeat IPC: 0.349354 cumulative IPC: 0.344878 (Simulation time: 1 hr 56 min 3 sec) 
Heartbeat CPU 0 instructions: 893000003 cycles: 2577127919 heartbeat IPC: 0.344102 cumulative IPC: 0.344877 (Simulation time: 1 hr 56 min 11 sec) 
Heartbeat CPU 0 instructions: 894000000 cycles: 2580080657 heartbeat IPC: 0.338668 cumulative IPC: 0.344862 (Simulation time: 1 hr 56 min 19 sec) 
Heartbeat CPU 0 instructions: 895000002 cycles: 2582864568 heartbeat IPC: 0.359208 cumulative IPC: 0.344893 (Simulation time: 1 hr 56 min 27 sec) 
Heartbeat CPU 0 instructions: 896000002 cycles: 2585782886 heartbeat IPC: 0.342663 cumulative IPC: 0.344888 (Simulation time: 1 hr 56 min 34 sec) 
Heartbeat CPU 0 instructions: 897000001 cycles: 2588714031 heartbeat IPC: 0.341163 cumulative IPC: 0.34488 (Simulation time: 1 hr 56 min 42 sec) 
Heartbeat CPU 0 instructions: 898000001 cycles: 2591541395 heartbeat IPC: 0.353686 cumulative IPC: 0.344899 (Simulation time: 1 hr 56 min 50 sec) 
Heartbeat CPU 0 instructions: 899000000 cycles: 2594575981 heartbeat IPC: 0.329534 cumulative IPC: 0.344863 (Simulation time: 1 hr 56 min 58 sec) 
Heartbeat CPU 0 instructions: 900000001 cycles: 2597483825 heartbeat IPC: 0.343898 cumulative IPC: 0.344861 (Simulation time: 1 hr 57 min 6 sec) 
Heartbeat CPU 0 instructions: 901000000 cycles: 2600209453 heartbeat IPC: 0.366888 cumulative IPC: 0.344907 (Simulation time: 1 hr 57 min 14 sec) 
Heartbeat CPU 0 instructions: 902000000 cycles: 2603240393 heartbeat IPC: 0.329931 cumulative IPC: 0.344872 (Simulation time: 1 hr 57 min 21 sec) 
Heartbeat CPU 0 instructions: 903000003 cycles: 2606242045 heartbeat IPC: 0.333151 cumulative IPC: 0.344846 (Simulation time: 1 hr 57 min 29 sec) 
Heartbeat CPU 0 instructions: 904000001 cycles: 2609239727 heartbeat IPC: 0.33359 cumulative IPC: 0.34482 (Simulation time: 1 hr 57 min 37 sec) 
Heartbeat CPU 0 instructions: 905000001 cycles: 2612202063 heartbeat IPC: 0.337571 cumulative IPC: 0.344804 (Simulation time: 1 hr 57 min 45 sec) 
Heartbeat CPU 0 instructions: 906000000 cycles: 2614961827 heartbeat IPC: 0.362349 cumulative IPC: 0.34484 (Simulation time: 1 hr 57 min 53 sec) 
Heartbeat CPU 0 instructions: 907000002 cycles: 2617965715 heartbeat IPC: 0.332903 cumulative IPC: 0.344813 (Simulation time: 1 hr 58 min 1 sec) 
Heartbeat CPU 0 instructions: 908000003 cycles: 2620829859 heartbeat IPC: 0.349145 cumulative IPC: 0.344823 (Simulation time: 1 hr 58 min 9 sec) 
Heartbeat CPU 0 instructions: 909000000 cycles: 2623831394 heartbeat IPC: 0.333162 cumulative IPC: 0.344796 (Simulation time: 1 hr 58 min 17 sec) 
Heartbeat CPU 0 instructions: 910000000 cycles: 2626838467 heartbeat IPC: 0.332549 cumulative IPC: 0.344769 (Simulation time: 1 hr 58 min 25 sec) 
Heartbeat CPU 0 instructions: 911000000 cycles: 2629853676 heartbeat IPC: 0.331652 cumulative IPC: 0.344739 (Simulation time: 1 hr 58 min 33 sec) 
Heartbeat CPU 0 instructions: 912000000 cycles: 2632686354 heartbeat IPC: 0.353023 cumulative IPC: 0.344757 (Simulation time: 1 hr 58 min 41 sec) 
Heartbeat CPU 0 instructions: 913000000 cycles: 2635429598 heartbeat IPC: 0.364532 cumulative IPC: 0.344797 (Simulation time: 1 hr 58 min 48 sec) 
Heartbeat CPU 0 instructions: 914000001 cycles: 2638537212 heartbeat IPC: 0.321791 cumulative IPC: 0.344744 (Simulation time: 1 hr 58 min 56 sec) 
Heartbeat CPU 0 instructions: 915000002 cycles: 2641496161 heartbeat IPC: 0.337958 cumulative IPC: 0.344729 (Simulation time: 1 hr 59 min 4 sec) 
Heartbeat CPU 0 instructions: 916000001 cycles: 2644409520 heartbeat IPC: 0.343246 cumulative IPC: 0.344726 (Simulation time: 1 hr 59 min 12 sec) 
Heartbeat CPU 0 instructions: 917000003 cycles: 2647305611 heartbeat IPC: 0.345294 cumulative IPC: 0.344727 (Simulation time: 1 hr 59 min 20 sec) 
Heartbeat CPU 0 instructions: 918000000 cycles: 2650240931 heartbeat IPC: 0.340677 cumulative IPC: 0.344718 (Simulation time: 1 hr 59 min 27 sec) 
Heartbeat CPU 0 instructions: 919000000 cycles: 2653089059 heartbeat IPC: 0.351108 cumulative IPC: 0.344732 (Simulation time: 1 hr 59 min 34 sec) 
Heartbeat CPU 0 instructions: 920000001 cycles: 2656121519 heartbeat IPC: 0.329766 cumulative IPC: 0.344698 (Simulation time: 1 hr 59 min 42 sec) 
Heartbeat CPU 0 instructions: 921000000 cycles: 2659111002 heartbeat IPC: 0.334506 cumulative IPC: 0.344676 (Simulation time: 1 hr 59 min 50 sec) 
Heartbeat CPU 0 instructions: 922000000 cycles: 2662077049 heartbeat IPC: 0.337149 cumulative IPC: 0.34466 (Simulation time: 1 hr 59 min 57 sec) 
Heartbeat CPU 0 instructions: 923000000 cycles: 2664878911 heartbeat IPC: 0.356906 cumulative IPC: 0.344685 (Simulation time: 2 hr 0 min 5 sec) 
Heartbeat CPU 0 instructions: 924000000 cycles: 2667850038 heartbeat IPC: 0.336573 cumulative IPC: 0.344667 (Simulation time: 2 hr 0 min 12 sec) 
Heartbeat CPU 0 instructions: 925000000 cycles: 2670680123 heartbeat IPC: 0.353346 cumulative IPC: 0.344685 (Simulation time: 2 hr 0 min 20 sec) 
Heartbeat CPU 0 instructions: 926000001 cycles: 2673490066 heartbeat IPC: 0.355879 cumulative IPC: 0.344708 (Simulation time: 2 hr 0 min 28 sec) 
Heartbeat CPU 0 instructions: 927000000 cycles: 2676407295 heartbeat IPC: 0.342791 cumulative IPC: 0.344704 (Simulation time: 2 hr 0 min 36 sec) 
Heartbeat CPU 0 instructions: 928000000 cycles: 2679061016 heartbeat IPC: 0.376829 cumulative IPC: 0.344765 (Simulation time: 2 hr 0 min 43 sec) 
Heartbeat CPU 0 instructions: 929000002 cycles: 2682287097 heartbeat IPC: 0.309974 cumulative IPC: 0.344685 (Simulation time: 2 hr 0 min 51 sec) 
Heartbeat CPU 0 instructions: 930000003 cycles: 2685381851 heartbeat IPC: 0.323128 cumulative IPC: 0.344637 (Simulation time: 2 hr 0 min 59 sec) 
Heartbeat CPU 0 instructions: 931000000 cycles: 2688481137 heartbeat IPC: 0.322654 cumulative IPC: 0.344588 (Simulation time: 2 hr 1 min 7 sec) 
Heartbeat CPU 0 instructions: 932000000 cycles: 2690935529 heartbeat IPC: 0.407433 cumulative IPC: 0.344698 (Simulation time: 2 hr 1 min 15 sec) 
Heartbeat CPU 0 instructions: 933000000 cycles: 2693581896 heartbeat IPC: 0.377877 cumulative IPC: 0.344761 (Simulation time: 2 hr 1 min 22 sec) 
Heartbeat CPU 0 instructions: 934000002 cycles: 2696518177 heartbeat IPC: 0.340568 cumulative IPC: 0.344752 (Simulation time: 2 hr 1 min 30 sec) 
Heartbeat CPU 0 instructions: 935000000 cycles: 2699308221 heartbeat IPC: 0.358417 cumulative IPC: 0.344779 (Simulation time: 2 hr 1 min 38 sec) 
Heartbeat CPU 0 instructions: 936000000 cycles: 2702389362 heartbeat IPC: 0.324555 cumulative IPC: 0.344735 (Simulation time: 2 hr 1 min 46 sec) 
Heartbeat CPU 0 instructions: 937000003 cycles: 2705228375 heartbeat IPC: 0.352236 cumulative IPC: 0.34475 (Simulation time: 2 hr 1 min 53 sec) 
Heartbeat CPU 0 instructions: 938000000 cycles: 2708199480 heartbeat IPC: 0.336574 cumulative IPC: 0.344733 (Simulation time: 2 hr 2 min 1 sec) 
Heartbeat CPU 0 instructions: 939000001 cycles: 2710881552 heartbeat IPC: 0.372846 cumulative IPC: 0.344786 (Simulation time: 2 hr 2 min 9 sec) 
Heartbeat CPU 0 instructions: 940000002 cycles: 2713873676 heartbeat IPC: 0.334211 cumulative IPC: 0.344764 (Simulation time: 2 hr 2 min 17 sec) 
Heartbeat CPU 0 instructions: 941000000 cycles: 2716872115 heartbeat IPC: 0.333506 cumulative IPC: 0.34474 (Simulation time: 2 hr 2 min 25 sec) 
Heartbeat CPU 0 instructions: 942000002 cycles: 2720023664 heartbeat IPC: 0.317305 cumulative IPC: 0.344679 (Simulation time: 2 hr 2 min 33 sec) 
Heartbeat CPU 0 instructions: 943000003 cycles: 2722698477 heartbeat IPC: 0.373858 cumulative IPC: 0.344734 (Simulation time: 2 hr 2 min 40 sec) 
Heartbeat CPU 0 instructions: 944000001 cycles: 2725528812 heartbeat IPC: 0.353314 cumulative IPC: 0.344751 (Simulation time: 2 hr 2 min 48 sec) 
Heartbeat CPU 0 instructions: 945000001 cycles: 2728488466 heartbeat IPC: 0.337877 cumulative IPC: 0.344737 (Simulation time: 2 hr 2 min 56 sec) 
Heartbeat CPU 0 instructions: 946000000 cycles: 2731568018 heartbeat IPC: 0.324722 cumulative IPC: 0.344694 (Simulation time: 2 hr 3 min 4 sec) 
Heartbeat CPU 0 instructions: 947000000 cycles: 2734218514 heartbeat IPC: 0.377288 cumulative IPC: 0.344754 (Simulation time: 2 hr 3 min 11 sec) 
Heartbeat CPU 0 instructions: 948000002 cycles: 2737252610 heartbeat IPC: 0.329588 cumulative IPC: 0.344722 (Simulation time: 2 hr 3 min 19 sec) 
Heartbeat CPU 0 instructions: 949000001 cycles: 2740177986 heartbeat IPC: 0.341836 cumulative IPC: 0.344716 (Simulation time: 2 hr 3 min 27 sec) 
Heartbeat CPU 0 instructions: 950000000 cycles: 2743064573 heartbeat IPC: 0.34643 cumulative IPC: 0.34472 (Simulation time: 2 hr 3 min 35 sec) 
Finished CPU 0 instructions: 500000000 cycles: 1450454051 cumulative IPC: 0.34472 (Simulation time: 2 hr 3 min 35 sec) 

ChampSim completed all CPUs

Region of Interest Statistics

CPU 0 cumulative IPC: 0.34472 instructions: 500000000 cycles: 1450454051
L1D TOTAL     ACCESS:  207974945  HIT:  199008221  MISS:    8966724
L1D LOAD      ACCESS:  118651583  HIT:  110854243  MISS:    7797340
L1D RFO       ACCESS:   89323362  HIT:   88153978  MISS:    1169384
L1D PREFETCH  ACCESS:          0  HIT:          0  MISS:          0
L1D WRITEBACK ACCESS:          0  HIT:          0  MISS:          0
L1D PREFETCH  REQUESTED:          0  ISSUED:          0  USEFUL:          0  USELESS:          0
L1D AVERAGE MISS LATENCY: 157.209 cycles
L1I TOTAL     ACCESS:  112329000  HIT:  112302061  MISS:      26939
L1I LOAD      ACCESS:  112329000  HIT:  112302061  MISS:      26939
L1I RFO       ACCESS:          0  HIT:          0  MISS:          0
L1I PREFETCH  ACCESS:          0  HIT:          0  MISS:          0
L1I WRITEBACK ACCESS:          0  HIT:          0  MISS:          0
L1I PREFETCH  REQUESTED:          0  ISSUED:          0  USEFUL:          0  USELESS:          0
L1I AVERAGE MISS LATENCY: 37.703 cycles
L2C TOTAL     ACCESS:   13435574  HIT:    7320291  MISS:    6115283
L2C LOAD      ACCESS:    7823933  HIT:    2496645  MISS:    5327288
L2C RFO       ACCESS:    1169316  HIT:     387605  MISS:     781711
L2C PREFETCH  ACCESS:          0  HIT:          0  MISS:          0
L2C WRITEBACK ACCESS:    4442325  HIT:    4436041  MISS:       6284
L2C PREFETCH  REQUESTED:          0  ISSUED:          0  USEFUL:          0  USELESS:          0
L2C AVERAGE MISS LATENCY: 202.152 cycles
LLC TOTAL     ACCESS:    9146203  HIT:    4552492  MISS:    4593711
LLC LOAD      ACCESS:    5327280  HIT:    1194450  MISS:    4132830
LLC RFO       ACCESS:     781711  HIT:     333891  MISS:     447820
LLC PREFETCH  ACCESS:          0  HIT:          0  MISS:          0
LLC WRITEBACK ACCESS:    3037212  HIT:    3024151  MISS:      13061
LLC PREFETCH  REQUESTED:          0  ISSUED:          0  USEFUL:          0  USELESS:          0
LLC AVERAGE MISS LATENCY: 223.279 cycles
Major fault: 0 Minor fault: 51304

DRAM Statistics
 CHANNEL 0
 RQ ROW_BUFFER_HIT:     564332  ROW_BUFFER_MISS:    1725927
 DBUS_CONGESTED:    1825040
 WQ ROW_BUFFER_HIT:     312531  ROW_BUFFER_MISS:     779017  FULL:          0

 CHANNEL 1
 RQ ROW_BUFFER_HIT:     564571  ROW_BUFFER_MISS:    1725807
 DBUS_CONGESTED:    1825040
 WQ ROW_BUFFER_HIT:     311774  ROW_BUFFER_MISS:     777897  FULL:          0

 AVG_CONGESTED_CYCLE: 18

CPU 0 Branch Prediction Accuracy: 98.1911% MPKI: 3.75995 Average ROB Occupancy at Mispredict: 95.5639

Branch types
NOT_BRANCH: 396068353 79.2137%
BRANCH_DIRECT_JUMP: 5695008 1.139%
BRANCH_INDIRECT: 1682098 0.33642%
BRANCH_CONDITIONAL: 66814580 13.3629%
BRANCH_DIRECT_CALL: 8889234 1.77785%
BRANCH_INDIRECT_CALL: 5980763 1.19615%
BRANCH_RETURN: 14869998 2.974%
BRANCH_OTHER: 0 0%

