
*** ChampSim Multicore Out-of-Order Simulator ***

Warmup Instructions: 1000000
Prefetch Warmup Instructions: 450000000
Simulation Instructions: 500000000
Stat Printing Period: 1000000
Number of CPUs: 1
LLC sets: 2048
LLC ways: 16
Off-chip DRAM Size: 32768 MB Channels: 2 Width: 64-bit Data Rate: 1024 MT/s

CPU 0 runs /scratch/cluster/cmolder/ML-DPC/ChampSimTraces/spec17/620.omnetpp-s0.trace.xz
Read seed: 216
Heartbeat CPU 0 instructions: 1000001 cycles: 553794 heartbeat IPC: 1.80573 cumulative IPC: 1.80573 (Simulation time: 0 hr 0 min 7 sec) 

Warmup complete CPU 0 instructions: 1000001 cycles: 553794 (Simulation time: 0 hr 0 min 7 sec) 

Heartbeat CPU 0 instructions: 2000000 cycles: 3430397 heartbeat IPC: 0.347632 cumulative IPC: 0.347632 (Simulation time: 0 hr 0 min 16 sec) 
Heartbeat CPU 0 instructions: 3000002 cycles: 6142379 heartbeat IPC: 0.368735 cumulative IPC: 0.357873 (Simulation time: 0 hr 0 min 24 sec) 
Heartbeat CPU 0 instructions: 4000003 cycles: 9227645 heartbeat IPC: 0.324121 cumulative IPC: 0.345867 (Simulation time: 0 hr 0 min 32 sec) 
Heartbeat CPU 0 instructions: 5000002 cycles: 12278668 heartbeat IPC: 0.327759 cumulative IPC: 0.341155 (Simulation time: 0 hr 0 min 40 sec) 
Heartbeat CPU 0 instructions: 6000001 cycles: 15164212 heartbeat IPC: 0.346555 cumulative IPC: 0.342222 (Simulation time: 0 hr 0 min 47 sec) 
Heartbeat CPU 0 instructions: 7000003 cycles: 18096593 heartbeat IPC: 0.34102 cumulative IPC: 0.342021 (Simulation time: 0 hr 0 min 55 sec) 
Heartbeat CPU 0 instructions: 8000002 cycles: 20810056 heartbeat IPC: 0.368532 cumulative IPC: 0.345572 (Simulation time: 0 hr 1 min 2 sec) 
Heartbeat CPU 0 instructions: 9000000 cycles: 23771205 heartbeat IPC: 0.337706 cumulative IPC: 0.344569 (Simulation time: 0 hr 1 min 10 sec) 
Heartbeat CPU 0 instructions: 10000001 cycles: 26814683 heartbeat IPC: 0.328572 cumulative IPC: 0.342715 (Simulation time: 0 hr 1 min 17 sec) 
Heartbeat CPU 0 instructions: 11000000 cycles: 29846041 heartbeat IPC: 0.329885 cumulative IPC: 0.341387 (Simulation time: 0 hr 1 min 25 sec) 
Heartbeat CPU 0 instructions: 12000002 cycles: 32986322 heartbeat IPC: 0.318443 cumulative IPC: 0.339166 (Simulation time: 0 hr 1 min 33 sec) 
Heartbeat CPU 0 instructions: 13000001 cycles: 35860113 heartbeat IPC: 0.347972 cumulative IPC: 0.339882 (Simulation time: 0 hr 1 min 40 sec) 
Heartbeat CPU 0 instructions: 14000003 cycles: 39050724 heartbeat IPC: 0.31342 cumulative IPC: 0.337689 (Simulation time: 0 hr 1 min 48 sec) 
Heartbeat CPU 0 instructions: 15000001 cycles: 42124586 heartbeat IPC: 0.325323 cumulative IPC: 0.336775 (Simulation time: 0 hr 1 min 56 sec) 
Heartbeat CPU 0 instructions: 16000002 cycles: 45221827 heartbeat IPC: 0.322868 cumulative IPC: 0.335811 (Simulation time: 0 hr 2 min 3 sec) 
Heartbeat CPU 0 instructions: 17000001 cycles: 48169534 heartbeat IPC: 0.339246 cumulative IPC: 0.336023 (Simulation time: 0 hr 2 min 11 sec) 
Heartbeat CPU 0 instructions: 18000003 cycles: 51257712 heartbeat IPC: 0.323816 cumulative IPC: 0.33528 (Simulation time: 0 hr 2 min 19 sec) 
Heartbeat CPU 0 instructions: 19000000 cycles: 54622872 heartbeat IPC: 0.297162 cumulative IPC: 0.332907 (Simulation time: 0 hr 2 min 27 sec) 
Heartbeat CPU 0 instructions: 20000003 cycles: 57809503 heartbeat IPC: 0.313812 cumulative IPC: 0.331845 (Simulation time: 0 hr 2 min 35 sec) 
Heartbeat CPU 0 instructions: 21000000 cycles: 61084165 heartbeat IPC: 0.305374 cumulative IPC: 0.330413 (Simulation time: 0 hr 2 min 42 sec) 
Heartbeat CPU 0 instructions: 22000000 cycles: 64075369 heartbeat IPC: 0.334314 cumulative IPC: 0.330596 (Simulation time: 0 hr 2 min 50 sec) 
Heartbeat CPU 0 instructions: 23000003 cycles: 67177920 heartbeat IPC: 0.322316 cumulative IPC: 0.330211 (Simulation time: 0 hr 2 min 58 sec) 
Heartbeat CPU 0 instructions: 24000000 cycles: 70268300 heartbeat IPC: 0.323584 cumulative IPC: 0.329917 (Simulation time: 0 hr 3 min 5 sec) 
Heartbeat CPU 0 instructions: 25000000 cycles: 73493621 heartbeat IPC: 0.310047 cumulative IPC: 0.329038 (Simulation time: 0 hr 3 min 13 sec) 
Heartbeat CPU 0 instructions: 26000003 cycles: 76603112 heartbeat IPC: 0.321597 cumulative IPC: 0.328734 (Simulation time: 0 hr 3 min 21 sec) 
Heartbeat CPU 0 instructions: 27000001 cycles: 79798381 heartbeat IPC: 0.312962 cumulative IPC: 0.328098 (Simulation time: 0 hr 3 min 29 sec) 
Heartbeat CPU 0 instructions: 28000003 cycles: 82653757 heartbeat IPC: 0.350217 cumulative IPC: 0.328867 (Simulation time: 0 hr 3 min 36 sec) 
Heartbeat CPU 0 instructions: 29000000 cycles: 85932693 heartbeat IPC: 0.304976 cumulative IPC: 0.32795 (Simulation time: 0 hr 3 min 44 sec) 
Heartbeat CPU 0 instructions: 30000000 cycles: 88882770 heartbeat IPC: 0.338974 cumulative IPC: 0.328318 (Simulation time: 0 hr 3 min 52 sec) 
Heartbeat CPU 0 instructions: 31000000 cycles: 91908346 heartbeat IPC: 0.330516 cumulative IPC: 0.328391 (Simulation time: 0 hr 4 min 0 sec) 
Heartbeat CPU 0 instructions: 32000003 cycles: 95567044 heartbeat IPC: 0.273322 cumulative IPC: 0.32627 (Simulation time: 0 hr 4 min 8 sec) 
Heartbeat CPU 0 instructions: 33000000 cycles: 98631532 heartbeat IPC: 0.326318 cumulative IPC: 0.326272 (Simulation time: 0 hr 4 min 16 sec) 
Heartbeat CPU 0 instructions: 34000000 cycles: 101996030 heartbeat IPC: 0.297221 cumulative IPC: 0.325308 (Simulation time: 0 hr 4 min 24 sec) 
Heartbeat CPU 0 instructions: 35000003 cycles: 105125463 heartbeat IPC: 0.319548 cumulative IPC: 0.325136 (Simulation time: 0 hr 4 min 31 sec) 
Heartbeat CPU 0 instructions: 36000003 cycles: 108098224 heartbeat IPC: 0.336388 cumulative IPC: 0.325447 (Simulation time: 0 hr 4 min 39 sec) 
Heartbeat CPU 0 instructions: 37000003 cycles: 111201312 heartbeat IPC: 0.32226 cumulative IPC: 0.325358 (Simulation time: 0 hr 4 min 47 sec) 
Heartbeat CPU 0 instructions: 38000000 cycles: 114258539 heartbeat IPC: 0.327093 cumulative IPC: 0.325404 (Simulation time: 0 hr 4 min 55 sec) 
Heartbeat CPU 0 instructions: 39000000 cycles: 117441272 heartbeat IPC: 0.314195 cumulative IPC: 0.325099 (Simulation time: 0 hr 5 min 3 sec) 
Heartbeat CPU 0 instructions: 40000002 cycles: 120848156 heartbeat IPC: 0.293524 cumulative IPC: 0.324205 (Simulation time: 0 hr 5 min 11 sec) 
Heartbeat CPU 0 instructions: 41000003 cycles: 123837140 heartbeat IPC: 0.334562 cumulative IPC: 0.324456 (Simulation time: 0 hr 5 min 19 sec) 
Heartbeat CPU 0 instructions: 42000000 cycles: 127272132 heartbeat IPC: 0.291121 cumulative IPC: 0.323552 (Simulation time: 0 hr 5 min 27 sec) 
Heartbeat CPU 0 instructions: 43000000 cycles: 130273993 heartbeat IPC: 0.333127 cumulative IPC: 0.323774 (Simulation time: 0 hr 5 min 35 sec) 
Heartbeat CPU 0 instructions: 44000000 cycles: 133391714 heartbeat IPC: 0.320747 cumulative IPC: 0.323703 (Simulation time: 0 hr 5 min 43 sec) 
Heartbeat CPU 0 instructions: 45000003 cycles: 136727042 heartbeat IPC: 0.299821 cumulative IPC: 0.323118 (Simulation time: 0 hr 5 min 51 sec) 
Heartbeat CPU 0 instructions: 46000002 cycles: 139831436 heartbeat IPC: 0.322124 cumulative IPC: 0.323096 (Simulation time: 0 hr 5 min 59 sec) 
Heartbeat CPU 0 instructions: 47000000 cycles: 142837746 heartbeat IPC: 0.332633 cumulative IPC: 0.323297 (Simulation time: 0 hr 6 min 7 sec) 
Heartbeat CPU 0 instructions: 48000000 cycles: 145859915 heartbeat IPC: 0.330888 cumulative IPC: 0.323455 (Simulation time: 0 hr 6 min 15 sec) 
Heartbeat CPU 0 instructions: 49000000 cycles: 149191581 heartbeat IPC: 0.30015 cumulative IPC: 0.322933 (Simulation time: 0 hr 6 min 23 sec) 
Heartbeat CPU 0 instructions: 50000003 cycles: 152884327 heartbeat IPC: 0.270802 cumulative IPC: 0.321669 (Simulation time: 0 hr 6 min 31 sec) 
Heartbeat CPU 0 instructions: 51000001 cycles: 155801960 heartbeat IPC: 0.342743 cumulative IPC: 0.322065 (Simulation time: 0 hr 6 min 38 sec) 
Heartbeat CPU 0 instructions: 52000000 cycles: 158938716 heartbeat IPC: 0.3188 cumulative IPC: 0.322 (Simulation time: 0 hr 6 min 46 sec) 
Heartbeat CPU 0 instructions: 53000001 cycles: 162142962 heartbeat IPC: 0.312086 cumulative IPC: 0.321804 (Simulation time: 0 hr 6 min 54 sec) 
Heartbeat CPU 0 instructions: 54000003 cycles: 164690414 heartbeat IPC: 0.39255 cumulative IPC: 0.322902 (Simulation time: 0 hr 7 min 2 sec) 
Heartbeat CPU 0 instructions: 55000000 cycles: 167885910 heartbeat IPC: 0.31294 cumulative IPC: 0.322711 (Simulation time: 0 hr 7 min 10 sec) 
Heartbeat CPU 0 instructions: 56000000 cycles: 171239223 heartbeat IPC: 0.298213 cumulative IPC: 0.32223 (Simulation time: 0 hr 7 min 18 sec) 
Heartbeat CPU 0 instructions: 57000000 cycles: 174408869 heartbeat IPC: 0.315493 cumulative IPC: 0.322107 (Simulation time: 0 hr 7 min 26 sec) 
Heartbeat CPU 0 instructions: 58000003 cycles: 177517612 heartbeat IPC: 0.321674 cumulative IPC: 0.3221 (Simulation time: 0 hr 7 min 34 sec) 
Heartbeat CPU 0 instructions: 59000003 cycles: 180790899 heartbeat IPC: 0.305503 cumulative IPC: 0.321798 (Simulation time: 0 hr 7 min 43 sec) 
Heartbeat CPU 0 instructions: 60000001 cycles: 183967815 heartbeat IPC: 0.31477 cumulative IPC: 0.321677 (Simulation time: 0 hr 7 min 51 sec) 
Heartbeat CPU 0 instructions: 61000001 cycles: 187262012 heartbeat IPC: 0.303564 cumulative IPC: 0.321357 (Simulation time: 0 hr 8 min 0 sec) 
Heartbeat CPU 0 instructions: 62000001 cycles: 190477240 heartbeat IPC: 0.31102 cumulative IPC: 0.321182 (Simulation time: 0 hr 8 min 8 sec) 
Heartbeat CPU 0 instructions: 63000000 cycles: 193657516 heartbeat IPC: 0.314438 cumulative IPC: 0.321071 (Simulation time: 0 hr 8 min 16 sec) 
Heartbeat CPU 0 instructions: 64000000 cycles: 196681922 heartbeat IPC: 0.330643 cumulative IPC: 0.321219 (Simulation time: 0 hr 8 min 23 sec) 
Heartbeat CPU 0 instructions: 65000000 cycles: 199968235 heartbeat IPC: 0.304292 cumulative IPC: 0.32094 (Simulation time: 0 hr 8 min 31 sec) 
Heartbeat CPU 0 instructions: 66000000 cycles: 203089598 heartbeat IPC: 0.320373 cumulative IPC: 0.320931 (Simulation time: 0 hr 8 min 38 sec) 
Heartbeat CPU 0 instructions: 67000001 cycles: 206319849 heartbeat IPC: 0.309574 cumulative IPC: 0.320753 (Simulation time: 0 hr 8 min 46 sec) 
Heartbeat CPU 0 instructions: 68000001 cycles: 209527576 heartbeat IPC: 0.311747 cumulative IPC: 0.320614 (Simulation time: 0 hr 8 min 54 sec) 
Heartbeat CPU 0 instructions: 69000001 cycles: 212690403 heartbeat IPC: 0.316173 cumulative IPC: 0.320548 (Simulation time: 0 hr 9 min 1 sec) 
Heartbeat CPU 0 instructions: 70000000 cycles: 215687525 heartbeat IPC: 0.333653 cumulative IPC: 0.320731 (Simulation time: 0 hr 9 min 9 sec) 
Heartbeat CPU 0 instructions: 71000002 cycles: 218805314 heartbeat IPC: 0.320741 cumulative IPC: 0.320731 (Simulation time: 0 hr 9 min 16 sec) 
Heartbeat CPU 0 instructions: 72000002 cycles: 221962426 heartbeat IPC: 0.316745 cumulative IPC: 0.320674 (Simulation time: 0 hr 9 min 24 sec) 
Heartbeat CPU 0 instructions: 73000001 cycles: 225043977 heartbeat IPC: 0.324512 cumulative IPC: 0.320727 (Simulation time: 0 hr 9 min 31 sec) 
Heartbeat CPU 0 instructions: 74000001 cycles: 228215325 heartbeat IPC: 0.315323 cumulative IPC: 0.320651 (Simulation time: 0 hr 9 min 39 sec) 
Heartbeat CPU 0 instructions: 75000003 cycles: 231333026 heartbeat IPC: 0.32075 cumulative IPC: 0.320653 (Simulation time: 0 hr 9 min 46 sec) 
Heartbeat CPU 0 instructions: 76000001 cycles: 234788573 heartbeat IPC: 0.289389 cumulative IPC: 0.320192 (Simulation time: 0 hr 9 min 55 sec) 
Heartbeat CPU 0 instructions: 77000000 cycles: 237814410 heartbeat IPC: 0.330487 cumulative IPC: 0.320323 (Simulation time: 0 hr 10 min 2 sec) 
Heartbeat CPU 0 instructions: 78000000 cycles: 240962437 heartbeat IPC: 0.317659 cumulative IPC: 0.320288 (Simulation time: 0 hr 10 min 10 sec) 
Heartbeat CPU 0 instructions: 79000001 cycles: 244340477 heartbeat IPC: 0.29603 cumulative IPC: 0.319952 (Simulation time: 0 hr 10 min 18 sec) 
Heartbeat CPU 0 instructions: 80000003 cycles: 247360032 heartbeat IPC: 0.331175 cumulative IPC: 0.320089 (Simulation time: 0 hr 10 min 26 sec) 
Heartbeat CPU 0 instructions: 81000001 cycles: 250657348 heartbeat IPC: 0.303276 cumulative IPC: 0.319867 (Simulation time: 0 hr 10 min 34 sec) 
Heartbeat CPU 0 instructions: 82000003 cycles: 253760079 heartbeat IPC: 0.322297 cumulative IPC: 0.319897 (Simulation time: 0 hr 10 min 42 sec) 
Heartbeat CPU 0 instructions: 83000000 cycles: 256999891 heartbeat IPC: 0.308659 cumulative IPC: 0.319755 (Simulation time: 0 hr 10 min 50 sec) 
Heartbeat CPU 0 instructions: 84000001 cycles: 260015570 heartbeat IPC: 0.331601 cumulative IPC: 0.319893 (Simulation time: 0 hr 10 min 58 sec) 
Heartbeat CPU 0 instructions: 85000003 cycles: 263283483 heartbeat IPC: 0.306006 cumulative IPC: 0.31972 (Simulation time: 0 hr 11 min 6 sec) 
Heartbeat CPU 0 instructions: 86000002 cycles: 266274817 heartbeat IPC: 0.334299 cumulative IPC: 0.319884 (Simulation time: 0 hr 11 min 14 sec) 
Heartbeat CPU 0 instructions: 87000000 cycles: 269598316 heartbeat IPC: 0.300887 cumulative IPC: 0.31965 (Simulation time: 0 hr 11 min 22 sec) 
Heartbeat CPU 0 instructions: 88000000 cycles: 272800806 heartbeat IPC: 0.312257 cumulative IPC: 0.319563 (Simulation time: 0 hr 11 min 30 sec) 
Heartbeat CPU 0 instructions: 89000000 cycles: 275753894 heartbeat IPC: 0.338629 cumulative IPC: 0.319767 (Simulation time: 0 hr 11 min 37 sec) 
Heartbeat CPU 0 instructions: 90000003 cycles: 278957060 heartbeat IPC: 0.312192 cumulative IPC: 0.31968 (Simulation time: 0 hr 11 min 45 sec) 
Heartbeat CPU 0 instructions: 91000001 cycles: 281979014 heartbeat IPC: 0.330911 cumulative IPC: 0.319801 (Simulation time: 0 hr 11 min 53 sec) 
Heartbeat CPU 0 instructions: 92000003 cycles: 285171008 heartbeat IPC: 0.313284 cumulative IPC: 0.319728 (Simulation time: 0 hr 12 min 1 sec) 
Heartbeat CPU 0 instructions: 93000002 cycles: 288368416 heartbeat IPC: 0.312753 cumulative IPC: 0.31965 (Simulation time: 0 hr 12 min 9 sec) 
Heartbeat CPU 0 instructions: 94000003 cycles: 291496997 heartbeat IPC: 0.319634 cumulative IPC: 0.31965 (Simulation time: 0 hr 12 min 17 sec) 
Heartbeat CPU 0 instructions: 95000002 cycles: 294672467 heartbeat IPC: 0.314914 cumulative IPC: 0.319599 (Simulation time: 0 hr 12 min 25 sec) 
Heartbeat CPU 0 instructions: 96000000 cycles: 297718519 heartbeat IPC: 0.328293 cumulative IPC: 0.319688 (Simulation time: 0 hr 12 min 32 sec) 
Heartbeat CPU 0 instructions: 97000000 cycles: 300964482 heartbeat IPC: 0.308075 cumulative IPC: 0.319563 (Simulation time: 0 hr 12 min 40 sec) 
Heartbeat CPU 0 instructions: 98000003 cycles: 304094020 heartbeat IPC: 0.319537 cumulative IPC: 0.319562 (Simulation time: 0 hr 12 min 48 sec) 
Heartbeat CPU 0 instructions: 99000000 cycles: 307231867 heartbeat IPC: 0.318689 cumulative IPC: 0.319553 (Simulation time: 0 hr 12 min 56 sec) 
Heartbeat CPU 0 instructions: 100000002 cycles: 310446240 heartbeat IPC: 0.311103 cumulative IPC: 0.319466 (Simulation time: 0 hr 13 min 4 sec) 
Heartbeat CPU 0 instructions: 101000001 cycles: 313700672 heartbeat IPC: 0.307273 cumulative IPC: 0.319339 (Simulation time: 0 hr 13 min 12 sec) 
Heartbeat CPU 0 instructions: 102000003 cycles: 316579517 heartbeat IPC: 0.347362 cumulative IPC: 0.319594 (Simulation time: 0 hr 13 min 20 sec) 
Heartbeat CPU 0 instructions: 103000001 cycles: 319735074 heartbeat IPC: 0.316901 cumulative IPC: 0.319568 (Simulation time: 0 hr 13 min 28 sec) 
Heartbeat CPU 0 instructions: 104000000 cycles: 322943244 heartbeat IPC: 0.311704 cumulative IPC: 0.319489 (Simulation time: 0 hr 13 min 36 sec) 
Heartbeat CPU 0 instructions: 105000000 cycles: 326133137 heartbeat IPC: 0.31349 cumulative IPC: 0.319431 (Simulation time: 0 hr 13 min 44 sec) 
Heartbeat CPU 0 instructions: 106000003 cycles: 329313934 heartbeat IPC: 0.314388 cumulative IPC: 0.319382 (Simulation time: 0 hr 13 min 51 sec) 
Heartbeat CPU 0 instructions: 107000002 cycles: 332338091 heartbeat IPC: 0.33067 cumulative IPC: 0.319485 (Simulation time: 0 hr 13 min 59 sec) 
Heartbeat CPU 0 instructions: 108000002 cycles: 335460912 heartbeat IPC: 0.320223 cumulative IPC: 0.319492 (Simulation time: 0 hr 14 min 7 sec) 
Heartbeat CPU 0 instructions: 109000000 cycles: 338864228 heartbeat IPC: 0.29383 cumulative IPC: 0.319233 (Simulation time: 0 hr 14 min 15 sec) 
Heartbeat CPU 0 instructions: 110000000 cycles: 342111307 heartbeat IPC: 0.307969 cumulative IPC: 0.319126 (Simulation time: 0 hr 14 min 23 sec) 
Heartbeat CPU 0 instructions: 111000000 cycles: 345132372 heartbeat IPC: 0.331009 cumulative IPC: 0.319231 (Simulation time: 0 hr 14 min 31 sec) 
Heartbeat CPU 0 instructions: 112000003 cycles: 348225910 heartbeat IPC: 0.323255 cumulative IPC: 0.319266 (Simulation time: 0 hr 14 min 39 sec) 
Heartbeat CPU 0 instructions: 113000002 cycles: 351324199 heartbeat IPC: 0.322758 cumulative IPC: 0.319297 (Simulation time: 0 hr 14 min 47 sec) 
Heartbeat CPU 0 instructions: 114000000 cycles: 354413945 heartbeat IPC: 0.323651 cumulative IPC: 0.319335 (Simulation time: 0 hr 14 min 54 sec) 
Heartbeat CPU 0 instructions: 115000000 cycles: 357791259 heartbeat IPC: 0.296093 cumulative IPC: 0.319115 (Simulation time: 0 hr 15 min 3 sec) 
Heartbeat CPU 0 instructions: 116000000 cycles: 360714584 heartbeat IPC: 0.342076 cumulative IPC: 0.319302 (Simulation time: 0 hr 15 min 10 sec) 
Heartbeat CPU 0 instructions: 117000000 cycles: 364135512 heartbeat IPC: 0.292318 cumulative IPC: 0.319048 (Simulation time: 0 hr 15 min 18 sec) 
Heartbeat CPU 0 instructions: 118000000 cycles: 367181104 heartbeat IPC: 0.328343 cumulative IPC: 0.319125 (Simulation time: 0 hr 15 min 26 sec) 
Heartbeat CPU 0 instructions: 119000001 cycles: 370423558 heartbeat IPC: 0.308409 cumulative IPC: 0.319031 (Simulation time: 0 hr 15 min 34 sec) 
Heartbeat CPU 0 instructions: 120000001 cycles: 373520310 heartbeat IPC: 0.322919 cumulative IPC: 0.319063 (Simulation time: 0 hr 15 min 42 sec) 
Heartbeat CPU 0 instructions: 121000000 cycles: 376522027 heartbeat IPC: 0.333142 cumulative IPC: 0.319176 (Simulation time: 0 hr 15 min 50 sec) 
Heartbeat CPU 0 instructions: 122000002 cycles: 379833202 heartbeat IPC: 0.302008 cumulative IPC: 0.319026 (Simulation time: 0 hr 15 min 58 sec) 
Heartbeat CPU 0 instructions: 123000000 cycles: 382915286 heartbeat IPC: 0.324455 cumulative IPC: 0.31907 (Simulation time: 0 hr 16 min 6 sec) 
Heartbeat CPU 0 instructions: 124000001 cycles: 386026782 heartbeat IPC: 0.321389 cumulative IPC: 0.319089 (Simulation time: 0 hr 16 min 13 sec) 
Heartbeat CPU 0 instructions: 125000001 cycles: 389417172 heartbeat IPC: 0.294951 cumulative IPC: 0.318878 (Simulation time: 0 hr 16 min 21 sec) 
Heartbeat CPU 0 instructions: 126000001 cycles: 392893672 heartbeat IPC: 0.287646 cumulative IPC: 0.318601 (Simulation time: 0 hr 16 min 29 sec) 
Heartbeat CPU 0 instructions: 127000002 cycles: 395884771 heartbeat IPC: 0.334326 cumulative IPC: 0.31872 (Simulation time: 0 hr 16 min 36 sec) 
Heartbeat CPU 0 instructions: 128000002 cycles: 398918806 heartbeat IPC: 0.329594 cumulative IPC: 0.318803 (Simulation time: 0 hr 16 min 44 sec) 
Heartbeat CPU 0 instructions: 129000002 cycles: 402555963 heartbeat IPC: 0.27494 cumulative IPC: 0.318406 (Simulation time: 0 hr 16 min 52 sec) 
Heartbeat CPU 0 instructions: 130000000 cycles: 405135207 heartbeat IPC: 0.38771 cumulative IPC: 0.318848 (Simulation time: 0 hr 16 min 59 sec) 
Heartbeat CPU 0 instructions: 131000000 cycles: 408060793 heartbeat IPC: 0.341812 cumulative IPC: 0.319013 (Simulation time: 0 hr 17 min 7 sec) 
Heartbeat CPU 0 instructions: 132000000 cycles: 411326940 heartbeat IPC: 0.306171 cumulative IPC: 0.318911 (Simulation time: 0 hr 17 min 15 sec) 
Heartbeat CPU 0 instructions: 133000000 cycles: 414354417 heartbeat IPC: 0.330308 cumulative IPC: 0.318994 (Simulation time: 0 hr 17 min 23 sec) 
Heartbeat CPU 0 instructions: 134000001 cycles: 417515752 heartbeat IPC: 0.316322 cumulative IPC: 0.318974 (Simulation time: 0 hr 17 min 31 sec) 
Heartbeat CPU 0 instructions: 135000003 cycles: 420664695 heartbeat IPC: 0.317568 cumulative IPC: 0.318963 (Simulation time: 0 hr 17 min 38 sec) 
Heartbeat CPU 0 instructions: 136000000 cycles: 423808719 heartbeat IPC: 0.318063 cumulative IPC: 0.318957 (Simulation time: 0 hr 17 min 46 sec) 
Heartbeat CPU 0 instructions: 137000002 cycles: 427011187 heartbeat IPC: 0.31226 cumulative IPC: 0.318906 (Simulation time: 0 hr 17 min 54 sec) 
Heartbeat CPU 0 instructions: 138000002 cycles: 430140983 heartbeat IPC: 0.31951 cumulative IPC: 0.318911 (Simulation time: 0 hr 18 min 2 sec) 
Heartbeat CPU 0 instructions: 139000002 cycles: 433227487 heartbeat IPC: 0.323991 cumulative IPC: 0.318947 (Simulation time: 0 hr 18 min 9 sec) 
Heartbeat CPU 0 instructions: 140000000 cycles: 436482312 heartbeat IPC: 0.307236 cumulative IPC: 0.31886 (Simulation time: 0 hr 18 min 17 sec) 
Heartbeat CPU 0 instructions: 141000002 cycles: 440004054 heartbeat IPC: 0.283951 cumulative IPC: 0.31858 (Simulation time: 0 hr 18 min 25 sec) 
Heartbeat CPU 0 instructions: 142000001 cycles: 442945266 heartbeat IPC: 0.339996 cumulative IPC: 0.318722 (Simulation time: 0 hr 18 min 33 sec) 
Heartbeat CPU 0 instructions: 143000000 cycles: 446321586 heartbeat IPC: 0.29618 cumulative IPC: 0.318552 (Simulation time: 0 hr 18 min 41 sec) 
Heartbeat CPU 0 instructions: 144000001 cycles: 449194303 heartbeat IPC: 0.348103 cumulative IPC: 0.318741 (Simulation time: 0 hr 18 min 48 sec) 
Heartbeat CPU 0 instructions: 145000003 cycles: 452497799 heartbeat IPC: 0.30271 cumulative IPC: 0.318624 (Simulation time: 0 hr 18 min 57 sec) 
Heartbeat CPU 0 instructions: 146000000 cycles: 455586354 heartbeat IPC: 0.323775 cumulative IPC: 0.318659 (Simulation time: 0 hr 19 min 4 sec) 
Heartbeat CPU 0 instructions: 147000000 cycles: 459102417 heartbeat IPC: 0.284409 cumulative IPC: 0.318396 (Simulation time: 0 hr 19 min 12 sec) 
Heartbeat CPU 0 instructions: 148000003 cycles: 462078970 heartbeat IPC: 0.33596 cumulative IPC: 0.318509 (Simulation time: 0 hr 19 min 20 sec) 
Heartbeat CPU 0 instructions: 149000001 cycles: 465259866 heartbeat IPC: 0.314376 cumulative IPC: 0.318481 (Simulation time: 0 hr 19 min 28 sec) 
Heartbeat CPU 0 instructions: 150000002 cycles: 468415247 heartbeat IPC: 0.316919 cumulative IPC: 0.31847 (Simulation time: 0 hr 19 min 36 sec) 
Heartbeat CPU 0 instructions: 151000002 cycles: 471615098 heartbeat IPC: 0.312515 cumulative IPC: 0.31843 (Simulation time: 0 hr 19 min 44 sec) 
Heartbeat CPU 0 instructions: 152000001 cycles: 474915740 heartbeat IPC: 0.302971 cumulative IPC: 0.318322 (Simulation time: 0 hr 19 min 52 sec) 
Heartbeat CPU 0 instructions: 153000002 cycles: 478136512 heartbeat IPC: 0.310485 cumulative IPC: 0.318269 (Simulation time: 0 hr 20 min 0 sec) 
Heartbeat CPU 0 instructions: 154000000 cycles: 481225625 heartbeat IPC: 0.323717 cumulative IPC: 0.318304 (Simulation time: 0 hr 20 min 7 sec) 
Heartbeat CPU 0 instructions: 155000003 cycles: 484495153 heartbeat IPC: 0.305855 cumulative IPC: 0.31822 (Simulation time: 0 hr 20 min 15 sec) 
Heartbeat CPU 0 instructions: 156000002 cycles: 487555550 heartbeat IPC: 0.326755 cumulative IPC: 0.318274 (Simulation time: 0 hr 20 min 23 sec) 
Heartbeat CPU 0 instructions: 157000001 cycles: 490685914 heartbeat IPC: 0.319451 cumulative IPC: 0.318282 (Simulation time: 0 hr 20 min 31 sec) 
Heartbeat CPU 0 instructions: 158000003 cycles: 493810245 heartbeat IPC: 0.320069 cumulative IPC: 0.318293 (Simulation time: 0 hr 20 min 39 sec) 
Heartbeat CPU 0 instructions: 159000003 cycles: 497117722 heartbeat IPC: 0.302345 cumulative IPC: 0.318187 (Simulation time: 0 hr 20 min 46 sec) 
Heartbeat CPU 0 instructions: 160000001 cycles: 500095098 heartbeat IPC: 0.335866 cumulative IPC: 0.318292 (Simulation time: 0 hr 20 min 54 sec) 
Heartbeat CPU 0 instructions: 161000003 cycles: 503113502 heartbeat IPC: 0.331302 cumulative IPC: 0.31837 (Simulation time: 0 hr 21 min 2 sec) 
Heartbeat CPU 0 instructions: 162000003 cycles: 506404537 heartbeat IPC: 0.303856 cumulative IPC: 0.318276 (Simulation time: 0 hr 21 min 9 sec) 
Heartbeat CPU 0 instructions: 163000000 cycles: 509517455 heartbeat IPC: 0.321241 cumulative IPC: 0.318294 (Simulation time: 0 hr 21 min 17 sec) 
Heartbeat CPU 0 instructions: 164000000 cycles: 512785099 heartbeat IPC: 0.306031 cumulative IPC: 0.318216 (Simulation time: 0 hr 21 min 25 sec) 
Heartbeat CPU 0 instructions: 165000000 cycles: 515745953 heartbeat IPC: 0.33774 cumulative IPC: 0.318328 (Simulation time: 0 hr 21 min 33 sec) 
Heartbeat CPU 0 instructions: 166000001 cycles: 518767608 heartbeat IPC: 0.330945 cumulative IPC: 0.318401 (Simulation time: 0 hr 21 min 40 sec) 
Heartbeat CPU 0 instructions: 167000003 cycles: 522050016 heartbeat IPC: 0.304655 cumulative IPC: 0.318315 (Simulation time: 0 hr 21 min 49 sec) 
Heartbeat CPU 0 instructions: 168000002 cycles: 524995308 heartbeat IPC: 0.339525 cumulative IPC: 0.318434 (Simulation time: 0 hr 21 min 57 sec) 
Heartbeat CPU 0 instructions: 169000001 cycles: 528196861 heartbeat IPC: 0.312348 cumulative IPC: 0.318397 (Simulation time: 0 hr 22 min 5 sec) 
Heartbeat CPU 0 instructions: 170000001 cycles: 531312565 heartbeat IPC: 0.320955 cumulative IPC: 0.318412 (Simulation time: 0 hr 22 min 13 sec) 
Heartbeat CPU 0 instructions: 171000002 cycles: 534334935 heartbeat IPC: 0.330867 cumulative IPC: 0.318483 (Simulation time: 0 hr 22 min 22 sec) 
Heartbeat CPU 0 instructions: 172000001 cycles: 537628675 heartbeat IPC: 0.303606 cumulative IPC: 0.318391 (Simulation time: 0 hr 22 min 29 sec) 
Heartbeat CPU 0 instructions: 173000003 cycles: 540743901 heartbeat IPC: 0.321005 cumulative IPC: 0.318406 (Simulation time: 0 hr 22 min 37 sec) 
Heartbeat CPU 0 instructions: 174000000 cycles: 544134513 heartbeat IPC: 0.294931 cumulative IPC: 0.31826 (Simulation time: 0 hr 22 min 45 sec) 
Heartbeat CPU 0 instructions: 175000002 cycles: 547024944 heartbeat IPC: 0.34597 cumulative IPC: 0.318407 (Simulation time: 0 hr 22 min 53 sec) 
Heartbeat CPU 0 instructions: 176000000 cycles: 549899736 heartbeat IPC: 0.347851 cumulative IPC: 0.318561 (Simulation time: 0 hr 23 min 0 sec) 
Heartbeat CPU 0 instructions: 177000001 cycles: 553273820 heartbeat IPC: 0.296377 cumulative IPC: 0.318425 (Simulation time: 0 hr 23 min 8 sec) 
Heartbeat CPU 0 instructions: 178000000 cycles: 556013917 heartbeat IPC: 0.36495 cumulative IPC: 0.318655 (Simulation time: 0 hr 23 min 16 sec) 
Heartbeat CPU 0 instructions: 179000000 cycles: 559226876 heartbeat IPC: 0.31124 cumulative IPC: 0.318612 (Simulation time: 0 hr 23 min 24 sec) 
Heartbeat CPU 0 instructions: 180000000 cycles: 562385976 heartbeat IPC: 0.316546 cumulative IPC: 0.3186 (Simulation time: 0 hr 23 min 32 sec) 
Heartbeat CPU 0 instructions: 181000000 cycles: 565721799 heartbeat IPC: 0.299776 cumulative IPC: 0.318489 (Simulation time: 0 hr 23 min 40 sec) 
Heartbeat CPU 0 instructions: 182000002 cycles: 568850022 heartbeat IPC: 0.319671 cumulative IPC: 0.318496 (Simulation time: 0 hr 23 min 47 sec) 
Heartbeat CPU 0 instructions: 183000002 cycles: 571943189 heartbeat IPC: 0.323293 cumulative IPC: 0.318522 (Simulation time: 0 hr 23 min 55 sec) 
Heartbeat CPU 0 instructions: 184000000 cycles: 575048691 heartbeat IPC: 0.322008 cumulative IPC: 0.318541 (Simulation time: 0 hr 24 min 3 sec) 
Heartbeat CPU 0 instructions: 185000002 cycles: 578123414 heartbeat IPC: 0.325233 cumulative IPC: 0.318576 (Simulation time: 0 hr 24 min 10 sec) 
Heartbeat CPU 0 instructions: 186000000 cycles: 581546185 heartbeat IPC: 0.29216 cumulative IPC: 0.318421 (Simulation time: 0 hr 24 min 18 sec) 
Heartbeat CPU 0 instructions: 187000000 cycles: 584592141 heartbeat IPC: 0.328304 cumulative IPC: 0.318472 (Simulation time: 0 hr 24 min 26 sec) 
Heartbeat CPU 0 instructions: 188000000 cycles: 587655599 heartbeat IPC: 0.326429 cumulative IPC: 0.318514 (Simulation time: 0 hr 24 min 34 sec) 
Heartbeat CPU 0 instructions: 189000001 cycles: 590316900 heartbeat IPC: 0.375756 cumulative IPC: 0.318772 (Simulation time: 0 hr 24 min 41 sec) 
Heartbeat CPU 0 instructions: 190000000 cycles: 593383365 heartbeat IPC: 0.326108 cumulative IPC: 0.31881 (Simulation time: 0 hr 24 min 49 sec) 
Heartbeat CPU 0 instructions: 191000000 cycles: 596643328 heartbeat IPC: 0.306752 cumulative IPC: 0.318744 (Simulation time: 0 hr 24 min 58 sec) 
Heartbeat CPU 0 instructions: 192000002 cycles: 600039439 heartbeat IPC: 0.294455 cumulative IPC: 0.318606 (Simulation time: 0 hr 25 min 6 sec) 
Heartbeat CPU 0 instructions: 193000001 cycles: 602901772 heartbeat IPC: 0.349365 cumulative IPC: 0.318753 (Simulation time: 0 hr 25 min 14 sec) 
Heartbeat CPU 0 instructions: 194000003 cycles: 606244606 heartbeat IPC: 0.299148 cumulative IPC: 0.318644 (Simulation time: 0 hr 25 min 23 sec) 
Heartbeat CPU 0 instructions: 195000001 cycles: 609459063 heartbeat IPC: 0.311094 cumulative IPC: 0.318605 (Simulation time: 0 hr 25 min 31 sec) 
Heartbeat CPU 0 instructions: 196000000 cycles: 612584812 heartbeat IPC: 0.319923 cumulative IPC: 0.318611 (Simulation time: 0 hr 25 min 39 sec) 
Heartbeat CPU 0 instructions: 197000000 cycles: 615871786 heartbeat IPC: 0.304231 cumulative IPC: 0.318534 (Simulation time: 0 hr 25 min 48 sec) 
Heartbeat CPU 0 instructions: 198000000 cycles: 618872595 heartbeat IPC: 0.333243 cumulative IPC: 0.318606 (Simulation time: 0 hr 25 min 56 sec) 
Heartbeat CPU 0 instructions: 199000001 cycles: 622077151 heartbeat IPC: 0.312056 cumulative IPC: 0.318572 (Simulation time: 0 hr 26 min 4 sec) 
Heartbeat CPU 0 instructions: 200000000 cycles: 625490770 heartbeat IPC: 0.292944 cumulative IPC: 0.318432 (Simulation time: 0 hr 26 min 13 sec) 
Heartbeat CPU 0 instructions: 201000000 cycles: 628383122 heartbeat IPC: 0.345739 cumulative IPC: 0.318558 (Simulation time: 0 hr 26 min 21 sec) 
Heartbeat CPU 0 instructions: 202000003 cycles: 631786942 heartbeat IPC: 0.293788 cumulative IPC: 0.318424 (Simulation time: 0 hr 26 min 29 sec) 
Heartbeat CPU 0 instructions: 203000003 cycles: 634848047 heartbeat IPC: 0.326679 cumulative IPC: 0.318464 (Simulation time: 0 hr 26 min 37 sec) 
Heartbeat CPU 0 instructions: 204000001 cycles: 637910281 heartbeat IPC: 0.326558 cumulative IPC: 0.318503 (Simulation time: 0 hr 26 min 45 sec) 
Heartbeat CPU 0 instructions: 205000000 cycles: 641095659 heartbeat IPC: 0.313934 cumulative IPC: 0.31848 (Simulation time: 0 hr 26 min 53 sec) 
Heartbeat CPU 0 instructions: 206000002 cycles: 644311377 heartbeat IPC: 0.310973 cumulative IPC: 0.318443 (Simulation time: 0 hr 27 min 1 sec) 
Heartbeat CPU 0 instructions: 207000002 cycles: 647420179 heartbeat IPC: 0.321667 cumulative IPC: 0.318458 (Simulation time: 0 hr 27 min 9 sec) 
Heartbeat CPU 0 instructions: 208000000 cycles: 650637869 heartbeat IPC: 0.310781 cumulative IPC: 0.31842 (Simulation time: 0 hr 27 min 17 sec) 
Heartbeat CPU 0 instructions: 209000000 cycles: 654446547 heartbeat IPC: 0.262558 cumulative IPC: 0.318095 (Simulation time: 0 hr 27 min 26 sec) 
Heartbeat CPU 0 instructions: 210000000 cycles: 657259312 heartbeat IPC: 0.355522 cumulative IPC: 0.318255 (Simulation time: 0 hr 27 min 34 sec) 
Heartbeat CPU 0 instructions: 211000001 cycles: 659943931 heartbeat IPC: 0.372493 cumulative IPC: 0.318476 (Simulation time: 0 hr 27 min 42 sec) 
Heartbeat CPU 0 instructions: 212000001 cycles: 663206229 heartbeat IPC: 0.306532 cumulative IPC: 0.318417 (Simulation time: 0 hr 27 min 50 sec) 
Heartbeat CPU 0 instructions: 213000000 cycles: 666466955 heartbeat IPC: 0.30668 cumulative IPC: 0.31836 (Simulation time: 0 hr 27 min 58 sec) 
Heartbeat CPU 0 instructions: 214000000 cycles: 669682443 heartbeat IPC: 0.310995 cumulative IPC: 0.318324 (Simulation time: 0 hr 28 min 6 sec) 
Heartbeat CPU 0 instructions: 215000000 cycles: 672879918 heartbeat IPC: 0.312747 cumulative IPC: 0.318298 (Simulation time: 0 hr 28 min 14 sec) 
Heartbeat CPU 0 instructions: 216000001 cycles: 675982743 heartbeat IPC: 0.322287 cumulative IPC: 0.318316 (Simulation time: 0 hr 28 min 22 sec) 
Heartbeat CPU 0 instructions: 217000001 cycles: 679191938 heartbeat IPC: 0.311605 cumulative IPC: 0.318284 (Simulation time: 0 hr 28 min 30 sec) 
Heartbeat CPU 0 instructions: 218000002 cycles: 682669337 heartbeat IPC: 0.287572 cumulative IPC: 0.318128 (Simulation time: 0 hr 28 min 38 sec) 
Heartbeat CPU 0 instructions: 219000001 cycles: 685917488 heartbeat IPC: 0.307867 cumulative IPC: 0.318079 (Simulation time: 0 hr 28 min 46 sec) 
Heartbeat CPU 0 instructions: 220000000 cycles: 689132759 heartbeat IPC: 0.311015 cumulative IPC: 0.318046 (Simulation time: 0 hr 28 min 54 sec) 
Heartbeat CPU 0 instructions: 221000000 cycles: 692424394 heartbeat IPC: 0.3038 cumulative IPC: 0.317979 (Simulation time: 0 hr 29 min 2 sec) 
Heartbeat CPU 0 instructions: 222000002 cycles: 695481055 heartbeat IPC: 0.327155 cumulative IPC: 0.318019 (Simulation time: 0 hr 29 min 10 sec) 
Heartbeat CPU 0 instructions: 223000003 cycles: 698755144 heartbeat IPC: 0.305429 cumulative IPC: 0.31796 (Simulation time: 0 hr 29 min 18 sec) 
Heartbeat CPU 0 instructions: 224000000 cycles: 701769655 heartbeat IPC: 0.331728 cumulative IPC: 0.318019 (Simulation time: 0 hr 29 min 26 sec) 
Heartbeat CPU 0 instructions: 225000000 cycles: 704936984 heartbeat IPC: 0.315723 cumulative IPC: 0.318009 (Simulation time: 0 hr 29 min 34 sec) 
Heartbeat CPU 0 instructions: 226000000 cycles: 708168355 heartbeat IPC: 0.309466 cumulative IPC: 0.31797 (Simulation time: 0 hr 29 min 42 sec) 
Heartbeat CPU 0 instructions: 227000001 cycles: 711209571 heartbeat IPC: 0.328816 cumulative IPC: 0.318016 (Simulation time: 0 hr 29 min 50 sec) 
Heartbeat CPU 0 instructions: 228000000 cycles: 714402949 heartbeat IPC: 0.313148 cumulative IPC: 0.317994 (Simulation time: 0 hr 29 min 58 sec) 
Heartbeat CPU 0 instructions: 229000000 cycles: 717774728 heartbeat IPC: 0.296579 cumulative IPC: 0.317894 (Simulation time: 0 hr 30 min 6 sec) 
Heartbeat CPU 0 instructions: 230000001 cycles: 720871389 heartbeat IPC: 0.322929 cumulative IPC: 0.317915 (Simulation time: 0 hr 30 min 13 sec) 
Heartbeat CPU 0 instructions: 231000000 cycles: 724046375 heartbeat IPC: 0.314962 cumulative IPC: 0.317902 (Simulation time: 0 hr 30 min 21 sec) 
Heartbeat CPU 0 instructions: 232000000 cycles: 727173912 heartbeat IPC: 0.31974 cumulative IPC: 0.31791 (Simulation time: 0 hr 30 min 29 sec) 
Heartbeat CPU 0 instructions: 233000000 cycles: 730610348 heartbeat IPC: 0.290999 cumulative IPC: 0.317784 (Simulation time: 0 hr 30 min 37 sec) 
Heartbeat CPU 0 instructions: 234000003 cycles: 733865361 heartbeat IPC: 0.307219 cumulative IPC: 0.317737 (Simulation time: 0 hr 30 min 45 sec) 
Heartbeat CPU 0 instructions: 235000001 cycles: 736829052 heartbeat IPC: 0.337416 cumulative IPC: 0.317816 (Simulation time: 0 hr 30 min 53 sec) 
Heartbeat CPU 0 instructions: 236000000 cycles: 739862615 heartbeat IPC: 0.329645 cumulative IPC: 0.317864 (Simulation time: 0 hr 31 min 1 sec) 
Heartbeat CPU 0 instructions: 237000000 cycles: 742803836 heartbeat IPC: 0.339995 cumulative IPC: 0.317952 (Simulation time: 0 hr 31 min 9 sec) 
Heartbeat CPU 0 instructions: 238000000 cycles: 745989490 heartbeat IPC: 0.313907 cumulative IPC: 0.317935 (Simulation time: 0 hr 31 min 16 sec) 
Heartbeat CPU 0 instructions: 239000000 cycles: 749299310 heartbeat IPC: 0.302131 cumulative IPC: 0.317865 (Simulation time: 0 hr 31 min 24 sec) 
Heartbeat CPU 0 instructions: 240000001 cycles: 752522576 heartbeat IPC: 0.310245 cumulative IPC: 0.317832 (Simulation time: 0 hr 31 min 32 sec) 
Heartbeat CPU 0 instructions: 241000000 cycles: 755764452 heartbeat IPC: 0.308463 cumulative IPC: 0.317792 (Simulation time: 0 hr 31 min 40 sec) 
Heartbeat CPU 0 instructions: 242000000 cycles: 758817133 heartbeat IPC: 0.327581 cumulative IPC: 0.317832 (Simulation time: 0 hr 31 min 48 sec) 
Heartbeat CPU 0 instructions: 243000000 cycles: 761522045 heartbeat IPC: 0.369698 cumulative IPC: 0.318016 (Simulation time: 0 hr 31 min 55 sec) 
Heartbeat CPU 0 instructions: 244000000 cycles: 764414971 heartbeat IPC: 0.345671 cumulative IPC: 0.318121 (Simulation time: 0 hr 32 min 3 sec) 
Heartbeat CPU 0 instructions: 245000000 cycles: 767513118 heartbeat IPC: 0.322774 cumulative IPC: 0.318139 (Simulation time: 0 hr 32 min 11 sec) 
Heartbeat CPU 0 instructions: 246000003 cycles: 770602233 heartbeat IPC: 0.323718 cumulative IPC: 0.318162 (Simulation time: 0 hr 32 min 18 sec) 
Heartbeat CPU 0 instructions: 247000000 cycles: 773833186 heartbeat IPC: 0.309505 cumulative IPC: 0.318126 (Simulation time: 0 hr 32 min 26 sec) 
Heartbeat CPU 0 instructions: 248000003 cycles: 776860268 heartbeat IPC: 0.330352 cumulative IPC: 0.318173 (Simulation time: 0 hr 32 min 34 sec) 
Heartbeat CPU 0 instructions: 249000001 cycles: 780099565 heartbeat IPC: 0.308708 cumulative IPC: 0.318134 (Simulation time: 0 hr 32 min 41 sec) 
Heartbeat CPU 0 instructions: 250000000 cycles: 783102374 heartbeat IPC: 0.333021 cumulative IPC: 0.318191 (Simulation time: 0 hr 32 min 49 sec) 
Heartbeat CPU 0 instructions: 251000000 cycles: 786144207 heartbeat IPC: 0.328749 cumulative IPC: 0.318232 (Simulation time: 0 hr 32 min 57 sec) 
Heartbeat CPU 0 instructions: 252000000 cycles: 789431295 heartbeat IPC: 0.304221 cumulative IPC: 0.318174 (Simulation time: 0 hr 33 min 4 sec) 
Heartbeat CPU 0 instructions: 253000000 cycles: 792502118 heartbeat IPC: 0.325646 cumulative IPC: 0.318203 (Simulation time: 0 hr 33 min 12 sec) 
Heartbeat CPU 0 instructions: 254000003 cycles: 795769012 heartbeat IPC: 0.306102 cumulative IPC: 0.318153 (Simulation time: 0 hr 33 min 20 sec) 
Heartbeat CPU 0 instructions: 255000000 cycles: 798681363 heartbeat IPC: 0.343364 cumulative IPC: 0.318245 (Simulation time: 0 hr 33 min 27 sec) 
Heartbeat CPU 0 instructions: 256000000 cycles: 801358282 heartbeat IPC: 0.373564 cumulative IPC: 0.31843 (Simulation time: 0 hr 33 min 35 sec) 
Heartbeat CPU 0 instructions: 257000003 cycles: 804524647 heartbeat IPC: 0.315821 cumulative IPC: 0.31842 (Simulation time: 0 hr 33 min 42 sec) 
Heartbeat CPU 0 instructions: 258000000 cycles: 807732711 heartbeat IPC: 0.311714 cumulative IPC: 0.318393 (Simulation time: 0 hr 33 min 50 sec) 
Heartbeat CPU 0 instructions: 259000000 cycles: 810978915 heartbeat IPC: 0.308052 cumulative IPC: 0.318351 (Simulation time: 0 hr 33 min 58 sec) 
Heartbeat CPU 0 instructions: 260000001 cycles: 814030602 heartbeat IPC: 0.327688 cumulative IPC: 0.318386 (Simulation time: 0 hr 34 min 5 sec) 
Heartbeat CPU 0 instructions: 261000003 cycles: 817384934 heartbeat IPC: 0.298123 cumulative IPC: 0.318303 (Simulation time: 0 hr 34 min 13 sec) 
Heartbeat CPU 0 instructions: 262000000 cycles: 820427819 heartbeat IPC: 0.328635 cumulative IPC: 0.318342 (Simulation time: 0 hr 34 min 21 sec) 
Heartbeat CPU 0 instructions: 263000000 cycles: 823669059 heartbeat IPC: 0.308524 cumulative IPC: 0.318303 (Simulation time: 0 hr 34 min 29 sec) 
Heartbeat CPU 0 instructions: 264000000 cycles: 827020882 heartbeat IPC: 0.298345 cumulative IPC: 0.318222 (Simulation time: 0 hr 34 min 37 sec) 
Heartbeat CPU 0 instructions: 265000001 cycles: 829971464 heartbeat IPC: 0.338917 cumulative IPC: 0.318296 (Simulation time: 0 hr 34 min 44 sec) 
Heartbeat CPU 0 instructions: 266000000 cycles: 833049915 heartbeat IPC: 0.324838 cumulative IPC: 0.31832 (Simulation time: 0 hr 34 min 52 sec) 
Heartbeat CPU 0 instructions: 267000002 cycles: 836159977 heartbeat IPC: 0.321538 cumulative IPC: 0.318332 (Simulation time: 0 hr 35 min 0 sec) 
Heartbeat CPU 0 instructions: 268000000 cycles: 839291675 heartbeat IPC: 0.319315 cumulative IPC: 0.318335 (Simulation time: 0 hr 35 min 7 sec) 
Heartbeat CPU 0 instructions: 269000003 cycles: 842623099 heartbeat IPC: 0.300173 cumulative IPC: 0.318264 (Simulation time: 0 hr 35 min 15 sec) 
Heartbeat CPU 0 instructions: 270000000 cycles: 845653108 heartbeat IPC: 0.330031 cumulative IPC: 0.318306 (Simulation time: 0 hr 35 min 23 sec) 
Heartbeat CPU 0 instructions: 271000000 cycles: 849610054 heartbeat IPC: 0.25272 cumulative IPC: 0.318 (Simulation time: 0 hr 35 min 32 sec) 
Heartbeat CPU 0 instructions: 272000002 cycles: 852722192 heartbeat IPC: 0.321323 cumulative IPC: 0.318012 (Simulation time: 0 hr 35 min 40 sec) 
Heartbeat CPU 0 instructions: 273000000 cycles: 856034165 heartbeat IPC: 0.301934 cumulative IPC: 0.31795 (Simulation time: 0 hr 35 min 47 sec) 
Heartbeat CPU 0 instructions: 274000002 cycles: 859484178 heartbeat IPC: 0.289855 cumulative IPC: 0.317837 (Simulation time: 0 hr 35 min 55 sec) 
Heartbeat CPU 0 instructions: 275000000 cycles: 862496882 heartbeat IPC: 0.331927 cumulative IPC: 0.317886 (Simulation time: 0 hr 36 min 3 sec) 
Heartbeat CPU 0 instructions: 276000000 cycles: 865712725 heartbeat IPC: 0.31096 cumulative IPC: 0.317861 (Simulation time: 0 hr 36 min 11 sec) 
Heartbeat CPU 0 instructions: 277000000 cycles: 868723264 heartbeat IPC: 0.332166 cumulative IPC: 0.31791 (Simulation time: 0 hr 36 min 18 sec) 
Heartbeat CPU 0 instructions: 278000000 cycles: 872083905 heartbeat IPC: 0.297562 cumulative IPC: 0.317832 (Simulation time: 0 hr 36 min 26 sec) 
Heartbeat CPU 0 instructions: 279000002 cycles: 875089918 heartbeat IPC: 0.332667 cumulative IPC: 0.317883 (Simulation time: 0 hr 36 min 34 sec) 
Heartbeat CPU 0 instructions: 280000000 cycles: 878272885 heartbeat IPC: 0.314172 cumulative IPC: 0.317869 (Simulation time: 0 hr 36 min 42 sec) 
Heartbeat CPU 0 instructions: 281000001 cycles: 881555720 heartbeat IPC: 0.304615 cumulative IPC: 0.31782 (Simulation time: 0 hr 36 min 50 sec) 
Heartbeat CPU 0 instructions: 282000002 cycles: 884694445 heartbeat IPC: 0.318601 cumulative IPC: 0.317823 (Simulation time: 0 hr 36 min 57 sec) 
Heartbeat CPU 0 instructions: 283000000 cycles: 887737916 heartbeat IPC: 0.328572 cumulative IPC: 0.31786 (Simulation time: 0 hr 37 min 5 sec) 
Heartbeat CPU 0 instructions: 284000000 cycles: 890669610 heartbeat IPC: 0.3411 cumulative IPC: 0.317936 (Simulation time: 0 hr 37 min 12 sec) 
Heartbeat CPU 0 instructions: 285000000 cycles: 893954531 heartbeat IPC: 0.304421 cumulative IPC: 0.317886 (Simulation time: 0 hr 37 min 20 sec) 
Heartbeat CPU 0 instructions: 286000000 cycles: 897051479 heartbeat IPC: 0.322899 cumulative IPC: 0.317904 (Simulation time: 0 hr 37 min 28 sec) 
Heartbeat CPU 0 instructions: 287000001 cycles: 900209869 heartbeat IPC: 0.316617 cumulative IPC: 0.317899 (Simulation time: 0 hr 37 min 36 sec) 
Heartbeat CPU 0 instructions: 288000001 cycles: 903379040 heartbeat IPC: 0.31554 cumulative IPC: 0.317891 (Simulation time: 0 hr 37 min 43 sec) 
Heartbeat CPU 0 instructions: 289000000 cycles: 906488172 heartbeat IPC: 0.321633 cumulative IPC: 0.317904 (Simulation time: 0 hr 37 min 51 sec) 
Heartbeat CPU 0 instructions: 290000003 cycles: 910217517 heartbeat IPC: 0.268144 cumulative IPC: 0.3177 (Simulation time: 0 hr 37 min 59 sec) 
Heartbeat CPU 0 instructions: 291000000 cycles: 912938257 heartbeat IPC: 0.367546 cumulative IPC: 0.317848 (Simulation time: 0 hr 38 min 7 sec) 
Heartbeat CPU 0 instructions: 292000000 cycles: 916021258 heartbeat IPC: 0.324359 cumulative IPC: 0.31787 (Simulation time: 0 hr 38 min 15 sec) 
Heartbeat CPU 0 instructions: 293000000 cycles: 919107081 heartbeat IPC: 0.324063 cumulative IPC: 0.317891 (Simulation time: 0 hr 38 min 22 sec) 
Heartbeat CPU 0 instructions: 294000000 cycles: 922228688 heartbeat IPC: 0.320348 cumulative IPC: 0.3179 (Simulation time: 0 hr 38 min 30 sec) 
Heartbeat CPU 0 instructions: 295000000 cycles: 925458178 heartbeat IPC: 0.309646 cumulative IPC: 0.317871 (Simulation time: 0 hr 38 min 38 sec) 
Heartbeat CPU 0 instructions: 296000001 cycles: 928776564 heartbeat IPC: 0.301352 cumulative IPC: 0.317812 (Simulation time: 0 hr 38 min 46 sec) 
Heartbeat CPU 0 instructions: 297000000 cycles: 931795121 heartbeat IPC: 0.331284 cumulative IPC: 0.317855 (Simulation time: 0 hr 38 min 53 sec) 
Heartbeat CPU 0 instructions: 298000001 cycles: 934896969 heartbeat IPC: 0.322389 cumulative IPC: 0.31787 (Simulation time: 0 hr 39 min 1 sec) 
Heartbeat CPU 0 instructions: 299000000 cycles: 937985025 heartbeat IPC: 0.323828 cumulative IPC: 0.31789 (Simulation time: 0 hr 39 min 8 sec) 
Heartbeat CPU 0 instructions: 300000000 cycles: 940849061 heartbeat IPC: 0.349158 cumulative IPC: 0.317985 (Simulation time: 0 hr 39 min 16 sec) 
Heartbeat CPU 0 instructions: 301000000 cycles: 944169360 heartbeat IPC: 0.301178 cumulative IPC: 0.317926 (Simulation time: 0 hr 39 min 24 sec) 
Heartbeat CPU 0 instructions: 302000002 cycles: 947047783 heartbeat IPC: 0.347413 cumulative IPC: 0.318016 (Simulation time: 0 hr 39 min 31 sec) 
Heartbeat CPU 0 instructions: 303000001 cycles: 950224995 heartbeat IPC: 0.314741 cumulative IPC: 0.318005 (Simulation time: 0 hr 39 min 39 sec) 
Heartbeat CPU 0 instructions: 304000001 cycles: 953418849 heartbeat IPC: 0.313101 cumulative IPC: 0.317988 (Simulation time: 0 hr 39 min 46 sec) 
Heartbeat CPU 0 instructions: 305000002 cycles: 956538089 heartbeat IPC: 0.320591 cumulative IPC: 0.317997 (Simulation time: 0 hr 39 min 54 sec) 
Heartbeat CPU 0 instructions: 306000000 cycles: 959653929 heartbeat IPC: 0.32094 cumulative IPC: 0.318006 (Simulation time: 0 hr 40 min 2 sec) 
Heartbeat CPU 0 instructions: 307000002 cycles: 962907129 heartbeat IPC: 0.30739 cumulative IPC: 0.317971 (Simulation time: 0 hr 40 min 10 sec) 
Heartbeat CPU 0 instructions: 308000000 cycles: 965951176 heartbeat IPC: 0.328509 cumulative IPC: 0.318004 (Simulation time: 0 hr 40 min 17 sec) 
Heartbeat CPU 0 instructions: 309000002 cycles: 969260027 heartbeat IPC: 0.30222 cumulative IPC: 0.31795 (Simulation time: 0 hr 40 min 25 sec) 
Heartbeat CPU 0 instructions: 310000000 cycles: 972908509 heartbeat IPC: 0.274086 cumulative IPC: 0.317785 (Simulation time: 0 hr 40 min 33 sec) 
Heartbeat CPU 0 instructions: 311000001 cycles: 976106208 heartbeat IPC: 0.312725 cumulative IPC: 0.317769 (Simulation time: 0 hr 40 min 41 sec) 
Heartbeat CPU 0 instructions: 312000000 cycles: 979087304 heartbeat IPC: 0.335447 cumulative IPC: 0.317823 (Simulation time: 0 hr 40 min 49 sec) 
Heartbeat CPU 0 instructions: 313000003 cycles: 982153105 heartbeat IPC: 0.32618 cumulative IPC: 0.317849 (Simulation time: 0 hr 40 min 56 sec) 
Heartbeat CPU 0 instructions: 314000001 cycles: 985470731 heartbeat IPC: 0.30142 cumulative IPC: 0.317793 (Simulation time: 0 hr 41 min 4 sec) 
Heartbeat CPU 0 instructions: 315000000 cycles: 988521646 heartbeat IPC: 0.32777 cumulative IPC: 0.317824 (Simulation time: 0 hr 41 min 12 sec) 
Heartbeat CPU 0 instructions: 316000000 cycles: 991611650 heartbeat IPC: 0.323624 cumulative IPC: 0.317842 (Simulation time: 0 hr 41 min 20 sec) 
Heartbeat CPU 0 instructions: 317000001 cycles: 994776342 heartbeat IPC: 0.315987 cumulative IPC: 0.317836 (Simulation time: 0 hr 41 min 27 sec) 
Heartbeat CPU 0 instructions: 318000003 cycles: 998038005 heartbeat IPC: 0.306593 cumulative IPC: 0.3178 (Simulation time: 0 hr 41 min 35 sec) 
Heartbeat CPU 0 instructions: 319000000 cycles: 1001166170 heartbeat IPC: 0.319675 cumulative IPC: 0.317805 (Simulation time: 0 hr 41 min 43 sec) 
Heartbeat CPU 0 instructions: 320000000 cycles: 1004408427 heartbeat IPC: 0.308427 cumulative IPC: 0.317775 (Simulation time: 0 hr 41 min 51 sec) 
Heartbeat CPU 0 instructions: 321000000 cycles: 1007525745 heartbeat IPC: 0.320789 cumulative IPC: 0.317784 (Simulation time: 0 hr 41 min 58 sec) 
Heartbeat CPU 0 instructions: 322000001 cycles: 1010691616 heartbeat IPC: 0.315869 cumulative IPC: 0.317778 (Simulation time: 0 hr 42 min 6 sec) 
Heartbeat CPU 0 instructions: 323000000 cycles: 1013913214 heartbeat IPC: 0.310405 cumulative IPC: 0.317755 (Simulation time: 0 hr 42 min 14 sec) 
Heartbeat CPU 0 instructions: 324000001 cycles: 1016927677 heartbeat IPC: 0.331734 cumulative IPC: 0.317796 (Simulation time: 0 hr 42 min 22 sec) 
Heartbeat CPU 0 instructions: 325000002 cycles: 1020065717 heartbeat IPC: 0.318671 cumulative IPC: 0.317799 (Simulation time: 0 hr 42 min 30 sec) 
Heartbeat CPU 0 instructions: 326000003 cycles: 1023192595 heartbeat IPC: 0.319808 cumulative IPC: 0.317805 (Simulation time: 0 hr 42 min 37 sec) 
Heartbeat CPU 0 instructions: 327000000 cycles: 1026449437 heartbeat IPC: 0.307045 cumulative IPC: 0.317771 (Simulation time: 0 hr 42 min 45 sec) 
Heartbeat CPU 0 instructions: 328000001 cycles: 1029704934 heartbeat IPC: 0.307173 cumulative IPC: 0.317738 (Simulation time: 0 hr 42 min 53 sec) 
Heartbeat CPU 0 instructions: 329000002 cycles: 1033076727 heartbeat IPC: 0.296578 cumulative IPC: 0.317668 (Simulation time: 0 hr 43 min 1 sec) 
Heartbeat CPU 0 instructions: 330000000 cycles: 1035614775 heartbeat IPC: 0.394003 cumulative IPC: 0.317856 (Simulation time: 0 hr 43 min 8 sec) 
Heartbeat CPU 0 instructions: 331000000 cycles: 1038129264 heartbeat IPC: 0.397695 cumulative IPC: 0.318049 (Simulation time: 0 hr 43 min 16 sec) 
Heartbeat CPU 0 instructions: 332000000 cycles: 1041317112 heartbeat IPC: 0.313691 cumulative IPC: 0.318036 (Simulation time: 0 hr 43 min 24 sec) 
Heartbeat CPU 0 instructions: 333000001 cycles: 1044529560 heartbeat IPC: 0.311289 cumulative IPC: 0.318015 (Simulation time: 0 hr 43 min 31 sec) 
Heartbeat CPU 0 instructions: 334000003 cycles: 1047249987 heartbeat IPC: 0.36759 cumulative IPC: 0.318144 (Simulation time: 0 hr 43 min 39 sec) 
Heartbeat CPU 0 instructions: 335000000 cycles: 1049911616 heartbeat IPC: 0.375709 cumulative IPC: 0.31829 (Simulation time: 0 hr 43 min 47 sec) 
Heartbeat CPU 0 instructions: 336000003 cycles: 1052652583 heartbeat IPC: 0.364836 cumulative IPC: 0.318411 (Simulation time: 0 hr 43 min 54 sec) 
Heartbeat CPU 0 instructions: 337000000 cycles: 1055606647 heartbeat IPC: 0.338516 cumulative IPC: 0.318467 (Simulation time: 0 hr 44 min 2 sec) 
Heartbeat CPU 0 instructions: 338000000 cycles: 1058797800 heartbeat IPC: 0.313366 cumulative IPC: 0.318452 (Simulation time: 0 hr 44 min 10 sec) 
Heartbeat CPU 0 instructions: 339000002 cycles: 1061926082 heartbeat IPC: 0.319665 cumulative IPC: 0.318456 (Simulation time: 0 hr 44 min 18 sec) 
Heartbeat CPU 0 instructions: 340000000 cycles: 1065033751 heartbeat IPC: 0.321784 cumulative IPC: 0.318465 (Simulation time: 0 hr 44 min 26 sec) 
Heartbeat CPU 0 instructions: 341000000 cycles: 1068206305 heartbeat IPC: 0.315203 cumulative IPC: 0.318456 (Simulation time: 0 hr 44 min 34 sec) 
Heartbeat CPU 0 instructions: 342000003 cycles: 1071418660 heartbeat IPC: 0.311299 cumulative IPC: 0.318434 (Simulation time: 0 hr 44 min 42 sec) 
Heartbeat CPU 0 instructions: 343000002 cycles: 1074334225 heartbeat IPC: 0.342986 cumulative IPC: 0.318501 (Simulation time: 0 hr 44 min 50 sec) 
Heartbeat CPU 0 instructions: 344000003 cycles: 1077634385 heartbeat IPC: 0.303016 cumulative IPC: 0.318453 (Simulation time: 0 hr 44 min 58 sec) 
Heartbeat CPU 0 instructions: 345000001 cycles: 1080674608 heartbeat IPC: 0.328923 cumulative IPC: 0.318483 (Simulation time: 0 hr 45 min 6 sec) 
Heartbeat CPU 0 instructions: 346000000 cycles: 1083897532 heartbeat IPC: 0.310277 cumulative IPC: 0.318458 (Simulation time: 0 hr 45 min 14 sec) 
Heartbeat CPU 0 instructions: 347000000 cycles: 1087039754 heartbeat IPC: 0.318246 cumulative IPC: 0.318458 (Simulation time: 0 hr 45 min 22 sec) 
Heartbeat CPU 0 instructions: 348000002 cycles: 1090167213 heartbeat IPC: 0.319749 cumulative IPC: 0.318462 (Simulation time: 0 hr 45 min 30 sec) 
Heartbeat CPU 0 instructions: 349000000 cycles: 1093464307 heartbeat IPC: 0.303297 cumulative IPC: 0.318416 (Simulation time: 0 hr 45 min 38 sec) 
Heartbeat CPU 0 instructions: 350000001 cycles: 1096615572 heartbeat IPC: 0.317333 cumulative IPC: 0.318413 (Simulation time: 0 hr 45 min 46 sec) 
Heartbeat CPU 0 instructions: 351000003 cycles: 1099521686 heartbeat IPC: 0.344103 cumulative IPC: 0.318481 (Simulation time: 0 hr 45 min 54 sec) 
Heartbeat CPU 0 instructions: 352000000 cycles: 1102688550 heartbeat IPC: 0.315769 cumulative IPC: 0.318473 (Simulation time: 0 hr 46 min 2 sec) 
Heartbeat CPU 0 instructions: 353000000 cycles: 1105789872 heartbeat IPC: 0.322443 cumulative IPC: 0.318484 (Simulation time: 0 hr 46 min 10 sec) 
Heartbeat CPU 0 instructions: 354000002 cycles: 1108924420 heartbeat IPC: 0.319026 cumulative IPC: 0.318486 (Simulation time: 0 hr 46 min 18 sec) 
Heartbeat CPU 0 instructions: 355000000 cycles: 1111983875 heartbeat IPC: 0.326855 cumulative IPC: 0.318509 (Simulation time: 0 hr 46 min 26 sec) 
Heartbeat CPU 0 instructions: 356000001 cycles: 1115357371 heartbeat IPC: 0.296429 cumulative IPC: 0.318442 (Simulation time: 0 hr 46 min 33 sec) 
Heartbeat CPU 0 instructions: 357000002 cycles: 1118422952 heartbeat IPC: 0.326203 cumulative IPC: 0.318463 (Simulation time: 0 hr 46 min 41 sec) 
Heartbeat CPU 0 instructions: 358000002 cycles: 1121508158 heartbeat IPC: 0.324127 cumulative IPC: 0.318479 (Simulation time: 0 hr 46 min 49 sec) 
Heartbeat CPU 0 instructions: 359000000 cycles: 1124641961 heartbeat IPC: 0.3191 cumulative IPC: 0.31848 (Simulation time: 0 hr 46 min 57 sec) 
Heartbeat CPU 0 instructions: 360000001 cycles: 1127805703 heartbeat IPC: 0.316082 cumulative IPC: 0.318474 (Simulation time: 0 hr 47 min 5 sec) 
Heartbeat CPU 0 instructions: 361000001 cycles: 1130891919 heartbeat IPC: 0.324021 cumulative IPC: 0.318489 (Simulation time: 0 hr 47 min 13 sec) 
Heartbeat CPU 0 instructions: 362000000 cycles: 1134114520 heartbeat IPC: 0.310308 cumulative IPC: 0.318466 (Simulation time: 0 hr 47 min 21 sec) 
Heartbeat CPU 0 instructions: 363000000 cycles: 1137317607 heartbeat IPC: 0.312199 cumulative IPC: 0.318448 (Simulation time: 0 hr 47 min 28 sec) 
Heartbeat CPU 0 instructions: 364000000 cycles: 1140358857 heartbeat IPC: 0.328812 cumulative IPC: 0.318476 (Simulation time: 0 hr 47 min 36 sec) 
Heartbeat CPU 0 instructions: 365000000 cycles: 1143418122 heartbeat IPC: 0.326876 cumulative IPC: 0.318498 (Simulation time: 0 hr 47 min 44 sec) 
Heartbeat CPU 0 instructions: 366000003 cycles: 1146595857 heartbeat IPC: 0.314691 cumulative IPC: 0.318487 (Simulation time: 0 hr 47 min 52 sec) 
Heartbeat CPU 0 instructions: 367000000 cycles: 1149756129 heartbeat IPC: 0.316427 cumulative IPC: 0.318482 (Simulation time: 0 hr 47 min 59 sec) 
Heartbeat CPU 0 instructions: 368000001 cycles: 1153018732 heartbeat IPC: 0.306504 cumulative IPC: 0.318448 (Simulation time: 0 hr 48 min 7 sec) 
Heartbeat CPU 0 instructions: 369000000 cycles: 1156060687 heartbeat IPC: 0.328736 cumulative IPC: 0.318475 (Simulation time: 0 hr 48 min 15 sec) 
Heartbeat CPU 0 instructions: 370000003 cycles: 1159114969 heartbeat IPC: 0.32741 cumulative IPC: 0.318498 (Simulation time: 0 hr 48 min 23 sec) 
Heartbeat CPU 0 instructions: 371000002 cycles: 1162275024 heartbeat IPC: 0.31645 cumulative IPC: 0.318493 (Simulation time: 0 hr 48 min 31 sec) 
Heartbeat CPU 0 instructions: 372000000 cycles: 1165336541 heartbeat IPC: 0.326635 cumulative IPC: 0.318514 (Simulation time: 0 hr 48 min 38 sec) 
Heartbeat CPU 0 instructions: 373000003 cycles: 1168520024 heartbeat IPC: 0.314122 cumulative IPC: 0.318502 (Simulation time: 0 hr 48 min 46 sec) 
Heartbeat CPU 0 instructions: 374000000 cycles: 1171621521 heartbeat IPC: 0.322424 cumulative IPC: 0.318513 (Simulation time: 0 hr 48 min 54 sec) 
Heartbeat CPU 0 instructions: 375000000 cycles: 1174893050 heartbeat IPC: 0.305667 cumulative IPC: 0.318477 (Simulation time: 0 hr 49 min 2 sec) 
Heartbeat CPU 0 instructions: 376000000 cycles: 1177848171 heartbeat IPC: 0.338396 cumulative IPC: 0.318527 (Simulation time: 0 hr 49 min 9 sec) 
Heartbeat CPU 0 instructions: 377000001 cycles: 1180945662 heartbeat IPC: 0.322842 cumulative IPC: 0.318538 (Simulation time: 0 hr 49 min 17 sec) 
Heartbeat CPU 0 instructions: 378000003 cycles: 1184127634 heartbeat IPC: 0.314271 cumulative IPC: 0.318527 (Simulation time: 0 hr 49 min 25 sec) 
Heartbeat CPU 0 instructions: 379000002 cycles: 1187252399 heartbeat IPC: 0.320024 cumulative IPC: 0.318531 (Simulation time: 0 hr 49 min 33 sec) 
Heartbeat CPU 0 instructions: 380000000 cycles: 1190369759 heartbeat IPC: 0.320784 cumulative IPC: 0.318537 (Simulation time: 0 hr 49 min 41 sec) 
Heartbeat CPU 0 instructions: 381000001 cycles: 1193511980 heartbeat IPC: 0.318247 cumulative IPC: 0.318536 (Simulation time: 0 hr 49 min 48 sec) 
Heartbeat CPU 0 instructions: 382000003 cycles: 1196688213 heartbeat IPC: 0.314839 cumulative IPC: 0.318526 (Simulation time: 0 hr 49 min 56 sec) 
Heartbeat CPU 0 instructions: 383000000 cycles: 1199780881 heartbeat IPC: 0.323344 cumulative IPC: 0.318538 (Simulation time: 0 hr 50 min 4 sec) 
Heartbeat CPU 0 instructions: 384000001 cycles: 1202848597 heartbeat IPC: 0.325976 cumulative IPC: 0.318557 (Simulation time: 0 hr 50 min 12 sec) 
Heartbeat CPU 0 instructions: 385000000 cycles: 1206090613 heartbeat IPC: 0.30845 cumulative IPC: 0.31853 (Simulation time: 0 hr 50 min 19 sec) 
Heartbeat CPU 0 instructions: 386000000 cycles: 1209306543 heartbeat IPC: 0.310952 cumulative IPC: 0.31851 (Simulation time: 0 hr 50 min 27 sec) 
Heartbeat CPU 0 instructions: 387000000 cycles: 1212283824 heartbeat IPC: 0.335877 cumulative IPC: 0.318553 (Simulation time: 0 hr 50 min 35 sec) 
Heartbeat CPU 0 instructions: 388000000 cycles: 1215603544 heartbeat IPC: 0.30123 cumulative IPC: 0.318505 (Simulation time: 0 hr 50 min 43 sec) 
Heartbeat CPU 0 instructions: 389000000 cycles: 1218516659 heartbeat IPC: 0.343275 cumulative IPC: 0.318565 (Simulation time: 0 hr 50 min 50 sec) 
Heartbeat CPU 0 instructions: 390000000 cycles: 1221642535 heartbeat IPC: 0.31991 cumulative IPC: 0.318568 (Simulation time: 0 hr 50 min 58 sec) 
Heartbeat CPU 0 instructions: 391000003 cycles: 1224813488 heartbeat IPC: 0.315364 cumulative IPC: 0.31856 (Simulation time: 0 hr 51 min 6 sec) 
Heartbeat CPU 0 instructions: 392000002 cycles: 1228058096 heartbeat IPC: 0.308203 cumulative IPC: 0.318532 (Simulation time: 0 hr 51 min 14 sec) 
Heartbeat CPU 0 instructions: 393000000 cycles: 1230979989 heartbeat IPC: 0.342243 cumulative IPC: 0.318589 (Simulation time: 0 hr 51 min 21 sec) 
Heartbeat CPU 0 instructions: 394000000 cycles: 1234091567 heartbeat IPC: 0.32138 cumulative IPC: 0.318596 (Simulation time: 0 hr 51 min 29 sec) 
Heartbeat CPU 0 instructions: 395000002 cycles: 1237122440 heartbeat IPC: 0.329939 cumulative IPC: 0.318624 (Simulation time: 0 hr 51 min 37 sec) 
Heartbeat CPU 0 instructions: 396000000 cycles: 1240262521 heartbeat IPC: 0.318462 cumulative IPC: 0.318623 (Simulation time: 0 hr 51 min 45 sec) 
Heartbeat CPU 0 instructions: 397000000 cycles: 1243431840 heartbeat IPC: 0.315525 cumulative IPC: 0.318615 (Simulation time: 0 hr 51 min 53 sec) 
Heartbeat CPU 0 instructions: 398000001 cycles: 1246611600 heartbeat IPC: 0.314489 cumulative IPC: 0.318605 (Simulation time: 0 hr 52 min 0 sec) 
Heartbeat CPU 0 instructions: 399000001 cycles: 1249713007 heartbeat IPC: 0.322434 cumulative IPC: 0.318614 (Simulation time: 0 hr 52 min 8 sec) 
Heartbeat CPU 0 instructions: 400000001 cycles: 1252841318 heartbeat IPC: 0.319661 cumulative IPC: 0.318617 (Simulation time: 0 hr 52 min 16 sec) 
Heartbeat CPU 0 instructions: 401000002 cycles: 1256050849 heartbeat IPC: 0.311572 cumulative IPC: 0.318599 (Simulation time: 0 hr 52 min 24 sec) 
Heartbeat CPU 0 instructions: 402000002 cycles: 1259436906 heartbeat IPC: 0.295329 cumulative IPC: 0.318536 (Simulation time: 0 hr 52 min 32 sec) 
Heartbeat CPU 0 instructions: 403000000 cycles: 1262436988 heartbeat IPC: 0.333324 cumulative IPC: 0.318571 (Simulation time: 0 hr 52 min 39 sec) 
Heartbeat CPU 0 instructions: 404000001 cycles: 1265670837 heartbeat IPC: 0.309229 cumulative IPC: 0.318548 (Simulation time: 0 hr 52 min 47 sec) 
Heartbeat CPU 0 instructions: 405000000 cycles: 1268848070 heartbeat IPC: 0.314739 cumulative IPC: 0.318538 (Simulation time: 0 hr 52 min 55 sec) 
Heartbeat CPU 0 instructions: 406000001 cycles: 1271972238 heartbeat IPC: 0.320086 cumulative IPC: 0.318542 (Simulation time: 0 hr 53 min 3 sec) 
Heartbeat CPU 0 instructions: 407000000 cycles: 1275139026 heartbeat IPC: 0.315777 cumulative IPC: 0.318535 (Simulation time: 0 hr 53 min 11 sec) 
Heartbeat CPU 0 instructions: 408000000 cycles: 1278636034 heartbeat IPC: 0.285959 cumulative IPC: 0.318446 (Simulation time: 0 hr 53 min 19 sec) 
Heartbeat CPU 0 instructions: 409000000 cycles: 1281327319 heartbeat IPC: 0.37157 cumulative IPC: 0.318558 (Simulation time: 0 hr 53 min 27 sec) 
Heartbeat CPU 0 instructions: 410000001 cycles: 1283751050 heartbeat IPC: 0.412587 cumulative IPC: 0.318735 (Simulation time: 0 hr 53 min 34 sec) 
Heartbeat CPU 0 instructions: 411000000 cycles: 1286969400 heartbeat IPC: 0.310718 cumulative IPC: 0.318715 (Simulation time: 0 hr 53 min 42 sec) 
Heartbeat CPU 0 instructions: 412000002 cycles: 1290618073 heartbeat IPC: 0.274073 cumulative IPC: 0.318589 (Simulation time: 0 hr 53 min 50 sec) 
Heartbeat CPU 0 instructions: 413000002 cycles: 1293320190 heartbeat IPC: 0.37008 cumulative IPC: 0.318696 (Simulation time: 0 hr 53 min 58 sec) 
Heartbeat CPU 0 instructions: 414000002 cycles: 1296456848 heartbeat IPC: 0.318811 cumulative IPC: 0.318697 (Simulation time: 0 hr 54 min 6 sec) 
Heartbeat CPU 0 instructions: 415000002 cycles: 1299301919 heartbeat IPC: 0.351485 cumulative IPC: 0.318769 (Simulation time: 0 hr 54 min 13 sec) 
Heartbeat CPU 0 instructions: 416000000 cycles: 1302424728 heartbeat IPC: 0.320224 cumulative IPC: 0.318772 (Simulation time: 0 hr 54 min 21 sec) 
Heartbeat CPU 0 instructions: 417000002 cycles: 1305584176 heartbeat IPC: 0.316512 cumulative IPC: 0.318767 (Simulation time: 0 hr 54 min 29 sec) 
Heartbeat CPU 0 instructions: 418000000 cycles: 1308716334 heartbeat IPC: 0.319268 cumulative IPC: 0.318768 (Simulation time: 0 hr 54 min 37 sec) 
Heartbeat CPU 0 instructions: 419000000 cycles: 1311920710 heartbeat IPC: 0.312073 cumulative IPC: 0.318751 (Simulation time: 0 hr 54 min 45 sec) 
Heartbeat CPU 0 instructions: 420000002 cycles: 1314949320 heartbeat IPC: 0.330185 cumulative IPC: 0.318778 (Simulation time: 0 hr 54 min 53 sec) 
Heartbeat CPU 0 instructions: 421000001 cycles: 1318137263 heartbeat IPC: 0.313682 cumulative IPC: 0.318765 (Simulation time: 0 hr 55 min 1 sec) 
Heartbeat CPU 0 instructions: 422000000 cycles: 1321317653 heartbeat IPC: 0.314427 cumulative IPC: 0.318755 (Simulation time: 0 hr 55 min 8 sec) 
Heartbeat CPU 0 instructions: 423000003 cycles: 1324500086 heartbeat IPC: 0.314226 cumulative IPC: 0.318744 (Simulation time: 0 hr 55 min 16 sec) 
Heartbeat CPU 0 instructions: 424000001 cycles: 1327494642 heartbeat IPC: 0.333939 cumulative IPC: 0.318778 (Simulation time: 0 hr 55 min 24 sec) 
Heartbeat CPU 0 instructions: 425000001 cycles: 1330667133 heartbeat IPC: 0.31521 cumulative IPC: 0.31877 (Simulation time: 0 hr 55 min 32 sec) 
Heartbeat CPU 0 instructions: 426000000 cycles: 1333778249 heartbeat IPC: 0.321428 cumulative IPC: 0.318776 (Simulation time: 0 hr 55 min 40 sec) 
Heartbeat CPU 0 instructions: 427000000 cycles: 1337181922 heartbeat IPC: 0.2938 cumulative IPC: 0.318712 (Simulation time: 0 hr 55 min 48 sec) 
Heartbeat CPU 0 instructions: 428000001 cycles: 1340206088 heartbeat IPC: 0.33067 cumulative IPC: 0.318739 (Simulation time: 0 hr 55 min 55 sec) 
Heartbeat CPU 0 instructions: 429000000 cycles: 1343621055 heartbeat IPC: 0.292828 cumulative IPC: 0.318674 (Simulation time: 0 hr 56 min 3 sec) 
Heartbeat CPU 0 instructions: 430000000 cycles: 1346460813 heartbeat IPC: 0.352143 cumulative IPC: 0.318744 (Simulation time: 0 hr 56 min 11 sec) 
Heartbeat CPU 0 instructions: 431000000 cycles: 1349709238 heartbeat IPC: 0.307841 cumulative IPC: 0.318718 (Simulation time: 0 hr 56 min 18 sec) 
Heartbeat CPU 0 instructions: 432000001 cycles: 1352630490 heartbeat IPC: 0.342319 cumulative IPC: 0.318769 (Simulation time: 0 hr 56 min 26 sec) 
Heartbeat CPU 0 instructions: 433000002 cycles: 1355789154 heartbeat IPC: 0.31659 cumulative IPC: 0.318764 (Simulation time: 0 hr 56 min 34 sec) 
Heartbeat CPU 0 instructions: 434000000 cycles: 1359148727 heartbeat IPC: 0.297656 cumulative IPC: 0.318712 (Simulation time: 0 hr 56 min 41 sec) 
Heartbeat CPU 0 instructions: 435000000 cycles: 1362344399 heartbeat IPC: 0.312923 cumulative IPC: 0.318698 (Simulation time: 0 hr 56 min 49 sec) 
Heartbeat CPU 0 instructions: 436000003 cycles: 1365416579 heartbeat IPC: 0.325503 cumulative IPC: 0.318713 (Simulation time: 0 hr 56 min 57 sec) 
Heartbeat CPU 0 instructions: 437000001 cycles: 1368186055 heartbeat IPC: 0.361078 cumulative IPC: 0.318799 (Simulation time: 0 hr 57 min 4 sec) 
Heartbeat CPU 0 instructions: 438000001 cycles: 1371387245 heartbeat IPC: 0.312384 cumulative IPC: 0.318784 (Simulation time: 0 hr 57 min 12 sec) 
Heartbeat CPU 0 instructions: 439000003 cycles: 1374863705 heartbeat IPC: 0.28765 cumulative IPC: 0.318705 (Simulation time: 0 hr 57 min 20 sec) 
Heartbeat CPU 0 instructions: 440000000 cycles: 1378096361 heartbeat IPC: 0.309342 cumulative IPC: 0.318683 (Simulation time: 0 hr 57 min 27 sec) 
Heartbeat CPU 0 instructions: 441000000 cycles: 1381274846 heartbeat IPC: 0.314615 cumulative IPC: 0.318674 (Simulation time: 0 hr 57 min 35 sec) 
Heartbeat CPU 0 instructions: 442000000 cycles: 1384494482 heartbeat IPC: 0.310594 cumulative IPC: 0.318655 (Simulation time: 0 hr 57 min 43 sec) 
Heartbeat CPU 0 instructions: 443000003 cycles: 1387659760 heartbeat IPC: 0.315929 cumulative IPC: 0.318649 (Simulation time: 0 hr 57 min 51 sec) 
Heartbeat CPU 0 instructions: 444000001 cycles: 1390802336 heartbeat IPC: 0.31821 cumulative IPC: 0.318648 (Simulation time: 0 hr 57 min 59 sec) 
Heartbeat CPU 0 instructions: 445000001 cycles: 1393782736 heartbeat IPC: 0.335525 cumulative IPC: 0.318684 (Simulation time: 0 hr 58 min 6 sec) 
Heartbeat CPU 0 instructions: 446000000 cycles: 1396980681 heartbeat IPC: 0.312701 cumulative IPC: 0.31867 (Simulation time: 0 hr 58 min 14 sec) 
Heartbeat CPU 0 instructions: 447000001 cycles: 1400241122 heartbeat IPC: 0.306707 cumulative IPC: 0.318643 (Simulation time: 0 hr 58 min 22 sec) 
Heartbeat CPU 0 instructions: 448000000 cycles: 1403399592 heartbeat IPC: 0.316609 cumulative IPC: 0.318638 (Simulation time: 0 hr 58 min 30 sec) 
Heartbeat CPU 0 instructions: 449000001 cycles: 1406493165 heartbeat IPC: 0.323251 cumulative IPC: 0.318648 (Simulation time: 0 hr 58 min 38 sec) 
Heartbeat CPU 0 instructions: 450000002 cycles: 1409603880 heartbeat IPC: 0.32147 cumulative IPC: 0.318654 (Simulation time: 0 hr 58 min 46 sec) 

Warmup complete CPU 0 instructions: 450000002 cycles: 1409603880 (Simulation time: 0 hr 58 min 46 sec) 

Heartbeat CPU 0 instructions: 451000000 cycles: 1412629270 heartbeat IPC: 0.330535 cumulative IPC: 0.330535 (Simulation time: 0 hr 58 min 53 sec) 
Heartbeat CPU 0 instructions: 452000002 cycles: 1415995595 heartbeat IPC: 0.29706 cumulative IPC: 0.312905 (Simulation time: 0 hr 59 min 2 sec) 
Heartbeat CPU 0 instructions: 453000002 cycles: 1419097839 heartbeat IPC: 0.322347 cumulative IPC: 0.31599 (Simulation time: 0 hr 59 min 9 sec) 
Heartbeat CPU 0 instructions: 454000003 cycles: 1422217582 heartbeat IPC: 0.32054 cumulative IPC: 0.317116 (Simulation time: 0 hr 59 min 17 sec) 
Heartbeat CPU 0 instructions: 455000001 cycles: 1425378018 heartbeat IPC: 0.316411 cumulative IPC: 0.316974 (Simulation time: 0 hr 59 min 25 sec) 
Heartbeat CPU 0 instructions: 456000001 cycles: 1428449342 heartbeat IPC: 0.325592 cumulative IPC: 0.318379 (Simulation time: 0 hr 59 min 33 sec) 
Heartbeat CPU 0 instructions: 457000001 cycles: 1431526453 heartbeat IPC: 0.32498 cumulative IPC: 0.319306 (Simulation time: 0 hr 59 min 40 sec) 
Heartbeat CPU 0 instructions: 458000000 cycles: 1434673669 heartbeat IPC: 0.317741 cumulative IPC: 0.319109 (Simulation time: 0 hr 59 min 48 sec) 
Heartbeat CPU 0 instructions: 459000001 cycles: 1437910477 heartbeat IPC: 0.308947 cumulative IPC: 0.317947 (Simulation time: 0 hr 59 min 56 sec) 
Heartbeat CPU 0 instructions: 460000000 cycles: 1441015983 heartbeat IPC: 0.322008 cumulative IPC: 0.318349 (Simulation time: 1 hr 0 min 4 sec) 
Heartbeat CPU 0 instructions: 461000000 cycles: 1444113686 heartbeat IPC: 0.32282 cumulative IPC: 0.31875 (Simulation time: 1 hr 0 min 12 sec) 
Heartbeat CPU 0 instructions: 462000000 cycles: 1447540098 heartbeat IPC: 0.29185 cumulative IPC: 0.31632 (Simulation time: 1 hr 0 min 20 sec) 
Heartbeat CPU 0 instructions: 463000000 cycles: 1450374768 heartbeat IPC: 0.352775 cumulative IPC: 0.318855 (Simulation time: 1 hr 0 min 27 sec) 
Heartbeat CPU 0 instructions: 464000000 cycles: 1453538264 heartbeat IPC: 0.316106 cumulative IPC: 0.318657 (Simulation time: 1 hr 0 min 35 sec) 
Heartbeat CPU 0 instructions: 465000002 cycles: 1456657504 heartbeat IPC: 0.320592 cumulative IPC: 0.318785 (Simulation time: 1 hr 0 min 43 sec) 
Heartbeat CPU 0 instructions: 466000000 cycles: 1459754762 heartbeat IPC: 0.322866 cumulative IPC: 0.319037 (Simulation time: 1 hr 0 min 51 sec) 
Heartbeat CPU 0 instructions: 467000000 cycles: 1462771682 heartbeat IPC: 0.331464 cumulative IPC: 0.319742 (Simulation time: 1 hr 0 min 58 sec) 
Heartbeat CPU 0 instructions: 468000003 cycles: 1466003842 heartbeat IPC: 0.309392 cumulative IPC: 0.319149 (Simulation time: 1 hr 1 min 6 sec) 
Heartbeat CPU 0 instructions: 469000003 cycles: 1469265425 heartbeat IPC: 0.3066 cumulative IPC: 0.318463 (Simulation time: 1 hr 1 min 14 sec) 
Heartbeat CPU 0 instructions: 470000001 cycles: 1472310419 heartbeat IPC: 0.328407 cumulative IPC: 0.318946 (Simulation time: 1 hr 1 min 22 sec) 
Heartbeat CPU 0 instructions: 471000002 cycles: 1475383318 heartbeat IPC: 0.325426 cumulative IPC: 0.319249 (Simulation time: 1 hr 1 min 30 sec) 
Heartbeat CPU 0 instructions: 472000000 cycles: 1478557018 heartbeat IPC: 0.315089 cumulative IPC: 0.319057 (Simulation time: 1 hr 1 min 37 sec) 
Heartbeat CPU 0 instructions: 473000000 cycles: 1481621596 heartbeat IPC: 0.326309 cumulative IPC: 0.319366 (Simulation time: 1 hr 1 min 45 sec) 
Heartbeat CPU 0 instructions: 474000001 cycles: 1484979439 heartbeat IPC: 0.297811 cumulative IPC: 0.318406 (Simulation time: 1 hr 1 min 53 sec) 
Heartbeat CPU 0 instructions: 475000001 cycles: 1487906248 heartbeat IPC: 0.341669 cumulative IPC: 0.319275 (Simulation time: 1 hr 2 min 1 sec) 
Heartbeat CPU 0 instructions: 476000001 cycles: 1491148953 heartbeat IPC: 0.308385 cumulative IPC: 0.318842 (Simulation time: 1 hr 2 min 9 sec) 
Heartbeat CPU 0 instructions: 477000002 cycles: 1494071350 heartbeat IPC: 0.342185 cumulative IPC: 0.31965 (Simulation time: 1 hr 2 min 16 sec) 
Heartbeat CPU 0 instructions: 478000001 cycles: 1497199629 heartbeat IPC: 0.319664 cumulative IPC: 0.31965 (Simulation time: 1 hr 2 min 24 sec) 
Heartbeat CPU 0 instructions: 479000000 cycles: 1500336071 heartbeat IPC: 0.318832 cumulative IPC: 0.319622 (Simulation time: 1 hr 2 min 32 sec) 
Heartbeat CPU 0 instructions: 480000003 cycles: 1503552828 heartbeat IPC: 0.310873 cumulative IPC: 0.319322 (Simulation time: 1 hr 2 min 40 sec) 
Heartbeat CPU 0 instructions: 481000000 cycles: 1506858178 heartbeat IPC: 0.302539 cumulative IPC: 0.318752 (Simulation time: 1 hr 2 min 48 sec) 
Heartbeat CPU 0 instructions: 482000003 cycles: 1510090033 heartbeat IPC: 0.309421 cumulative IPC: 0.318452 (Simulation time: 1 hr 2 min 55 sec) 
Heartbeat CPU 0 instructions: 483000001 cycles: 1513410331 heartbeat IPC: 0.301177 cumulative IPC: 0.317899 (Simulation time: 1 hr 3 min 3 sec) 
Heartbeat CPU 0 instructions: 484000000 cycles: 1516507636 heartbeat IPC: 0.322861 cumulative IPC: 0.318043 (Simulation time: 1 hr 3 min 11 sec) 
Heartbeat CPU 0 instructions: 485000000 cycles: 1519864893 heartbeat IPC: 0.297862 cumulative IPC: 0.317429 (Simulation time: 1 hr 3 min 19 sec) 
Heartbeat CPU 0 instructions: 486000000 cycles: 1523115780 heartbeat IPC: 0.307608 cumulative IPC: 0.317147 (Simulation time: 1 hr 3 min 27 sec) 
Heartbeat CPU 0 instructions: 487000000 cycles: 1526093699 heartbeat IPC: 0.335805 cumulative IPC: 0.317624 (Simulation time: 1 hr 3 min 35 sec) 
Heartbeat CPU 0 instructions: 488000002 cycles: 1529219074 heartbeat IPC: 0.319962 cumulative IPC: 0.317685 (Simulation time: 1 hr 3 min 43 sec) 
Heartbeat CPU 0 instructions: 489000003 cycles: 1532638300 heartbeat IPC: 0.292464 cumulative IPC: 0.316984 (Simulation time: 1 hr 3 min 51 sec) 
Heartbeat CPU 0 instructions: 490000001 cycles: 1536164586 heartbeat IPC: 0.283584 cumulative IPC: 0.316054 (Simulation time: 1 hr 3 min 59 sec) 
Heartbeat CPU 0 instructions: 491000001 cycles: 1538993912 heartbeat IPC: 0.353441 cumulative IPC: 0.316871 (Simulation time: 1 hr 4 min 7 sec) 
Heartbeat CPU 0 instructions: 492000002 cycles: 1542137854 heartbeat IPC: 0.318072 cumulative IPC: 0.3169 (Simulation time: 1 hr 4 min 14 sec) 
Heartbeat CPU 0 instructions: 493000003 cycles: 1545154443 heartbeat IPC: 0.331501 cumulative IPC: 0.317225 (Simulation time: 1 hr 4 min 22 sec) 
Heartbeat CPU 0 instructions: 494000003 cycles: 1548311894 heartbeat IPC: 0.316711 cumulative IPC: 0.317213 (Simulation time: 1 hr 4 min 30 sec) 
Heartbeat CPU 0 instructions: 495000000 cycles: 1551340536 heartbeat IPC: 0.33018 cumulative IPC: 0.31749 (Simulation time: 1 hr 4 min 38 sec) 
Heartbeat CPU 0 instructions: 496000001 cycles: 1554304193 heartbeat IPC: 0.337421 cumulative IPC: 0.317898 (Simulation time: 1 hr 4 min 45 sec) 
Heartbeat CPU 0 instructions: 497000000 cycles: 1557386326 heartbeat IPC: 0.32445 cumulative IPC: 0.318035 (Simulation time: 1 hr 4 min 53 sec) 
Heartbeat CPU 0 instructions: 498000001 cycles: 1560676604 heartbeat IPC: 0.303926 cumulative IPC: 0.317728 (Simulation time: 1 hr 5 min 0 sec) 
Heartbeat CPU 0 instructions: 499000003 cycles: 1563766265 heartbeat IPC: 0.323661 cumulative IPC: 0.317847 (Simulation time: 1 hr 5 min 8 sec) 
Heartbeat CPU 0 instructions: 500000001 cycles: 1566984252 heartbeat IPC: 0.310753 cumulative IPC: 0.317702 (Simulation time: 1 hr 5 min 16 sec) 
Heartbeat CPU 0 instructions: 501000001 cycles: 1570332800 heartbeat IPC: 0.298637 cumulative IPC: 0.317304 (Simulation time: 1 hr 5 min 23 sec) 
Heartbeat CPU 0 instructions: 502000003 cycles: 1573536141 heartbeat IPC: 0.312175 cumulative IPC: 0.317204 (Simulation time: 1 hr 5 min 31 sec) 
Heartbeat CPU 0 instructions: 503000000 cycles: 1576467660 heartbeat IPC: 0.341119 cumulative IPC: 0.317624 (Simulation time: 1 hr 5 min 38 sec) 
Heartbeat CPU 0 instructions: 504000001 cycles: 1579568886 heartbeat IPC: 0.322453 cumulative IPC: 0.317712 (Simulation time: 1 hr 5 min 46 sec) 
Heartbeat CPU 0 instructions: 505000000 cycles: 1582766904 heartbeat IPC: 0.312693 cumulative IPC: 0.31762 (Simulation time: 1 hr 5 min 53 sec) 
Heartbeat CPU 0 instructions: 506000000 cycles: 1586139207 heartbeat IPC: 0.296533 cumulative IPC: 0.317217 (Simulation time: 1 hr 6 min 1 sec) 
Heartbeat CPU 0 instructions: 507000000 cycles: 1589504096 heartbeat IPC: 0.297187 cumulative IPC: 0.316842 (Simulation time: 1 hr 6 min 9 sec) 
Heartbeat CPU 0 instructions: 508000000 cycles: 1592737707 heartbeat IPC: 0.309252 cumulative IPC: 0.316708 (Simulation time: 1 hr 6 min 17 sec) 
Heartbeat CPU 0 instructions: 509000000 cycles: 1595862738 heartbeat IPC: 0.319997 cumulative IPC: 0.316763 (Simulation time: 1 hr 6 min 24 sec) 
Heartbeat CPU 0 instructions: 510000001 cycles: 1598914851 heartbeat IPC: 0.327642 cumulative IPC: 0.316939 (Simulation time: 1 hr 6 min 33 sec) 
Heartbeat CPU 0 instructions: 511000002 cycles: 1602060550 heartbeat IPC: 0.317895 cumulative IPC: 0.316954 (Simulation time: 1 hr 6 min 41 sec) 
Heartbeat CPU 0 instructions: 512000001 cycles: 1605353326 heartbeat IPC: 0.303695 cumulative IPC: 0.316731 (Simulation time: 1 hr 6 min 49 sec) 
Heartbeat CPU 0 instructions: 513000003 cycles: 1608666350 heartbeat IPC: 0.30184 cumulative IPC: 0.316484 (Simulation time: 1 hr 6 min 57 sec) 
Heartbeat CPU 0 instructions: 514000002 cycles: 1611760977 heartbeat IPC: 0.32314 cumulative IPC: 0.316585 (Simulation time: 1 hr 7 min 4 sec) 
Heartbeat CPU 0 instructions: 515000003 cycles: 1614813825 heartbeat IPC: 0.327563 cumulative IPC: 0.316749 (Simulation time: 1 hr 7 min 12 sec) 
Heartbeat CPU 0 instructions: 516000003 cycles: 1617878700 heartbeat IPC: 0.326278 cumulative IPC: 0.316889 (Simulation time: 1 hr 7 min 20 sec) 
Heartbeat CPU 0 instructions: 517000000 cycles: 1621015462 heartbeat IPC: 0.318799 cumulative IPC: 0.316917 (Simulation time: 1 hr 7 min 28 sec) 
Heartbeat CPU 0 instructions: 518000000 cycles: 1624201326 heartbeat IPC: 0.313887 cumulative IPC: 0.316872 (Simulation time: 1 hr 7 min 36 sec) 
Heartbeat CPU 0 instructions: 519000001 cycles: 1627356267 heartbeat IPC: 0.316963 cumulative IPC: 0.316874 (Simulation time: 1 hr 7 min 44 sec) 
Heartbeat CPU 0 instructions: 520000000 cycles: 1630549042 heartbeat IPC: 0.313207 cumulative IPC: 0.316821 (Simulation time: 1 hr 7 min 51 sec) 
Heartbeat CPU 0 instructions: 521000000 cycles: 1633630076 heartbeat IPC: 0.324566 cumulative IPC: 0.316927 (Simulation time: 1 hr 7 min 59 sec) 
Heartbeat CPU 0 instructions: 522000003 cycles: 1636790645 heartbeat IPC: 0.3164 cumulative IPC: 0.31692 (Simulation time: 1 hr 8 min 7 sec) 
Heartbeat CPU 0 instructions: 523000002 cycles: 1639813676 heartbeat IPC: 0.330793 cumulative IPC: 0.317102 (Simulation time: 1 hr 8 min 15 sec) 
Heartbeat CPU 0 instructions: 524000001 cycles: 1642898578 heartbeat IPC: 0.324159 cumulative IPC: 0.317195 (Simulation time: 1 hr 8 min 23 sec) 
Heartbeat CPU 0 instructions: 525000001 cycles: 1645517158 heartbeat IPC: 0.381886 cumulative IPC: 0.317913 (Simulation time: 1 hr 8 min 31 sec) 
Heartbeat CPU 0 instructions: 526000001 cycles: 1648672808 heartbeat IPC: 0.316892 cumulative IPC: 0.3179 (Simulation time: 1 hr 8 min 39 sec) 
Heartbeat CPU 0 instructions: 527000002 cycles: 1651914971 heartbeat IPC: 0.308436 cumulative IPC: 0.317773 (Simulation time: 1 hr 8 min 47 sec) 
Heartbeat CPU 0 instructions: 528000000 cycles: 1655092121 heartbeat IPC: 0.314747 cumulative IPC: 0.317734 (Simulation time: 1 hr 8 min 55 sec) 
Heartbeat CPU 0 instructions: 529000001 cycles: 1658255788 heartbeat IPC: 0.316089 cumulative IPC: 0.317713 (Simulation time: 1 hr 9 min 3 sec) 
Heartbeat CPU 0 instructions: 530000002 cycles: 1661557446 heartbeat IPC: 0.302878 cumulative IPC: 0.317519 (Simulation time: 1 hr 9 min 11 sec) 
Heartbeat CPU 0 instructions: 531000000 cycles: 1664747347 heartbeat IPC: 0.313489 cumulative IPC: 0.317468 (Simulation time: 1 hr 9 min 19 sec) 
Heartbeat CPU 0 instructions: 532000000 cycles: 1667912584 heartbeat IPC: 0.315932 cumulative IPC: 0.31745 (Simulation time: 1 hr 9 min 27 sec) 
Heartbeat CPU 0 instructions: 533000003 cycles: 1671173016 heartbeat IPC: 0.306709 cumulative IPC: 0.317316 (Simulation time: 1 hr 9 min 35 sec) 
Heartbeat CPU 0 instructions: 534000002 cycles: 1674597901 heartbeat IPC: 0.29198 cumulative IPC: 0.316988 (Simulation time: 1 hr 9 min 43 sec) 
Heartbeat CPU 0 instructions: 535000002 cycles: 1677902758 heartbeat IPC: 0.302585 cumulative IPC: 0.316811 (Simulation time: 1 hr 9 min 51 sec) 
Heartbeat CPU 0 instructions: 536000002 cycles: 1681090220 heartbeat IPC: 0.313729 cumulative IPC: 0.316775 (Simulation time: 1 hr 9 min 59 sec) 
Heartbeat CPU 0 instructions: 537000002 cycles: 1684343855 heartbeat IPC: 0.307349 cumulative IPC: 0.316663 (Simulation time: 1 hr 10 min 7 sec) 
Heartbeat CPU 0 instructions: 538000000 cycles: 1687528510 heartbeat IPC: 0.314005 cumulative IPC: 0.316633 (Simulation time: 1 hr 10 min 15 sec) 
Heartbeat CPU 0 instructions: 539000000 cycles: 1690653089 heartbeat IPC: 0.320043 cumulative IPC: 0.316671 (Simulation time: 1 hr 10 min 23 sec) 
Heartbeat CPU 0 instructions: 540000000 cycles: 1693985720 heartbeat IPC: 0.300063 cumulative IPC: 0.316476 (Simulation time: 1 hr 10 min 31 sec) 
Heartbeat CPU 0 instructions: 541000000 cycles: 1697091397 heartbeat IPC: 0.321991 cumulative IPC: 0.316535 (Simulation time: 1 hr 10 min 39 sec) 
Heartbeat CPU 0 instructions: 542000000 cycles: 1700302823 heartbeat IPC: 0.311388 cumulative IPC: 0.316479 (Simulation time: 1 hr 10 min 47 sec) 
Heartbeat CPU 0 instructions: 543000000 cycles: 1703509984 heartbeat IPC: 0.311802 cumulative IPC: 0.316428 (Simulation time: 1 hr 10 min 55 sec) 
Heartbeat CPU 0 instructions: 544000002 cycles: 1706436372 heartbeat IPC: 0.341719 cumulative IPC: 0.316677 (Simulation time: 1 hr 11 min 3 sec) 
Heartbeat CPU 0 instructions: 545000003 cycles: 1709544693 heartbeat IPC: 0.321717 cumulative IPC: 0.316729 (Simulation time: 1 hr 11 min 11 sec) 
[...]
Heartbeat CPU 0 instructions: 835000002 cycles: 2619231895 heartbeat IPC: 0.314789 cumulative IPC: 0.31828 (Simulation time: 1 hr 49 min 54 sec) 
Heartbeat CPU 0 instructions: 836000000 cycles: 2622390923 heartbeat IPC: 0.316552 cumulative IPC: 0.318275 (Simulation time: 1 hr 50 min 3 sec) 
Heartbeat CPU 0 instructions: 837000001 cycles: 2625818354 heartbeat IPC: 0.291764 cumulative IPC: 0.3182 (Simulation time: 1 hr 50 min 11 sec) 
Heartbeat CPU 0 instructions: 838000003 cycles: 2628520542 heartbeat IPC: 0.370071 cumulative IPC: 0.318315 (Simulation time: 1 hr 50 min 18 sec) 
Heartbeat CPU 0 instructions: 839000001 cycles: 2631323341 heartbeat IPC: 0.356785 cumulative IPC: 0.318404 (Simulation time: 1 hr 50 min 26 sec) 
Heartbeat CPU 0 instructions: 840000001 cycles: 2634609380 heartbeat IPC: 0.304318 cumulative IPC: 0.318366 (Simulation time: 1 hr 50 min 34 sec) 
Heartbeat CPU 0 instructions: 841000002 cycles: 2637640359 heartbeat IPC: 0.329927 cumulative IPC: 0.318394 (Simulation time: 1 hr 50 min 42 sec) 
Heartbeat CPU 0 instructions: 842000001 cycles: 2640915254 heartbeat IPC: 0.305353 cumulative IPC: 0.31836 (Simulation time: 1 hr 50 min 50 sec) 
Heartbeat CPU 0 instructions: 843000002 cycles: 2644051078 heartbeat IPC: 0.318896 cumulative IPC: 0.318361 (Simulation time: 1 hr 50 min 58 sec) 
Heartbeat CPU 0 instructions: 844000000 cycles: 2647231819 heartbeat IPC: 0.314392 cumulative IPC: 0.318351 (Simulation time: 1 hr 51 min 6 sec) 
Heartbeat CPU 0 instructions: 845000002 cycles: 2650374618 heartbeat IPC: 0.318188 cumulative IPC: 0.318351 (Simulation time: 1 hr 51 min 14 sec) 
Heartbeat CPU 0 instructions: 846000001 cycles: 2653293744 heartbeat IPC: 0.342568 cumulative IPC: 0.318407 (Simulation time: 1 hr 51 min 22 sec) 
Heartbeat CPU 0 instructions: 847000000 cycles: 2656543369 heartbeat IPC: 0.307728 cumulative IPC: 0.31838 (Simulation time: 1 hr 51 min 30 sec) 
Heartbeat CPU 0 instructions: 848000001 cycles: 2659616052 heartbeat IPC: 0.325449 cumulative IPC: 0.318397 (Simulation time: 1 hr 51 min 38 sec) 
Heartbeat CPU 0 instructions: 849000000 cycles: 2662756352 heartbeat IPC: 0.318441 cumulative IPC: 0.318397 (Simulation time: 1 hr 51 min 46 sec) 
Heartbeat CPU 0 instructions: 850000003 cycles: 2665920052 heartbeat IPC: 0.316087 cumulative IPC: 0.318391 (Simulation time: 1 hr 51 min 53 sec) 
Heartbeat CPU 0 instructions: 851000003 cycles: 2668935484 heartbeat IPC: 0.331627 cumulative IPC: 0.318423 (Simulation time: 1 hr 52 min 1 sec) 
Heartbeat CPU 0 instructions: 852000001 cycles: 2672101866 heartbeat IPC: 0.315817 cumulative IPC: 0.318416 (Simulation time: 1 hr 52 min 9 sec) 
Heartbeat CPU 0 instructions: 853000002 cycles: 2675249871 heartbeat IPC: 0.317662 cumulative IPC: 0.318414 (Simulation time: 1 hr 52 min 17 sec) 
Heartbeat CPU 0 instructions: 854000000 cycles: 2678365847 heartbeat IPC: 0.320926 cumulative IPC: 0.318421 (Simulation time: 1 hr 52 min 25 sec) 
Heartbeat CPU 0 instructions: 855000003 cycles: 2681568336 heartbeat IPC: 0.312258 cumulative IPC: 0.318405 (Simulation time: 1 hr 52 min 33 sec) 
Heartbeat CPU 0 instructions: 856000000 cycles: 2684720964 heartbeat IPC: 0.317195 cumulative IPC: 0.318402 (Simulation time: 1 hr 52 min 41 sec) 
Heartbeat CPU 0 instructions: 857000001 cycles: 2687803633 heartbeat IPC: 0.324395 cumulative IPC: 0.318417 (Simulation time: 1 hr 52 min 49 sec) 
Heartbeat CPU 0 instructions: 858000000 cycles: 2690950487 heartbeat IPC: 0.317777 cumulative IPC: 0.318415 (Simulation time: 1 hr 52 min 57 sec) 
Heartbeat CPU 0 instructions: 859000000 cycles: 2694201036 heartbeat IPC: 0.30764 cumulative IPC: 0.318388 (Simulation time: 1 hr 53 min 4 sec) 
Heartbeat CPU 0 instructions: 860000000 cycles: 2697312178 heartbeat IPC: 0.321425 cumulative IPC: 0.318395 (Simulation time: 1 hr 53 min 12 sec) 
Heartbeat CPU 0 instructions: 861000001 cycles: 2700437952 heartbeat IPC: 0.319921 cumulative IPC: 0.318399 (Simulation time: 1 hr 53 min 20 sec) 
Heartbeat CPU 0 instructions: 862000000 cycles: 2703541474 heartbeat IPC: 0.322214 cumulative IPC: 0.318408 (Simulation time: 1 hr 53 min 28 sec) 
Heartbeat CPU 0 instructions: 863000000 cycles: 2706524550 heartbeat IPC: 0.335224 cumulative IPC: 0.318447 (Simulation time: 1 hr 53 min 37 sec) 
Heartbeat CPU 0 instructions: 864000001 cycles: 2709620262 heartbeat IPC: 0.323028 cumulative IPC: 0.318458 (Simulation time: 1 hr 53 min 45 sec) 
Heartbeat CPU 0 instructions: 865000002 cycles: 2712829061 heartbeat IPC: 0.311643 cumulative IPC: 0.318441 (Simulation time: 1 hr 53 min 54 sec) 
Heartbeat CPU 0 instructions: 866000003 cycles: 2716020672 heartbeat IPC: 0.313322 cumulative IPC: 0.318428 (Simulation time: 1 hr 54 min 2 sec) 
Heartbeat CPU 0 instructions: 867000003 cycles: 2718937348 heartbeat IPC: 0.342856 cumulative IPC: 0.318483 (Simulation time: 1 hr 54 min 9 sec) 
Heartbeat CPU 0 instructions: 868000000 cycles: 2722066377 heartbeat IPC: 0.319587 cumulative IPC: 0.318485 (Simulation time: 1 hr 54 min 17 sec) 
Heartbeat CPU 0 instructions: 869000000 cycles: 2725232585 heartbeat IPC: 0.315835 cumulative IPC: 0.318479 (Simulation time: 1 hr 54 min 25 sec) 
Heartbeat CPU 0 instructions: 870000001 cycles: 2728326401 heartbeat IPC: 0.323226 cumulative IPC: 0.31849 (Simulation time: 1 hr 54 min 33 sec) 
Heartbeat CPU 0 instructions: 871000001 cycles: 2731481164 heartbeat IPC: 0.316981 cumulative IPC: 0.318486 (Simulation time: 1 hr 54 min 41 sec) 
Heartbeat CPU 0 instructions: 872000000 cycles: 2734516035 heartbeat IPC: 0.329503 cumulative IPC: 0.318512 (Simulation time: 1 hr 54 min 48 sec) 
Heartbeat CPU 0 instructions: 873000003 cycles: 2737676146 heartbeat IPC: 0.316446 cumulative IPC: 0.318507 (Simulation time: 1 hr 54 min 56 sec) 
Heartbeat CPU 0 instructions: 874000000 cycles: 2740771459 heartbeat IPC: 0.323068 cumulative IPC: 0.318517 (Simulation time: 1 hr 55 min 4 sec) 
Heartbeat CPU 0 instructions: 875000003 cycles: 2744061640 heartbeat IPC: 0.303936 cumulative IPC: 0.318481 (Simulation time: 1 hr 55 min 12 sec) 
Heartbeat CPU 0 instructions: 876000003 cycles: 2747187772 heartbeat IPC: 0.319884 cumulative IPC: 0.318485 (Simulation time: 1 hr 55 min 20 sec) 
Heartbeat CPU 0 instructions: 877000002 cycles: 2750283473 heartbeat IPC: 0.323028 cumulative IPC: 0.318495 (Simulation time: 1 hr 55 min 28 sec) 
Heartbeat CPU 0 instructions: 878000000 cycles: 2753416294 heartbeat IPC: 0.3192 cumulative IPC: 0.318497 (Simulation time: 1 hr 55 min 36 sec) 
Heartbeat CPU 0 instructions: 879000000 cycles: 2756484793 heartbeat IPC: 0.325892 cumulative IPC: 0.318514 (Simulation time: 1 hr 55 min 44 sec) 
Heartbeat CPU 0 instructions: 880000000 cycles: 2759701379 heartbeat IPC: 0.310889 cumulative IPC: 0.318496 (Simulation time: 1 hr 55 min 52 sec) 
Heartbeat CPU 0 instructions: 881000002 cycles: 2762804361 heartbeat IPC: 0.322271 cumulative IPC: 0.318504 (Simulation time: 1 hr 56 min 0 sec) 
Heartbeat CPU 0 instructions: 882000000 cycles: 2765990352 heartbeat IPC: 0.313873 cumulative IPC: 0.318493 (Simulation time: 1 hr 56 min 8 sec) 
Heartbeat CPU 0 instructions: 883000001 cycles: 2769130563 heartbeat IPC: 0.31845 cumulative IPC: 0.318493 (Simulation time: 1 hr 56 min 16 sec) 
Heartbeat CPU 0 instructions: 884000000 cycles: 2772252540 heartbeat IPC: 0.32031 cumulative IPC: 0.318497 (Simulation time: 1 hr 56 min 23 sec) 
Heartbeat CPU 0 instructions: 885000000 cycles: 2775147722 heartbeat IPC: 0.345401 cumulative IPC: 0.318554 (Simulation time: 1 hr 56 min 31 sec) 
Heartbeat CPU 0 instructions: 886000000 cycles: 2778209192 heartbeat IPC: 0.32664 cumulative IPC: 0.318572 (Simulation time: 1 hr 56 min 39 sec) 
Heartbeat CPU 0 instructions: 887000002 cycles: 2781282193 heartbeat IPC: 0.325415 cumulative IPC: 0.318588 (Simulation time: 1 hr 56 min 47 sec) 
Heartbeat CPU 0 instructions: 888000001 cycles: 2784326521 heartbeat IPC: 0.328479 cumulative IPC: 0.31861 (Simulation time: 1 hr 56 min 55 sec) 
Heartbeat CPU 0 instructions: 889000000 cycles: 2787811852 heartbeat IPC: 0.286916 cumulative IPC: 0.31853 (Simulation time: 1 hr 57 min 3 sec) 
Heartbeat CPU 0 instructions: 890000000 cycles: 2790822680 heartbeat IPC: 0.332135 cumulative IPC: 0.318559 (Simulation time: 1 hr 57 min 11 sec) 
Heartbeat CPU 0 instructions: 891000000 cycles: 2793843996 heartbeat IPC: 0.330982 cumulative IPC: 0.318586 (Simulation time: 1 hr 57 min 19 sec) 
Heartbeat CPU 0 instructions: 892000000 cycles: 2796753971 heartbeat IPC: 0.343646 cumulative IPC: 0.318639 (Simulation time: 1 hr 57 min 26 sec) 
Heartbeat CPU 0 instructions: 893000001 cycles: 2799793292 heartbeat IPC: 0.329021 cumulative IPC: 0.318662 (Simulation time: 1 hr 57 min 34 sec) 
Heartbeat CPU 0 instructions: 894000000 cycles: 2802939005 heartbeat IPC: 0.317893 cumulative IPC: 0.31866 (Simulation time: 1 hr 57 min 42 sec) 
Heartbeat CPU 0 instructions: 895000000 cycles: 2805966563 heartbeat IPC: 0.330299 cumulative IPC: 0.318685 (Simulation time: 1 hr 57 min 50 sec) 
Heartbeat CPU 0 instructions: 896000002 cycles: 2809067287 heartbeat IPC: 0.322506 cumulative IPC: 0.318694 (Simulation time: 1 hr 57 min 58 sec) 
Heartbeat CPU 0 instructions: 897000000 cycles: 2811973086 heartbeat IPC: 0.344139 cumulative IPC: 0.318746 (Simulation time: 1 hr 58 min 6 sec) 
Heartbeat CPU 0 instructions: 898000000 cycles: 2815049811 heartbeat IPC: 0.325021 cumulative IPC: 0.31876 (Simulation time: 1 hr 58 min 14 sec) 
Heartbeat CPU 0 instructions: 899000002 cycles: 2818162008 heartbeat IPC: 0.321317 cumulative IPC: 0.318766 (Simulation time: 1 hr 58 min 21 sec) 
Heartbeat CPU 0 instructions: 900000000 cycles: 2821080715 heartbeat IPC: 0.342617 cumulative IPC: 0.318815 (Simulation time: 1 hr 58 min 29 sec) 
Heartbeat CPU 0 instructions: 901000000 cycles: 2824361050 heartbeat IPC: 0.304847 cumulative IPC: 0.318783 (Simulation time: 1 hr 58 min 37 sec) 
Heartbeat CPU 0 instructions: 902000000 cycles: 2827497141 heartbeat IPC: 0.318868 cumulative IPC: 0.318783 (Simulation time: 1 hr 58 min 45 sec) 
Heartbeat CPU 0 instructions: 903000003 cycles: 2830480711 heartbeat IPC: 0.33517 cumulative IPC: 0.318817 (Simulation time: 1 hr 58 min 53 sec) 
Heartbeat CPU 0 instructions: 904000001 cycles: 2833357711 heartbeat IPC: 0.347584 cumulative IPC: 0.318875 (Simulation time: 1 hr 59 min 1 sec) 
Heartbeat CPU 0 instructions: 905000002 cycles: 2836499271 heartbeat IPC: 0.318314 cumulative IPC: 0.318874 (Simulation time: 1 hr 59 min 9 sec) 
Heartbeat CPU 0 instructions: 906000000 cycles: 2839579341 heartbeat IPC: 0.324667 cumulative IPC: 0.318887 (Simulation time: 1 hr 59 min 17 sec) 
Heartbeat CPU 0 instructions: 907000001 cycles: 2842728228 heartbeat IPC: 0.317573 cumulative IPC: 0.318884 (Simulation time: 1 hr 59 min 25 sec) 
Heartbeat CPU 0 instructions: 908000000 cycles: 2845943684 heartbeat IPC: 0.310998 cumulative IPC: 0.318866 (Simulation time: 1 hr 59 min 33 sec) 
Heartbeat CPU 0 instructions: 909000001 cycles: 2848964421 heartbeat IPC: 0.331045 cumulative IPC: 0.318892 (Simulation time: 1 hr 59 min 41 sec) 
Heartbeat CPU 0 instructions: 910000000 cycles: 2852155101 heartbeat IPC: 0.313412 cumulative IPC: 0.318879 (Simulation time: 1 hr 59 min 49 sec) 
Heartbeat CPU 0 instructions: 911000000 cycles: 2855466480 heartbeat IPC: 0.301989 cumulative IPC: 0.318841 (Simulation time: 1 hr 59 min 57 sec) 
Heartbeat CPU 0 instructions: 912000000 cycles: 2858528455 heartbeat IPC: 0.326587 cumulative IPC: 0.318857 (Simulation time: 2 hr 0 min 5 sec) 
Heartbeat CPU 0 instructions: 913000000 cycles: 2861811349 heartbeat IPC: 0.304609 cumulative IPC: 0.318825 (Simulation time: 2 hr 0 min 13 sec) 
Heartbeat CPU 0 instructions: 914000001 cycles: 2864800163 heartbeat IPC: 0.334581 cumulative IPC: 0.318857 (Simulation time: 2 hr 0 min 21 sec) 
Heartbeat CPU 0 instructions: 915000001 cycles: 2867973484 heartbeat IPC: 0.315127 cumulative IPC: 0.318849 (Simulation time: 2 hr 0 min 29 sec) 
Heartbeat CPU 0 instructions: 916000001 cycles: 2870870116 heartbeat IPC: 0.345229 cumulative IPC: 0.318902 (Simulation time: 2 hr 0 min 36 sec) 
Heartbeat CPU 0 instructions: 917000003 cycles: 2874120903 heartbeat IPC: 0.307618 cumulative IPC: 0.318876 (Simulation time: 2 hr 0 min 45 sec) 
Heartbeat CPU 0 instructions: 918000000 cycles: 2877085617 heartbeat IPC: 0.3373 cumulative IPC: 0.318914 (Simulation time: 2 hr 0 min 52 sec) 
Heartbeat CPU 0 instructions: 919000000 cycles: 2880478118 heartbeat IPC: 0.294768 cumulative IPC: 0.318858 (Simulation time: 2 hr 1 min 0 sec) 
Heartbeat CPU 0 instructions: 920000001 cycles: 2883575889 heartbeat IPC: 0.322813 cumulative IPC: 0.318866 (Simulation time: 2 hr 1 min 8 sec) 
Heartbeat CPU 0 instructions: 921000001 cycles: 2886833022 heartbeat IPC: 0.307018 cumulative IPC: 0.31884 (Simulation time: 2 hr 1 min 17 sec) 
Heartbeat CPU 0 instructions: 922000002 cycles: 2889457453 heartbeat IPC: 0.381035 cumulative IPC: 0.31895 (Simulation time: 2 hr 1 min 25 sec) 
Heartbeat CPU 0 instructions: 923000003 cycles: 2891766421 heartbeat IPC: 0.433094 cumulative IPC: 0.319128 (Simulation time: 2 hr 1 min 33 sec) 
Heartbeat CPU 0 instructions: 924000000 cycles: 2895009483 heartbeat IPC: 0.30835 cumulative IPC: 0.319105 (Simulation time: 2 hr 1 min 41 sec) 
Heartbeat CPU 0 instructions: 925000001 cycles: 2898179957 heartbeat IPC: 0.315411 cumulative IPC: 0.319097 (Simulation time: 2 hr 1 min 49 sec) 
Heartbeat CPU 0 instructions: 926000000 cycles: 2901290153 heartbeat IPC: 0.321523 cumulative IPC: 0.319102 (Simulation time: 2 hr 1 min 57 sec) 
Heartbeat CPU 0 instructions: 927000003 cycles: 2904349047 heartbeat IPC: 0.326917 cumulative IPC: 0.319118 (Simulation time: 2 hr 2 min 4 sec) 
Heartbeat CPU 0 instructions: 928000003 cycles: 2907530604 heartbeat IPC: 0.314312 cumulative IPC: 0.319108 (Simulation time: 2 hr 2 min 12 sec) 
Heartbeat CPU 0 instructions: 929000003 cycles: 2910578532 heartbeat IPC: 0.328092 cumulative IPC: 0.319126 (Simulation time: 2 hr 2 min 20 sec) 
Heartbeat CPU 0 instructions: 930000000 cycles: 2914028599 heartbeat IPC: 0.289849 cumulative IPC: 0.319059 (Simulation time: 2 hr 2 min 28 sec) 
Heartbeat CPU 0 instructions: 931000001 cycles: 2916845165 heartbeat IPC: 0.355043 cumulative IPC: 0.319126 (Simulation time: 2 hr 2 min 35 sec) 
Heartbeat CPU 0 instructions: 932000003 cycles: 2919883417 heartbeat IPC: 0.329137 cumulative IPC: 0.319146 (Simulation time: 2 hr 2 min 43 sec) 
Heartbeat CPU 0 instructions: 933000000 cycles: 2923105384 heartbeat IPC: 0.310368 cumulative IPC: 0.319128 (Simulation time: 2 hr 2 min 51 sec) 
Heartbeat CPU 0 instructions: 934000001 cycles: 2925984669 heartbeat IPC: 0.347309 cumulative IPC: 0.319181 (Simulation time: 2 hr 2 min 59 sec) 
Heartbeat CPU 0 instructions: 935000000 cycles: 2928914185 heartbeat IPC: 0.341353 cumulative IPC: 0.319224 (Simulation time: 2 hr 3 min 7 sec) 
Heartbeat CPU 0 instructions: 936000001 cycles: 2932032344 heartbeat IPC: 0.320702 cumulative IPC: 0.319227 (Simulation time: 2 hr 3 min 15 sec) 
Heartbeat CPU 0 instructions: 937000001 cycles: 2935155248 heartbeat IPC: 0.320215 cumulative IPC: 0.319229 (Simulation time: 2 hr 3 min 22 sec) 
Heartbeat CPU 0 instructions: 938000001 cycles: 2938285269 heartbeat IPC: 0.319487 cumulative IPC: 0.319229 (Simulation time: 2 hr 3 min 31 sec) 
Heartbeat CPU 0 instructions: 939000003 cycles: 2941512462 heartbeat IPC: 0.309867 cumulative IPC: 0.31921 (Simulation time: 2 hr 3 min 39 sec) 
Heartbeat CPU 0 instructions: 940000000 cycles: 2944548033 heartbeat IPC: 0.329426 cumulative IPC: 0.31923 (Simulation time: 2 hr 3 min 47 sec) 
Heartbeat CPU 0 instructions: 941000001 cycles: 2947646518 heartbeat IPC: 0.322739 cumulative IPC: 0.319237 (Simulation time: 2 hr 3 min 55 sec) 
Heartbeat CPU 0 instructions: 942000002 cycles: 2950649065 heartbeat IPC: 0.333051 cumulative IPC: 0.319264 (Simulation time: 2 hr 4 min 2 sec) 
Heartbeat CPU 0 instructions: 943000002 cycles: 2953687550 heartbeat IPC: 0.329111 cumulative IPC: 0.319283 (Simulation time: 2 hr 4 min 10 sec) 
Heartbeat CPU 0 instructions: 944000001 cycles: 2956924134 heartbeat IPC: 0.308967 cumulative IPC: 0.319262 (Simulation time: 2 hr 4 min 18 sec) 
Heartbeat CPU 0 instructions: 945000001 cycles: 2959979512 heartbeat IPC: 0.327292 cumulative IPC: 0.319277 (Simulation time: 2 hr 4 min 26 sec) 
Heartbeat CPU 0 instructions: 946000000 cycles: 2963256458 heartbeat IPC: 0.305162 cumulative IPC: 0.319248 (Simulation time: 2 hr 4 min 34 sec) 
Heartbeat CPU 0 instructions: 947000000 cycles: 2966211783 heartbeat IPC: 0.338372 cumulative IPC: 0.319284 (Simulation time: 2 hr 4 min 42 sec) 
Heartbeat CPU 0 instructions: 948000001 cycles: 2969242623 heartbeat IPC: 0.329942 cumulative IPC: 0.319305 (Simulation time: 2 hr 4 min 50 sec) 
Heartbeat CPU 0 instructions: 949000000 cycles: 2972222787 heartbeat IPC: 0.335552 cumulative IPC: 0.319336 (Simulation time: 2 hr 4 min 58 sec) 
Heartbeat CPU 0 instructions: 950000001 cycles: 2975622950 heartbeat IPC: 0.294104 cumulative IPC: 0.319281 (Simulation time: 2 hr 5 min 6 sec) 
Finished CPU 0 instructions: 500000002 cycles: 1566019075 cumulative IPC: 0.319281 (Simulation time: 2 hr 5 min 6 sec) 

ChampSim completed all CPUs

Region of Interest Statistics

CPU 0 cumulative IPC: 0.319281 instructions: 500000002 cycles: 1566019075
L1D TOTAL     ACCESS:  208081276  HIT:  198945654  MISS:    9135622
L1D LOAD      ACCESS:  119355975  HIT:  111366190  MISS:    7989785
L1D RFO       ACCESS:   88725301  HIT:   87579464  MISS:    1145837
L1D PREFETCH  ACCESS:          0  HIT:          0  MISS:          0
L1D WRITEBACK ACCESS:          0  HIT:          0  MISS:          0
L1D PREFETCH  REQUESTED:          0  ISSUED:          0  USEFUL:          0  USELESS:          0
L1D AVERAGE MISS LATENCY: 178.442 cycles
L1I TOTAL     ACCESS:  111771856  HIT:  111751659  MISS:      20197
L1I LOAD      ACCESS:  111771856  HIT:  111751659  MISS:      20197
L1I RFO       ACCESS:          0  HIT:          0  MISS:          0
L1I PREFETCH  ACCESS:          0  HIT:          0  MISS:          0
L1I WRITEBACK ACCESS:          0  HIT:          0  MISS:          0
L1I PREFETCH  REQUESTED:          0  ISSUED:          0  USEFUL:          0  USELESS:          0
L1I AVERAGE MISS LATENCY: 53.7393 cycles
L2C TOTAL     ACCESS:   13617220  HIT:    6803787  MISS:    6813433
L2C LOAD      ACCESS:    8009655  HIT:    2115051  MISS:    5894604
L2C RFO       ACCESS:    1145734  HIT:     234453  MISS:     911281
L2C PREFETCH  ACCESS:          0  HIT:          0  MISS:          0
L2C WRITEBACK ACCESS:    4461831  HIT:    4454283  MISS:       7548
L2C PREFETCH  REQUESTED:          0  ISSUED:          0  USEFUL:          0  USELESS:          0
L2C AVERAGE MISS LATENCY: 211.859 cycles
LLC TOTAL     ACCESS:   10999091  HIT:    5231094  MISS:    5767997
LLC LOAD      ACCESS:    5894594  HIT:    1383319  MISS:    4511275
LLC RFO       ACCESS:     911281  HIT:     352865  MISS:     558416
LLC PREFETCH  ACCESS:     842292  HIT:     161150  MISS:     681142
LLC WRITEBACK ACCESS:    3350924  HIT:    3333760  MISS:      17164
LLC PREFETCH  REQUESTED:     910886  ISSUED:     910521  USEFUL:     171129  USELESS:     507122
LLC AVERAGE MISS LATENCY: 238.48 cycles
Major fault: 0 Minor fault: 55388

DRAM Statistics
 CHANNEL 0
 RQ ROW_BUFFER_HIT:     444191  ROW_BUFFER_MISS:    2434257
 DBUS_CONGESTED:    2447227
 WQ ROW_BUFFER_HIT:     415307  ROW_BUFFER_MISS:     817563  FULL:          0

 CHANNEL 1
 RQ ROW_BUFFER_HIT:     445238  ROW_BUFFER_MISS:    2427127
 DBUS_CONGESTED:    2447227
 WQ ROW_BUFFER_HIT:     415021  ROW_BUFFER_MISS:     814035  FULL:          0

 AVG_CONGESTED_CYCLE: 17

CPU 0 Branch Prediction Accuracy: 98.1905% MPKI: 3.8015 Average ROB Occupancy at Mispredict: 101.074

Branch types
NOT_BRANCH: 394959451 78.9919%
BRANCH_DIRECT_JUMP: 5880861 1.17617%
BRANCH_INDIRECT: 1691863 0.338373%
BRANCH_CONDITIONAL: 67075907 13.4152%
BRANCH_DIRECT_CALL: 9244787 1.84896%
BRANCH_INDIRECT_CALL: 5951326 1.19027%
BRANCH_RETURN: 15196113 3.03922%
BRANCH_OTHER: 0 0%

