
*** ChampSim Multicore Out-of-Order Simulator ***

Warmup Instructions: 1000000
Prefetch Warmup Instructions: 450000000
Simulation Instructions: 500000000
Stat Printing Period: 1000000
Number of CPUs: 1
LLC sets: 2048
LLC ways: 16
Off-chip DRAM Size: 32768 MB Channels: 2 Width: 64-bit Data Rate: 1024 MT/s

CPU 0 runs /scratch/cluster/cmolder/ML-DPC/ChampSimTraces/spec17/620.omnetpp-s0.trace.xz
Read seed: 216
Heartbeat CPU 0 instructions: 1000001 cycles: 553794 heartbeat IPC: 1.80573 cumulative IPC: 1.80573 (Simulation time: 0 hr 0 min 5 sec) 

Warmup complete CPU 0 instructions: 1000001 cycles: 553794 (Simulation time: 0 hr 0 min 5 sec) 

Heartbeat CPU 0 instructions: 2000000 cycles: 3430397 heartbeat IPC: 0.347632 cumulative IPC: 0.347632 (Simulation time: 0 hr 0 min 11 sec) 
Heartbeat CPU 0 instructions: 3000002 cycles: 6142379 heartbeat IPC: 0.368735 cumulative IPC: 0.357873 (Simulation time: 0 hr 0 min 17 sec) 
Heartbeat CPU 0 instructions: 4000003 cycles: 9227645 heartbeat IPC: 0.324121 cumulative IPC: 0.345867 (Simulation time: 0 hr 0 min 23 sec) 
Heartbeat CPU 0 instructions: 5000002 cycles: 12278668 heartbeat IPC: 0.327759 cumulative IPC: 0.341155 (Simulation time: 0 hr 0 min 30 sec) 
Heartbeat CPU 0 instructions: 6000001 cycles: 15164212 heartbeat IPC: 0.346555 cumulative IPC: 0.342222 (Simulation time: 0 hr 0 min 36 sec) 
Heartbeat CPU 0 instructions: 7000003 cycles: 18096593 heartbeat IPC: 0.34102 cumulative IPC: 0.342021 (Simulation time: 0 hr 0 min 42 sec) 
Heartbeat CPU 0 instructions: 8000002 cycles: 20810056 heartbeat IPC: 0.368532 cumulative IPC: 0.345572 (Simulation time: 0 hr 0 min 48 sec) 
Heartbeat CPU 0 instructions: 9000000 cycles: 23771205 heartbeat IPC: 0.337706 cumulative IPC: 0.344569 (Simulation time: 0 hr 0 min 54 sec) 
Heartbeat CPU 0 instructions: 10000001 cycles: 26814683 heartbeat IPC: 0.328572 cumulative IPC: 0.342715 (Simulation time: 0 hr 1 min 0 sec) 
Heartbeat CPU 0 instructions: 11000000 cycles: 29846041 heartbeat IPC: 0.329885 cumulative IPC: 0.341387 (Simulation time: 0 hr 1 min 6 sec) 
Heartbeat CPU 0 instructions: 12000002 cycles: 32986322 heartbeat IPC: 0.318443 cumulative IPC: 0.339166 (Simulation time: 0 hr 1 min 12 sec) 
Heartbeat CPU 0 instructions: 13000001 cycles: 35860113 heartbeat IPC: 0.347972 cumulative IPC: 0.339882 (Simulation time: 0 hr 1 min 18 sec) 
Heartbeat CPU 0 instructions: 14000003 cycles: 39050724 heartbeat IPC: 0.31342 cumulative IPC: 0.337689 (Simulation time: 0 hr 1 min 25 sec) 
Heartbeat CPU 0 instructions: 15000001 cycles: 42124586 heartbeat IPC: 0.325323 cumulative IPC: 0.336775 (Simulation time: 0 hr 1 min 31 sec) 
Heartbeat CPU 0 instructions: 16000002 cycles: 45221827 heartbeat IPC: 0.322868 cumulative IPC: 0.335811 (Simulation time: 0 hr 1 min 37 sec) 
Heartbeat CPU 0 instructions: 17000001 cycles: 48169534 heartbeat IPC: 0.339246 cumulative IPC: 0.336023 (Simulation time: 0 hr 1 min 43 sec) 
Heartbeat CPU 0 instructions: 18000003 cycles: 51257712 heartbeat IPC: 0.323816 cumulative IPC: 0.33528 (Simulation time: 0 hr 1 min 49 sec) 
Heartbeat CPU 0 instructions: 19000000 cycles: 54622872 heartbeat IPC: 0.297162 cumulative IPC: 0.332907 (Simulation time: 0 hr 1 min 56 sec) 
Heartbeat CPU 0 instructions: 20000003 cycles: 57809503 heartbeat IPC: 0.313812 cumulative IPC: 0.331845 (Simulation time: 0 hr 2 min 2 sec) 
Heartbeat CPU 0 instructions: 21000000 cycles: 61084165 heartbeat IPC: 0.305374 cumulative IPC: 0.330413 (Simulation time: 0 hr 2 min 8 sec) 
Heartbeat CPU 0 instructions: 22000000 cycles: 64075369 heartbeat IPC: 0.334314 cumulative IPC: 0.330596 (Simulation time: 0 hr 2 min 14 sec) 
Heartbeat CPU 0 instructions: 23000003 cycles: 67177920 heartbeat IPC: 0.322316 cumulative IPC: 0.330211 (Simulation time: 0 hr 2 min 20 sec) 
Heartbeat CPU 0 instructions: 24000000 cycles: 70268300 heartbeat IPC: 0.323584 cumulative IPC: 0.329917 (Simulation time: 0 hr 2 min 27 sec) 
Heartbeat CPU 0 instructions: 25000000 cycles: 73493621 heartbeat IPC: 0.310047 cumulative IPC: 0.329038 (Simulation time: 0 hr 2 min 33 sec) 
Heartbeat CPU 0 instructions: 26000003 cycles: 76603112 heartbeat IPC: 0.321597 cumulative IPC: 0.328734 (Simulation time: 0 hr 2 min 39 sec) 
Heartbeat CPU 0 instructions: 27000001 cycles: 79798381 heartbeat IPC: 0.312962 cumulative IPC: 0.328098 (Simulation time: 0 hr 2 min 45 sec) 
Heartbeat CPU 0 instructions: 28000003 cycles: 82653757 heartbeat IPC: 0.350217 cumulative IPC: 0.328867 (Simulation time: 0 hr 2 min 52 sec) 
Heartbeat CPU 0 instructions: 29000000 cycles: 85932693 heartbeat IPC: 0.304976 cumulative IPC: 0.32795 (Simulation time: 0 hr 2 min 58 sec) 
Heartbeat CPU 0 instructions: 30000000 cycles: 88882770 heartbeat IPC: 0.338974 cumulative IPC: 0.328318 (Simulation time: 0 hr 3 min 4 sec) 
Heartbeat CPU 0 instructions: 31000000 cycles: 91908346 heartbeat IPC: 0.330516 cumulative IPC: 0.328391 (Simulation time: 0 hr 3 min 10 sec) 
Heartbeat CPU 0 instructions: 32000003 cycles: 95567044 heartbeat IPC: 0.273322 cumulative IPC: 0.32627 (Simulation time: 0 hr 3 min 17 sec) 
Heartbeat CPU 0 instructions: 33000000 cycles: 98631532 heartbeat IPC: 0.326318 cumulative IPC: 0.326272 (Simulation time: 0 hr 3 min 24 sec) 
Heartbeat CPU 0 instructions: 34000000 cycles: 101996030 heartbeat IPC: 0.297221 cumulative IPC: 0.325308 (Simulation time: 0 hr 3 min 30 sec) 
Heartbeat CPU 0 instructions: 35000003 cycles: 105125463 heartbeat IPC: 0.319548 cumulative IPC: 0.325136 (Simulation time: 0 hr 3 min 36 sec) 
Heartbeat CPU 0 instructions: 36000003 cycles: 108098224 heartbeat IPC: 0.336388 cumulative IPC: 0.325447 (Simulation time: 0 hr 3 min 43 sec) 
Heartbeat CPU 0 instructions: 37000003 cycles: 111201312 heartbeat IPC: 0.32226 cumulative IPC: 0.325358 (Simulation time: 0 hr 3 min 49 sec) 
Heartbeat CPU 0 instructions: 38000000 cycles: 114258539 heartbeat IPC: 0.327093 cumulative IPC: 0.325404 (Simulation time: 0 hr 3 min 55 sec) 
Heartbeat CPU 0 instructions: 39000000 cycles: 117441272 heartbeat IPC: 0.314195 cumulative IPC: 0.325099 (Simulation time: 0 hr 4 min 1 sec) 
Heartbeat CPU 0 instructions: 40000002 cycles: 120848156 heartbeat IPC: 0.293524 cumulative IPC: 0.324205 (Simulation time: 0 hr 4 min 8 sec) 
Heartbeat CPU 0 instructions: 41000003 cycles: 123837140 heartbeat IPC: 0.334562 cumulative IPC: 0.324456 (Simulation time: 0 hr 4 min 14 sec) 
Heartbeat CPU 0 instructions: 42000000 cycles: 127272132 heartbeat IPC: 0.291121 cumulative IPC: 0.323552 (Simulation time: 0 hr 4 min 21 sec) 
Heartbeat CPU 0 instructions: 43000000 cycles: 130273993 heartbeat IPC: 0.333127 cumulative IPC: 0.323774 (Simulation time: 0 hr 4 min 27 sec) 
Heartbeat CPU 0 instructions: 44000000 cycles: 133391714 heartbeat IPC: 0.320747 cumulative IPC: 0.323703 (Simulation time: 0 hr 4 min 33 sec) 
Heartbeat CPU 0 instructions: 45000003 cycles: 136727042 heartbeat IPC: 0.299821 cumulative IPC: 0.323118 (Simulation time: 0 hr 4 min 40 sec) 
Heartbeat CPU 0 instructions: 46000002 cycles: 139831436 heartbeat IPC: 0.322124 cumulative IPC: 0.323096 (Simulation time: 0 hr 4 min 46 sec) 
Heartbeat CPU 0 instructions: 47000000 cycles: 142837746 heartbeat IPC: 0.332633 cumulative IPC: 0.323297 (Simulation time: 0 hr 4 min 52 sec) 
Heartbeat CPU 0 instructions: 48000000 cycles: 145859915 heartbeat IPC: 0.330888 cumulative IPC: 0.323455 (Simulation time: 0 hr 4 min 59 sec) 
Heartbeat CPU 0 instructions: 49000000 cycles: 149191581 heartbeat IPC: 0.30015 cumulative IPC: 0.322933 (Simulation time: 0 hr 5 min 5 sec) 
Heartbeat CPU 0 instructions: 50000003 cycles: 152884327 heartbeat IPC: 0.270802 cumulative IPC: 0.321669 (Simulation time: 0 hr 5 min 12 sec) 
Heartbeat CPU 0 instructions: 51000001 cycles: 155801960 heartbeat IPC: 0.342743 cumulative IPC: 0.322065 (Simulation time: 0 hr 5 min 18 sec) 
Heartbeat CPU 0 instructions: 52000000 cycles: 158938716 heartbeat IPC: 0.3188 cumulative IPC: 0.322 (Simulation time: 0 hr 5 min 25 sec) 
Heartbeat CPU 0 instructions: 53000001 cycles: 162142962 heartbeat IPC: 0.312086 cumulative IPC: 0.321804 (Simulation time: 0 hr 5 min 31 sec) 
Heartbeat CPU 0 instructions: 54000003 cycles: 164690414 heartbeat IPC: 0.39255 cumulative IPC: 0.322902 (Simulation time: 0 hr 5 min 37 sec) 
Heartbeat CPU 0 instructions: 55000000 cycles: 167885910 heartbeat IPC: 0.31294 cumulative IPC: 0.322711 (Simulation time: 0 hr 5 min 44 sec) 
Heartbeat CPU 0 instructions: 56000000 cycles: 171239223 heartbeat IPC: 0.298213 cumulative IPC: 0.32223 (Simulation time: 0 hr 5 min 50 sec) 
Heartbeat CPU 0 instructions: 57000000 cycles: 174408869 heartbeat IPC: 0.315493 cumulative IPC: 0.322107 (Simulation time: 0 hr 5 min 56 sec) 
Heartbeat CPU 0 instructions: 58000003 cycles: 177517612 heartbeat IPC: 0.321674 cumulative IPC: 0.3221 (Simulation time: 0 hr 6 min 2 sec) 
Heartbeat CPU 0 instructions: 59000003 cycles: 180790899 heartbeat IPC: 0.305503 cumulative IPC: 0.321798 (Simulation time: 0 hr 6 min 9 sec) 
Heartbeat CPU 0 instructions: 60000001 cycles: 183967815 heartbeat IPC: 0.31477 cumulative IPC: 0.321677 (Simulation time: 0 hr 6 min 15 sec) 
Heartbeat CPU 0 instructions: 61000001 cycles: 187262012 heartbeat IPC: 0.303564 cumulative IPC: 0.321357 (Simulation time: 0 hr 6 min 22 sec) 
Heartbeat CPU 0 instructions: 62000001 cycles: 190477240 heartbeat IPC: 0.31102 cumulative IPC: 0.321182 (Simulation time: 0 hr 6 min 28 sec) 
Heartbeat CPU 0 instructions: 63000000 cycles: 193657516 heartbeat IPC: 0.314438 cumulative IPC: 0.321071 (Simulation time: 0 hr 6 min 35 sec) 
Heartbeat CPU 0 instructions: 64000000 cycles: 196681922 heartbeat IPC: 0.330643 cumulative IPC: 0.321219 (Simulation time: 0 hr 6 min 41 sec) 
Heartbeat CPU 0 instructions: 65000000 cycles: 199968235 heartbeat IPC: 0.304292 cumulative IPC: 0.32094 (Simulation time: 0 hr 6 min 47 sec) 
Heartbeat CPU 0 instructions: 66000000 cycles: 203089598 heartbeat IPC: 0.320373 cumulative IPC: 0.320931 (Simulation time: 0 hr 6 min 54 sec) 
Heartbeat CPU 0 instructions: 67000001 cycles: 206319849 heartbeat IPC: 0.309574 cumulative IPC: 0.320753 (Simulation time: 0 hr 7 min 1 sec) 
Heartbeat CPU 0 instructions: 68000001 cycles: 209527576 heartbeat IPC: 0.311747 cumulative IPC: 0.320614 (Simulation time: 0 hr 7 min 7 sec) 
Heartbeat CPU 0 instructions: 69000001 cycles: 212690403 heartbeat IPC: 0.316173 cumulative IPC: 0.320548 (Simulation time: 0 hr 7 min 13 sec) 
Heartbeat CPU 0 instructions: 70000000 cycles: 215687525 heartbeat IPC: 0.333653 cumulative IPC: 0.320731 (Simulation time: 0 hr 7 min 19 sec) 
Heartbeat CPU 0 instructions: 71000002 cycles: 218805314 heartbeat IPC: 0.320741 cumulative IPC: 0.320731 (Simulation time: 0 hr 7 min 26 sec) 
Heartbeat CPU 0 instructions: 72000002 cycles: 221962426 heartbeat IPC: 0.316745 cumulative IPC: 0.320674 (Simulation time: 0 hr 7 min 33 sec) 
Heartbeat CPU 0 instructions: 73000001 cycles: 225043977 heartbeat IPC: 0.324512 cumulative IPC: 0.320727 (Simulation time: 0 hr 7 min 39 sec) 
Heartbeat CPU 0 instructions: 74000001 cycles: 228215325 heartbeat IPC: 0.315323 cumulative IPC: 0.320651 (Simulation time: 0 hr 7 min 46 sec) 
Heartbeat CPU 0 instructions: 75000003 cycles: 231333026 heartbeat IPC: 0.32075 cumulative IPC: 0.320653 (Simulation time: 0 hr 7 min 52 sec) 
Heartbeat CPU 0 instructions: 76000001 cycles: 234788573 heartbeat IPC: 0.289389 cumulative IPC: 0.320192 (Simulation time: 0 hr 7 min 59 sec) 
Heartbeat CPU 0 instructions: 77000000 cycles: 237814410 heartbeat IPC: 0.330487 cumulative IPC: 0.320323 (Simulation time: 0 hr 8 min 5 sec) 
Heartbeat CPU 0 instructions: 78000000 cycles: 240962437 heartbeat IPC: 0.317659 cumulative IPC: 0.320288 (Simulation time: 0 hr 8 min 11 sec) 
Heartbeat CPU 0 instructions: 79000001 cycles: 244340477 heartbeat IPC: 0.29603 cumulative IPC: 0.319952 (Simulation time: 0 hr 8 min 18 sec) 
Heartbeat CPU 0 instructions: 80000003 cycles: 247360032 heartbeat IPC: 0.331175 cumulative IPC: 0.320089 (Simulation time: 0 hr 8 min 24 sec) 
Heartbeat CPU 0 instructions: 81000001 cycles: 250657348 heartbeat IPC: 0.303276 cumulative IPC: 0.319867 (Simulation time: 0 hr 8 min 30 sec) 
Heartbeat CPU 0 instructions: 82000003 cycles: 253760079 heartbeat IPC: 0.322297 cumulative IPC: 0.319897 (Simulation time: 0 hr 8 min 37 sec) 
Heartbeat CPU 0 instructions: 83000000 cycles: 256999891 heartbeat IPC: 0.308659 cumulative IPC: 0.319755 (Simulation time: 0 hr 8 min 43 sec) 
Heartbeat CPU 0 instructions: 84000001 cycles: 260015570 heartbeat IPC: 0.331601 cumulative IPC: 0.319893 (Simulation time: 0 hr 8 min 49 sec) 
Heartbeat CPU 0 instructions: 85000003 cycles: 263283483 heartbeat IPC: 0.306006 cumulative IPC: 0.31972 (Simulation time: 0 hr 8 min 56 sec) 
Heartbeat CPU 0 instructions: 86000002 cycles: 266274817 heartbeat IPC: 0.334299 cumulative IPC: 0.319884 (Simulation time: 0 hr 9 min 2 sec) 
Heartbeat CPU 0 instructions: 87000000 cycles: 269598316 heartbeat IPC: 0.300887 cumulative IPC: 0.31965 (Simulation time: 0 hr 9 min 8 sec) 
Heartbeat CPU 0 instructions: 88000000 cycles: 272800806 heartbeat IPC: 0.312257 cumulative IPC: 0.319563 (Simulation time: 0 hr 9 min 15 sec) 
Heartbeat CPU 0 instructions: 89000000 cycles: 275753894 heartbeat IPC: 0.338629 cumulative IPC: 0.319767 (Simulation time: 0 hr 9 min 22 sec) 
Heartbeat CPU 0 instructions: 90000003 cycles: 278957060 heartbeat IPC: 0.312192 cumulative IPC: 0.31968 (Simulation time: 0 hr 9 min 29 sec) 
Heartbeat CPU 0 instructions: 91000001 cycles: 281979014 heartbeat IPC: 0.330911 cumulative IPC: 0.319801 (Simulation time: 0 hr 9 min 35 sec) 
Heartbeat CPU 0 instructions: 92000003 cycles: 285171008 heartbeat IPC: 0.313284 cumulative IPC: 0.319728 (Simulation time: 0 hr 9 min 41 sec) 
Heartbeat CPU 0 instructions: 93000002 cycles: 288368416 heartbeat IPC: 0.312753 cumulative IPC: 0.31965 (Simulation time: 0 hr 9 min 48 sec) 
Heartbeat CPU 0 instructions: 94000003 cycles: 291496997 heartbeat IPC: 0.319634 cumulative IPC: 0.31965 (Simulation time: 0 hr 9 min 54 sec) 
Heartbeat CPU 0 instructions: 95000002 cycles: 294672467 heartbeat IPC: 0.314914 cumulative IPC: 0.319599 (Simulation time: 0 hr 10 min 1 sec) 
Heartbeat CPU 0 instructions: 96000000 cycles: 297718519 heartbeat IPC: 0.328293 cumulative IPC: 0.319688 (Simulation time: 0 hr 10 min 7 sec) 
Heartbeat CPU 0 instructions: 97000000 cycles: 300964482 heartbeat IPC: 0.308075 cumulative IPC: 0.319563 (Simulation time: 0 hr 10 min 14 sec) 
Heartbeat CPU 0 instructions: 98000003 cycles: 304094020 heartbeat IPC: 0.319537 cumulative IPC: 0.319562 (Simulation time: 0 hr 10 min 21 sec) 
Heartbeat CPU 0 instructions: 99000000 cycles: 307231867 heartbeat IPC: 0.318689 cumulative IPC: 0.319553 (Simulation time: 0 hr 10 min 28 sec) 
Heartbeat CPU 0 instructions: 100000002 cycles: 310446240 heartbeat IPC: 0.311103 cumulative IPC: 0.319466 (Simulation time: 0 hr 10 min 34 sec) 
Heartbeat CPU 0 instructions: 101000001 cycles: 313700672 heartbeat IPC: 0.307273 cumulative IPC: 0.319339 (Simulation time: 0 hr 10 min 41 sec) 
Heartbeat CPU 0 instructions: 102000003 cycles: 316579517 heartbeat IPC: 0.347362 cumulative IPC: 0.319594 (Simulation time: 0 hr 10 min 49 sec) 
Heartbeat CPU 0 instructions: 103000001 cycles: 319735074 heartbeat IPC: 0.316901 cumulative IPC: 0.319568 (Simulation time: 0 hr 10 min 56 sec) 
Heartbeat CPU 0 instructions: 104000000 cycles: 322943244 heartbeat IPC: 0.311704 cumulative IPC: 0.319489 (Simulation time: 0 hr 11 min 3 sec) 
Heartbeat CPU 0 instructions: 105000000 cycles: 326133137 heartbeat IPC: 0.31349 cumulative IPC: 0.319431 (Simulation time: 0 hr 11 min 11 sec) 
Heartbeat CPU 0 instructions: 106000003 cycles: 329313934 heartbeat IPC: 0.314388 cumulative IPC: 0.319382 (Simulation time: 0 hr 11 min 17 sec) 
Heartbeat CPU 0 instructions: 107000002 cycles: 332338091 heartbeat IPC: 0.33067 cumulative IPC: 0.319485 (Simulation time: 0 hr 11 min 24 sec) 
Heartbeat CPU 0 instructions: 108000002 cycles: 335460912 heartbeat IPC: 0.320223 cumulative IPC: 0.319492 (Simulation time: 0 hr 11 min 30 sec) 
Heartbeat CPU 0 instructions: 109000000 cycles: 338864228 heartbeat IPC: 0.29383 cumulative IPC: 0.319233 (Simulation time: 0 hr 11 min 36 sec) 
Heartbeat CPU 0 instructions: 110000000 cycles: 342111307 heartbeat IPC: 0.307969 cumulative IPC: 0.319126 (Simulation time: 0 hr 11 min 43 sec) 
Heartbeat CPU 0 instructions: 111000000 cycles: 345132372 heartbeat IPC: 0.331009 cumulative IPC: 0.319231 (Simulation time: 0 hr 11 min 49 sec) 
Heartbeat CPU 0 instructions: 112000003 cycles: 348225910 heartbeat IPC: 0.323255 cumulative IPC: 0.319266 (Simulation time: 0 hr 11 min 55 sec) 
Heartbeat CPU 0 instructions: 113000002 cycles: 351324199 heartbeat IPC: 0.322758 cumulative IPC: 0.319297 (Simulation time: 0 hr 12 min 2 sec) 
Heartbeat CPU 0 instructions: 114000000 cycles: 354413945 heartbeat IPC: 0.323651 cumulative IPC: 0.319335 (Simulation time: 0 hr 12 min 7 sec) 
Heartbeat CPU 0 instructions: 115000000 cycles: 357791259 heartbeat IPC: 0.296093 cumulative IPC: 0.319115 (Simulation time: 0 hr 12 min 14 sec) 
Heartbeat CPU 0 instructions: 116000000 cycles: 360714584 heartbeat IPC: 0.342076 cumulative IPC: 0.319302 (Simulation time: 0 hr 12 min 20 sec) 
Heartbeat CPU 0 instructions: 117000000 cycles: 364135512 heartbeat IPC: 0.292318 cumulative IPC: 0.319048 (Simulation time: 0 hr 12 min 27 sec) 
Heartbeat CPU 0 instructions: 118000000 cycles: 367181104 heartbeat IPC: 0.328343 cumulative IPC: 0.319125 (Simulation time: 0 hr 12 min 33 sec) 
Heartbeat CPU 0 instructions: 119000001 cycles: 370423558 heartbeat IPC: 0.308409 cumulative IPC: 0.319031 (Simulation time: 0 hr 12 min 39 sec) 
Heartbeat CPU 0 instructions: 120000001 cycles: 373520310 heartbeat IPC: 0.322919 cumulative IPC: 0.319063 (Simulation time: 0 hr 12 min 46 sec) 
Heartbeat CPU 0 instructions: 121000000 cycles: 376522027 heartbeat IPC: 0.333142 cumulative IPC: 0.319176 (Simulation time: 0 hr 12 min 52 sec) 
Heartbeat CPU 0 instructions: 122000002 cycles: 379833202 heartbeat IPC: 0.302008 cumulative IPC: 0.319026 (Simulation time: 0 hr 12 min 59 sec) 
Heartbeat CPU 0 instructions: 123000000 cycles: 382915286 heartbeat IPC: 0.324455 cumulative IPC: 0.31907 (Simulation time: 0 hr 13 min 5 sec) 
Heartbeat CPU 0 instructions: 124000001 cycles: 386026782 heartbeat IPC: 0.321389 cumulative IPC: 0.319089 (Simulation time: 0 hr 13 min 11 sec) 
Heartbeat CPU 0 instructions: 125000001 cycles: 389417172 heartbeat IPC: 0.294951 cumulative IPC: 0.318878 (Simulation time: 0 hr 13 min 18 sec) 
Heartbeat CPU 0 instructions: 126000001 cycles: 392893672 heartbeat IPC: 0.287646 cumulative IPC: 0.318601 (Simulation time: 0 hr 13 min 24 sec) 
Heartbeat CPU 0 instructions: 127000002 cycles: 395884771 heartbeat IPC: 0.334326 cumulative IPC: 0.31872 (Simulation time: 0 hr 13 min 30 sec) 
Heartbeat CPU 0 instructions: 128000002 cycles: 398918806 heartbeat IPC: 0.329594 cumulative IPC: 0.318803 (Simulation time: 0 hr 13 min 37 sec) 
Heartbeat CPU 0 instructions: 129000002 cycles: 402555963 heartbeat IPC: 0.27494 cumulative IPC: 0.318406 (Simulation time: 0 hr 13 min 43 sec) 
Heartbeat CPU 0 instructions: 130000000 cycles: 405135207 heartbeat IPC: 0.38771 cumulative IPC: 0.318848 (Simulation time: 0 hr 13 min 50 sec) 
Heartbeat CPU 0 instructions: 131000000 cycles: 408060793 heartbeat IPC: 0.341812 cumulative IPC: 0.319013 (Simulation time: 0 hr 13 min 56 sec) 
Heartbeat CPU 0 instructions: 132000000 cycles: 411326940 heartbeat IPC: 0.306171 cumulative IPC: 0.318911 (Simulation time: 0 hr 14 min 2 sec) 
Heartbeat CPU 0 instructions: 133000000 cycles: 414354417 heartbeat IPC: 0.330308 cumulative IPC: 0.318994 (Simulation time: 0 hr 14 min 9 sec) 
Heartbeat CPU 0 instructions: 134000001 cycles: 417515752 heartbeat IPC: 0.316322 cumulative IPC: 0.318974 (Simulation time: 0 hr 14 min 15 sec) 
Heartbeat CPU 0 instructions: 135000003 cycles: 420664695 heartbeat IPC: 0.317568 cumulative IPC: 0.318963 (Simulation time: 0 hr 14 min 21 sec) 
Heartbeat CPU 0 instructions: 136000000 cycles: 423808719 heartbeat IPC: 0.318063 cumulative IPC: 0.318957 (Simulation time: 0 hr 14 min 28 sec) 
Heartbeat CPU 0 instructions: 137000002 cycles: 427011187 heartbeat IPC: 0.31226 cumulative IPC: 0.318906 (Simulation time: 0 hr 14 min 34 sec) 
Heartbeat CPU 0 instructions: 138000002 cycles: 430140983 heartbeat IPC: 0.31951 cumulative IPC: 0.318911 (Simulation time: 0 hr 14 min 40 sec) 
Heartbeat CPU 0 instructions: 139000002 cycles: 433227487 heartbeat IPC: 0.323991 cumulative IPC: 0.318947 (Simulation time: 0 hr 14 min 46 sec) 
Heartbeat CPU 0 instructions: 140000000 cycles: 436482312 heartbeat IPC: 0.307236 cumulative IPC: 0.31886 (Simulation time: 0 hr 14 min 53 sec) 
Heartbeat CPU 0 instructions: 141000002 cycles: 440004054 heartbeat IPC: 0.283951 cumulative IPC: 0.31858 (Simulation time: 0 hr 14 min 59 sec) 
Heartbeat CPU 0 instructions: 142000001 cycles: 442945266 heartbeat IPC: 0.339996 cumulative IPC: 0.318722 (Simulation time: 0 hr 15 min 5 sec) 
Heartbeat CPU 0 instructions: 143000000 cycles: 446321586 heartbeat IPC: 0.29618 cumulative IPC: 0.318552 (Simulation time: 0 hr 15 min 12 sec) 
Heartbeat CPU 0 instructions: 144000001 cycles: 449194303 heartbeat IPC: 0.348103 cumulative IPC: 0.318741 (Simulation time: 0 hr 15 min 19 sec) 
Heartbeat CPU 0 instructions: 145000003 cycles: 452497799 heartbeat IPC: 0.30271 cumulative IPC: 0.318624 (Simulation time: 0 hr 15 min 26 sec) 
Heartbeat CPU 0 instructions: 146000000 cycles: 455586354 heartbeat IPC: 0.323775 cumulative IPC: 0.318659 (Simulation time: 0 hr 15 min 32 sec) 
Heartbeat CPU 0 instructions: 147000000 cycles: 459102417 heartbeat IPC: 0.284409 cumulative IPC: 0.318396 (Simulation time: 0 hr 15 min 39 sec) 
Heartbeat CPU 0 instructions: 148000003 cycles: 462078970 heartbeat IPC: 0.33596 cumulative IPC: 0.318509 (Simulation time: 0 hr 15 min 45 sec) 
Heartbeat CPU 0 instructions: 149000001 cycles: 465259866 heartbeat IPC: 0.314376 cumulative IPC: 0.318481 (Simulation time: 0 hr 15 min 51 sec) 
Heartbeat CPU 0 instructions: 150000002 cycles: 468415247 heartbeat IPC: 0.316919 cumulative IPC: 0.31847 (Simulation time: 0 hr 15 min 58 sec) 
Heartbeat CPU 0 instructions: 151000002 cycles: 471615098 heartbeat IPC: 0.312515 cumulative IPC: 0.31843 (Simulation time: 0 hr 16 min 4 sec) 
Heartbeat CPU 0 instructions: 152000001 cycles: 474915740 heartbeat IPC: 0.302971 cumulative IPC: 0.318322 (Simulation time: 0 hr 16 min 10 sec) 
Heartbeat CPU 0 instructions: 153000002 cycles: 478136512 heartbeat IPC: 0.310485 cumulative IPC: 0.318269 (Simulation time: 0 hr 16 min 17 sec) 
Heartbeat CPU 0 instructions: 154000000 cycles: 481225625 heartbeat IPC: 0.323717 cumulative IPC: 0.318304 (Simulation time: 0 hr 16 min 23 sec) 
Heartbeat CPU 0 instructions: 155000003 cycles: 484495153 heartbeat IPC: 0.305855 cumulative IPC: 0.31822 (Simulation time: 0 hr 16 min 29 sec) 
Heartbeat CPU 0 instructions: 156000002 cycles: 487555550 heartbeat IPC: 0.326755 cumulative IPC: 0.318274 (Simulation time: 0 hr 16 min 35 sec) 
Heartbeat CPU 0 instructions: 157000001 cycles: 490685914 heartbeat IPC: 0.319451 cumulative IPC: 0.318282 (Simulation time: 0 hr 16 min 42 sec) 
Heartbeat CPU 0 instructions: 158000003 cycles: 493810245 heartbeat IPC: 0.320069 cumulative IPC: 0.318293 (Simulation time: 0 hr 16 min 48 sec) 
Heartbeat CPU 0 instructions: 159000003 cycles: 497117722 heartbeat IPC: 0.302345 cumulative IPC: 0.318187 (Simulation time: 0 hr 16 min 55 sec) 
Heartbeat CPU 0 instructions: 160000001 cycles: 500095098 heartbeat IPC: 0.335866 cumulative IPC: 0.318292 (Simulation time: 0 hr 17 min 0 sec) 
Heartbeat CPU 0 instructions: 161000003 cycles: 503113502 heartbeat IPC: 0.331302 cumulative IPC: 0.31837 (Simulation time: 0 hr 17 min 7 sec) 
Heartbeat CPU 0 instructions: 162000003 cycles: 506404537 heartbeat IPC: 0.303856 cumulative IPC: 0.318276 (Simulation time: 0 hr 17 min 13 sec) 
Heartbeat CPU 0 instructions: 163000000 cycles: 509517455 heartbeat IPC: 0.321241 cumulative IPC: 0.318294 (Simulation time: 0 hr 17 min 20 sec) 
Heartbeat CPU 0 instructions: 164000000 cycles: 512785099 heartbeat IPC: 0.306031 cumulative IPC: 0.318216 (Simulation time: 0 hr 17 min 26 sec) 
Heartbeat CPU 0 instructions: 165000000 cycles: 515745953 heartbeat IPC: 0.33774 cumulative IPC: 0.318328 (Simulation time: 0 hr 17 min 32 sec) 
Heartbeat CPU 0 instructions: 166000001 cycles: 518767608 heartbeat IPC: 0.330945 cumulative IPC: 0.318401 (Simulation time: 0 hr 17 min 39 sec) 
Heartbeat CPU 0 instructions: 167000003 cycles: 522050016 heartbeat IPC: 0.304655 cumulative IPC: 0.318315 (Simulation time: 0 hr 17 min 45 sec) 
Heartbeat CPU 0 instructions: 168000002 cycles: 524995308 heartbeat IPC: 0.339525 cumulative IPC: 0.318434 (Simulation time: 0 hr 17 min 51 sec) 
Heartbeat CPU 0 instructions: 169000001 cycles: 528196861 heartbeat IPC: 0.312348 cumulative IPC: 0.318397 (Simulation time: 0 hr 17 min 58 sec) 
Heartbeat CPU 0 instructions: 170000001 cycles: 531312565 heartbeat IPC: 0.320955 cumulative IPC: 0.318412 (Simulation time: 0 hr 18 min 4 sec) 
Heartbeat CPU 0 instructions: 171000002 cycles: 534334935 heartbeat IPC: 0.330867 cumulative IPC: 0.318483 (Simulation time: 0 hr 18 min 10 sec) 
Heartbeat CPU 0 instructions: 172000001 cycles: 537628675 heartbeat IPC: 0.303606 cumulative IPC: 0.318391 (Simulation time: 0 hr 18 min 16 sec) 
Heartbeat CPU 0 instructions: 173000003 cycles: 540743901 heartbeat IPC: 0.321005 cumulative IPC: 0.318406 (Simulation time: 0 hr 18 min 23 sec) 
Heartbeat CPU 0 instructions: 174000000 cycles: 544134513 heartbeat IPC: 0.294931 cumulative IPC: 0.31826 (Simulation time: 0 hr 18 min 29 sec) 
Heartbeat CPU 0 instructions: 175000002 cycles: 547024944 heartbeat IPC: 0.34597 cumulative IPC: 0.318407 (Simulation time: 0 hr 18 min 36 sec) 
Heartbeat CPU 0 instructions: 176000000 cycles: 549899736 heartbeat IPC: 0.347851 cumulative IPC: 0.318561 (Simulation time: 0 hr 18 min 43 sec) 
Heartbeat CPU 0 instructions: 177000001 cycles: 553273820 heartbeat IPC: 0.296377 cumulative IPC: 0.318425 (Simulation time: 0 hr 18 min 49 sec) 
Heartbeat CPU 0 instructions: 178000000 cycles: 556013917 heartbeat IPC: 0.36495 cumulative IPC: 0.318655 (Simulation time: 0 hr 18 min 55 sec) 
Heartbeat CPU 0 instructions: 179000000 cycles: 559226876 heartbeat IPC: 0.31124 cumulative IPC: 0.318612 (Simulation time: 0 hr 19 min 2 sec) 
Heartbeat CPU 0 instructions: 180000000 cycles: 562385976 heartbeat IPC: 0.316546 cumulative IPC: 0.3186 (Simulation time: 0 hr 19 min 8 sec) 
Heartbeat CPU 0 instructions: 181000000 cycles: 565721799 heartbeat IPC: 0.299776 cumulative IPC: 0.318489 (Simulation time: 0 hr 19 min 15 sec) 
Heartbeat CPU 0 instructions: 182000002 cycles: 568850022 heartbeat IPC: 0.319671 cumulative IPC: 0.318496 (Simulation time: 0 hr 19 min 21 sec) 
Heartbeat CPU 0 instructions: 183000002 cycles: 571943189 heartbeat IPC: 0.323293 cumulative IPC: 0.318522 (Simulation time: 0 hr 19 min 27 sec) 
Heartbeat CPU 0 instructions: 184000000 cycles: 575048691 heartbeat IPC: 0.322008 cumulative IPC: 0.318541 (Simulation time: 0 hr 19 min 33 sec) 
Heartbeat CPU 0 instructions: 185000002 cycles: 578123414 heartbeat IPC: 0.325233 cumulative IPC: 0.318576 (Simulation time: 0 hr 19 min 40 sec) 
Heartbeat CPU 0 instructions: 186000000 cycles: 581546185 heartbeat IPC: 0.29216 cumulative IPC: 0.318421 (Simulation time: 0 hr 19 min 46 sec) 
Heartbeat CPU 0 instructions: 187000000 cycles: 584592141 heartbeat IPC: 0.328304 cumulative IPC: 0.318472 (Simulation time: 0 hr 19 min 53 sec) 
Heartbeat CPU 0 instructions: 188000000 cycles: 587655599 heartbeat IPC: 0.326429 cumulative IPC: 0.318514 (Simulation time: 0 hr 19 min 59 sec) 
Heartbeat CPU 0 instructions: 189000001 cycles: 590316900 heartbeat IPC: 0.375756 cumulative IPC: 0.318772 (Simulation time: 0 hr 20 min 5 sec) 
Heartbeat CPU 0 instructions: 190000000 cycles: 593383365 heartbeat IPC: 0.326108 cumulative IPC: 0.31881 (Simulation time: 0 hr 20 min 11 sec) 
Heartbeat CPU 0 instructions: 191000000 cycles: 596643328 heartbeat IPC: 0.306752 cumulative IPC: 0.318744 (Simulation time: 0 hr 20 min 18 sec) 
Heartbeat CPU 0 instructions: 192000002 cycles: 600039439 heartbeat IPC: 0.294455 cumulative IPC: 0.318606 (Simulation time: 0 hr 20 min 24 sec) 
Heartbeat CPU 0 instructions: 193000001 cycles: 602901772 heartbeat IPC: 0.349365 cumulative IPC: 0.318753 (Simulation time: 0 hr 20 min 30 sec) 
Heartbeat CPU 0 instructions: 194000003 cycles: 606244606 heartbeat IPC: 0.299148 cumulative IPC: 0.318644 (Simulation time: 0 hr 20 min 37 sec) 
Heartbeat CPU 0 instructions: 195000001 cycles: 609459063 heartbeat IPC: 0.311094 cumulative IPC: 0.318605 (Simulation time: 0 hr 20 min 43 sec) 
Heartbeat CPU 0 instructions: 196000000 cycles: 612584812 heartbeat IPC: 0.319923 cumulative IPC: 0.318611 (Simulation time: 0 hr 20 min 49 sec) 
Heartbeat CPU 0 instructions: 197000000 cycles: 615871786 heartbeat IPC: 0.304231 cumulative IPC: 0.318534 (Simulation time: 0 hr 20 min 56 sec) 
Heartbeat CPU 0 instructions: 198000000 cycles: 618872595 heartbeat IPC: 0.333243 cumulative IPC: 0.318606 (Simulation time: 0 hr 21 min 2 sec) 
Heartbeat CPU 0 instructions: 199000001 cycles: 622077151 heartbeat IPC: 0.312056 cumulative IPC: 0.318572 (Simulation time: 0 hr 21 min 8 sec) 
Heartbeat CPU 0 instructions: 200000000 cycles: 625490770 heartbeat IPC: 0.292944 cumulative IPC: 0.318432 (Simulation time: 0 hr 21 min 15 sec) 
Heartbeat CPU 0 instructions: 201000000 cycles: 628383122 heartbeat IPC: 0.345739 cumulative IPC: 0.318558 (Simulation time: 0 hr 21 min 21 sec) 
Heartbeat CPU 0 instructions: 202000003 cycles: 631786942 heartbeat IPC: 0.293788 cumulative IPC: 0.318424 (Simulation time: 0 hr 21 min 28 sec) 
Heartbeat CPU 0 instructions: 203000003 cycles: 634848047 heartbeat IPC: 0.326679 cumulative IPC: 0.318464 (Simulation time: 0 hr 21 min 34 sec) 
Heartbeat CPU 0 instructions: 204000001 cycles: 637910281 heartbeat IPC: 0.326558 cumulative IPC: 0.318503 (Simulation time: 0 hr 21 min 40 sec) 
Heartbeat CPU 0 instructions: 205000000 cycles: 641095659 heartbeat IPC: 0.313934 cumulative IPC: 0.31848 (Simulation time: 0 hr 21 min 46 sec) 
Heartbeat CPU 0 instructions: 206000002 cycles: 644311377 heartbeat IPC: 0.310973 cumulative IPC: 0.318443 (Simulation time: 0 hr 21 min 52 sec) 
Heartbeat CPU 0 instructions: 207000002 cycles: 647420179 heartbeat IPC: 0.321667 cumulative IPC: 0.318458 (Simulation time: 0 hr 21 min 59 sec) 
Heartbeat CPU 0 instructions: 208000000 cycles: 650637869 heartbeat IPC: 0.310781 cumulative IPC: 0.31842 (Simulation time: 0 hr 22 min 5 sec) 
Heartbeat CPU 0 instructions: 209000000 cycles: 654446547 heartbeat IPC: 0.262558 cumulative IPC: 0.318095 (Simulation time: 0 hr 22 min 12 sec) 
Heartbeat CPU 0 instructions: 210000000 cycles: 657259312 heartbeat IPC: 0.355522 cumulative IPC: 0.318255 (Simulation time: 0 hr 22 min 18 sec) 
Heartbeat CPU 0 instructions: 211000001 cycles: 659943931 heartbeat IPC: 0.372493 cumulative IPC: 0.318476 (Simulation time: 0 hr 22 min 24 sec) 
Heartbeat CPU 0 instructions: 212000001 cycles: 663206229 heartbeat IPC: 0.306532 cumulative IPC: 0.318417 (Simulation time: 0 hr 22 min 31 sec) 
Heartbeat CPU 0 instructions: 213000000 cycles: 666466955 heartbeat IPC: 0.30668 cumulative IPC: 0.31836 (Simulation time: 0 hr 22 min 37 sec) 
Heartbeat CPU 0 instructions: 214000000 cycles: 669682443 heartbeat IPC: 0.310995 cumulative IPC: 0.318324 (Simulation time: 0 hr 22 min 44 sec) 
Heartbeat CPU 0 instructions: 215000000 cycles: 672879918 heartbeat IPC: 0.312747 cumulative IPC: 0.318298 (Simulation time: 0 hr 22 min 50 sec) 
Heartbeat CPU 0 instructions: 216000001 cycles: 675982743 heartbeat IPC: 0.322287 cumulative IPC: 0.318316 (Simulation time: 0 hr 22 min 56 sec) 
Heartbeat CPU 0 instructions: 217000001 cycles: 679191938 heartbeat IPC: 0.311605 cumulative IPC: 0.318284 (Simulation time: 0 hr 23 min 2 sec) 
Heartbeat CPU 0 instructions: 218000002 cycles: 682669337 heartbeat IPC: 0.287572 cumulative IPC: 0.318128 (Simulation time: 0 hr 23 min 9 sec) 
Heartbeat CPU 0 instructions: 219000001 cycles: 685917488 heartbeat IPC: 0.307867 cumulative IPC: 0.318079 (Simulation time: 0 hr 23 min 16 sec) 
Heartbeat CPU 0 instructions: 220000000 cycles: 689132759 heartbeat IPC: 0.311015 cumulative IPC: 0.318046 (Simulation time: 0 hr 23 min 22 sec) 
Heartbeat CPU 0 instructions: 221000000 cycles: 692424394 heartbeat IPC: 0.3038 cumulative IPC: 0.317979 (Simulation time: 0 hr 23 min 28 sec) 
Heartbeat CPU 0 instructions: 222000002 cycles: 695481055 heartbeat IPC: 0.327155 cumulative IPC: 0.318019 (Simulation time: 0 hr 23 min 35 sec) 
Heartbeat CPU 0 instructions: 223000003 cycles: 698755144 heartbeat IPC: 0.305429 cumulative IPC: 0.31796 (Simulation time: 0 hr 23 min 41 sec) 
Heartbeat CPU 0 instructions: 224000000 cycles: 701769655 heartbeat IPC: 0.331728 cumulative IPC: 0.318019 (Simulation time: 0 hr 23 min 47 sec) 
Heartbeat CPU 0 instructions: 225000000 cycles: 704936984 heartbeat IPC: 0.315723 cumulative IPC: 0.318009 (Simulation time: 0 hr 23 min 54 sec) 
Heartbeat CPU 0 instructions: 226000000 cycles: 708168355 heartbeat IPC: 0.309466 cumulative IPC: 0.31797 (Simulation time: 0 hr 24 min 0 sec) 
Heartbeat CPU 0 instructions: 227000001 cycles: 711209571 heartbeat IPC: 0.328816 cumulative IPC: 0.318016 (Simulation time: 0 hr 24 min 6 sec) 
Heartbeat CPU 0 instructions: 228000000 cycles: 714402949 heartbeat IPC: 0.313148 cumulative IPC: 0.317994 (Simulation time: 0 hr 24 min 12 sec) 
Heartbeat CPU 0 instructions: 229000000 cycles: 717774728 heartbeat IPC: 0.296579 cumulative IPC: 0.317894 (Simulation time: 0 hr 24 min 19 sec) 
Heartbeat CPU 0 instructions: 230000001 cycles: 720871389 heartbeat IPC: 0.322929 cumulative IPC: 0.317915 (Simulation time: 0 hr 24 min 25 sec) 
Heartbeat CPU 0 instructions: 231000000 cycles: 724046375 heartbeat IPC: 0.314962 cumulative IPC: 0.317902 (Simulation time: 0 hr 24 min 32 sec) 
Heartbeat CPU 0 instructions: 232000000 cycles: 727173912 heartbeat IPC: 0.31974 cumulative IPC: 0.31791 (Simulation time: 0 hr 24 min 38 sec) 
Heartbeat CPU 0 instructions: 233000000 cycles: 730610348 heartbeat IPC: 0.290999 cumulative IPC: 0.317784 (Simulation time: 0 hr 24 min 44 sec) 
Heartbeat CPU 0 instructions: 234000003 cycles: 733865361 heartbeat IPC: 0.307219 cumulative IPC: 0.317737 (Simulation time: 0 hr 24 min 51 sec) 
Heartbeat CPU 0 instructions: 235000001 cycles: 736829052 heartbeat IPC: 0.337416 cumulative IPC: 0.317816 (Simulation time: 0 hr 24 min 57 sec) 
Heartbeat CPU 0 instructions: 236000000 cycles: 739862615 heartbeat IPC: 0.329645 cumulative IPC: 0.317864 (Simulation time: 0 hr 25 min 3 sec) 
Heartbeat CPU 0 instructions: 237000000 cycles: 742803836 heartbeat IPC: 0.339995 cumulative IPC: 0.317952 (Simulation time: 0 hr 25 min 9 sec) 
Heartbeat CPU 0 instructions: 238000000 cycles: 745989490 heartbeat IPC: 0.313907 cumulative IPC: 0.317935 (Simulation time: 0 hr 25 min 15 sec) 
Heartbeat CPU 0 instructions: 239000000 cycles: 749299310 heartbeat IPC: 0.302131 cumulative IPC: 0.317865 (Simulation time: 0 hr 25 min 22 sec) 
Heartbeat CPU 0 instructions: 240000001 cycles: 752522576 heartbeat IPC: 0.310245 cumulative IPC: 0.317832 (Simulation time: 0 hr 25 min 28 sec) 
Heartbeat CPU 0 instructions: 241000000 cycles: 755764452 heartbeat IPC: 0.308463 cumulative IPC: 0.317792 (Simulation time: 0 hr 25 min 34 sec) 
Heartbeat CPU 0 instructions: 242000000 cycles: 758817133 heartbeat IPC: 0.327581 cumulative IPC: 0.317832 (Simulation time: 0 hr 25 min 41 sec) 
Heartbeat CPU 0 instructions: 243000000 cycles: 761522045 heartbeat IPC: 0.369698 cumulative IPC: 0.318016 (Simulation time: 0 hr 25 min 47 sec) 
Heartbeat CPU 0 instructions: 244000000 cycles: 764414971 heartbeat IPC: 0.345671 cumulative IPC: 0.318121 (Simulation time: 0 hr 25 min 53 sec) 
Heartbeat CPU 0 instructions: 245000000 cycles: 767513118 heartbeat IPC: 0.322774 cumulative IPC: 0.318139 (Simulation time: 0 hr 25 min 59 sec) 
Heartbeat CPU 0 instructions: 246000003 cycles: 770602233 heartbeat IPC: 0.323718 cumulative IPC: 0.318162 (Simulation time: 0 hr 26 min 6 sec) 
Heartbeat CPU 0 instructions: 247000000 cycles: 773833186 heartbeat IPC: 0.309505 cumulative IPC: 0.318126 (Simulation time: 0 hr 26 min 12 sec) 
Heartbeat CPU 0 instructions: 248000003 cycles: 776860268 heartbeat IPC: 0.330352 cumulative IPC: 0.318173 (Simulation time: 0 hr 26 min 18 sec) 
Heartbeat CPU 0 instructions: 249000001 cycles: 780099565 heartbeat IPC: 0.308708 cumulative IPC: 0.318134 (Simulation time: 0 hr 26 min 24 sec) 
Heartbeat CPU 0 instructions: 250000000 cycles: 783102374 heartbeat IPC: 0.333021 cumulative IPC: 0.318191 (Simulation time: 0 hr 26 min 30 sec) 
Heartbeat CPU 0 instructions: 251000000 cycles: 786144207 heartbeat IPC: 0.328749 cumulative IPC: 0.318232 (Simulation time: 0 hr 26 min 36 sec) 
Heartbeat CPU 0 instructions: 252000000 cycles: 789431295 heartbeat IPC: 0.304221 cumulative IPC: 0.318174 (Simulation time: 0 hr 26 min 43 sec) 
Heartbeat CPU 0 instructions: 253000000 cycles: 792502118 heartbeat IPC: 0.325646 cumulative IPC: 0.318203 (Simulation time: 0 hr 26 min 49 sec) 
Heartbeat CPU 0 instructions: 254000003 cycles: 795769012 heartbeat IPC: 0.306102 cumulative IPC: 0.318153 (Simulation time: 0 hr 26 min 56 sec) 
Heartbeat CPU 0 instructions: 255000000 cycles: 798681363 heartbeat IPC: 0.343364 cumulative IPC: 0.318245 (Simulation time: 0 hr 27 min 2 sec) 
Heartbeat CPU 0 instructions: 256000000 cycles: 801358282 heartbeat IPC: 0.373564 cumulative IPC: 0.31843 (Simulation time: 0 hr 27 min 8 sec) 
Heartbeat CPU 0 instructions: 257000003 cycles: 804524647 heartbeat IPC: 0.315821 cumulative IPC: 0.31842 (Simulation time: 0 hr 27 min 14 sec) 
Heartbeat CPU 0 instructions: 258000000 cycles: 807732711 heartbeat IPC: 0.311714 cumulative IPC: 0.318393 (Simulation time: 0 hr 27 min 21 sec) 
Heartbeat CPU 0 instructions: 259000000 cycles: 810978915 heartbeat IPC: 0.308052 cumulative IPC: 0.318351 (Simulation time: 0 hr 27 min 27 sec) 
Heartbeat CPU 0 instructions: 260000001 cycles: 814030602 heartbeat IPC: 0.327688 cumulative IPC: 0.318386 (Simulation time: 0 hr 27 min 32 sec) 
Heartbeat CPU 0 instructions: 261000003 cycles: 817384934 heartbeat IPC: 0.298123 cumulative IPC: 0.318303 (Simulation time: 0 hr 27 min 36 sec) 
Heartbeat CPU 0 instructions: 262000000 cycles: 820427819 heartbeat IPC: 0.328635 cumulative IPC: 0.318342 (Simulation time: 0 hr 27 min 40 sec) 
Heartbeat CPU 0 instructions: 263000000 cycles: 823669059 heartbeat IPC: 0.308524 cumulative IPC: 0.318303 (Simulation time: 0 hr 27 min 44 sec) 
Heartbeat CPU 0 instructions: 264000000 cycles: 827020882 heartbeat IPC: 0.298345 cumulative IPC: 0.318222 (Simulation time: 0 hr 27 min 48 sec) 
Heartbeat CPU 0 instructions: 265000001 cycles: 829971464 heartbeat IPC: 0.338917 cumulative IPC: 0.318296 (Simulation time: 0 hr 27 min 52 sec) 
Heartbeat CPU 0 instructions: 266000000 cycles: 833049915 heartbeat IPC: 0.324838 cumulative IPC: 0.31832 (Simulation time: 0 hr 27 min 57 sec) 
Heartbeat CPU 0 instructions: 267000002 cycles: 836159977 heartbeat IPC: 0.321538 cumulative IPC: 0.318332 (Simulation time: 0 hr 28 min 1 sec) 
Heartbeat CPU 0 instructions: 268000000 cycles: 839291675 heartbeat IPC: 0.319315 cumulative IPC: 0.318335 (Simulation time: 0 hr 28 min 5 sec) 
Heartbeat CPU 0 instructions: 269000003 cycles: 842623099 heartbeat IPC: 0.300173 cumulative IPC: 0.318264 (Simulation time: 0 hr 28 min 9 sec) 
Heartbeat CPU 0 instructions: 270000000 cycles: 845653108 heartbeat IPC: 0.330031 cumulative IPC: 0.318306 (Simulation time: 0 hr 28 min 13 sec) 
Heartbeat CPU 0 instructions: 271000000 cycles: 849610054 heartbeat IPC: 0.25272 cumulative IPC: 0.318 (Simulation time: 0 hr 28 min 17 sec) 
Heartbeat CPU 0 instructions: 272000002 cycles: 852722192 heartbeat IPC: 0.321323 cumulative IPC: 0.318012 (Simulation time: 0 hr 28 min 21 sec) 
Heartbeat CPU 0 instructions: 273000000 cycles: 856034165 heartbeat IPC: 0.301934 cumulative IPC: 0.31795 (Simulation time: 0 hr 28 min 26 sec) 
Heartbeat CPU 0 instructions: 274000002 cycles: 859484178 heartbeat IPC: 0.289855 cumulative IPC: 0.317837 (Simulation time: 0 hr 28 min 30 sec) 
Heartbeat CPU 0 instructions: 275000000 cycles: 862496882 heartbeat IPC: 0.331927 cumulative IPC: 0.317886 (Simulation time: 0 hr 28 min 34 sec) 
Heartbeat CPU 0 instructions: 276000000 cycles: 865712725 heartbeat IPC: 0.31096 cumulative IPC: 0.317861 (Simulation time: 0 hr 28 min 38 sec) 
Heartbeat CPU 0 instructions: 277000000 cycles: 868723264 heartbeat IPC: 0.332166 cumulative IPC: 0.31791 (Simulation time: 0 hr 28 min 42 sec) 
Heartbeat CPU 0 instructions: 278000000 cycles: 872083905 heartbeat IPC: 0.297562 cumulative IPC: 0.317832 (Simulation time: 0 hr 28 min 46 sec) 
Heartbeat CPU 0 instructions: 279000002 cycles: 875089918 heartbeat IPC: 0.332667 cumulative IPC: 0.317883 (Simulation time: 0 hr 28 min 50 sec) 
Heartbeat CPU 0 instructions: 280000000 cycles: 878272885 heartbeat IPC: 0.314172 cumulative IPC: 0.317869 (Simulation time: 0 hr 28 min 55 sec) 
Heartbeat CPU 0 instructions: 281000001 cycles: 881555720 heartbeat IPC: 0.304615 cumulative IPC: 0.31782 (Simulation time: 0 hr 28 min 59 sec) 
Heartbeat CPU 0 instructions: 282000002 cycles: 884694445 heartbeat IPC: 0.318601 cumulative IPC: 0.317823 (Simulation time: 0 hr 29 min 3 sec) 
Heartbeat CPU 0 instructions: 283000000 cycles: 887737916 heartbeat IPC: 0.328572 cumulative IPC: 0.31786 (Simulation time: 0 hr 29 min 7 sec) 
Heartbeat CPU 0 instructions: 284000000 cycles: 890669610 heartbeat IPC: 0.3411 cumulative IPC: 0.317936 (Simulation time: 0 hr 29 min 11 sec) 
Heartbeat CPU 0 instructions: 285000000 cycles: 893954531 heartbeat IPC: 0.304421 cumulative IPC: 0.317886 (Simulation time: 0 hr 29 min 16 sec) 
Heartbeat CPU 0 instructions: 286000000 cycles: 897051479 heartbeat IPC: 0.322899 cumulative IPC: 0.317904 (Simulation time: 0 hr 29 min 20 sec) 
Heartbeat CPU 0 instructions: 287000001 cycles: 900209869 heartbeat IPC: 0.316617 cumulative IPC: 0.317899 (Simulation time: 0 hr 29 min 24 sec) 
Heartbeat CPU 0 instructions: 288000001 cycles: 903379040 heartbeat IPC: 0.31554 cumulative IPC: 0.317891 (Simulation time: 0 hr 29 min 29 sec) 
Heartbeat CPU 0 instructions: 289000000 cycles: 906488172 heartbeat IPC: 0.321633 cumulative IPC: 0.317904 (Simulation time: 0 hr 29 min 33 sec) 
Heartbeat CPU 0 instructions: 290000003 cycles: 910217517 heartbeat IPC: 0.268144 cumulative IPC: 0.3177 (Simulation time: 0 hr 29 min 38 sec) 
Heartbeat CPU 0 instructions: 291000000 cycles: 912938257 heartbeat IPC: 0.367546 cumulative IPC: 0.317848 (Simulation time: 0 hr 29 min 42 sec) 
Heartbeat CPU 0 instructions: 292000000 cycles: 916021258 heartbeat IPC: 0.324359 cumulative IPC: 0.31787 (Simulation time: 0 hr 29 min 46 sec) 
Heartbeat CPU 0 instructions: 293000000 cycles: 919107081 heartbeat IPC: 0.324063 cumulative IPC: 0.317891 (Simulation time: 0 hr 29 min 51 sec) 
Heartbeat CPU 0 instructions: 294000000 cycles: 922228688 heartbeat IPC: 0.320348 cumulative IPC: 0.3179 (Simulation time: 0 hr 29 min 55 sec) 
Heartbeat CPU 0 instructions: 295000000 cycles: 925458178 heartbeat IPC: 0.309646 cumulative IPC: 0.317871 (Simulation time: 0 hr 29 min 59 sec) 
Heartbeat CPU 0 instructions: 296000001 cycles: 928776564 heartbeat IPC: 0.301352 cumulative IPC: 0.317812 (Simulation time: 0 hr 30 min 4 sec) 
Heartbeat CPU 0 instructions: 297000000 cycles: 931795121 heartbeat IPC: 0.331284 cumulative IPC: 0.317855 (Simulation time: 0 hr 30 min 8 sec) 
Heartbeat CPU 0 instructions: 298000001 cycles: 934896969 heartbeat IPC: 0.322389 cumulative IPC: 0.31787 (Simulation time: 0 hr 30 min 12 sec) 
Heartbeat CPU 0 instructions: 299000000 cycles: 937985025 heartbeat IPC: 0.323828 cumulative IPC: 0.31789 (Simulation time: 0 hr 30 min 17 sec) 
Heartbeat CPU 0 instructions: 300000000 cycles: 940849061 heartbeat IPC: 0.349158 cumulative IPC: 0.317985 (Simulation time: 0 hr 30 min 21 sec) 
Heartbeat CPU 0 instructions: 301000000 cycles: 944169360 heartbeat IPC: 0.301178 cumulative IPC: 0.317926 (Simulation time: 0 hr 30 min 25 sec) 
Heartbeat CPU 0 instructions: 302000002 cycles: 947047783 heartbeat IPC: 0.347413 cumulative IPC: 0.318016 (Simulation time: 0 hr 30 min 29 sec) 
Heartbeat CPU 0 instructions: 303000001 cycles: 950224995 heartbeat IPC: 0.314741 cumulative IPC: 0.318005 (Simulation time: 0 hr 30 min 34 sec) 
Heartbeat CPU 0 instructions: 304000001 cycles: 953418849 heartbeat IPC: 0.313101 cumulative IPC: 0.317988 (Simulation time: 0 hr 30 min 38 sec) 
Heartbeat CPU 0 instructions: 305000002 cycles: 956538089 heartbeat IPC: 0.320591 cumulative IPC: 0.317997 (Simulation time: 0 hr 30 min 42 sec) 
Heartbeat CPU 0 instructions: 306000000 cycles: 959653929 heartbeat IPC: 0.32094 cumulative IPC: 0.318006 (Simulation time: 0 hr 30 min 47 sec) 
Heartbeat CPU 0 instructions: 307000002 cycles: 962907129 heartbeat IPC: 0.30739 cumulative IPC: 0.317971 (Simulation time: 0 hr 30 min 51 sec) 
Heartbeat CPU 0 instructions: 308000000 cycles: 965951176 heartbeat IPC: 0.328509 cumulative IPC: 0.318004 (Simulation time: 0 hr 30 min 55 sec) 
Heartbeat CPU 0 instructions: 309000002 cycles: 969260027 heartbeat IPC: 0.30222 cumulative IPC: 0.31795 (Simulation time: 0 hr 31 min 0 sec) 
Heartbeat CPU 0 instructions: 310000000 cycles: 972908509 heartbeat IPC: 0.274086 cumulative IPC: 0.317785 (Simulation time: 0 hr 31 min 4 sec) 
Heartbeat CPU 0 instructions: 311000001 cycles: 976106208 heartbeat IPC: 0.312725 cumulative IPC: 0.317769 (Simulation time: 0 hr 31 min 8 sec) 
Heartbeat CPU 0 instructions: 312000000 cycles: 979087304 heartbeat IPC: 0.335447 cumulative IPC: 0.317823 (Simulation time: 0 hr 31 min 13 sec) 
Heartbeat CPU 0 instructions: 313000003 cycles: 982153105 heartbeat IPC: 0.32618 cumulative IPC: 0.317849 (Simulation time: 0 hr 31 min 17 sec) 
Heartbeat CPU 0 instructions: 314000001 cycles: 985470731 heartbeat IPC: 0.30142 cumulative IPC: 0.317793 (Simulation time: 0 hr 31 min 21 sec) 
Heartbeat CPU 0 instructions: 315000000 cycles: 988521646 heartbeat IPC: 0.32777 cumulative IPC: 0.317824 (Simulation time: 0 hr 31 min 25 sec) 
Heartbeat CPU 0 instructions: 316000000 cycles: 991611650 heartbeat IPC: 0.323624 cumulative IPC: 0.317842 (Simulation time: 0 hr 31 min 30 sec) 
Heartbeat CPU 0 instructions: 317000001 cycles: 994776342 heartbeat IPC: 0.315987 cumulative IPC: 0.317836 (Simulation time: 0 hr 31 min 34 sec) 
Heartbeat CPU 0 instructions: 318000003 cycles: 998038005 heartbeat IPC: 0.306593 cumulative IPC: 0.3178 (Simulation time: 0 hr 31 min 38 sec) 
Heartbeat CPU 0 instructions: 319000000 cycles: 1001166170 heartbeat IPC: 0.319675 cumulative IPC: 0.317805 (Simulation time: 0 hr 31 min 43 sec) 
Heartbeat CPU 0 instructions: 320000000 cycles: 1004408427 heartbeat IPC: 0.308427 cumulative IPC: 0.317775 (Simulation time: 0 hr 31 min 47 sec) 
Heartbeat CPU 0 instructions: 321000000 cycles: 1007525745 heartbeat IPC: 0.320789 cumulative IPC: 0.317784 (Simulation time: 0 hr 31 min 51 sec) 
Heartbeat CPU 0 instructions: 322000001 cycles: 1010691616 heartbeat IPC: 0.315869 cumulative IPC: 0.317778 (Simulation time: 0 hr 31 min 56 sec) 
Heartbeat CPU 0 instructions: 323000000 cycles: 1013913214 heartbeat IPC: 0.310405 cumulative IPC: 0.317755 (Simulation time: 0 hr 32 min 0 sec) 
Heartbeat CPU 0 instructions: 324000001 cycles: 1016927677 heartbeat IPC: 0.331734 cumulative IPC: 0.317796 (Simulation time: 0 hr 32 min 4 sec) 
Heartbeat CPU 0 instructions: 325000002 cycles: 1020065717 heartbeat IPC: 0.318671 cumulative IPC: 0.317799 (Simulation time: 0 hr 32 min 8 sec) 
Heartbeat CPU 0 instructions: 326000003 cycles: 1023192595 heartbeat IPC: 0.319808 cumulative IPC: 0.317805 (Simulation time: 0 hr 32 min 13 sec) 
Heartbeat CPU 0 instructions: 327000000 cycles: 1026449437 heartbeat IPC: 0.307045 cumulative IPC: 0.317771 (Simulation time: 0 hr 32 min 17 sec) 
Heartbeat CPU 0 instructions: 328000001 cycles: 1029704934 heartbeat IPC: 0.307173 cumulative IPC: 0.317738 (Simulation time: 0 hr 32 min 21 sec) 
Heartbeat CPU 0 instructions: 329000002 cycles: 1033076727 heartbeat IPC: 0.296578 cumulative IPC: 0.317668 (Simulation time: 0 hr 32 min 26 sec) 
Heartbeat CPU 0 instructions: 330000000 cycles: 1035614775 heartbeat IPC: 0.394003 cumulative IPC: 0.317856 (Simulation time: 0 hr 32 min 30 sec) 
Heartbeat CPU 0 instructions: 331000000 cycles: 1038129264 heartbeat IPC: 0.397695 cumulative IPC: 0.318049 (Simulation time: 0 hr 32 min 34 sec) 
Heartbeat CPU 0 instructions: 332000000 cycles: 1041317112 heartbeat IPC: 0.313691 cumulative IPC: 0.318036 (Simulation time: 0 hr 32 min 38 sec) 
Heartbeat CPU 0 instructions: 333000001 cycles: 1044529560 heartbeat IPC: 0.311289 cumulative IPC: 0.318015 (Simulation time: 0 hr 32 min 42 sec) 
Heartbeat CPU 0 instructions: 334000003 cycles: 1047249987 heartbeat IPC: 0.36759 cumulative IPC: 0.318144 (Simulation time: 0 hr 32 min 47 sec) 
Heartbeat CPU 0 instructions: 335000000 cycles: 1049911616 heartbeat IPC: 0.375709 cumulative IPC: 0.31829 (Simulation time: 0 hr 32 min 51 sec) 
Heartbeat CPU 0 instructions: 336000003 cycles: 1052652583 heartbeat IPC: 0.364836 cumulative IPC: 0.318411 (Simulation time: 0 hr 32 min 55 sec) 
Heartbeat CPU 0 instructions: 337000000 cycles: 1055606647 heartbeat IPC: 0.338516 cumulative IPC: 0.318467 (Simulation time: 0 hr 32 min 59 sec) 
Heartbeat CPU 0 instructions: 338000000 cycles: 1058797800 heartbeat IPC: 0.313366 cumulative IPC: 0.318452 (Simulation time: 0 hr 33 min 3 sec) 
Heartbeat CPU 0 instructions: 339000002 cycles: 1061926082 heartbeat IPC: 0.319665 cumulative IPC: 0.318456 (Simulation time: 0 hr 33 min 7 sec) 
Heartbeat CPU 0 instructions: 340000000 cycles: 1065033751 heartbeat IPC: 0.321784 cumulative IPC: 0.318465 (Simulation time: 0 hr 33 min 11 sec) 
Heartbeat CPU 0 instructions: 341000000 cycles: 1068206305 heartbeat IPC: 0.315203 cumulative IPC: 0.318456 (Simulation time: 0 hr 33 min 15 sec) 
Heartbeat CPU 0 instructions: 342000003 cycles: 1071418660 heartbeat IPC: 0.311299 cumulative IPC: 0.318434 (Simulation time: 0 hr 33 min 19 sec) 
Heartbeat CPU 0 instructions: 343000002 cycles: 1074334225 heartbeat IPC: 0.342986 cumulative IPC: 0.318501 (Simulation time: 0 hr 33 min 23 sec) 
Heartbeat CPU 0 instructions: 344000003 cycles: 1077634385 heartbeat IPC: 0.303016 cumulative IPC: 0.318453 (Simulation time: 0 hr 33 min 28 sec) 
Heartbeat CPU 0 instructions: 345000001 cycles: 1080674608 heartbeat IPC: 0.328923 cumulative IPC: 0.318483 (Simulation time: 0 hr 33 min 32 sec) 
Heartbeat CPU 0 instructions: 346000000 cycles: 1083897532 heartbeat IPC: 0.310277 cumulative IPC: 0.318458 (Simulation time: 0 hr 33 min 36 sec) 
Heartbeat CPU 0 instructions: 347000000 cycles: 1087039754 heartbeat IPC: 0.318246 cumulative IPC: 0.318458 (Simulation time: 0 hr 33 min 41 sec) 
Heartbeat CPU 0 instructions: 348000002 cycles: 1090167213 heartbeat IPC: 0.319749 cumulative IPC: 0.318462 (Simulation time: 0 hr 33 min 45 sec) 
Heartbeat CPU 0 instructions: 349000000 cycles: 1093464307 heartbeat IPC: 0.303297 cumulative IPC: 0.318416 (Simulation time: 0 hr 33 min 49 sec) 
Heartbeat CPU 0 instructions: 350000001 cycles: 1096615572 heartbeat IPC: 0.317333 cumulative IPC: 0.318413 (Simulation time: 0 hr 33 min 54 sec) 
Heartbeat CPU 0 instructions: 351000003 cycles: 1099521686 heartbeat IPC: 0.344103 cumulative IPC: 0.318481 (Simulation time: 0 hr 33 min 58 sec) 
Heartbeat CPU 0 instructions: 352000000 cycles: 1102688550 heartbeat IPC: 0.315769 cumulative IPC: 0.318473 (Simulation time: 0 hr 34 min 2 sec) 
Heartbeat CPU 0 instructions: 353000000 cycles: 1105789872 heartbeat IPC: 0.322443 cumulative IPC: 0.318484 (Simulation time: 0 hr 34 min 6 sec) 
Heartbeat CPU 0 instructions: 354000002 cycles: 1108924420 heartbeat IPC: 0.319026 cumulative IPC: 0.318486 (Simulation time: 0 hr 34 min 10 sec) 
Heartbeat CPU 0 instructions: 355000000 cycles: 1111983875 heartbeat IPC: 0.326855 cumulative IPC: 0.318509 (Simulation time: 0 hr 34 min 14 sec) 
Heartbeat CPU 0 instructions: 356000001 cycles: 1115357371 heartbeat IPC: 0.296429 cumulative IPC: 0.318442 (Simulation time: 0 hr 34 min 18 sec) 
Heartbeat CPU 0 instructions: 357000002 cycles: 1118422952 heartbeat IPC: 0.326203 cumulative IPC: 0.318463 (Simulation time: 0 hr 34 min 22 sec) 
Heartbeat CPU 0 instructions: 358000002 cycles: 1121508158 heartbeat IPC: 0.324127 cumulative IPC: 0.318479 (Simulation time: 0 hr 34 min 26 sec) 
Heartbeat CPU 0 instructions: 359000000 cycles: 1124641961 heartbeat IPC: 0.3191 cumulative IPC: 0.31848 (Simulation time: 0 hr 34 min 30 sec) 
Heartbeat CPU 0 instructions: 360000001 cycles: 1127805703 heartbeat IPC: 0.316082 cumulative IPC: 0.318474 (Simulation time: 0 hr 34 min 35 sec) 
Heartbeat CPU 0 instructions: 361000001 cycles: 1130891919 heartbeat IPC: 0.324021 cumulative IPC: 0.318489 (Simulation time: 0 hr 34 min 39 sec) 
Heartbeat CPU 0 instructions: 362000000 cycles: 1134114520 heartbeat IPC: 0.310308 cumulative IPC: 0.318466 (Simulation time: 0 hr 34 min 43 sec) 
Heartbeat CPU 0 instructions: 363000000 cycles: 1137317607 heartbeat IPC: 0.312199 cumulative IPC: 0.318448 (Simulation time: 0 hr 34 min 47 sec) 
Heartbeat CPU 0 instructions: 364000000 cycles: 1140358857 heartbeat IPC: 0.328812 cumulative IPC: 0.318476 (Simulation time: 0 hr 34 min 51 sec) 
Heartbeat CPU 0 instructions: 365000000 cycles: 1143418122 heartbeat IPC: 0.326876 cumulative IPC: 0.318498 (Simulation time: 0 hr 34 min 55 sec) 
Heartbeat CPU 0 instructions: 366000003 cycles: 1146595857 heartbeat IPC: 0.314691 cumulative IPC: 0.318487 (Simulation time: 0 hr 34 min 59 sec) 
Heartbeat CPU 0 instructions: 367000000 cycles: 1149756129 heartbeat IPC: 0.316427 cumulative IPC: 0.318482 (Simulation time: 0 hr 35 min 3 sec) 
Heartbeat CPU 0 instructions: 368000001 cycles: 1153018732 heartbeat IPC: 0.306504 cumulative IPC: 0.318448 (Simulation time: 0 hr 35 min 7 sec) 
Heartbeat CPU 0 instructions: 369000000 cycles: 1156060687 heartbeat IPC: 0.328736 cumulative IPC: 0.318475 (Simulation time: 0 hr 35 min 11 sec) 
Heartbeat CPU 0 instructions: 370000003 cycles: 1159114969 heartbeat IPC: 0.32741 cumulative IPC: 0.318498 (Simulation time: 0 hr 35 min 15 sec) 
Heartbeat CPU 0 instructions: 371000002 cycles: 1162275024 heartbeat IPC: 0.31645 cumulative IPC: 0.318493 (Simulation time: 0 hr 35 min 19 sec) 
Heartbeat CPU 0 instructions: 372000000 cycles: 1165336541 heartbeat IPC: 0.326635 cumulative IPC: 0.318514 (Simulation time: 0 hr 35 min 24 sec) 
Heartbeat CPU 0 instructions: 373000003 cycles: 1168520024 heartbeat IPC: 0.314122 cumulative IPC: 0.318502 (Simulation time: 0 hr 35 min 28 sec) 
Heartbeat CPU 0 instructions: 374000000 cycles: 1171621521 heartbeat IPC: 0.322424 cumulative IPC: 0.318513 (Simulation time: 0 hr 35 min 32 sec) 
Heartbeat CPU 0 instructions: 375000000 cycles: 1174893050 heartbeat IPC: 0.305667 cumulative IPC: 0.318477 (Simulation time: 0 hr 35 min 36 sec) 
Heartbeat CPU 0 instructions: 376000000 cycles: 1177848171 heartbeat IPC: 0.338396 cumulative IPC: 0.318527 (Simulation time: 0 hr 35 min 40 sec) 
Heartbeat CPU 0 instructions: 377000001 cycles: 1180945662 heartbeat IPC: 0.322842 cumulative IPC: 0.318538 (Simulation time: 0 hr 35 min 44 sec) 
Heartbeat CPU 0 instructions: 378000003 cycles: 1184127634 heartbeat IPC: 0.314271 cumulative IPC: 0.318527 (Simulation time: 0 hr 35 min 48 sec) 
Heartbeat CPU 0 instructions: 379000002 cycles: 1187252399 heartbeat IPC: 0.320024 cumulative IPC: 0.318531 (Simulation time: 0 hr 35 min 52 sec) 
Heartbeat CPU 0 instructions: 380000000 cycles: 1190369759 heartbeat IPC: 0.320784 cumulative IPC: 0.318537 (Simulation time: 0 hr 35 min 56 sec) 
Heartbeat CPU 0 instructions: 381000001 cycles: 1193511980 heartbeat IPC: 0.318247 cumulative IPC: 0.318536 (Simulation time: 0 hr 36 min 0 sec) 
Heartbeat CPU 0 instructions: 382000003 cycles: 1196688213 heartbeat IPC: 0.314839 cumulative IPC: 0.318526 (Simulation time: 0 hr 36 min 4 sec) 
Heartbeat CPU 0 instructions: 383000000 cycles: 1199780881 heartbeat IPC: 0.323344 cumulative IPC: 0.318538 (Simulation time: 0 hr 36 min 8 sec) 
Heartbeat CPU 0 instructions: 384000001 cycles: 1202848597 heartbeat IPC: 0.325976 cumulative IPC: 0.318557 (Simulation time: 0 hr 36 min 12 sec) 
Heartbeat CPU 0 instructions: 385000000 cycles: 1206090613 heartbeat IPC: 0.30845 cumulative IPC: 0.31853 (Simulation time: 0 hr 36 min 17 sec) 
Heartbeat CPU 0 instructions: 386000000 cycles: 1209306543 heartbeat IPC: 0.310952 cumulative IPC: 0.31851 (Simulation time: 0 hr 36 min 21 sec) 
Heartbeat CPU 0 instructions: 387000000 cycles: 1212283824 heartbeat IPC: 0.335877 cumulative IPC: 0.318553 (Simulation time: 0 hr 36 min 25 sec) 
Heartbeat CPU 0 instructions: 388000000 cycles: 1215603544 heartbeat IPC: 0.30123 cumulative IPC: 0.318505 (Simulation time: 0 hr 36 min 29 sec) 
Heartbeat CPU 0 instructions: 389000000 cycles: 1218516659 heartbeat IPC: 0.343275 cumulative IPC: 0.318565 (Simulation time: 0 hr 36 min 33 sec) 
Heartbeat CPU 0 instructions: 390000000 cycles: 1221642535 heartbeat IPC: 0.31991 cumulative IPC: 0.318568 (Simulation time: 0 hr 36 min 37 sec) 
Heartbeat CPU 0 instructions: 391000003 cycles: 1224813488 heartbeat IPC: 0.315364 cumulative IPC: 0.31856 (Simulation time: 0 hr 36 min 41 sec) 
Heartbeat CPU 0 instructions: 392000002 cycles: 1228058096 heartbeat IPC: 0.308203 cumulative IPC: 0.318532 (Simulation time: 0 hr 36 min 45 sec) 
Heartbeat CPU 0 instructions: 393000000 cycles: 1230979989 heartbeat IPC: 0.342243 cumulative IPC: 0.318589 (Simulation time: 0 hr 36 min 49 sec) 
Heartbeat CPU 0 instructions: 394000000 cycles: 1234091567 heartbeat IPC: 0.32138 cumulative IPC: 0.318596 (Simulation time: 0 hr 36 min 53 sec) 
Heartbeat CPU 0 instructions: 395000002 cycles: 1237122440 heartbeat IPC: 0.329939 cumulative IPC: 0.318624 (Simulation time: 0 hr 36 min 57 sec) 
Heartbeat CPU 0 instructions: 396000000 cycles: 1240262521 heartbeat IPC: 0.318462 cumulative IPC: 0.318623 (Simulation time: 0 hr 37 min 2 sec) 
Heartbeat CPU 0 instructions: 397000000 cycles: 1243431840 heartbeat IPC: 0.315525 cumulative IPC: 0.318615 (Simulation time: 0 hr 37 min 6 sec) 
Heartbeat CPU 0 instructions: 398000001 cycles: 1246611600 heartbeat IPC: 0.314489 cumulative IPC: 0.318605 (Simulation time: 0 hr 37 min 10 sec) 
Heartbeat CPU 0 instructions: 399000001 cycles: 1249713007 heartbeat IPC: 0.322434 cumulative IPC: 0.318614 (Simulation time: 0 hr 37 min 14 sec) 
Heartbeat CPU 0 instructions: 400000001 cycles: 1252841318 heartbeat IPC: 0.319661 cumulative IPC: 0.318617 (Simulation time: 0 hr 37 min 18 sec) 
Heartbeat CPU 0 instructions: 401000002 cycles: 1256050849 heartbeat IPC: 0.311572 cumulative IPC: 0.318599 (Simulation time: 0 hr 37 min 22 sec) 
Heartbeat CPU 0 instructions: 402000002 cycles: 1259436906 heartbeat IPC: 0.295329 cumulative IPC: 0.318536 (Simulation time: 0 hr 37 min 26 sec) 
Heartbeat CPU 0 instructions: 403000000 cycles: 1262436988 heartbeat IPC: 0.333324 cumulative IPC: 0.318571 (Simulation time: 0 hr 37 min 30 sec) 
Heartbeat CPU 0 instructions: 404000001 cycles: 1265670837 heartbeat IPC: 0.309229 cumulative IPC: 0.318548 (Simulation time: 0 hr 37 min 34 sec) 
Heartbeat CPU 0 instructions: 405000000 cycles: 1268848070 heartbeat IPC: 0.314739 cumulative IPC: 0.318538 (Simulation time: 0 hr 37 min 39 sec) 
Heartbeat CPU 0 instructions: 406000001 cycles: 1271972238 heartbeat IPC: 0.320086 cumulative IPC: 0.318542 (Simulation time: 0 hr 37 min 43 sec) 
Heartbeat CPU 0 instructions: 407000000 cycles: 1275139026 heartbeat IPC: 0.315777 cumulative IPC: 0.318535 (Simulation time: 0 hr 37 min 47 sec) 
Heartbeat CPU 0 instructions: 408000000 cycles: 1278636034 heartbeat IPC: 0.285959 cumulative IPC: 0.318446 (Simulation time: 0 hr 37 min 51 sec) 
Heartbeat CPU 0 instructions: 409000000 cycles: 1281327319 heartbeat IPC: 0.37157 cumulative IPC: 0.318558 (Simulation time: 0 hr 37 min 56 sec) 
Heartbeat CPU 0 instructions: 410000001 cycles: 1283751050 heartbeat IPC: 0.412587 cumulative IPC: 0.318735 (Simulation time: 0 hr 38 min 0 sec) 
Heartbeat CPU 0 instructions: 411000000 cycles: 1286969400 heartbeat IPC: 0.310718 cumulative IPC: 0.318715 (Simulation time: 0 hr 38 min 4 sec) 
Heartbeat CPU 0 instructions: 412000002 cycles: 1290618073 heartbeat IPC: 0.274073 cumulative IPC: 0.318589 (Simulation time: 0 hr 38 min 9 sec) 
Heartbeat CPU 0 instructions: 413000002 cycles: 1293320190 heartbeat IPC: 0.37008 cumulative IPC: 0.318696 (Simulation time: 0 hr 38 min 13 sec) 
Heartbeat CPU 0 instructions: 414000002 cycles: 1296456848 heartbeat IPC: 0.318811 cumulative IPC: 0.318697 (Simulation time: 0 hr 38 min 17 sec) 
Heartbeat CPU 0 instructions: 415000002 cycles: 1299301919 heartbeat IPC: 0.351485 cumulative IPC: 0.318769 (Simulation time: 0 hr 38 min 22 sec) 
Heartbeat CPU 0 instructions: 416000000 cycles: 1302424728 heartbeat IPC: 0.320224 cumulative IPC: 0.318772 (Simulation time: 0 hr 38 min 26 sec) 
Heartbeat CPU 0 instructions: 417000002 cycles: 1305584176 heartbeat IPC: 0.316512 cumulative IPC: 0.318767 (Simulation time: 0 hr 38 min 30 sec) 
Heartbeat CPU 0 instructions: 418000000 cycles: 1308716334 heartbeat IPC: 0.319268 cumulative IPC: 0.318768 (Simulation time: 0 hr 38 min 35 sec) 
Heartbeat CPU 0 instructions: 419000000 cycles: 1311920710 heartbeat IPC: 0.312073 cumulative IPC: 0.318751 (Simulation time: 0 hr 38 min 39 sec) 
Heartbeat CPU 0 instructions: 420000002 cycles: 1314949320 heartbeat IPC: 0.330185 cumulative IPC: 0.318778 (Simulation time: 0 hr 38 min 43 sec) 
Heartbeat CPU 0 instructions: 421000001 cycles: 1318137263 heartbeat IPC: 0.313682 cumulative IPC: 0.318765 (Simulation time: 0 hr 38 min 48 sec) 
Heartbeat CPU 0 instructions: 422000000 cycles: 1321317653 heartbeat IPC: 0.314427 cumulative IPC: 0.318755 (Simulation time: 0 hr 38 min 52 sec) 
Heartbeat CPU 0 instructions: 423000003 cycles: 1324500086 heartbeat IPC: 0.314226 cumulative IPC: 0.318744 (Simulation time: 0 hr 38 min 56 sec) 
Heartbeat CPU 0 instructions: 424000001 cycles: 1327494642 heartbeat IPC: 0.333939 cumulative IPC: 0.318778 (Simulation time: 0 hr 39 min 1 sec) 
Heartbeat CPU 0 instructions: 425000001 cycles: 1330667133 heartbeat IPC: 0.31521 cumulative IPC: 0.31877 (Simulation time: 0 hr 39 min 5 sec) 
Heartbeat CPU 0 instructions: 426000000 cycles: 1333778249 heartbeat IPC: 0.321428 cumulative IPC: 0.318776 (Simulation time: 0 hr 39 min 9 sec) 
Heartbeat CPU 0 instructions: 427000000 cycles: 1337181922 heartbeat IPC: 0.2938 cumulative IPC: 0.318712 (Simulation time: 0 hr 39 min 14 sec) 
Heartbeat CPU 0 instructions: 428000001 cycles: 1340206088 heartbeat IPC: 0.33067 cumulative IPC: 0.318739 (Simulation time: 0 hr 39 min 18 sec) 
Heartbeat CPU 0 instructions: 429000000 cycles: 1343621055 heartbeat IPC: 0.292828 cumulative IPC: 0.318674 (Simulation time: 0 hr 39 min 22 sec) 
Heartbeat CPU 0 instructions: 430000000 cycles: 1346460813 heartbeat IPC: 0.352143 cumulative IPC: 0.318744 (Simulation time: 0 hr 39 min 26 sec) 
Heartbeat CPU 0 instructions: 431000000 cycles: 1349709238 heartbeat IPC: 0.307841 cumulative IPC: 0.318718 (Simulation time: 0 hr 39 min 31 sec) 
Heartbeat CPU 0 instructions: 432000001 cycles: 1352630490 heartbeat IPC: 0.342319 cumulative IPC: 0.318769 (Simulation time: 0 hr 39 min 35 sec) 
Heartbeat CPU 0 instructions: 433000002 cycles: 1355789154 heartbeat IPC: 0.31659 cumulative IPC: 0.318764 (Simulation time: 0 hr 39 min 39 sec) 
Heartbeat CPU 0 instructions: 434000000 cycles: 1359148727 heartbeat IPC: 0.297656 cumulative IPC: 0.318712 (Simulation time: 0 hr 39 min 44 sec) 
Heartbeat CPU 0 instructions: 435000000 cycles: 1362344399 heartbeat IPC: 0.312923 cumulative IPC: 0.318698 (Simulation time: 0 hr 39 min 48 sec) 
Heartbeat CPU 0 instructions: 436000003 cycles: 1365416579 heartbeat IPC: 0.325503 cumulative IPC: 0.318713 (Simulation time: 0 hr 39 min 52 sec) 
Heartbeat CPU 0 instructions: 437000001 cycles: 1368186055 heartbeat IPC: 0.361078 cumulative IPC: 0.318799 (Simulation time: 0 hr 39 min 57 sec) 
Heartbeat CPU 0 instructions: 438000001 cycles: 1371387245 heartbeat IPC: 0.312384 cumulative IPC: 0.318784 (Simulation time: 0 hr 40 min 1 sec) 
Heartbeat CPU 0 instructions: 439000003 cycles: 1374863705 heartbeat IPC: 0.28765 cumulative IPC: 0.318705 (Simulation time: 0 hr 40 min 6 sec) 
Heartbeat CPU 0 instructions: 440000000 cycles: 1378096361 heartbeat IPC: 0.309342 cumulative IPC: 0.318683 (Simulation time: 0 hr 40 min 10 sec) 
Heartbeat CPU 0 instructions: 441000000 cycles: 1381274846 heartbeat IPC: 0.314615 cumulative IPC: 0.318674 (Simulation time: 0 hr 40 min 14 sec) 
Heartbeat CPU 0 instructions: 442000000 cycles: 1384494482 heartbeat IPC: 0.310594 cumulative IPC: 0.318655 (Simulation time: 0 hr 40 min 19 sec) 
Heartbeat CPU 0 instructions: 443000003 cycles: 1387659760 heartbeat IPC: 0.315929 cumulative IPC: 0.318649 (Simulation time: 0 hr 40 min 23 sec) 
Heartbeat CPU 0 instructions: 444000001 cycles: 1390802336 heartbeat IPC: 0.31821 cumulative IPC: 0.318648 (Simulation time: 0 hr 40 min 27 sec) 
Heartbeat CPU 0 instructions: 445000001 cycles: 1393782736 heartbeat IPC: 0.335525 cumulative IPC: 0.318684 (Simulation time: 0 hr 40 min 32 sec) 
Heartbeat CPU 0 instructions: 446000000 cycles: 1396980681 heartbeat IPC: 0.312701 cumulative IPC: 0.31867 (Simulation time: 0 hr 40 min 36 sec) 
Heartbeat CPU 0 instructions: 447000001 cycles: 1400241122 heartbeat IPC: 0.306707 cumulative IPC: 0.318643 (Simulation time: 0 hr 40 min 40 sec) 
Heartbeat CPU 0 instructions: 448000000 cycles: 1403399592 heartbeat IPC: 0.316609 cumulative IPC: 0.318638 (Simulation time: 0 hr 40 min 45 sec) 
Heartbeat CPU 0 instructions: 449000001 cycles: 1406493165 heartbeat IPC: 0.323251 cumulative IPC: 0.318648 (Simulation time: 0 hr 40 min 49 sec) 
Heartbeat CPU 0 instructions: 450000002 cycles: 1409603880 heartbeat IPC: 0.32147 cumulative IPC: 0.318654 (Simulation time: 0 hr 40 min 53 sec) 

Warmup complete CPU 0 instructions: 450000002 cycles: 1409603880 (Simulation time: 0 hr 40 min 53 sec) 

Heartbeat CPU 0 instructions: 451000000 cycles: 1412313896 heartbeat IPC: 0.369001 cumulative IPC: 0.369001 (Simulation time: 0 hr 40 min 58 sec) 
Heartbeat CPU 0 instructions: 452000002 cycles: 1415231472 heartbeat IPC: 0.342751 cumulative IPC: 0.355392 (Simulation time: 0 hr 41 min 2 sec) 
Heartbeat CPU 0 instructions: 453000002 cycles: 1417953241 heartbeat IPC: 0.367408 cumulative IPC: 0.359309 (Simulation time: 0 hr 41 min 6 sec) 
Heartbeat CPU 0 instructions: 454000003 cycles: 1420691401 heartbeat IPC: 0.365209 cumulative IPC: 0.360766 (Simulation time: 0 hr 41 min 10 sec) 
Heartbeat CPU 0 instructions: 455000001 cycles: 1423420064 heartbeat IPC: 0.366479 cumulative IPC: 0.361894 (Simulation time: 0 hr 41 min 14 sec) 
Heartbeat CPU 0 instructions: 456000001 cycles: 1426087226 heartbeat IPC: 0.37493 cumulative IPC: 0.364004 (Simulation time: 0 hr 41 min 19 sec) 
Heartbeat CPU 0 instructions: 457000001 cycles: 1428787708 heartbeat IPC: 0.370304 cumulative IPC: 0.364891 (Simulation time: 0 hr 41 min 23 sec) 
Heartbeat CPU 0 instructions: 458000000 cycles: 1431552295 heartbeat IPC: 0.361717 cumulative IPC: 0.364491 (Simulation time: 0 hr 41 min 27 sec) 
Heartbeat CPU 0 instructions: 459000001 cycles: 1434437657 heartbeat IPC: 0.346577 cumulative IPC: 0.36241 (Simulation time: 0 hr 41 min 31 sec) 
Heartbeat CPU 0 instructions: 460000000 cycles: 1437279832 heartbeat IPC: 0.351843 cumulative IPC: 0.361324 (Simulation time: 0 hr 41 min 35 sec) 
Heartbeat CPU 0 instructions: 461000000 cycles: 1440023244 heartbeat IPC: 0.36451 cumulative IPC: 0.361612 (Simulation time: 0 hr 41 min 40 sec) 
Heartbeat CPU 0 instructions: 462000000 cycles: 1443078758 heartbeat IPC: 0.327277 cumulative IPC: 0.358478 (Simulation time: 0 hr 41 min 44 sec) 
Heartbeat CPU 0 instructions: 463000000 cycles: 1445522941 heartbeat IPC: 0.409135 cumulative IPC: 0.361925 (Simulation time: 0 hr 41 min 48 sec) 
Heartbeat CPU 0 instructions: 464000000 cycles: 1448389498 heartbeat IPC: 0.348851 cumulative IPC: 0.360958 (Simulation time: 0 hr 41 min 52 sec) 
Heartbeat CPU 0 instructions: 465000002 cycles: 1451030566 heartbeat IPC: 0.378635 cumulative IPC: 0.362085 (Simulation time: 0 hr 41 min 56 sec) 
Heartbeat CPU 0 instructions: 466000000 cycles: 1453729889 heartbeat IPC: 0.370463 cumulative IPC: 0.362598 (Simulation time: 0 hr 42 min 0 sec) 
Heartbeat CPU 0 instructions: 467000000 cycles: 1456448058 heartbeat IPC: 0.367895 cumulative IPC: 0.362905 (Simulation time: 0 hr 42 min 5 sec) 
Heartbeat CPU 0 instructions: 468000003 cycles: 1459215708 heartbeat IPC: 0.361318 cumulative IPC: 0.362817 (Simulation time: 0 hr 42 min 9 sec) 
Heartbeat CPU 0 instructions: 469000003 cycles: 1462050598 heartbeat IPC: 0.352747 cumulative IPC: 0.362272 (Simulation time: 0 hr 42 min 13 sec) 
Heartbeat CPU 0 instructions: 470000001 cycles: 1464675887 heartbeat IPC: 0.38091 cumulative IPC: 0.363161 (Simulation time: 0 hr 42 min 17 sec) 
Heartbeat CPU 0 instructions: 471000002 cycles: 1467310465 heartbeat IPC: 0.379568 cumulative IPC: 0.36391 (Simulation time: 0 hr 42 min 21 sec) 
Heartbeat CPU 0 instructions: 472000000 cycles: 1470112518 heartbeat IPC: 0.35688 cumulative IPC: 0.363584 (Simulation time: 0 hr 42 min 26 sec) 
Heartbeat CPU 0 instructions: 473000000 cycles: 1472873692 heartbeat IPC: 0.362165 cumulative IPC: 0.363522 (Simulation time: 0 hr 42 min 30 sec) 
Heartbeat CPU 0 instructions: 474000001 cycles: 1475817793 heartbeat IPC: 0.339663 cumulative IPC: 0.362462 (Simulation time: 0 hr 42 min 34 sec) 
Heartbeat CPU 0 instructions: 475000001 cycles: 1478360924 heartbeat IPC: 0.393216 cumulative IPC: 0.363599 (Simulation time: 0 hr 42 min 38 sec) 
Heartbeat CPU 0 instructions: 476000001 cycles: 1481233501 heartbeat IPC: 0.348119 cumulative IPC: 0.362978 (Simulation time: 0 hr 42 min 42 sec) 
Heartbeat CPU 0 instructions: 477000002 cycles: 1483806306 heartbeat IPC: 0.388681 cumulative IPC: 0.36387 (Simulation time: 0 hr 42 min 46 sec) 
Heartbeat CPU 0 instructions: 478000001 cycles: 1486563569 heartbeat IPC: 0.362678 cumulative IPC: 0.363827 (Simulation time: 0 hr 42 min 51 sec) 
Heartbeat CPU 0 instructions: 479000000 cycles: 1489318099 heartbeat IPC: 0.363038 cumulative IPC: 0.3638 (Simulation time: 0 hr 42 min 55 sec) 
Heartbeat CPU 0 instructions: 480000003 cycles: 1492158757 heartbeat IPC: 0.352032 cumulative IPC: 0.363395 (Simulation time: 0 hr 42 min 59 sec) 
Heartbeat CPU 0 instructions: 481000000 cycles: 1495070896 heartbeat IPC: 0.343389 cumulative IPC: 0.362713 (Simulation time: 0 hr 43 min 3 sec) 
Heartbeat CPU 0 instructions: 482000003 cycles: 1497864960 heartbeat IPC: 0.357903 cumulative IPC: 0.362561 (Simulation time: 0 hr 43 min 7 sec) 
Heartbeat CPU 0 instructions: 483000001 cycles: 1500841629 heartbeat IPC: 0.335945 cumulative IPC: 0.361692 (Simulation time: 0 hr 43 min 12 sec) 
Heartbeat CPU 0 instructions: 484000000 cycles: 1503558455 heartbeat IPC: 0.368076 cumulative IPC: 0.361877 (Simulation time: 0 hr 43 min 16 sec) 
Heartbeat CPU 0 instructions: 485000000 cycles: 1506573548 heartbeat IPC: 0.331665 cumulative IPC: 0.360938 (Simulation time: 0 hr 43 min 20 sec) 
Heartbeat CPU 0 instructions: 486000000 cycles: 1509382700 heartbeat IPC: 0.355979 cumulative IPC: 0.360798 (Simulation time: 0 hr 43 min 24 sec) 
Heartbeat CPU 0 instructions: 487000000 cycles: 1511961019 heartbeat IPC: 0.38785 cumulative IPC: 0.361479 (Simulation time: 0 hr 43 min 28 sec) 
Heartbeat CPU 0 instructions: 488000002 cycles: 1514729931 heartbeat IPC: 0.361153 cumulative IPC: 0.361471 (Simulation time: 0 hr 43 min 32 sec) 
Heartbeat CPU 0 instructions: 489000003 cycles: 1517628058 heartbeat IPC: 0.345051 cumulative IPC: 0.36103 (Simulation time: 0 hr 43 min 37 sec) 
Heartbeat CPU 0 instructions: 490000002 cycles: 1520470007 heartbeat IPC: 0.351871 cumulative IPC: 0.360795 (Simulation time: 0 hr 43 min 41 sec) 
Heartbeat CPU 0 instructions: 491000001 cycles: 1522931560 heartbeat IPC: 0.406247 cumulative IPC: 0.361783 (Simulation time: 0 hr 43 min 45 sec) 
Heartbeat CPU 0 instructions: 492000002 cycles: 1525679089 heartbeat IPC: 0.363964 cumulative IPC: 0.361834 (Simulation time: 0 hr 43 min 49 sec) 
Heartbeat CPU 0 instructions: 493000003 cycles: 1528395487 heartbeat IPC: 0.368135 cumulative IPC: 0.361978 (Simulation time: 0 hr 43 min 53 sec) 
Heartbeat CPU 0 instructions: 494000003 cycles: 1531281990 heartbeat IPC: 0.34644 cumulative IPC: 0.36161 (Simulation time: 0 hr 43 min 57 sec) 
Heartbeat CPU 0 instructions: 495000000 cycles: 1534024958 heartbeat IPC: 0.364568 cumulative IPC: 0.361675 (Simulation time: 0 hr 44 min 2 sec) 
Heartbeat CPU 0 instructions: 496000001 cycles: 1536644083 heartbeat IPC: 0.381807 cumulative IPC: 0.36209 (Simulation time: 0 hr 44 min 6 sec) 
Heartbeat CPU 0 instructions: 497000000 cycles: 1539325330 heartbeat IPC: 0.37296 cumulative IPC: 0.362315 (Simulation time: 0 hr 44 min 10 sec) 
Heartbeat CPU 0 instructions: 498000001 cycles: 1542207231 heartbeat IPC: 0.346994 cumulative IPC: 0.361982 (Simulation time: 0 hr 44 min 14 sec) 
Heartbeat CPU 0 instructions: 499000003 cycles: 1544881416 heartbeat IPC: 0.373946 cumulative IPC: 0.362218 (Simulation time: 0 hr 44 min 18 sec) 
Heartbeat CPU 0 instructions: 500000001 cycles: 1547701238 heartbeat IPC: 0.354632 cumulative IPC: 0.362063 (Simulation time: 0 hr 44 min 22 sec) 
Heartbeat CPU 0 instructions: 501000001 cycles: 1550639558 heartbeat IPC: 0.340331 cumulative IPC: 0.361611 (Simulation time: 0 hr 44 min 27 sec) 
Heartbeat CPU 0 instructions: 502000003 cycles: 1553473583 heartbeat IPC: 0.352856 cumulative IPC: 0.361438 (Simulation time: 0 hr 44 min 31 sec) 
Heartbeat CPU 0 instructions: 503000000 cycles: 1556133209 heartbeat IPC: 0.375992 cumulative IPC: 0.361702 (Simulation time: 0 hr 44 min 35 sec) 
Heartbeat CPU 0 instructions: 504000001 cycles: 1558786593 heartbeat IPC: 0.376878 cumulative IPC: 0.361972 (Simulation time: 0 hr 44 min 39 sec) 
Heartbeat CPU 0 instructions: 505000000 cycles: 1561593019 heartbeat IPC: 0.356325 cumulative IPC: 0.361868 (Simulation time: 0 hr 44 min 43 sec) 
Heartbeat CPU 0 instructions: 506000000 cycles: 1564547461 heartbeat IPC: 0.338473 cumulative IPC: 0.361422 (Simulation time: 0 hr 44 min 48 sec) 
Heartbeat CPU 0 instructions: 507000000 cycles: 1567365731 heartbeat IPC: 0.354828 cumulative IPC: 0.361304 (Simulation time: 0 hr 44 min 52 sec) 
Heartbeat CPU 0 instructions: 508000000 cycles: 1570123190 heartbeat IPC: 0.362653 cumulative IPC: 0.361327 (Simulation time: 0 hr 44 min 56 sec) 
Heartbeat CPU 0 instructions: 509000000 cycles: 1572840136 heartbeat IPC: 0.36806 cumulative IPC: 0.361439 (Simulation time: 0 hr 45 min 0 sec) 
Heartbeat CPU 0 instructions: 510000001 cycles: 1575556912 heartbeat IPC: 0.368084 cumulative IPC: 0.361548 (Simulation time: 0 hr 45 min 4 sec) 
Heartbeat CPU 0 instructions: 511000002 cycles: 1578319174 heartbeat IPC: 0.362022 cumulative IPC: 0.361556 (Simulation time: 0 hr 45 min 8 sec) 
Heartbeat CPU 0 instructions: 512000001 cycles: 1581224069 heartbeat IPC: 0.344246 cumulative IPC: 0.361263 (Simulation time: 0 hr 45 min 13 sec) 
Heartbeat CPU 0 instructions: 513000003 cycles: 1584114798 heartbeat IPC: 0.345934 cumulative IPC: 0.361009 (Simulation time: 0 hr 45 min 17 sec) 
Heartbeat CPU 0 instructions: 514000002 cycles: 1586830934 heartbeat IPC: 0.36817 cumulative IPC: 0.361119 (Simulation time: 0 hr 45 min 21 sec) 
Heartbeat CPU 0 instructions: 515000003 cycles: 1589457816 heartbeat IPC: 0.38068 cumulative IPC: 0.361404 (Simulation time: 0 hr 45 min 25 sec) 
Heartbeat CPU 0 instructions: 516000003 cycles: 1592102166 heartbeat IPC: 0.378165 cumulative IPC: 0.361647 (Simulation time: 0 hr 45 min 29 sec) 
Heartbeat CPU 0 instructions: 517000000 cycles: 1594778088 heartbeat IPC: 0.373702 cumulative IPC: 0.361821 (Simulation time: 0 hr 45 min 33 sec) 
Heartbeat CPU 0 instructions: 518000000 cycles: 1597569231 heartbeat IPC: 0.358276 cumulative IPC: 0.361769 (Simulation time: 0 hr 45 min 37 sec) 
Heartbeat CPU 0 instructions: 519000002 cycles: 1600321678 heartbeat IPC: 0.363314 cumulative IPC: 0.361791 (Simulation time: 0 hr 45 min 42 sec) 
Heartbeat CPU 0 instructions: 520000000 cycles: 1603246521 heartbeat IPC: 0.341898 cumulative IPC: 0.361491 (Simulation time: 0 hr 45 min 46 sec) 
Heartbeat CPU 0 instructions: 521000000 cycles: 1605934645 heartbeat IPC: 0.372007 cumulative IPC: 0.361635 (Simulation time: 0 hr 45 min 50 sec) 
Heartbeat CPU 0 instructions: 522000003 cycles: 1608762220 heartbeat IPC: 0.353661 cumulative IPC: 0.361521 (Simulation time: 0 hr 45 min 54 sec) 
Heartbeat CPU 0 instructions: 523000002 cycles: 1611335409 heartbeat IPC: 0.388622 cumulative IPC: 0.361867 (Simulation time: 0 hr 45 min 58 sec) 
Heartbeat CPU 0 instructions: 524000001 cycles: 1613832990 heartbeat IPC: 0.400387 cumulative IPC: 0.362338 (Simulation time: 0 hr 46 min 2 sec) 
Heartbeat CPU 0 instructions: 525000001 cycles: 1615971181 heartbeat IPC: 0.467685 cumulative IPC: 0.36343 (Simulation time: 0 hr 46 min 6 sec) 
Heartbeat CPU 0 instructions: 526000001 cycles: 1618762430 heartbeat IPC: 0.358263 cumulative IPC: 0.363361 (Simulation time: 0 hr 46 min 11 sec) 
Heartbeat CPU 0 instructions: 527000002 cycles: 1621614192 heartbeat IPC: 0.350661 cumulative IPC: 0.36319 (Simulation time: 0 hr 46 min 15 sec) 
Heartbeat CPU 0 instructions: 528000000 cycles: 1624384477 heartbeat IPC: 0.360973 cumulative IPC: 0.363161 (Simulation time: 0 hr 46 min 19 sec) 
Heartbeat CPU 0 instructions: 529000001 cycles: 1627114640 heartbeat IPC: 0.366279 cumulative IPC: 0.3632 (Simulation time: 0 hr 46 min 23 sec) 
Heartbeat CPU 0 instructions: 530000002 cycles: 1630022553 heartbeat IPC: 0.34389 cumulative IPC: 0.362946 (Simulation time: 0 hr 46 min 27 sec) 
Heartbeat CPU 0 instructions: 531000000 cycles: 1632713575 heartbeat IPC: 0.371605 cumulative IPC: 0.36305 (Simulation time: 0 hr 46 min 32 sec) 
Heartbeat CPU 0 instructions: 532000000 cycles: 1635430003 heartbeat IPC: 0.368131 cumulative IPC: 0.363111 (Simulation time: 0 hr 46 min 36 sec) 
Heartbeat CPU 0 instructions: 533000003 cycles: 1638374109 heartbeat IPC: 0.339663 cumulative IPC: 0.362809 (Simulation time: 0 hr 46 min 40 sec) 
Heartbeat CPU 0 instructions: 534000002 cycles: 1641333126 heartbeat IPC: 0.33795 cumulative IPC: 0.362492 (Simulation time: 0 hr 46 min 44 sec) 
Heartbeat CPU 0 instructions: 535000002 cycles: 1644247793 heartbeat IPC: 0.343092 cumulative IPC: 0.362251 (Simulation time: 0 hr 46 min 48 sec) 
Heartbeat CPU 0 instructions: 536000002 cycles: 1647014774 heartbeat IPC: 0.361405 cumulative IPC: 0.362241 (Simulation time: 0 hr 46 min 53 sec) 
Heartbeat CPU 0 instructions: 537000002 cycles: 1649836266 heartbeat IPC: 0.354422 cumulative IPC: 0.362149 (Simulation time: 0 hr 46 min 57 sec) 
Heartbeat CPU 0 instructions: 538000000 cycles: 1652647829 heartbeat IPC: 0.355673 cumulative IPC: 0.362074 (Simulation time: 0 hr 47 min 1 sec) 
Heartbeat CPU 0 instructions: 539000000 cycles: 1655347825 heartbeat IPC: 0.370371 cumulative IPC: 0.362166 (Simulation time: 0 hr 47 min 5 sec) 
Heartbeat CPU 0 instructions: 540000000 cycles: 1658230484 heartbeat IPC: 0.346902 cumulative IPC: 0.361989 (Simulation time: 0 hr 47 min 9 sec) 
Heartbeat CPU 0 instructions: 541000000 cycles: 1660929283 heartbeat IPC: 0.370535 cumulative IPC: 0.36208 (Simulation time: 0 hr 47 min 14 sec) 
Heartbeat CPU 0 instructions: 542000000 cycles: 1663727521 heartbeat IPC: 0.357368 cumulative IPC: 0.362028 (Simulation time: 0 hr 47 min 18 sec) 
Heartbeat CPU 0 instructions: 543000000 cycles: 1666508075 heartbeat IPC: 0.359641 cumulative IPC: 0.362003 (Simulation time: 0 hr 47 min 22 sec) 
Heartbeat CPU 0 instructions: 544000002 cycles: 1669111479 heartbeat IPC: 0.384113 cumulative IPC: 0.362224 (Simulation time: 0 hr 47 min 26 sec) 
Heartbeat CPU 0 instructions: 545000000 cycles: 1671799203 heartbeat IPC: 0.372061 cumulative IPC: 0.362325 (Simulation time: 0 hr 47 min 30 sec) 
[...]
Heartbeat CPU 0 instructions: 836000000 cycles: 2463515721 heartbeat IPC: 0.388954 cumulative IPC: 0.366255 (Simulation time: 1 hr 7 min 8 sec) 
Heartbeat CPU 0 instructions: 837000001 cycles: 2466293159 heartbeat IPC: 0.360044 cumulative IPC: 0.366238 (Simulation time: 1 hr 7 min 12 sec) 
Heartbeat CPU 0 instructions: 838000003 cycles: 2468532252 heartbeat IPC: 0.44661 cumulative IPC: 0.366408 (Simulation time: 1 hr 7 min 16 sec) 
Heartbeat CPU 0 instructions: 839000001 cycles: 2470915022 heartbeat IPC: 0.419679 cumulative IPC: 0.366528 (Simulation time: 1 hr 7 min 20 sec) 
Heartbeat CPU 0 instructions: 840000001 cycles: 2473750585 heartbeat IPC: 0.352664 cumulative IPC: 0.366491 (Simulation time: 1 hr 7 min 24 sec) 
Heartbeat CPU 0 instructions: 841000000 cycles: 2476345002 heartbeat IPC: 0.385443 cumulative IPC: 0.366537 (Simulation time: 1 hr 7 min 27 sec) 
Heartbeat CPU 0 instructions: 842000001 cycles: 2479201826 heartbeat IPC: 0.350039 cumulative IPC: 0.366493 (Simulation time: 1 hr 7 min 31 sec) 
Heartbeat CPU 0 instructions: 843000002 cycles: 2481950319 heartbeat IPC: 0.363836 cumulative IPC: 0.366486 (Simulation time: 1 hr 7 min 35 sec) 
Heartbeat CPU 0 instructions: 844000000 cycles: 2484755922 heartbeat IPC: 0.356429 cumulative IPC: 0.36646 (Simulation time: 1 hr 7 min 40 sec) 
Heartbeat CPU 0 instructions: 845000002 cycles: 2487480337 heartbeat IPC: 0.367052 cumulative IPC: 0.366461 (Simulation time: 1 hr 7 min 44 sec) 
Heartbeat CPU 0 instructions: 846000001 cycles: 2490038611 heartbeat IPC: 0.390888 cumulative IPC: 0.366519 (Simulation time: 1 hr 7 min 48 sec) 
Heartbeat CPU 0 instructions: 847000000 cycles: 2492809517 heartbeat IPC: 0.360892 cumulative IPC: 0.366505 (Simulation time: 1 hr 7 min 52 sec) 
Heartbeat CPU 0 instructions: 848000001 cycles: 2495479116 heartbeat IPC: 0.374588 cumulative IPC: 0.366525 (Simulation time: 1 hr 7 min 56 sec) 
Heartbeat CPU 0 instructions: 849000000 cycles: 2498292155 heartbeat IPC: 0.355487 cumulative IPC: 0.366496 (Simulation time: 1 hr 8 min 0 sec) 
Heartbeat CPU 0 instructions: 850000003 cycles: 2501162525 heartbeat IPC: 0.348388 cumulative IPC: 0.366448 (Simulation time: 1 hr 8 min 4 sec) 
Heartbeat CPU 0 instructions: 851000003 cycles: 2503847999 heartbeat IPC: 0.372374 cumulative IPC: 0.366463 (Simulation time: 1 hr 8 min 8 sec) 
Heartbeat CPU 0 instructions: 852000003 cycles: 2506588286 heartbeat IPC: 0.364925 cumulative IPC: 0.366459 (Simulation time: 1 hr 8 min 13 sec) 
Heartbeat CPU 0 instructions: 853000002 cycles: 2509315325 heartbeat IPC: 0.366698 cumulative IPC: 0.36646 (Simulation time: 1 hr 8 min 17 sec) 
Heartbeat CPU 0 instructions: 854000000 cycles: 2512090420 heartbeat IPC: 0.360347 cumulative IPC: 0.366444 (Simulation time: 1 hr 8 min 21 sec) 
Heartbeat CPU 0 instructions: 855000003 cycles: 2514813059 heartbeat IPC: 0.367292 cumulative IPC: 0.366446 (Simulation time: 1 hr 8 min 25 sec) 
Heartbeat CPU 0 instructions: 856000000 cycles: 2517607498 heartbeat IPC: 0.357853 cumulative IPC: 0.366425 (Simulation time: 1 hr 8 min 29 sec) 
Heartbeat CPU 0 instructions: 857000001 cycles: 2520315593 heartbeat IPC: 0.369264 cumulative IPC: 0.366432 (Simulation time: 1 hr 8 min 33 sec) 
Heartbeat CPU 0 instructions: 858000000 cycles: 2523199424 heartbeat IPC: 0.346761 cumulative IPC: 0.366381 (Simulation time: 1 hr 8 min 37 sec) 
Heartbeat CPU 0 instructions: 859000000 cycles: 2526114951 heartbeat IPC: 0.342991 cumulative IPC: 0.36632 (Simulation time: 1 hr 8 min 41 sec) 
Heartbeat CPU 0 instructions: 860000000 cycles: 2528830774 heartbeat IPC: 0.368213 cumulative IPC: 0.366324 (Simulation time: 1 hr 8 min 45 sec) 
Heartbeat CPU 0 instructions: 861000001 cycles: 2531571224 heartbeat IPC: 0.364904 cumulative IPC: 0.366321 (Simulation time: 1 hr 8 min 49 sec) 
Heartbeat CPU 0 instructions: 862000000 cycles: 2534363407 heartbeat IPC: 0.358142 cumulative IPC: 0.366301 (Simulation time: 1 hr 8 min 53 sec) 
Heartbeat CPU 0 instructions: 863000000 cycles: 2537026951 heartbeat IPC: 0.37544 cumulative IPC: 0.366322 (Simulation time: 1 hr 8 min 57 sec) 
Heartbeat CPU 0 instructions: 864000001 cycles: 2539762557 heartbeat IPC: 0.36555 cumulative IPC: 0.36632 (Simulation time: 1 hr 9 min 1 sec) 
Heartbeat CPU 0 instructions: 865000002 cycles: 2542614755 heartbeat IPC: 0.350607 cumulative IPC: 0.366281 (Simulation time: 1 hr 9 min 5 sec) 
Heartbeat CPU 0 instructions: 866000003 cycles: 2545351303 heartbeat IPC: 0.365424 cumulative IPC: 0.366279 (Simulation time: 1 hr 9 min 9 sec) 
Heartbeat CPU 0 instructions: 867000003 cycles: 2548004036 heartbeat IPC: 0.37697 cumulative IPC: 0.366304 (Simulation time: 1 hr 9 min 13 sec) 
Heartbeat CPU 0 instructions: 868000000 cycles: 2550828652 heartbeat IPC: 0.354029 cumulative IPC: 0.366273 (Simulation time: 1 hr 9 min 17 sec) 
Heartbeat CPU 0 instructions: 869000000 cycles: 2553710050 heartbeat IPC: 0.347054 cumulative IPC: 0.366225 (Simulation time: 1 hr 9 min 21 sec) 
Heartbeat CPU 0 instructions: 870000000 cycles: 2556420102 heartbeat IPC: 0.368997 cumulative IPC: 0.366231 (Simulation time: 1 hr 9 min 25 sec) 
Heartbeat CPU 0 instructions: 871000001 cycles: 2559145636 heartbeat IPC: 0.366901 cumulative IPC: 0.366233 (Simulation time: 1 hr 9 min 29 sec) 
Heartbeat CPU 0 instructions: 872000000 cycles: 2561841419 heartbeat IPC: 0.370949 cumulative IPC: 0.366244 (Simulation time: 1 hr 9 min 33 sec) 
Heartbeat CPU 0 instructions: 873000003 cycles: 2564703584 heartbeat IPC: 0.349387 cumulative IPC: 0.366202 (Simulation time: 1 hr 9 min 38 sec) 
Heartbeat CPU 0 instructions: 874000000 cycles: 2567594821 heartbeat IPC: 0.345872 cumulative IPC: 0.366151 (Simulation time: 1 hr 9 min 42 sec) 
Heartbeat CPU 0 instructions: 875000003 cycles: 2570501696 heartbeat IPC: 0.344013 cumulative IPC: 0.366096 (Simulation time: 1 hr 9 min 46 sec) 
Heartbeat CPU 0 instructions: 876000000 cycles: 2573242034 heartbeat IPC: 0.364917 cumulative IPC: 0.366093 (Simulation time: 1 hr 9 min 50 sec) 
Heartbeat CPU 0 instructions: 877000002 cycles: 2575964300 heartbeat IPC: 0.367342 cumulative IPC: 0.366096 (Simulation time: 1 hr 9 min 54 sec) 
Heartbeat CPU 0 instructions: 878000000 cycles: 2578652764 heartbeat IPC: 0.371959 cumulative IPC: 0.36611 (Simulation time: 1 hr 9 min 58 sec) 
Heartbeat CPU 0 instructions: 879000000 cycles: 2581365459 heartbeat IPC: 0.368637 cumulative IPC: 0.366115 (Simulation time: 1 hr 10 min 2 sec) 
Heartbeat CPU 0 instructions: 880000000 cycles: 2584235376 heartbeat IPC: 0.348442 cumulative IPC: 0.366072 (Simulation time: 1 hr 10 min 6 sec) 
Heartbeat CPU 0 instructions: 881000002 cycles: 2586910760 heartbeat IPC: 0.373779 cumulative IPC: 0.36609 (Simulation time: 1 hr 10 min 10 sec) 
Heartbeat CPU 0 instructions: 882000000 cycles: 2589670037 heartbeat IPC: 0.362413 cumulative IPC: 0.366081 (Simulation time: 1 hr 10 min 13 sec) 
Heartbeat CPU 0 instructions: 883000001 cycles: 2592411979 heartbeat IPC: 0.364705 cumulative IPC: 0.366078 (Simulation time: 1 hr 10 min 17 sec) 
Heartbeat CPU 0 instructions: 884000000 cycles: 2595105382 heartbeat IPC: 0.371277 cumulative IPC: 0.36609 (Simulation time: 1 hr 10 min 21 sec) 
Heartbeat CPU 0 instructions: 885000000 cycles: 2597635396 heartbeat IPC: 0.395255 cumulative IPC: 0.366152 (Simulation time: 1 hr 10 min 25 sec) 
Heartbeat CPU 0 instructions: 886000000 cycles: 2600329951 heartbeat IPC: 0.371119 cumulative IPC: 0.366163 (Simulation time: 1 hr 10 min 29 sec) 
Heartbeat CPU 0 instructions: 887000002 cycles: 2602949719 heartbeat IPC: 0.381714 cumulative IPC: 0.366197 (Simulation time: 1 hr 10 min 33 sec) 
Heartbeat CPU 0 instructions: 888000001 cycles: 2605741615 heartbeat IPC: 0.358179 cumulative IPC: 0.366179 (Simulation time: 1 hr 10 min 37 sec) 
Heartbeat CPU 0 instructions: 889000000 cycles: 2608722034 heartbeat IPC: 0.335523 cumulative IPC: 0.366102 (Simulation time: 1 hr 10 min 41 sec) 
Heartbeat CPU 0 instructions: 890000000 cycles: 2611330307 heartbeat IPC: 0.383395 cumulative IPC: 0.36614 (Simulation time: 1 hr 10 min 45 sec) 
Heartbeat CPU 0 instructions: 891000000 cycles: 2613954911 heartbeat IPC: 0.38101 cumulative IPC: 0.366172 (Simulation time: 1 hr 10 min 49 sec) 
Heartbeat CPU 0 instructions: 892000000 cycles: 2616586447 heartbeat IPC: 0.380006 cumulative IPC: 0.366202 (Simulation time: 1 hr 10 min 52 sec) 
Heartbeat CPU 0 instructions: 893000001 cycles: 2619281131 heartbeat IPC: 0.371101 cumulative IPC: 0.366213 (Simulation time: 1 hr 10 min 56 sec) 
Heartbeat CPU 0 instructions: 894000000 cycles: 2622044441 heartbeat IPC: 0.361884 cumulative IPC: 0.366204 (Simulation time: 1 hr 11 min 0 sec) 
Heartbeat CPU 0 instructions: 895000000 cycles: 2624698890 heartbeat IPC: 0.376726 cumulative IPC: 0.366226 (Simulation time: 1 hr 11 min 4 sec) 
Heartbeat CPU 0 instructions: 896000002 cycles: 2627406728 heartbeat IPC: 0.369299 cumulative IPC: 0.366233 (Simulation time: 1 hr 11 min 8 sec) 
Heartbeat CPU 0 instructions: 897000000 cycles: 2629925967 heartbeat IPC: 0.396944 cumulative IPC: 0.366297 (Simulation time: 1 hr 11 min 12 sec) 
Heartbeat CPU 0 instructions: 898000000 cycles: 2632641743 heartbeat IPC: 0.368219 cumulative IPC: 0.366301 (Simulation time: 1 hr 11 min 16 sec) 
Heartbeat CPU 0 instructions: 899000002 cycles: 2635243327 heartbeat IPC: 0.384382 cumulative IPC: 0.366339 (Simulation time: 1 hr 11 min 20 sec) 
Heartbeat CPU 0 instructions: 900000002 cycles: 2637767348 heartbeat IPC: 0.396193 cumulative IPC: 0.366401 (Simulation time: 1 hr 11 min 24 sec) 
Heartbeat CPU 0 instructions: 901000000 cycles: 2640605386 heartbeat IPC: 0.352355 cumulative IPC: 0.366368 (Simulation time: 1 hr 11 min 29 sec) 
Heartbeat CPU 0 instructions: 902000000 cycles: 2643401595 heartbeat IPC: 0.357627 cumulative IPC: 0.366349 (Simulation time: 1 hr 11 min 33 sec) 
Heartbeat CPU 0 instructions: 903000003 cycles: 2646097709 heartbeat IPC: 0.370905 cumulative IPC: 0.366358 (Simulation time: 1 hr 11 min 37 sec) 
Heartbeat CPU 0 instructions: 904000001 cycles: 2648735398 heartbeat IPC: 0.379119 cumulative IPC: 0.366386 (Simulation time: 1 hr 11 min 41 sec) 
Heartbeat CPU 0 instructions: 905000001 cycles: 2651585458 heartbeat IPC: 0.35087 cumulative IPC: 0.36635 (Simulation time: 1 hr 11 min 45 sec) 
Heartbeat CPU 0 instructions: 906000000 cycles: 2654241551 heartbeat IPC: 0.376492 cumulative IPC: 0.366372 (Simulation time: 1 hr 11 min 50 sec) 
Heartbeat CPU 0 instructions: 907000001 cycles: 2657004650 heartbeat IPC: 0.361913 cumulative IPC: 0.366362 (Simulation time: 1 hr 11 min 54 sec) 
Heartbeat CPU 0 instructions: 908000000 cycles: 2659802213 heartbeat IPC: 0.357454 cumulative IPC: 0.366342 (Simulation time: 1 hr 11 min 58 sec) 
Heartbeat CPU 0 instructions: 909000001 cycles: 2662378584 heartbeat IPC: 0.388143 cumulative IPC: 0.366387 (Simulation time: 1 hr 12 min 2 sec) 
Heartbeat CPU 0 instructions: 910000000 cycles: 2665119979 heartbeat IPC: 0.364777 cumulative IPC: 0.366383 (Simulation time: 1 hr 12 min 6 sec) 
Heartbeat CPU 0 instructions: 911000000 cycles: 2668033079 heartbeat IPC: 0.343277 cumulative IPC: 0.36633 (Simulation time: 1 hr 12 min 10 sec) 
Heartbeat CPU 0 instructions: 912000000 cycles: 2670730371 heartbeat IPC: 0.370742 cumulative IPC: 0.366339 (Simulation time: 1 hr 12 min 15 sec) 
Heartbeat CPU 0 instructions: 913000000 cycles: 2673603514 heartbeat IPC: 0.348051 cumulative IPC: 0.366298 (Simulation time: 1 hr 12 min 19 sec) 
Heartbeat CPU 0 instructions: 914000001 cycles: 2676197197 heartbeat IPC: 0.385553 cumulative IPC: 0.366337 (Simulation time: 1 hr 12 min 23 sec) 
Heartbeat CPU 0 instructions: 915000001 cycles: 2679021317 heartbeat IPC: 0.354093 cumulative IPC: 0.36631 (Simulation time: 1 hr 12 min 27 sec) 
Heartbeat CPU 0 instructions: 916000001 cycles: 2681650580 heartbeat IPC: 0.380335 cumulative IPC: 0.366339 (Simulation time: 1 hr 12 min 31 sec) 
Heartbeat CPU 0 instructions: 917000003 cycles: 2684483628 heartbeat IPC: 0.352977 cumulative IPC: 0.366309 (Simulation time: 1 hr 12 min 36 sec) 
Heartbeat CPU 0 instructions: 918000000 cycles: 2687028120 heartbeat IPC: 0.393005 cumulative IPC: 0.366362 (Simulation time: 1 hr 12 min 40 sec) 
Heartbeat CPU 0 instructions: 919000000 cycles: 2689966191 heartbeat IPC: 0.340359 cumulative IPC: 0.366303 (Simulation time: 1 hr 12 min 44 sec) 
Heartbeat CPU 0 instructions: 920000001 cycles: 2692577027 heartbeat IPC: 0.383019 cumulative IPC: 0.366337 (Simulation time: 1 hr 12 min 48 sec) 
Heartbeat CPU 0 instructions: 921000001 cycles: 2695014233 heartbeat IPC: 0.410306 cumulative IPC: 0.36642 (Simulation time: 1 hr 12 min 52 sec) 
Heartbeat CPU 0 instructions: 922000002 cycles: 2697243781 heartbeat IPC: 0.448522 cumulative IPC: 0.366562 (Simulation time: 1 hr 12 min 56 sec) 
Heartbeat CPU 0 instructions: 923000003 cycles: 2699078129 heartbeat IPC: 0.545153 cumulative IPC: 0.366816 (Simulation time: 1 hr 13 min 0 sec) 
Heartbeat CPU 0 instructions: 924000000 cycles: 2701961597 heartbeat IPC: 0.346804 cumulative IPC: 0.366772 (Simulation time: 1 hr 13 min 4 sec) 
Heartbeat CPU 0 instructions: 925000001 cycles: 2704761925 heartbeat IPC: 0.357101 cumulative IPC: 0.366751 (Simulation time: 1 hr 13 min 8 sec) 
Heartbeat CPU 0 instructions: 926000000 cycles: 2707505845 heartbeat IPC: 0.364442 cumulative IPC: 0.366746 (Simulation time: 1 hr 13 min 12 sec) 
Heartbeat CPU 0 instructions: 927000003 cycles: 2710186667 heartbeat IPC: 0.373021 cumulative IPC: 0.366759 (Simulation time: 1 hr 13 min 16 sec) 
Heartbeat CPU 0 instructions: 928000003 cycles: 2713031722 heartbeat IPC: 0.351487 cumulative IPC: 0.366725 (Simulation time: 1 hr 13 min 21 sec) 
Heartbeat CPU 0 instructions: 929000003 cycles: 2715746103 heartbeat IPC: 0.368408 cumulative IPC: 0.366729 (Simulation time: 1 hr 13 min 25 sec) 
Heartbeat CPU 0 instructions: 930000000 cycles: 2718742673 heartbeat IPC: 0.333714 cumulative IPC: 0.366653 (Simulation time: 1 hr 13 min 29 sec) 
Heartbeat CPU 0 instructions: 931000001 cycles: 2721185678 heartbeat IPC: 0.409332 cumulative IPC: 0.366733 (Simulation time: 1 hr 13 min 32 sec) 
Heartbeat CPU 0 instructions: 932000003 cycles: 2723820814 heartbeat IPC: 0.379488 cumulative IPC: 0.366758 (Simulation time: 1 hr 13 min 36 sec) 
Heartbeat CPU 0 instructions: 933000000 cycles: 2726707722 heartbeat IPC: 0.34639 cumulative IPC: 0.366714 (Simulation time: 1 hr 13 min 41 sec) 
Heartbeat CPU 0 instructions: 934000001 cycles: 2729319610 heartbeat IPC: 0.382865 cumulative IPC: 0.366746 (Simulation time: 1 hr 13 min 45 sec) 
Heartbeat CPU 0 instructions: 935000000 cycles: 2731847501 heartbeat IPC: 0.395586 cumulative IPC: 0.366801 (Simulation time: 1 hr 13 min 49 sec) 
Heartbeat CPU 0 instructions: 936000001 cycles: 2734547181 heartbeat IPC: 0.370415 cumulative IPC: 0.366808 (Simulation time: 1 hr 13 min 53 sec) 
Heartbeat CPU 0 instructions: 937000001 cycles: 2737209968 heartbeat IPC: 0.375546 cumulative IPC: 0.366826 (Simulation time: 1 hr 13 min 57 sec) 
Heartbeat CPU 0 instructions: 938000001 cycles: 2740068039 heartbeat IPC: 0.349886 cumulative IPC: 0.366789 (Simulation time: 1 hr 14 min 1 sec) 
Heartbeat CPU 0 instructions: 939000003 cycles: 2742872975 heartbeat IPC: 0.356515 cumulative IPC: 0.366768 (Simulation time: 1 hr 14 min 5 sec) 
Heartbeat CPU 0 instructions: 940000000 cycles: 2745591586 heartbeat IPC: 0.367834 cumulative IPC: 0.36677 (Simulation time: 1 hr 14 min 9 sec) 
Heartbeat CPU 0 instructions: 941000001 cycles: 2748380842 heartbeat IPC: 0.358519 cumulative IPC: 0.366753 (Simulation time: 1 hr 14 min 14 sec) 
Heartbeat CPU 0 instructions: 942000002 cycles: 2751054664 heartbeat IPC: 0.373997 cumulative IPC: 0.366767 (Simulation time: 1 hr 14 min 18 sec) 
Heartbeat CPU 0 instructions: 943000002 cycles: 2753842027 heartbeat IPC: 0.358762 cumulative IPC: 0.36675 (Simulation time: 1 hr 14 min 22 sec) 
Heartbeat CPU 0 instructions: 944000001 cycles: 2756607721 heartbeat IPC: 0.361573 cumulative IPC: 0.36674 (Simulation time: 1 hr 14 min 26 sec) 
Heartbeat CPU 0 instructions: 945000001 cycles: 2759235198 heartbeat IPC: 0.380593 cumulative IPC: 0.366767 (Simulation time: 1 hr 14 min 30 sec) 
Heartbeat CPU 0 instructions: 946000000 cycles: 2762118014 heartbeat IPC: 0.346883 cumulative IPC: 0.366724 (Simulation time: 1 hr 14 min 34 sec) 
Heartbeat CPU 0 instructions: 947000000 cycles: 2764754407 heartbeat IPC: 0.379306 cumulative IPC: 0.366749 (Simulation time: 1 hr 14 min 38 sec) 
Heartbeat CPU 0 instructions: 948000001 cycles: 2767380477 heartbeat IPC: 0.380798 cumulative IPC: 0.366776 (Simulation time: 1 hr 14 min 42 sec) 
Heartbeat CPU 0 instructions: 949000000 cycles: 2770060645 heartbeat IPC: 0.373111 cumulative IPC: 0.366789 (Simulation time: 1 hr 14 min 47 sec) 
Heartbeat CPU 0 instructions: 950000001 cycles: 2773029257 heartbeat IPC: 0.336858 cumulative IPC: 0.366723 (Simulation time: 1 hr 14 min 51 sec) 
Finished CPU 0 instructions: 500000002 cycles: 1363425382 cumulative IPC: 0.366723 (Simulation time: 1 hr 14 min 51 sec) 

ChampSim completed all CPUs

Region of Interest Statistics

CPU 0 cumulative IPC: 0.366723 instructions: 500000002 cycles: 1363425382
L1D TOTAL     ACCESS:  209412586  HIT:  200276939  MISS:    9135647
L1D LOAD      ACCESS:  120228651  HIT:  112241565  MISS:    7987086
L1D RFO       ACCESS:   89183935  HIT:   88035374  MISS:    1148561
L1D PREFETCH  ACCESS:          0  HIT:          0  MISS:          0
L1D WRITEBACK ACCESS:          0  HIT:          0  MISS:          0
L1D PREFETCH  REQUESTED:          0  ISSUED:          0  USEFUL:          0  USELESS:          0
L1D AVERAGE MISS LATENCY: 137.051 cycles
L1I TOTAL     ACCESS:  113737031  HIT:  113716834  MISS:      20197
L1I LOAD      ACCESS:  113737031  HIT:  113716834  MISS:      20197
L1I RFO       ACCESS:          0  HIT:          0  MISS:          0
L1I PREFETCH  ACCESS:          0  HIT:          0  MISS:          0
L1I WRITEBACK ACCESS:          0  HIT:          0  MISS:          0
L1I PREFETCH  REQUESTED:          0  ISSUED:          0  USEFUL:          0  USELESS:          0
L1I AVERAGE MISS LATENCY: 57.3452 cycles
L2C TOTAL     ACCESS:   13617087  HIT:    6803670  MISS:    6813417
L2C LOAD      ACCESS:    8006958  HIT:    2113014  MISS:    5893944
L2C RFO       ACCESS:    1148465  HIT:     236541  MISS:     911924
L2C PREFETCH  ACCESS:          0  HIT:          0  MISS:          0
L2C WRITEBACK ACCESS:    4461664  HIT:    4454115  MISS:       7549
L2C PREFETCH  REQUESTED:          0  ISSUED:          0  USEFUL:          0  USELESS:          0
L2C AVERAGE MISS LATENCY: 156.372 cycles
LLC TOTAL     ACCESS:   15749852  HIT:    8235506  MISS:    7514346
LLC LOAD      ACCESS:    5893938  HIT:    2984775  MISS:    2909163
LLC RFO       ACCESS:     911924  HIT:     331656  MISS:     580268
LLC PREFETCH  ACCESS:    5593173  HIT:    1599102  MISS:    3994071
LLC WRITEBACK ACCESS:    3350817  HIT:    3319973  MISS:      30844
LLC PREFETCH  REQUESTED:    5889254  ISSUED:    5889150  USEFUL:    1846422  USELESS:    2138700
LLC AVERAGE MISS LATENCY: 243.575 cycles
Major fault: 0 Minor fault: 55388
performance stats:
mapping cache size: 656811
divergence: 7117251

DRAM Statistics
 CHANNEL 0
 RQ ROW_BUFFER_HIT:     421675  ROW_BUFFER_MISS:    3321568
 DBUS_CONGESTED:    4037551
 WQ ROW_BUFFER_HIT:     394666  ROW_BUFFER_MISS:     870070  FULL:          0

 CHANNEL 1
 RQ ROW_BUFFER_HIT:     425559  ROW_BUFFER_MISS:    3314648
 DBUS_CONGESTED:    4037551
 WQ ROW_BUFFER_HIT:     391514  ROW_BUFFER_MISS:     868817  FULL:          0

 AVG_CONGESTED_CYCLE: 16

CPU 0 Branch Prediction Accuracy: 98.1905% MPKI: 3.8015 Average ROB Occupancy at Mispredict: 100.095

Branch types
NOT_BRANCH: 394959451 78.9919%
BRANCH_DIRECT_JUMP: 5880861 1.17617%
BRANCH_INDIRECT: 1691863 0.338373%
BRANCH_CONDITIONAL: 67075907 13.4152%
BRANCH_DIRECT_CALL: 9244787 1.84896%
BRANCH_INDIRECT_CALL: 5951326 1.19027%
BRANCH_RETURN: 15196113 3.03922%
BRANCH_OTHER: 0 0%

