
*** ChampSim Multicore Out-of-Order Simulator ***

Warmup Instructions: 1000000
Prefetch Warmup Instructions: 450000000
Simulation Instructions: 500000000
Stat Printing Period: 1000000
Number of CPUs: 1
LLC sets: 2048
LLC ways: 16
Off-chip DRAM Size: 4096 MB Channels: 1 Width: 64-bit Data Rate: 3200 MT/s

CPU 0 runs /scratch/cluster/cmolder/ML-DPC/ChampSimTraces/spec06/429.mcf-s0.trace.gz
Read seed: 629
Heartbeat CPU 0 instructions: 1000000 cycles: 475201 heartbeat IPC: 2.10437 cumulative IPC: 2.10437 (Simulation time: 0 hr 0 min 6 sec) 

Warmup complete CPU 0 instructions: 1000003 cycles: 475202 (Simulation time: 0 hr 0 min 6 sec) 

Heartbeat CPU 0 instructions: 2000000 cycles: 17436176 heartbeat IPC: 0.0589589 cumulative IPC: 0.0589587 (Simulation time: 0 hr 0 min 21 sec) 
Heartbeat CPU 0 instructions: 3000000 cycles: 35440604 heartbeat IPC: 0.0555419 cumulative IPC: 0.0571993 (Simulation time: 0 hr 0 min 36 sec) 
Heartbeat CPU 0 instructions: 4000000 cycles: 52749778 heartbeat IPC: 0.0577728 cumulative IPC: 0.0573892 (Simulation time: 0 hr 0 min 51 sec) 
Heartbeat CPU 0 instructions: 5000000 cycles: 67860748 heartbeat IPC: 0.0661771 cumulative IPC: 0.0593599 (Simulation time: 0 hr 1 min 4 sec) 
Heartbeat CPU 0 instructions: 6000002 cycles: 83493875 heartbeat IPC: 0.0639669 cumulative IPC: 0.0602274 (Simulation time: 0 hr 1 min 18 sec) 
Heartbeat CPU 0 instructions: 7000001 cycles: 99219637 heartbeat IPC: 0.0635899 cumulative IPC: 0.0607629 (Simulation time: 0 hr 1 min 32 sec) 
Heartbeat CPU 0 instructions: 8000000 cycles: 115258963 heartbeat IPC: 0.0623467 cumulative IPC: 0.0609842 (Simulation time: 0 hr 1 min 45 sec) 
Heartbeat CPU 0 instructions: 9000001 cycles: 131498054 heartbeat IPC: 0.0615799 cumulative IPC: 0.061058 (Simulation time: 0 hr 2 min 0 sec) 
Heartbeat CPU 0 instructions: 10000002 cycles: 148161195 heartbeat IPC: 0.0600128 cumulative IPC: 0.0609401 (Simulation time: 0 hr 2 min 17 sec) 
Heartbeat CPU 0 instructions: 11000000 cycles: 164394364 heartbeat IPC: 0.0616021 cumulative IPC: 0.0610057 (Simulation time: 0 hr 2 min 31 sec) 
Heartbeat CPU 0 instructions: 12000002 cycles: 179397462 heartbeat IPC: 0.066653 cumulative IPC: 0.0614792 (Simulation time: 0 hr 2 min 44 sec) 
Heartbeat CPU 0 instructions: 13000002 cycles: 194646544 heartbeat IPC: 0.0655777 cumulative IPC: 0.0618011 (Simulation time: 0 hr 2 min 58 sec) 
Heartbeat CPU 0 instructions: 14000000 cycles: 208359151 heartbeat IPC: 0.0729254 cumulative IPC: 0.0625349 (Simulation time: 0 hr 3 min 11 sec) 
Heartbeat CPU 0 instructions: 15000001 cycles: 223561081 heartbeat IPC: 0.0657812 cumulative IPC: 0.0627561 (Simulation time: 0 hr 3 min 24 sec) 
Heartbeat CPU 0 instructions: 16000001 cycles: 240800942 heartbeat IPC: 0.0580051 cumulative IPC: 0.0624153 (Simulation time: 0 hr 3 min 40 sec) 
Heartbeat CPU 0 instructions: 17000000 cycles: 256735120 heartbeat IPC: 0.0627581 cumulative IPC: 0.0624366 (Simulation time: 0 hr 3 min 55 sec) 
Heartbeat CPU 0 instructions: 18000002 cycles: 271858449 heartbeat IPC: 0.0661231 cumulative IPC: 0.062642 (Simulation time: 0 hr 4 min 9 sec) 
Heartbeat CPU 0 instructions: 19000001 cycles: 288336920 heartbeat IPC: 0.0606852 cumulative IPC: 0.06253 (Simulation time: 0 hr 4 min 23 sec) 
Heartbeat CPU 0 instructions: 20000000 cycles: 304236266 heartbeat IPC: 0.0628956 cumulative IPC: 0.0625492 (Simulation time: 0 hr 4 min 37 sec) 
Heartbeat CPU 0 instructions: 21000000 cycles: 320063966 heartbeat IPC: 0.0631804 cumulative IPC: 0.0625804 (Simulation time: 0 hr 4 min 51 sec) 
Heartbeat CPU 0 instructions: 22000000 cycles: 336305386 heartbeat IPC: 0.061571 cumulative IPC: 0.0625316 (Simulation time: 0 hr 5 min 5 sec) 
Heartbeat CPU 0 instructions: 23000000 cycles: 352504672 heartbeat IPC: 0.0617311 cumulative IPC: 0.0624948 (Simulation time: 0 hr 5 min 19 sec) 
Heartbeat CPU 0 instructions: 24000001 cycles: 369877579 heartbeat IPC: 0.0575609 cumulative IPC: 0.0622627 (Simulation time: 0 hr 5 min 36 sec) 
Heartbeat CPU 0 instructions: 25000001 cycles: 383998752 heartbeat IPC: 0.0708156 cumulative IPC: 0.0625776 (Simulation time: 0 hr 5 min 49 sec) 
Heartbeat CPU 0 instructions: 26000001 cycles: 395648623 heartbeat IPC: 0.0858379 cumulative IPC: 0.0632634 (Simulation time: 0 hr 6 min 0 sec) 
Heartbeat CPU 0 instructions: 27000000 cycles: 407584095 heartbeat IPC: 0.0837838 cumulative IPC: 0.063865 (Simulation time: 0 hr 6 min 12 sec) 
Heartbeat CPU 0 instructions: 28000001 cycles: 423915912 heartbeat IPC: 0.0612302 cumulative IPC: 0.0637634 (Simulation time: 0 hr 6 min 28 sec) 
Heartbeat CPU 0 instructions: 29000000 cycles: 436078654 heartbeat IPC: 0.0822182 cumulative IPC: 0.0642786 (Simulation time: 0 hr 6 min 41 sec) 
Heartbeat CPU 0 instructions: 30000001 cycles: 446470765 heartbeat IPC: 0.0962269 cumulative IPC: 0.0650231 (Simulation time: 0 hr 6 min 51 sec) 
Heartbeat CPU 0 instructions: 31000000 cycles: 457641315 heartbeat IPC: 0.089521 cumulative IPC: 0.0656217 (Simulation time: 0 hr 7 min 3 sec) 
Heartbeat CPU 0 instructions: 32000001 cycles: 473910383 heartbeat IPC: 0.0614664 cumulative IPC: 0.0654789 (Simulation time: 0 hr 7 min 19 sec) 
Heartbeat CPU 0 instructions: 33000000 cycles: 485245471 heartbeat IPC: 0.0882215 cumulative IPC: 0.0660106 (Simulation time: 0 hr 7 min 30 sec) 
Heartbeat CPU 0 instructions: 34000001 cycles: 497469172 heartbeat IPC: 0.0818084 cumulative IPC: 0.0663992 (Simulation time: 0 hr 7 min 42 sec) 
Heartbeat CPU 0 instructions: 35000002 cycles: 510271944 heartbeat IPC: 0.0781082 cumulative IPC: 0.0666932 (Simulation time: 0 hr 7 min 54 sec) 
Heartbeat CPU 0 instructions: 36000001 cycles: 527358208 heartbeat IPC: 0.0585265 cumulative IPC: 0.0664284 (Simulation time: 0 hr 8 min 11 sec) 
Heartbeat CPU 0 instructions: 37000002 cycles: 540709725 heartbeat IPC: 0.0748979 cumulative IPC: 0.0666377 (Simulation time: 0 hr 8 min 24 sec) 
Heartbeat CPU 0 instructions: 38000000 cycles: 553898184 heartbeat IPC: 0.0758237 cumulative IPC: 0.0668566 (Simulation time: 0 hr 8 min 36 sec) 
Heartbeat CPU 0 instructions: 39000000 cycles: 564768685 heartbeat IPC: 0.0919921 cumulative IPC: 0.0673408 (Simulation time: 0 hr 8 min 47 sec) 
Heartbeat CPU 0 instructions: 40000001 cycles: 580639877 heartbeat IPC: 0.0630073 cumulative IPC: 0.0672223 (Simulation time: 0 hr 9 min 2 sec) 
Heartbeat CPU 0 instructions: 41000000 cycles: 592391877 heartbeat IPC: 0.0850918 cumulative IPC: 0.0675771 (Simulation time: 0 hr 9 min 15 sec) 
Heartbeat CPU 0 instructions: 42000001 cycles: 602718862 heartbeat IPC: 0.0968338 cumulative IPC: 0.0680788 (Simulation time: 0 hr 9 min 25 sec) 
Heartbeat CPU 0 instructions: 43000002 cycles: 615320943 heartbeat IPC: 0.0793521 cumulative IPC: 0.0683098 (Simulation time: 0 hr 9 min 37 sec) 
Heartbeat CPU 0 instructions: 44000000 cycles: 629246403 heartbeat IPC: 0.0718108 cumulative IPC: 0.0683874 (Simulation time: 0 hr 9 min 51 sec) 
Heartbeat CPU 0 instructions: 45000000 cycles: 638119547 heartbeat IPC: 0.1127 cumulative IPC: 0.069004 (Simulation time: 0 hr 10 min 0 sec) 
Heartbeat CPU 0 instructions: 46000003 cycles: 650125834 heartbeat IPC: 0.0832899 cumulative IPC: 0.069268 (Simulation time: 0 hr 10 min 12 sec) 
Heartbeat CPU 0 instructions: 47000000 cycles: 664289940 heartbeat IPC: 0.0706008 cumulative IPC: 0.0692964 (Simulation time: 0 hr 10 min 26 sec) 
Heartbeat CPU 0 instructions: 48000000 cycles: 673553996 heartbeat IPC: 0.107944 cumulative IPC: 0.0698284 (Simulation time: 0 hr 10 min 35 sec) 
Heartbeat CPU 0 instructions: 49000000 cycles: 685570923 heartbeat IPC: 0.083216 cumulative IPC: 0.0700632 (Simulation time: 0 hr 10 min 47 sec) 
Heartbeat CPU 0 instructions: 50000000 cycles: 699855028 heartbeat IPC: 0.0700079 cumulative IPC: 0.0700621 (Simulation time: 0 hr 11 min 1 sec) 
Heartbeat CPU 0 instructions: 51000000 cycles: 708681803 heartbeat IPC: 0.113292 cumulative IPC: 0.0706009 (Simulation time: 0 hr 11 min 11 sec) 
Heartbeat CPU 0 instructions: 52000003 cycles: 720027210 heartbeat IPC: 0.0881417 cumulative IPC: 0.0708774 (Simulation time: 0 hr 11 min 21 sec) 
Heartbeat CPU 0 instructions: 53000001 cycles: 735171299 heartbeat IPC: 0.0660322 cumulative IPC: 0.0707776 (Simulation time: 0 hr 11 min 37 sec) 
Heartbeat CPU 0 instructions: 54000001 cycles: 744366070 heartbeat IPC: 0.108757 cumulative IPC: 0.071247 (Simulation time: 0 hr 11 min 46 sec) 
Heartbeat CPU 0 instructions: 55000000 cycles: 754744905 heartbeat IPC: 0.0963498 cumulative IPC: 0.0715924 (Simulation time: 0 hr 11 min 57 sec) 
Heartbeat CPU 0 instructions: 56000000 cycles: 770696345 heartbeat IPC: 0.0626903 cumulative IPC: 0.0714081 (Simulation time: 0 hr 12 min 12 sec) 
Heartbeat CPU 0 instructions: 57000002 cycles: 779693244 heartbeat IPC: 0.11115 cumulative IPC: 0.0718669 (Simulation time: 0 hr 12 min 22 sec) 
Heartbeat CPU 0 instructions: 58000002 cycles: 788661581 heartbeat IPC: 0.111503 cumulative IPC: 0.0723179 (Simulation time: 0 hr 12 min 31 sec) 
Heartbeat CPU 0 instructions: 59000001 cycles: 805175127 heartbeat IPC: 0.0605563 cumulative IPC: 0.0720766 (Simulation time: 0 hr 12 min 46 sec) 
Heartbeat CPU 0 instructions: 60000000 cycles: 814582552 heartbeat IPC: 0.106299 cumulative IPC: 0.072472 (Simulation time: 0 hr 12 min 57 sec) 
Heartbeat CPU 0 instructions: 61000001 cycles: 824117610 heartbeat IPC: 0.104876 cumulative IPC: 0.0728471 (Simulation time: 0 hr 13 min 6 sec) 
Heartbeat CPU 0 instructions: 62000002 cycles: 837992388 heartbeat IPC: 0.0720733 cumulative IPC: 0.0728343 (Simulation time: 0 hr 13 min 20 sec) 
Heartbeat CPU 0 instructions: 63000000 cycles: 849916769 heartbeat IPC: 0.0838616 cumulative IPC: 0.0729891 (Simulation time: 0 hr 13 min 33 sec) 
Heartbeat CPU 0 instructions: 64000000 cycles: 858389458 heartbeat IPC: 0.118026 cumulative IPC: 0.0734339 (Simulation time: 0 hr 13 min 42 sec) 
Heartbeat CPU 0 instructions: 65000000 cycles: 867673994 heartbeat IPC: 0.107706 cumulative IPC: 0.0738008 (Simulation time: 0 hr 13 min 51 sec) 
Heartbeat CPU 0 instructions: 66000000 cycles: 883731029 heartbeat IPC: 0.062278 cumulative IPC: 0.0735914 (Simulation time: 0 hr 14 min 7 sec) 
Heartbeat CPU 0 instructions: 67000000 cycles: 892152811 heartbeat IPC: 0.11874 cumulative IPC: 0.0740178 (Simulation time: 0 hr 14 min 16 sec) 
Heartbeat CPU 0 instructions: 68000001 cycles: 900597624 heartbeat IPC: 0.118416 cumulative IPC: 0.0744343 (Simulation time: 0 hr 14 min 25 sec) 
Heartbeat CPU 0 instructions: 69000001 cycles: 914940151 heartbeat IPC: 0.0697227 cumulative IPC: 0.0743604 (Simulation time: 0 hr 14 min 39 sec) 
Heartbeat CPU 0 instructions: 70000001 cycles: 926048832 heartbeat IPC: 0.0900197 cumulative IPC: 0.0745484 (Simulation time: 0 hr 14 min 52 sec) 
Heartbeat CPU 0 instructions: 71000000 cycles: 934319971 heartbeat IPC: 0.120902 cumulative IPC: 0.0749589 (Simulation time: 0 hr 15 min 0 sec) 
Heartbeat CPU 0 instructions: 72000002 cycles: 944115263 heartbeat IPC: 0.10209 cumulative IPC: 0.0752406 (Simulation time: 0 hr 15 min 11 sec) 
Heartbeat CPU 0 instructions: 73000000 cycles: 959749131 heartbeat IPC: 0.0639636 cumulative IPC: 0.0750568 (Simulation time: 0 hr 15 min 26 sec) 
Heartbeat CPU 0 instructions: 74000000 cycles: 968338708 heartbeat IPC: 0.11642 cumulative IPC: 0.0754239 (Simulation time: 0 hr 15 min 36 sec) 
Heartbeat CPU 0 instructions: 75000002 cycles: 977294553 heartbeat IPC: 0.111659 cumulative IPC: 0.0757561 (Simulation time: 0 hr 15 min 45 sec) 
Heartbeat CPU 0 instructions: 76000002 cycles: 991063660 heartbeat IPC: 0.0726264 cumulative IPC: 0.0757126 (Simulation time: 0 hr 15 min 59 sec) 
Heartbeat CPU 0 instructions: 77000000 cycles: 1003776366 heartbeat IPC: 0.0786613 cumulative IPC: 0.0757499 (Simulation time: 0 hr 16 min 12 sec) 
Heartbeat CPU 0 instructions: 78000001 cycles: 1013651671 heartbeat IPC: 0.101263 cumulative IPC: 0.0759986 (Simulation time: 0 hr 16 min 22 sec) 
Heartbeat CPU 0 instructions: 79000000 cycles: 1023567888 heartbeat IPC: 0.100845 cumulative IPC: 0.0762394 (Simulation time: 0 hr 16 min 32 sec) 
Heartbeat CPU 0 instructions: 80000001 cycles: 1040058814 heartbeat IPC: 0.0606395 cumulative IPC: 0.075992 (Simulation time: 0 hr 16 min 48 sec) 
Heartbeat CPU 0 instructions: 81000000 cycles: 1050563525 heartbeat IPC: 0.0951953 cumulative IPC: 0.0761841 (Simulation time: 0 hr 16 min 59 sec) 
Heartbeat CPU 0 instructions: 82000002 cycles: 1061181148 heartbeat IPC: 0.0941832 cumulative IPC: 0.0763642 (Simulation time: 0 hr 17 min 9 sec) 
Heartbeat CPU 0 instructions: 83000000 cycles: 1075732708 heartbeat IPC: 0.068721 cumulative IPC: 0.0762608 (Simulation time: 0 hr 17 min 23 sec) 
Heartbeat CPU 0 instructions: 84000001 cycles: 1089544174 heartbeat IPC: 0.0724037 cumulative IPC: 0.0762119 (Simulation time: 0 hr 17 min 37 sec) 
Heartbeat CPU 0 instructions: 85000000 cycles: 1098799865 heartbeat IPC: 0.108042 cumulative IPC: 0.0764801 (Simulation time: 0 hr 17 min 46 sec) 
Heartbeat CPU 0 instructions: 86000000 cycles: 1108986591 heartbeat IPC: 0.098167 cumulative IPC: 0.0766794 (Simulation time: 0 hr 17 min 56 sec) 
Heartbeat CPU 0 instructions: 87000003 cycles: 1125254894 heartbeat IPC: 0.0614694 cumulative IPC: 0.0764594 (Simulation time: 0 hr 18 min 12 sec) 
Heartbeat CPU 0 instructions: 88000000 cycles: 1135250929 heartbeat IPC: 0.100039 cumulative IPC: 0.0766671 (Simulation time: 0 hr 18 min 23 sec) 
Heartbeat CPU 0 instructions: 89000000 cycles: 1145703286 heartbeat IPC: 0.0956722 cumulative IPC: 0.0768406 (Simulation time: 0 hr 18 min 33 sec) 
Heartbeat CPU 0 instructions: 90000003 cycles: 1160851739 heartbeat IPC: 0.0660135 cumulative IPC: 0.0766992 (Simulation time: 0 hr 18 min 47 sec) 
Heartbeat CPU 0 instructions: 91000002 cycles: 1172363197 heartbeat IPC: 0.0868699 cumulative IPC: 0.0767991 (Simulation time: 0 hr 19 min 0 sec) 
Heartbeat CPU 0 instructions: 92000000 cycles: 1182260088 heartbeat IPC: 0.101042 cumulative IPC: 0.0770022 (Simulation time: 0 hr 19 min 10 sec) 
Heartbeat CPU 0 instructions: 93000000 cycles: 1195338678 heartbeat IPC: 0.0764608 cumulative IPC: 0.0769962 (Simulation time: 0 hr 19 min 22 sec) 
Heartbeat CPU 0 instructions: 94000000 cycles: 1209345441 heartbeat IPC: 0.0713941 cumulative IPC: 0.0769313 (Simulation time: 0 hr 19 min 36 sec) 
Heartbeat CPU 0 instructions: 95000001 cycles: 1219494757 heartbeat IPC: 0.0985289 cumulative IPC: 0.0771111 (Simulation time: 0 hr 19 min 47 sec) 
Heartbeat CPU 0 instructions: 96000000 cycles: 1229721391 heartbeat IPC: 0.0977838 cumulative IPC: 0.0772831 (Simulation time: 0 hr 19 min 57 sec) 
Heartbeat CPU 0 instructions: 97000002 cycles: 1246420705 heartbeat IPC: 0.0598828 cumulative IPC: 0.0770499 (Simulation time: 0 hr 20 min 13 sec) 
Heartbeat CPU 0 instructions: 98000000 cycles: 1256782001 heartbeat IPC: 0.0965128 cumulative IPC: 0.0772104 (Simulation time: 0 hr 20 min 24 sec) 
Heartbeat CPU 0 instructions: 99000000 cycles: 1267537631 heartbeat IPC: 0.0929746 cumulative IPC: 0.0773443 (Simulation time: 0 hr 20 min 34 sec) 
Heartbeat CPU 0 instructions: 100000002 cycles: 1282705832 heartbeat IPC: 0.0659275 cumulative IPC: 0.0772092 (Simulation time: 0 hr 20 min 48 sec) 
Heartbeat CPU 0 instructions: 101000000 cycles: 1296095118 heartbeat IPC: 0.0746864 cumulative IPC: 0.0771831 (Simulation time: 0 hr 21 min 2 sec) 
Heartbeat CPU 0 instructions: 102000001 cycles: 1307512683 heartbeat IPC: 0.0875844 cumulative IPC: 0.077274 (Simulation time: 0 hr 21 min 13 sec) 
Heartbeat CPU 0 instructions: 103000000 cycles: 1318349466 heartbeat IPC: 0.0922782 cumulative IPC: 0.0773974 (Simulation time: 0 hr 21 min 23 sec) 
Heartbeat CPU 0 instructions: 104000001 cycles: 1335083163 heartbeat IPC: 0.0597597 cumulative IPC: 0.0771762 (Simulation time: 0 hr 21 min 39 sec) 
Heartbeat CPU 0 instructions: 105000000 cycles: 1347349111 heartbeat IPC: 0.0815264 cumulative IPC: 0.0772158 (Simulation time: 0 hr 21 min 51 sec) 
Heartbeat CPU 0 instructions: 106000001 cycles: 1358698187 heartbeat IPC: 0.088113 cumulative IPC: 0.0773069 (Simulation time: 0 hr 22 min 2 sec) 
Heartbeat CPU 0 instructions: 107000001 cycles: 1371778717 heartbeat IPC: 0.0764495 cumulative IPC: 0.0772987 (Simulation time: 0 hr 22 min 14 sec) 
Heartbeat CPU 0 instructions: 108000000 cycles: 1387481866 heartbeat IPC: 0.0636814 cumulative IPC: 0.0771445 (Simulation time: 0 hr 22 min 30 sec) 
Heartbeat CPU 0 instructions: 109000001 cycles: 1398630059 heartbeat IPC: 0.0897007 cumulative IPC: 0.0772447 (Simulation time: 0 hr 22 min 41 sec) 
Heartbeat CPU 0 instructions: 110000000 cycles: 1411055409 heartbeat IPC: 0.0804806 cumulative IPC: 0.0772732 (Simulation time: 0 hr 22 min 52 sec) 
Heartbeat CPU 0 instructions: 111000002 cycles: 1426370569 heartbeat IPC: 0.0652949 cumulative IPC: 0.0771445 (Simulation time: 0 hr 23 min 6 sec) 
Heartbeat CPU 0 instructions: 112000000 cycles: 1440589263 heartbeat IPC: 0.0703298 cumulative IPC: 0.0770772 (Simulation time: 0 hr 23 min 20 sec) 
Heartbeat CPU 0 instructions: 113000000 cycles: 1452153496 heartbeat IPC: 0.0864735 cumulative IPC: 0.0771521 (Simulation time: 0 hr 23 min 31 sec) 
Heartbeat CPU 0 instructions: 114000000 cycles: 1465291421 heartbeat IPC: 0.0761155 cumulative IPC: 0.0771428 (Simulation time: 0 hr 23 min 43 sec) 
Heartbeat CPU 0 instructions: 115000001 cycles: 1480734465 heartbeat IPC: 0.0647541 cumulative IPC: 0.0770135 (Simulation time: 0 hr 23 min 57 sec) 
Heartbeat CPU 0 instructions: 116000003 cycles: 1496105363 heartbeat IPC: 0.0650581 cumulative IPC: 0.0768907 (Simulation time: 0 hr 24 min 12 sec) 
Heartbeat CPU 0 instructions: 117000000 cycles: 1509331409 heartbeat IPC: 0.0756082 cumulative IPC: 0.0768794 (Simulation time: 0 hr 24 min 24 sec) 
Heartbeat CPU 0 instructions: 118000001 cycles: 1522549224 heartbeat IPC: 0.0756555 cumulative IPC: 0.0768688 (Simulation time: 0 hr 24 min 36 sec) 
Heartbeat CPU 0 instructions: 119000002 cycles: 1534978996 heartbeat IPC: 0.0804521 cumulative IPC: 0.0768978 (Simulation time: 0 hr 24 min 48 sec) 
Heartbeat CPU 0 instructions: 120000002 cycles: 1550950867 heartbeat IPC: 0.0626101 cumulative IPC: 0.0767506 (Simulation time: 0 hr 25 min 3 sec) 
Heartbeat CPU 0 instructions: 121000000 cycles: 1563414944 heartbeat IPC: 0.0802304 cumulative IPC: 0.0767784 (Simulation time: 0 hr 25 min 15 sec) 
Heartbeat CPU 0 instructions: 122000002 cycles: 1577079363 heartbeat IPC: 0.0731829 cumulative IPC: 0.0767472 (Simulation time: 0 hr 25 min 28 sec) 
Heartbeat CPU 0 instructions: 123000003 cycles: 1589637372 heartbeat IPC: 0.0796305 cumulative IPC: 0.07677 (Simulation time: 0 hr 25 min 40 sec) 
Heartbeat CPU 0 instructions: 124000000 cycles: 1606904260 heartbeat IPC: 0.0579141 cumulative IPC: 0.0765673 (Simulation time: 0 hr 25 min 56 sec) 
Heartbeat CPU 0 instructions: 125000002 cycles: 1620512795 heartbeat IPC: 0.0734834 cumulative IPC: 0.0765414 (Simulation time: 0 hr 26 min 9 sec) 
Heartbeat CPU 0 instructions: 126000001 cycles: 1634306799 heartbeat IPC: 0.0724952 cumulative IPC: 0.0765073 (Simulation time: 0 hr 26 min 21 sec) 
Heartbeat CPU 0 instructions: 127000000 cycles: 1647217410 heartbeat IPC: 0.0774556 cumulative IPC: 0.0765147 (Simulation time: 0 hr 26 min 32 sec) 
Heartbeat CPU 0 instructions: 128000002 cycles: 1661975617 heartbeat IPC: 0.067759 cumulative IPC: 0.0764369 (Simulation time: 0 hr 26 min 46 sec) 
Heartbeat CPU 0 instructions: 129000000 cycles: 1678580500 heartbeat IPC: 0.0602231 cumulative IPC: 0.0762765 (Simulation time: 0 hr 27 min 1 sec) 
Heartbeat CPU 0 instructions: 130000000 cycles: 1691429516 heartbeat IPC: 0.077827 cumulative IPC: 0.0762883 (Simulation time: 0 hr 27 min 13 sec) 
Heartbeat CPU 0 instructions: 131000000 cycles: 1702129882 heartbeat IPC: 0.0934547 cumulative IPC: 0.0763962 (Simulation time: 0 hr 27 min 23 sec) 
Heartbeat CPU 0 instructions: 132000000 cycles: 1715843906 heartbeat IPC: 0.0729181 cumulative IPC: 0.0763684 (Simulation time: 0 hr 27 min 37 sec) 
Heartbeat CPU 0 instructions: 133000000 cycles: 1729884703 heartbeat IPC: 0.071221 cumulative IPC: 0.0763266 (Simulation time: 0 hr 27 min 51 sec) 
Heartbeat CPU 0 instructions: 134000000 cycles: 1740022572 heartbeat IPC: 0.0986401 cumulative IPC: 0.0764567 (Simulation time: 0 hr 28 min 1 sec) 
Heartbeat CPU 0 instructions: 135000000 cycles: 1749573824 heartbeat IPC: 0.104698 cumulative IPC: 0.0766109 (Simulation time: 0 hr 28 min 12 sec) 
Heartbeat CPU 0 instructions: 136000000 cycles: 1764141055 heartbeat IPC: 0.0686472 cumulative IPC: 0.0765451 (Simulation time: 0 hr 28 min 26 sec) 
Heartbeat CPU 0 instructions: 137000001 cycles: 1778591308 heartbeat IPC: 0.069203 cumulative IPC: 0.0764854 (Simulation time: 0 hr 28 min 40 sec) 
Heartbeat CPU 0 instructions: 138000001 cycles: 1791844249 heartbeat IPC: 0.075455 cumulative IPC: 0.0764778 (Simulation time: 0 hr 28 min 52 sec) 
Heartbeat CPU 0 instructions: 139000002 cycles: 1805011280 heartbeat IPC: 0.0759473 cumulative IPC: 0.076474 (Simulation time: 0 hr 29 min 4 sec) 
Heartbeat CPU 0 instructions: 140000000 cycles: 1817403438 heartbeat IPC: 0.080696 cumulative IPC: 0.0765027 (Simulation time: 0 hr 29 min 16 sec) 
Heartbeat CPU 0 instructions: 141000001 cycles: 1834376785 heartbeat IPC: 0.058916 cumulative IPC: 0.07634 (Simulation time: 0 hr 29 min 32 sec) 
Heartbeat CPU 0 instructions: 142000000 cycles: 1846325574 heartbeat IPC: 0.0836904 cumulative IPC: 0.0763876 (Simulation time: 0 hr 29 min 45 sec) 
Heartbeat CPU 0 instructions: 143000000 cycles: 1858658870 heartbeat IPC: 0.0810813 cumulative IPC: 0.0764187 (Simulation time: 0 hr 29 min 56 sec) 
Heartbeat CPU 0 instructions: 144000003 cycles: 1870794868 heartbeat IPC: 0.0823997 cumulative IPC: 0.0764575 (Simulation time: 0 hr 30 min 8 sec) 
Heartbeat CPU 0 instructions: 145000000 cycles: 1887325731 heartbeat IPC: 0.0604927 cumulative IPC: 0.0763176 (Simulation time: 0 hr 30 min 24 sec) 
Heartbeat CPU 0 instructions: 146000001 cycles: 1899608160 heartbeat IPC: 0.0814172 cumulative IPC: 0.0763506 (Simulation time: 0 hr 30 min 36 sec) 
Heartbeat CPU 0 instructions: 147000000 cycles: 1911614304 heartbeat IPC: 0.0832906 cumulative IPC: 0.0763942 (Simulation time: 0 hr 30 min 47 sec) 
Heartbeat CPU 0 instructions: 148000000 cycles: 1924640432 heartbeat IPC: 0.0767688 cumulative IPC: 0.0763968 (Simulation time: 0 hr 30 min 58 sec) 
Heartbeat CPU 0 instructions: 149000000 cycles: 1940070203 heartbeat IPC: 0.0648098 cumulative IPC: 0.0763046 (Simulation time: 0 hr 31 min 12 sec) 
Heartbeat CPU 0 instructions: 150000001 cycles: 1954279535 heartbeat IPC: 0.0703764 cumulative IPC: 0.0762615 (Simulation time: 0 hr 31 min 25 sec) 
Heartbeat CPU 0 instructions: 151000000 cycles: 1968238528 heartbeat IPC: 0.0716383 cumulative IPC: 0.0762287 (Simulation time: 0 hr 31 min 38 sec) 
Heartbeat CPU 0 instructions: 152000000 cycles: 1981385840 heartbeat IPC: 0.0760612 cumulative IPC: 0.0762276 (Simulation time: 0 hr 31 min 49 sec) 
Heartbeat CPU 0 instructions: 153000000 cycles: 1993664303 heartbeat IPC: 0.0814434 cumulative IPC: 0.0762597 (Simulation time: 0 hr 32 min 0 sec) 
Heartbeat CPU 0 instructions: 154000000 cycles: 2009690006 heartbeat IPC: 0.0623998 cumulative IPC: 0.0761492 (Simulation time: 0 hr 32 min 15 sec) 
Heartbeat CPU 0 instructions: 155000000 cycles: 2021773752 heartbeat IPC: 0.0827558 cumulative IPC: 0.0761886 (Simulation time: 0 hr 32 min 26 sec) 
Heartbeat CPU 0 instructions: 156000000 cycles: 2035071707 heartbeat IPC: 0.0751995 cumulative IPC: 0.0761822 (Simulation time: 0 hr 32 min 37 sec) 
Heartbeat CPU 0 instructions: 157000001 cycles: 2048667627 heartbeat IPC: 0.0735516 cumulative IPC: 0.0761647 (Simulation time: 0 hr 32 min 49 sec) 
Heartbeat CPU 0 instructions: 158000002 cycles: 2065359432 heartbeat IPC: 0.0599097 cumulative IPC: 0.0760333 (Simulation time: 0 hr 33 min 3 sec) 
Heartbeat CPU 0 instructions: 159000000 cycles: 2080272380 heartbeat IPC: 0.0670557 cumulative IPC: 0.0759689 (Simulation time: 0 hr 33 min 17 sec) 
Heartbeat CPU 0 instructions: 160000002 cycles: 2092959741 heartbeat IPC: 0.0788188 cumulative IPC: 0.0759862 (Simulation time: 0 hr 33 min 28 sec) 
Heartbeat CPU 0 instructions: 161000000 cycles: 2106885655 heartbeat IPC: 0.0718084 cumulative IPC: 0.0759586 (Simulation time: 0 hr 33 min 40 sec) 
Heartbeat CPU 0 instructions: 162000000 cycles: 2120134052 heartbeat IPC: 0.0754808 cumulative IPC: 0.0759556 (Simulation time: 0 hr 33 min 51 sec) 
Heartbeat CPU 0 instructions: 163000001 cycles: 2136868110 heartbeat IPC: 0.0597584 cumulative IPC: 0.0758287 (Simulation time: 0 hr 34 min 6 sec) 
Heartbeat CPU 0 instructions: 164000002 cycles: 2150218248 heartbeat IPC: 0.0749057 cumulative IPC: 0.075823 (Simulation time: 0 hr 34 min 18 sec) 
Heartbeat CPU 0 instructions: 165000000 cycles: 2163479327 heartbeat IPC: 0.0754085 cumulative IPC: 0.0758205 (Simulation time: 0 hr 34 min 30 sec) 
Heartbeat CPU 0 instructions: 166000001 cycles: 2176470799 heartbeat IPC: 0.0769736 cumulative IPC: 0.0758274 (Simulation time: 0 hr 34 min 41 sec) 
Heartbeat CPU 0 instructions: 167000003 cycles: 2190034472 heartbeat IPC: 0.0737265 cumulative IPC: 0.0758143 (Simulation time: 0 hr 34 min 54 sec) 
Heartbeat CPU 0 instructions: 168000003 cycles: 2205548464 heartbeat IPC: 0.0644579 cumulative IPC: 0.0757344 (Simulation time: 0 hr 35 min 8 sec) 
Heartbeat CPU 0 instructions: 169000000 cycles: 2218609454 heartbeat IPC: 0.0765636 cumulative IPC: 0.0757393 (Simulation time: 0 hr 35 min 19 sec) 
Heartbeat CPU 0 instructions: 170000000 cycles: 2230760387 heartbeat IPC: 0.0822982 cumulative IPC: 0.0757751 (Simulation time: 0 hr 35 min 30 sec) 
Heartbeat CPU 0 instructions: 171000002 cycles: 2243288311 heartbeat IPC: 0.0798218 cumulative IPC: 0.0757977 (Simulation time: 0 hr 35 min 41 sec) 
Heartbeat CPU 0 instructions: 172000002 cycles: 2260095995 heartbeat IPC: 0.0594966 cumulative IPC: 0.0756764 (Simulation time: 0 hr 35 min 56 sec) 
Heartbeat CPU 0 instructions: 173000001 cycles: 2273272030 heartbeat IPC: 0.0758953 cumulative IPC: 0.0756777 (Simulation time: 0 hr 36 min 8 sec) 
Heartbeat CPU 0 instructions: 174000001 cycles: 2288456786 heartbeat IPC: 0.0658555 cumulative IPC: 0.0756125 (Simulation time: 0 hr 36 min 21 sec) 
Heartbeat CPU 0 instructions: 175000000 cycles: 2300287839 heartbeat IPC: 0.0845232 cumulative IPC: 0.0756583 (Simulation time: 0 hr 36 min 31 sec) 
Heartbeat CPU 0 instructions: 176000000 cycles: 2315783058 heartbeat IPC: 0.064536 cumulative IPC: 0.0755839 (Simulation time: 0 hr 36 min 45 sec) 
Heartbeat CPU 0 instructions: 177000000 cycles: 2329570517 heartbeat IPC: 0.0725297 cumulative IPC: 0.0755658 (Simulation time: 0 hr 36 min 58 sec) 
Heartbeat CPU 0 instructions: 178000000 cycles: 2341264270 heartbeat IPC: 0.0855157 cumulative IPC: 0.0756155 (Simulation time: 0 hr 37 min 9 sec) 
Heartbeat CPU 0 instructions: 179000002 cycles: 2351531716 heartbeat IPC: 0.0973954 cumulative IPC: 0.0757106 (Simulation time: 0 hr 37 min 19 sec) 
Heartbeat CPU 0 instructions: 180000001 cycles: 2366833149 heartbeat IPC: 0.0653533 cumulative IPC: 0.0756437 (Simulation time: 0 hr 37 min 32 sec) 
Heartbeat CPU 0 instructions: 181000000 cycles: 2379658116 heartbeat IPC: 0.0779728 cumulative IPC: 0.0756562 (Simulation time: 0 hr 37 min 45 sec) 
Heartbeat CPU 0 instructions: 182000002 cycles: 2391582651 heartbeat IPC: 0.0838609 cumulative IPC: 0.0756971 (Simulation time: 0 hr 37 min 55 sec) 
Heartbeat CPU 0 instructions: 183000000 cycles: 2405079299 heartbeat IPC: 0.0740923 cumulative IPC: 0.0756881 (Simulation time: 0 hr 38 min 6 sec) 
Heartbeat CPU 0 instructions: 184000000 cycles: 2419150755 heartbeat IPC: 0.0710659 cumulative IPC: 0.0756612 (Simulation time: 0 hr 38 min 18 sec) 
Heartbeat CPU 0 instructions: 185000000 cycles: 2434996267 heartbeat IPC: 0.0631094 cumulative IPC: 0.0755795 (Simulation time: 0 hr 38 min 33 sec) 
Heartbeat CPU 0 instructions: 186000000 cycles: 2447455187 heartbeat IPC: 0.0802638 cumulative IPC: 0.0756034 (Simulation time: 0 hr 38 min 44 sec) 
Heartbeat CPU 0 instructions: 187000000 cycles: 2459959408 heartbeat IPC: 0.079973 cumulative IPC: 0.0756256 (Simulation time: 0 hr 38 min 55 sec) 
Heartbeat CPU 0 instructions: 188000001 cycles: 2474023547 heartbeat IPC: 0.0711029 cumulative IPC: 0.0755999 (Simulation time: 0 hr 39 min 7 sec) 
Heartbeat CPU 0 instructions: 189000000 cycles: 2488765725 heartbeat IPC: 0.0678325 cumulative IPC: 0.0755539 (Simulation time: 0 hr 39 min 20 sec) 
Heartbeat CPU 0 instructions: 190000000 cycles: 2504532964 heartbeat IPC: 0.0634226 cumulative IPC: 0.0754775 (Simulation time: 0 hr 39 min 34 sec) 
Heartbeat CPU 0 instructions: 191000001 cycles: 2515099701 heartbeat IPC: 0.0946367 cumulative IPC: 0.075558 (Simulation time: 0 hr 39 min 44 sec) 
Heartbeat CPU 0 instructions: 192000000 cycles: 2525823897 heartbeat IPC: 0.093247 cumulative IPC: 0.0756331 (Simulation time: 0 hr 39 min 54 sec) 
Heartbeat CPU 0 instructions: 193000003 cycles: 2539722886 heartbeat IPC: 0.0719479 cumulative IPC: 0.0756129 (Simulation time: 0 hr 40 min 7 sec) 
Heartbeat CPU 0 instructions: 194000000 cycles: 2552615470 heartbeat IPC: 0.0775637 cumulative IPC: 0.0756228 (Simulation time: 0 hr 40 min 20 sec) 
Heartbeat CPU 0 instructions: 195000000 cycles: 2561475796 heartbeat IPC: 0.112863 cumulative IPC: 0.0757516 (Simulation time: 0 hr 40 min 29 sec) 
Heartbeat CPU 0 instructions: 196000000 cycles: 2576764313 heartbeat IPC: 0.0654086 cumulative IPC: 0.0756903 (Simulation time: 0 hr 40 min 42 sec) 
Heartbeat CPU 0 instructions: 197000001 cycles: 2591514558 heartbeat IPC: 0.0677956 cumulative IPC: 0.0756453 (Simulation time: 0 hr 40 min 55 sec) 
Heartbeat CPU 0 instructions: 198000000 cycles: 2608502177 heartbeat IPC: 0.0588663 cumulative IPC: 0.075536 (Simulation time: 0 hr 41 min 10 sec) 
Heartbeat CPU 0 instructions: 199000000 cycles: 2621092294 heartbeat IPC: 0.0794274 cumulative IPC: 0.0755547 (Simulation time: 0 hr 41 min 21 sec) 
Heartbeat CPU 0 instructions: 200000000 cycles: 2632159250 heartbeat IPC: 0.0903591 cumulative IPC: 0.075617 (Simulation time: 0 hr 41 min 30 sec) 
Heartbeat CPU 0 instructions: 201000000 cycles: 2644033053 heartbeat IPC: 0.084219 cumulative IPC: 0.0756556 (Simulation time: 0 hr 41 min 40 sec) 
Heartbeat CPU 0 instructions: 202000001 cycles: 2660725164 heartbeat IPC: 0.0599086 cumulative IPC: 0.0755568 (Simulation time: 0 hr 41 min 54 sec) 
Heartbeat CPU 0 instructions: 203000000 cycles: 2675156334 heartbeat IPC: 0.0692944 cumulative IPC: 0.075523 (Simulation time: 0 hr 42 min 6 sec) 
Heartbeat CPU 0 instructions: 204000001 cycles: 2686590617 heartbeat IPC: 0.0874564 cumulative IPC: 0.0755738 (Simulation time: 0 hr 42 min 17 sec) 
Heartbeat CPU 0 instructions: 205000000 cycles: 2698626109 heartbeat IPC: 0.0830875 cumulative IPC: 0.0756073 (Simulation time: 0 hr 42 min 28 sec) 
Heartbeat CPU 0 instructions: 206000000 cycles: 2715015909 heartbeat IPC: 0.0610136 cumulative IPC: 0.0755192 (Simulation time: 0 hr 42 min 42 sec) 
Heartbeat CPU 0 instructions: 207000000 cycles: 2726984031 heartbeat IPC: 0.0835553 cumulative IPC: 0.0755545 (Simulation time: 0 hr 42 min 52 sec) 
Heartbeat CPU 0 instructions: 208000000 cycles: 2738471567 heartbeat IPC: 0.0870509 cumulative IPC: 0.0756027 (Simulation time: 0 hr 43 min 2 sec) 
Heartbeat CPU 0 instructions: 209000000 cycles: 2751370211 heartbeat IPC: 0.0775275 cumulative IPC: 0.0756118 (Simulation time: 0 hr 43 min 13 sec) 
Heartbeat CPU 0 instructions: 210000000 cycles: 2767305333 heartbeat IPC: 0.0627545 cumulative IPC: 0.0755377 (Simulation time: 0 hr 43 min 26 sec) 
Heartbeat CPU 0 instructions: 211000000 cycles: 2780944670 heartbeat IPC: 0.0733173 cumulative IPC: 0.0755268 (Simulation time: 0 hr 43 min 39 sec) 
Heartbeat CPU 0 instructions: 212000000 cycles: 2794428110 heartbeat IPC: 0.074165 cumulative IPC: 0.0755202 (Simulation time: 0 hr 43 min 49 sec) 
Heartbeat CPU 0 instructions: 213000002 cycles: 2809414884 heartbeat IPC: 0.0667256 cumulative IPC: 0.0754733 (Simulation time: 0 hr 44 min 1 sec) 
Heartbeat CPU 0 instructions: 214000001 cycles: 2823376313 heartbeat IPC: 0.0716258 cumulative IPC: 0.0754543 (Simulation time: 0 hr 44 min 11 sec) 
Heartbeat CPU 0 instructions: 215000003 cycles: 2839333510 heartbeat IPC: 0.0626678 cumulative IPC: 0.0753824 (Simulation time: 0 hr 44 min 20 sec) 
Heartbeat CPU 0 instructions: 216000002 cycles: 2854308530 heartbeat IPC: 0.0667778 cumulative IPC: 0.0753373 (Simulation time: 0 hr 44 min 29 sec) 
Heartbeat CPU 0 instructions: 217000001 cycles: 2870980979 heartbeat IPC: 0.0599791 cumulative IPC: 0.0752481 (Simulation time: 0 hr 44 min 37 sec) 
Heartbeat CPU 0 instructions: 218000001 cycles: 2884893098 heartbeat IPC: 0.0718798 cumulative IPC: 0.0752318 (Simulation time: 0 hr 44 min 44 sec) 
Heartbeat CPU 0 instructions: 219000000 cycles: 2898384007 heartbeat IPC: 0.0741239 cumulative IPC: 0.0752267 (Simulation time: 0 hr 44 min 52 sec) 
Heartbeat CPU 0 instructions: 220000000 cycles: 2913770567 heartbeat IPC: 0.0649918 cumulative IPC: 0.0751726 (Simulation time: 0 hr 45 min 0 sec) 
Heartbeat CPU 0 instructions: 221000000 cycles: 2929094029 heartbeat IPC: 0.0652594 cumulative IPC: 0.0751207 (Simulation time: 0 hr 45 min 9 sec) 
Heartbeat CPU 0 instructions: 222000000 cycles: 2943321561 heartbeat IPC: 0.0702863 cumulative IPC: 0.0750974 (Simulation time: 0 hr 45 min 16 sec) 
Heartbeat CPU 0 instructions: 223000001 cycles: 2956408882 heartbeat IPC: 0.0764099 cumulative IPC: 0.0751032 (Simulation time: 0 hr 45 min 23 sec) 
Heartbeat CPU 0 instructions: 224000000 cycles: 2968206838 heartbeat IPC: 0.0847604 cumulative IPC: 0.0751416 (Simulation time: 0 hr 45 min 29 sec) 
Heartbeat CPU 0 instructions: 225000003 cycles: 2984966514 heartbeat IPC: 0.0596672 cumulative IPC: 0.0750547 (Simulation time: 0 hr 45 min 39 sec) 
Heartbeat CPU 0 instructions: 226000001 cycles: 2997065081 heartbeat IPC: 0.0826543 cumulative IPC: 0.0750853 (Simulation time: 0 hr 45 min 46 sec) 
Heartbeat CPU 0 instructions: 227000000 cycles: 3011485376 heartbeat IPC: 0.0693466 cumulative IPC: 0.0750579 (Simulation time: 0 hr 45 min 54 sec) 
Heartbeat CPU 0 instructions: 228000000 cycles: 3025965595 heartbeat IPC: 0.0690597 cumulative IPC: 0.0750292 (Simulation time: 0 hr 46 min 1 sec) 
Heartbeat CPU 0 instructions: 229000001 cycles: 3040649486 heartbeat IPC: 0.0681019 cumulative IPC: 0.0749957 (Simulation time: 0 hr 46 min 9 sec) 
Heartbeat CPU 0 instructions: 230000002 cycles: 3055795348 heartbeat IPC: 0.0660247 cumulative IPC: 0.0749512 (Simulation time: 0 hr 46 min 17 sec) 
Heartbeat CPU 0 instructions: 231000000 cycles: 3071250149 heartbeat IPC: 0.0647047 cumulative IPC: 0.0748997 (Simulation time: 0 hr 46 min 26 sec) 
Heartbeat CPU 0 instructions: 232000000 cycles: 3084431927 heartbeat IPC: 0.0758623 cumulative IPC: 0.0749038 (Simulation time: 0 hr 46 min 33 sec) 
Heartbeat CPU 0 instructions: 233000003 cycles: 3098020929 heartbeat IPC: 0.0735891 cumulative IPC: 0.074898 (Simulation time: 0 hr 46 min 41 sec) 
Heartbeat CPU 0 instructions: 234000002 cycles: 3112576131 heartbeat IPC: 0.0687039 cumulative IPC: 0.074869 (Simulation time: 0 hr 46 min 48 sec) 
Heartbeat CPU 0 instructions: 235000002 cycles: 3126375765 heartbeat IPC: 0.0724657 cumulative IPC: 0.0748584 (Simulation time: 0 hr 46 min 56 sec) 
Heartbeat CPU 0 instructions: 236000001 cycles: 3140275559 heartbeat IPC: 0.0719434 cumulative IPC: 0.0748455 (Simulation time: 0 hr 47 min 4 sec) 
Heartbeat CPU 0 instructions: 237000002 cycles: 3157075093 heartbeat IPC: 0.0595255 cumulative IPC: 0.074764 (Simulation time: 0 hr 47 min 13 sec) 
Heartbeat CPU 0 instructions: 238000000 cycles: 3171326583 heartbeat IPC: 0.070168 cumulative IPC: 0.0747433 (Simulation time: 0 hr 47 min 21 sec) 
Heartbeat CPU 0 instructions: 239000001 cycles: 3185895242 heartbeat IPC: 0.0686406 cumulative IPC: 0.0747154 (Simulation time: 0 hr 47 min 29 sec) 
Heartbeat CPU 0 instructions: 240000000 cycles: 3198571795 heartbeat IPC: 0.0788857 cumulative IPC: 0.074732 (Simulation time: 0 hr 47 min 36 sec) 
Heartbeat CPU 0 instructions: 241000000 cycles: 3211755923 heartbeat IPC: 0.0758488 cumulative IPC: 0.0747365 (Simulation time: 0 hr 47 min 43 sec) 
Heartbeat CPU 0 instructions: 242000000 cycles: 3225874534 heartbeat IPC: 0.0708285 cumulative IPC: 0.0747194 (Simulation time: 0 hr 47 min 50 sec) 
Heartbeat CPU 0 instructions: 243000002 cycles: 3242399602 heartbeat IPC: 0.0605142 cumulative IPC: 0.074647 (Simulation time: 0 hr 48 min 0 sec) 
Heartbeat CPU 0 instructions: 244000000 cycles: 3256251069 heartbeat IPC: 0.0721944 cumulative IPC: 0.0746366 (Simulation time: 0 hr 48 min 7 sec) 
Heartbeat CPU 0 instructions: 245000000 cycles: 3266976156 heartbeat IPC: 0.0932393 cumulative IPC: 0.0746977 (Simulation time: 0 hr 48 min 14 sec) 
Heartbeat CPU 0 instructions: 246000003 cycles: 3282246139 heartbeat IPC: 0.0654882 cumulative IPC: 0.0746548 (Simulation time: 0 hr 48 min 22 sec) 
Heartbeat CPU 0 instructions: 247000002 cycles: 3296012407 heartbeat IPC: 0.0726413 cumulative IPC: 0.0746464 (Simulation time: 0 hr 48 min 29 sec) 
Heartbeat CPU 0 instructions: 248000000 cycles: 3310296002 heartbeat IPC: 0.0700102 cumulative IPC: 0.0746264 (Simulation time: 0 hr 48 min 37 sec) 
Heartbeat CPU 0 instructions: 249000000 cycles: 3326143130 heartbeat IPC: 0.0631029 cumulative IPC: 0.0745715 (Simulation time: 0 hr 48 min 45 sec) 
Heartbeat CPU 0 instructions: 250000000 cycles: 3343390281 heartbeat IPC: 0.0579806 cumulative IPC: 0.0744859 (Simulation time: 0 hr 48 min 55 sec) 
Heartbeat CPU 0 instructions: 251000001 cycles: 3357086516 heartbeat IPC: 0.0730128 cumulative IPC: 0.0744799 (Simulation time: 0 hr 49 min 2 sec) 
Heartbeat CPU 0 instructions: 252000002 cycles: 3369574957 heartbeat IPC: 0.0800741 cumulative IPC: 0.0745006 (Simulation time: 0 hr 49 min 9 sec) 
Heartbeat CPU 0 instructions: 253000000 cycles: 3384348334 heartbeat IPC: 0.0676892 cumulative IPC: 0.0744709 (Simulation time: 0 hr 49 min 17 sec) 
Heartbeat CPU 0 instructions: 254000002 cycles: 3397544849 heartbeat IPC: 0.0757777 cumulative IPC: 0.074476 (Simulation time: 0 hr 49 min 24 sec) 
Heartbeat CPU 0 instructions: 255000001 cycles: 3408026002 heartbeat IPC: 0.0954093 cumulative IPC: 0.0745403 (Simulation time: 0 hr 49 min 31 sec) 
Heartbeat CPU 0 instructions: 256000002 cycles: 3422374510 heartbeat IPC: 0.0696937 cumulative IPC: 0.07452 (Simulation time: 0 hr 49 min 40 sec) 
Heartbeat CPU 0 instructions: 257000000 cycles: 3430466718 heartbeat IPC: 0.123575 cumulative IPC: 0.0746358 (Simulation time: 0 hr 49 min 46 sec) 
Heartbeat CPU 0 instructions: 258000001 cycles: 3445114569 heartbeat IPC: 0.0682695 cumulative IPC: 0.0746087 (Simulation time: 0 hr 49 min 55 sec) 
Heartbeat CPU 0 instructions: 259000000 cycles: 3452178153 heartbeat IPC: 0.141571 cumulative IPC: 0.0747457 (Simulation time: 0 hr 50 min 1 sec) 
Heartbeat CPU 0 instructions: 260000000 cycles: 3459641390 heartbeat IPC: 0.13399 cumulative IPC: 0.0748735 (Simulation time: 0 hr 50 min 7 sec) 
Heartbeat CPU 0 instructions: 261000001 cycles: 3476273939 heartbeat IPC: 0.0601231 cumulative IPC: 0.074803 (Simulation time: 0 hr 50 min 16 sec) 
Heartbeat CPU 0 instructions: 262000002 cycles: 3483255497 heartbeat IPC: 0.143235 cumulative IPC: 0.0749401 (Simulation time: 0 hr 50 min 23 sec) 
Heartbeat CPU 0 instructions: 263000000 cycles: 3489908577 heartbeat IPC: 0.150306 cumulative IPC: 0.0750838 (Simulation time: 0 hr 50 min 29 sec) 
Heartbeat CPU 0 instructions: 264000000 cycles: 3495771176 heartbeat IPC: 0.170573 cumulative IPC: 0.075244 (Simulation time: 0 hr 50 min 34 sec) 
Heartbeat CPU 0 instructions: 265000000 cycles: 3506528328 heartbeat IPC: 0.0929614 cumulative IPC: 0.0752983 (Simulation time: 0 hr 50 min 41 sec) 
Heartbeat CPU 0 instructions: 266000000 cycles: 3518778824 heartbeat IPC: 0.0816294 cumulative IPC: 0.0753204 (Simulation time: 0 hr 50 min 50 sec) 
Heartbeat CPU 0 instructions: 267000001 cycles: 3525525624 heartbeat IPC: 0.148219 cumulative IPC: 0.0754599 (Simulation time: 0 hr 50 min 56 sec) 
Heartbeat CPU 0 instructions: 268000000 cycles: 3532025824 heartbeat IPC: 0.153841 cumulative IPC: 0.0756042 (Simulation time: 0 hr 51 min 1 sec) 
Heartbeat CPU 0 instructions: 269000000 cycles: 3538317837 heartbeat IPC: 0.158932 cumulative IPC: 0.0757524 (Simulation time: 0 hr 51 min 7 sec) 
Heartbeat CPU 0 instructions: 270000000 cycles: 3553429946 heartbeat IPC: 0.0661721 cumulative IPC: 0.0757116 (Simulation time: 0 hr 51 min 16 sec) 
Heartbeat CPU 0 instructions: 271000001 cycles: 3561588738 heartbeat IPC: 0.122567 cumulative IPC: 0.075819 (Simulation time: 0 hr 51 min 22 sec) 
Heartbeat CPU 0 instructions: 272000001 cycles: 3567932963 heartbeat IPC: 0.157624 cumulative IPC: 0.0759645 (Simulation time: 0 hr 51 min 28 sec) 
Heartbeat CPU 0 instructions: 273000000 cycles: 3574335074 heartbeat IPC: 0.156198 cumulative IPC: 0.0761082 (Simulation time: 0 hr 51 min 34 sec) 
Heartbeat CPU 0 instructions: 274000000 cycles: 3582990434 heartbeat IPC: 0.115535 cumulative IPC: 0.0762034 (Simulation time: 0 hr 51 min 41 sec) 
Heartbeat CPU 0 instructions: 275000000 cycles: 3599553707 heartbeat IPC: 0.0603745 cumulative IPC: 0.0761306 (Simulation time: 0 hr 51 min 50 sec) 
Heartbeat CPU 0 instructions: 276000000 cycles: 3607493240 heartbeat IPC: 0.125952 cumulative IPC: 0.0762403 (Simulation time: 0 hr 51 min 57 sec) 
Heartbeat CPU 0 instructions: 277000000 cycles: 3615619898 heartbeat IPC: 0.123052 cumulative IPC: 0.0763455 (Simulation time: 0 hr 52 min 3 sec) 
Heartbeat CPU 0 instructions: 278000000 cycles: 3623509630 heartbeat IPC: 0.126747 cumulative IPC: 0.0764553 (Simulation time: 0 hr 52 min 10 sec) 
Heartbeat CPU 0 instructions: 279000000 cycles: 3631950941 heartbeat IPC: 0.118465 cumulative IPC: 0.0765529 (Simulation time: 0 hr 52 min 16 sec) 
Heartbeat CPU 0 instructions: 280000001 cycles: 3644938630 heartbeat IPC: 0.0769961 cumulative IPC: 0.0765545 (Simulation time: 0 hr 52 min 24 sec) 
Heartbeat CPU 0 instructions: 281000000 cycles: 3657222407 heartbeat IPC: 0.0814081 cumulative IPC: 0.0765708 (Simulation time: 0 hr 52 min 33 sec) 
Heartbeat CPU 0 instructions: 282000001 cycles: 3666091898 heartbeat IPC: 0.112746 cumulative IPC: 0.0766583 (Simulation time: 0 hr 52 min 39 sec) 
Heartbeat CPU 0 instructions: 283000001 cycles: 3676381893 heartbeat IPC: 0.0971818 cumulative IPC: 0.0767158 (Simulation time: 0 hr 52 min 47 sec) 
Heartbeat CPU 0 instructions: 284000000 cycles: 3686076395 heartbeat IPC: 0.103151 cumulative IPC: 0.0767853 (Simulation time: 0 hr 52 min 54 sec) 
Heartbeat CPU 0 instructions: 285000000 cycles: 3698443222 heartbeat IPC: 0.0808615 cumulative IPC: 0.0767989 (Simulation time: 0 hr 53 min 1 sec) 
Heartbeat CPU 0 instructions: 286000000 cycles: 3712705876 heartbeat IPC: 0.0701132 cumulative IPC: 0.0767732 (Simulation time: 0 hr 53 min 10 sec) 
Heartbeat CPU 0 instructions: 287000000 cycles: 3725338089 heartbeat IPC: 0.0791627 cumulative IPC: 0.0767813 (Simulation time: 0 hr 53 min 18 sec) 
Heartbeat CPU 0 instructions: 288000001 cycles: 3735442690 heartbeat IPC: 0.0989649 cumulative IPC: 0.0768414 (Simulation time: 0 hr 53 min 26 sec) 
Heartbeat CPU 0 instructions: 289000000 cycles: 3745722369 heartbeat IPC: 0.0972792 cumulative IPC: 0.0768975 (Simulation time: 0 hr 53 min 33 sec) 
Heartbeat CPU 0 instructions: 290000003 cycles: 3757186774 heartbeat IPC: 0.0872268 cumulative IPC: 0.076929 (Simulation time: 0 hr 53 min 40 sec) 
Heartbeat CPU 0 instructions: 291000003 cycles: 3769804473 heartbeat IPC: 0.0792538 cumulative IPC: 0.0769368 (Simulation time: 0 hr 53 min 47 sec) 
Heartbeat CPU 0 instructions: 292000000 cycles: 3786520392 heartbeat IPC: 0.059823 cumulative IPC: 0.0768612 (Simulation time: 0 hr 53 min 57 sec) 
Heartbeat CPU 0 instructions: 293000000 cycles: 3801246992 heartbeat IPC: 0.0679043 cumulative IPC: 0.0768265 (Simulation time: 0 hr 54 min 4 sec) 
Heartbeat CPU 0 instructions: 294000000 cycles: 3816670631 heartbeat IPC: 0.0648355 cumulative IPC: 0.076778 (Simulation time: 0 hr 54 min 12 sec) 
Heartbeat CPU 0 instructions: 295000000 cycles: 3830956014 heartbeat IPC: 0.0700016 cumulative IPC: 0.0767528 (Simulation time: 0 hr 54 min 19 sec) 
Heartbeat CPU 0 instructions: 296000000 cycles: 3845709367 heartbeat IPC: 0.0677812 cumulative IPC: 0.0767183 (Simulation time: 0 hr 54 min 27 sec) 
Heartbeat CPU 0 instructions: 297000000 cycles: 3861280230 heartbeat IPC: 0.0642225 cumulative IPC: 0.0766679 (Simulation time: 0 hr 54 min 34 sec) 
Heartbeat CPU 0 instructions: 298000002 cycles: 3877255661 heartbeat IPC: 0.0625962 cumulative IPC: 0.07661 (Simulation time: 0 hr 54 min 43 sec) 
Heartbeat CPU 0 instructions: 299000000 cycles: 3892166570 heartbeat IPC: 0.0670649 cumulative IPC: 0.0765734 (Simulation time: 0 hr 54 min 51 sec) 
Heartbeat CPU 0 instructions: 300000000 cycles: 3907408947 heartbeat IPC: 0.0656066 cumulative IPC: 0.0765306 (Simulation time: 0 hr 54 min 59 sec) 
Heartbeat CPU 0 instructions: 301000000 cycles: 3923237816 heartbeat IPC: 0.0631757 cumulative IPC: 0.0764767 (Simulation time: 0 hr 55 min 7 sec) 
Heartbeat CPU 0 instructions: 302000000 cycles: 3938195591 heartbeat IPC: 0.0668549 cumulative IPC: 0.0764402 (Simulation time: 0 hr 55 min 14 sec) 
Heartbeat CPU 0 instructions: 303000002 cycles: 3952911391 heartbeat IPC: 0.0679543 cumulative IPC: 0.0764086 (Simulation time: 0 hr 55 min 22 sec) 
Heartbeat CPU 0 instructions: 304000000 cycles: 3968115823 heartbeat IPC: 0.0657702 cumulative IPC: 0.0763678 (Simulation time: 0 hr 55 min 30 sec) 
Heartbeat CPU 0 instructions: 305000003 cycles: 3984938413 heartbeat IPC: 0.0594441 cumulative IPC: 0.0762964 (Simulation time: 0 hr 55 min 39 sec) 
Heartbeat CPU 0 instructions: 306000000 cycles: 3999474701 heartbeat IPC: 0.0687931 cumulative IPC: 0.0762691 (Simulation time: 0 hr 55 min 47 sec) 
Heartbeat CPU 0 instructions: 307000001 cycles: 4013281090 heartbeat IPC: 0.0724303 cumulative IPC: 0.0762559 (Simulation time: 0 hr 55 min 54 sec) 
Heartbeat CPU 0 instructions: 308000000 cycles: 4028871015 heartbeat IPC: 0.0641439 cumulative IPC: 0.076209 (Simulation time: 0 hr 56 min 2 sec) 
Heartbeat CPU 0 instructions: 309000000 cycles: 4045289525 heartbeat IPC: 0.0609069 cumulative IPC: 0.0761469 (Simulation time: 0 hr 56 min 10 sec) 
Heartbeat CPU 0 instructions: 310000000 cycles: 4060920497 heartbeat IPC: 0.0639756 cumulative IPC: 0.0761 (Simulation time: 0 hr 56 min 18 sec) 
Heartbeat CPU 0 instructions: 311000000 cycles: 4076788622 heartbeat IPC: 0.0630194 cumulative IPC: 0.0760491 (Simulation time: 0 hr 56 min 26 sec) 
Heartbeat CPU 0 instructions: 312000001 cycles: 4092486602 heartbeat IPC: 0.0637025 cumulative IPC: 0.0760017 (Simulation time: 0 hr 56 min 34 sec) 
Heartbeat CPU 0 instructions: 313000000 cycles: 4107762618 heartbeat IPC: 0.065462 cumulative IPC: 0.0759625 (Simulation time: 0 hr 56 min 43 sec) 
Heartbeat CPU 0 instructions: 314000000 cycles: 4115479415 heartbeat IPC: 0.129587 cumulative IPC: 0.0760631 (Simulation time: 0 hr 56 min 49 sec) 
Heartbeat CPU 0 instructions: 315000000 cycles: 4122872328 heartbeat IPC: 0.135265 cumulative IPC: 0.0761693 (Simulation time: 0 hr 56 min 54 sec) 
Heartbeat CPU 0 instructions: 316000002 cycles: 4136712185 heartbeat IPC: 0.0722552 cumulative IPC: 0.0761562 (Simulation time: 0 hr 57 min 2 sec) 
Heartbeat CPU 0 instructions: 317000000 cycles: 4147177876 heartbeat IPC: 0.0955501 cumulative IPC: 0.0762051 (Simulation time: 0 hr 57 min 10 sec) 
Heartbeat CPU 0 instructions: 318000003 cycles: 4154059550 heartbeat IPC: 0.145314 cumulative IPC: 0.0763196 (Simulation time: 0 hr 57 min 15 sec) 
Heartbeat CPU 0 instructions: 319000000 cycles: 4170142442 heartbeat IPC: 0.0621777 cumulative IPC: 0.0762651 (Simulation time: 0 hr 57 min 24 sec) 
Heartbeat CPU 0 instructions: 320000001 cycles: 4182517199 heartbeat IPC: 0.0808097 cumulative IPC: 0.0762785 (Simulation time: 0 hr 57 min 33 sec) 
Heartbeat CPU 0 instructions: 321000000 cycles: 4194505294 heartbeat IPC: 0.083416 cumulative IPC: 0.0762989 (Simulation time: 0 hr 57 min 40 sec) 
Heartbeat CPU 0 instructions: 322000002 cycles: 4201329090 heartbeat IPC: 0.146546 cumulative IPC: 0.076413 (Simulation time: 0 hr 57 min 46 sec) 
Heartbeat CPU 0 instructions: 323000000 cycles: 4208214208 heartbeat IPC: 0.145241 cumulative IPC: 0.0765257 (Simulation time: 0 hr 57 min 51 sec) 
Heartbeat CPU 0 instructions: 324000002 cycles: 4224958978 heartbeat IPC: 0.0597203 cumulative IPC: 0.076459 (Simulation time: 0 hr 58 min 1 sec) 
Heartbeat CPU 0 instructions: 325000000 cycles: 4232247967 heartbeat IPC: 0.137193 cumulative IPC: 0.0765637 (Simulation time: 0 hr 58 min 7 sec) 
Heartbeat CPU 0 instructions: 326000002 cycles: 4240327378 heartbeat IPC: 0.123772 cumulative IPC: 0.0766536 (Simulation time: 0 hr 58 min 12 sec) 
Heartbeat CPU 0 instructions: 327000000 cycles: 4251879241 heartbeat IPC: 0.0865659 cumulative IPC: 0.0766805 (Simulation time: 0 hr 58 min 19 sec) 
Heartbeat CPU 0 instructions: 328000001 cycles: 4267492301 heartbeat IPC: 0.064049 cumulative IPC: 0.0766343 (Simulation time: 0 hr 58 min 28 sec) 
Heartbeat CPU 0 instructions: 329000001 cycles: 4278994770 heartbeat IPC: 0.0869379 cumulative IPC: 0.076662 (Simulation time: 0 hr 58 min 35 sec) 
Heartbeat CPU 0 instructions: 330000000 cycles: 4291224325 heartbeat IPC: 0.081769 cumulative IPC: 0.0766766 (Simulation time: 0 hr 58 min 41 sec) 
Heartbeat CPU 0 instructions: 331000003 cycles: 4304953705 heartbeat IPC: 0.0728367 cumulative IPC: 0.0766643 (Simulation time: 0 hr 58 min 49 sec) 
Heartbeat CPU 0 instructions: 332000003 cycles: 4320621399 heartbeat IPC: 0.0638256 cumulative IPC: 0.0766178 (Simulation time: 0 hr 58 min 57 sec) 
Heartbeat CPU 0 instructions: 333000000 cycles: 4335865578 heartbeat IPC: 0.0655986 cumulative IPC: 0.076579 (Simulation time: 0 hr 59 min 6 sec) 
Heartbeat CPU 0 instructions: 334000000 cycles: 4350711090 heartbeat IPC: 0.0673604 cumulative IPC: 0.0765476 (Simulation time: 0 hr 59 min 14 sec) 
Heartbeat CPU 0 instructions: 335000002 cycles: 4365795158 heartbeat IPC: 0.0662952 cumulative IPC: 0.0765121 (Simulation time: 0 hr 59 min 21 sec) 
Heartbeat CPU 0 instructions: 336000000 cycles: 4379604389 heartbeat IPC: 0.0724152 cumulative IPC: 0.0764992 (Simulation time: 0 hr 59 min 29 sec) 
Heartbeat CPU 0 instructions: 337000000 cycles: 4393804114 heartbeat IPC: 0.0704239 cumulative IPC: 0.0764796 (Simulation time: 0 hr 59 min 36 sec) 
Heartbeat CPU 0 instructions: 338000000 cycles: 4408653848 heartbeat IPC: 0.0673413 cumulative IPC: 0.0764488 (Simulation time: 0 hr 59 min 44 sec) 
Heartbeat CPU 0 instructions: 339000002 cycles: 4424270776 heartbeat IPC: 0.0640332 cumulative IPC: 0.076405 (Simulation time: 0 hr 59 min 53 sec) 
Heartbeat CPU 0 instructions: 340000001 cycles: 4437547088 heartbeat IPC: 0.075322 cumulative IPC: 0.0764017 (Simulation time: 1 hr 0 min 0 sec) 
Heartbeat CPU 0 instructions: 341000000 cycles: 4451649406 heartbeat IPC: 0.0709103 cumulative IPC: 0.0763843 (Simulation time: 1 hr 0 min 8 sec) 
Heartbeat CPU 0 instructions: 342000000 cycles: 4465041955 heartbeat IPC: 0.0746684 cumulative IPC: 0.0763792 (Simulation time: 1 hr 0 min 15 sec) 
Heartbeat CPU 0 instructions: 343000000 cycles: 4480033006 heartbeat IPC: 0.0667065 cumulative IPC: 0.0763468 (Simulation time: 1 hr 0 min 23 sec) 
Heartbeat CPU 0 instructions: 344000000 cycles: 4495824511 heartbeat IPC: 0.0633252 cumulative IPC: 0.0763011 (Simulation time: 1 hr 0 min 32 sec) 
Heartbeat CPU 0 instructions: 345000000 cycles: 4510301161 heartbeat IPC: 0.0690768 cumulative IPC: 0.0762779 (Simulation time: 1 hr 0 min 39 sec) 
Heartbeat CPU 0 instructions: 346000000 cycles: 4523890390 heartbeat IPC: 0.0735877 cumulative IPC: 0.0762698 (Simulation time: 1 hr 0 min 47 sec) 
Heartbeat CPU 0 instructions: 347000000 cycles: 4537843486 heartbeat IPC: 0.0716687 cumulative IPC: 0.0762557 (Simulation time: 1 hr 0 min 54 sec) 
Heartbeat CPU 0 instructions: 348000000 cycles: 4553506218 heartbeat IPC: 0.0638458 cumulative IPC: 0.076213 (Simulation time: 1 hr 1 min 2 sec) 
Heartbeat CPU 0 instructions: 349000000 cycles: 4568624330 heartbeat IPC: 0.0661458 cumulative IPC: 0.0761796 (Simulation time: 1 hr 1 min 11 sec) 
Heartbeat CPU 0 instructions: 350000001 cycles: 4585182490 heartbeat IPC: 0.0603932 cumulative IPC: 0.0761226 (Simulation time: 1 hr 1 min 20 sec) 
Heartbeat CPU 0 instructions: 351000000 cycles: 4600766882 heartbeat IPC: 0.0641667 cumulative IPC: 0.0760821 (Simulation time: 1 hr 1 min 28 sec) 
Heartbeat CPU 0 instructions: 352000000 cycles: 4615955506 heartbeat IPC: 0.0658387 cumulative IPC: 0.0760484 (Simulation time: 1 hr 1 min 36 sec) 
Heartbeat CPU 0 instructions: 353000000 cycles: 4635566307 heartbeat IPC: 0.0509923 cumulative IPC: 0.0759424 (Simulation time: 1 hr 1 min 46 sec) 
Heartbeat CPU 0 instructions: 354000000 cycles: 4650145456 heartbeat IPC: 0.0685911 cumulative IPC: 0.0759194 (Simulation time: 1 hr 1 min 54 sec) 
Heartbeat CPU 0 instructions: 355000000 cycles: 4666166821 heartbeat IPC: 0.0624167 cumulative IPC: 0.075873 (Simulation time: 1 hr 2 min 2 sec) 
Heartbeat CPU 0 instructions: 356000000 cycles: 4682927703 heartbeat IPC: 0.0596627 cumulative IPC: 0.075815 (Simulation time: 1 hr 2 min 11 sec) 
Heartbeat CPU 0 instructions: 357000000 cycles: 4698560341 heartbeat IPC: 0.0639687 cumulative IPC: 0.0757755 (Simulation time: 1 hr 2 min 19 sec) 
Heartbeat CPU 0 instructions: 358000001 cycles: 4715424386 heartbeat IPC: 0.0592978 cumulative IPC: 0.0757166 (Simulation time: 1 hr 2 min 29 sec) 
Heartbeat CPU 0 instructions: 359000002 cycles: 4730054859 heartbeat IPC: 0.0683506 cumulative IPC: 0.0756938 (Simulation time: 1 hr 2 min 37 sec) 
Heartbeat CPU 0 instructions: 360000001 cycles: 4745141748 heartbeat IPC: 0.0662827 cumulative IPC: 0.0756639 (Simulation time: 1 hr 2 min 45 sec) 
Heartbeat CPU 0 instructions: 361000000 cycles: 4760901871 heartbeat IPC: 0.0634512 cumulative IPC: 0.0756235 (Simulation time: 1 hr 2 min 53 sec) 
Heartbeat CPU 0 instructions: 362000001 cycles: 4777865227 heartbeat IPC: 0.0589507 cumulative IPC: 0.0755643 (Simulation time: 1 hr 3 min 2 sec) 
Heartbeat CPU 0 instructions: 363000000 cycles: 4794147608 heartbeat IPC: 0.061416 cumulative IPC: 0.0755162 (Simulation time: 1 hr 3 min 10 sec) 
Heartbeat CPU 0 instructions: 364000000 cycles: 4809822727 heartbeat IPC: 0.0637954 cumulative IPC: 0.075478 (Simulation time: 1 hr 3 min 18 sec) 
Heartbeat CPU 0 instructions: 365000001 cycles: 4826591910 heartbeat IPC: 0.0596333 cumulative IPC: 0.075423 (Simulation time: 1 hr 3 min 27 sec) 
Heartbeat CPU 0 instructions: 366000000 cycles: 4843055898 heartbeat IPC: 0.0607386 cumulative IPC: 0.075373 (Simulation time: 1 hr 3 min 35 sec) 
Heartbeat CPU 0 instructions: 367000002 cycles: 4859728465 heartbeat IPC: 0.0599789 cumulative IPC: 0.0753202 (Simulation time: 1 hr 3 min 44 sec) 
Heartbeat CPU 0 instructions: 368000002 cycles: 4876658142 heartbeat IPC: 0.0590679 cumulative IPC: 0.0752638 (Simulation time: 1 hr 3 min 54 sec) 
Heartbeat CPU 0 instructions: 369000000 cycles: 4889924705 heartbeat IPC: 0.0753773 cumulative IPC: 0.0752641 (Simulation time: 1 hr 4 min 1 sec) 
Heartbeat CPU 0 instructions: 370000001 cycles: 4903667639 heartbeat IPC: 0.0727647 cumulative IPC: 0.0752571 (Simulation time: 1 hr 4 min 9 sec) 
Heartbeat CPU 0 instructions: 371000000 cycles: 4919329865 heartbeat IPC: 0.0638478 cumulative IPC: 0.0752208 (Simulation time: 1 hr 4 min 17 sec) 
Heartbeat CPU 0 instructions: 372000001 cycles: 4935501971 heartbeat IPC: 0.0618349 cumulative IPC: 0.0751769 (Simulation time: 1 hr 4 min 25 sec) 
Heartbeat CPU 0 instructions: 373000002 cycles: 4951541794 heartbeat IPC: 0.0623449 cumulative IPC: 0.0751353 (Simulation time: 1 hr 4 min 33 sec) 
Heartbeat CPU 0 instructions: 374000000 cycles: 4967300179 heartbeat IPC: 0.0634582 cumulative IPC: 0.0750983 (Simulation time: 1 hr 4 min 41 sec) 
Heartbeat CPU 0 instructions: 375000000 cycles: 4983558818 heartbeat IPC: 0.0615058 cumulative IPC: 0.0750539 (Simulation time: 1 hr 4 min 50 sec) 
Heartbeat CPU 0 instructions: 376000000 cycles: 5000003553 heartbeat IPC: 0.0608097 cumulative IPC: 0.0750071 (Simulation time: 1 hr 4 min 59 sec) 
Heartbeat CPU 0 instructions: 377000000 cycles: 5014441149 heartbeat IPC: 0.0692636 cumulative IPC: 0.0749905 (Simulation time: 1 hr 5 min 7 sec) 
Heartbeat CPU 0 instructions: 378000001 cycles: 5029601827 heartbeat IPC: 0.0659602 cumulative IPC: 0.0749633 (Simulation time: 1 hr 5 min 15 sec) 
Heartbeat CPU 0 instructions: 379000003 cycles: 5045149236 heartbeat IPC: 0.0643195 cumulative IPC: 0.0749305 (Simulation time: 1 hr 5 min 23 sec) 
Heartbeat CPU 0 instructions: 380000000 cycles: 5061482784 heartbeat IPC: 0.0612235 cumulative IPC: 0.0748863 (Simulation time: 1 hr 5 min 31 sec) 
Heartbeat CPU 0 instructions: 381000002 cycles: 5077285846 heartbeat IPC: 0.063279 cumulative IPC: 0.0748501 (Simulation time: 1 hr 5 min 39 sec) 
Heartbeat CPU 0 instructions: 382000000 cycles: 5092567447 heartbeat IPC: 0.065438 cumulative IPC: 0.0748219 (Simulation time: 1 hr 5 min 48 sec) 
Heartbeat CPU 0 instructions: 383000002 cycles: 5107297500 heartbeat IPC: 0.0678886 cumulative IPC: 0.0748019 (Simulation time: 1 hr 5 min 55 sec) 
Heartbeat CPU 0 instructions: 384000000 cycles: 5123209110 heartbeat IPC: 0.0628471 cumulative IPC: 0.0747648 (Simulation time: 1 hr 6 min 4 sec) 
Heartbeat CPU 0 instructions: 385000000 cycles: 5139774804 heartbeat IPC: 0.0603657 cumulative IPC: 0.0747183 (Simulation time: 1 hr 6 min 13 sec) 
Heartbeat CPU 0 instructions: 386000001 cycles: 5154996558 heartbeat IPC: 0.0656955 cumulative IPC: 0.0746917 (Simulation time: 1 hr 6 min 21 sec) 
Heartbeat CPU 0 instructions: 387000000 cycles: 5171750334 heartbeat IPC: 0.059688 cumulative IPC: 0.0746431 (Simulation time: 1 hr 6 min 29 sec) 
Heartbeat CPU 0 instructions: 388000002 cycles: 5188356599 heartbeat IPC: 0.0602184 cumulative IPC: 0.0745969 (Simulation time: 1 hr 6 min 38 sec) 
Heartbeat CPU 0 instructions: 389000001 cycles: 5204855821 heartbeat IPC: 0.0606089 cumulative IPC: 0.0745526 (Simulation time: 1 hr 6 min 46 sec) 
Heartbeat CPU 0 instructions: 390000001 cycles: 5221487271 heartbeat IPC: 0.060127 cumulative IPC: 0.0745066 (Simulation time: 1 hr 6 min 54 sec) 
Heartbeat CPU 0 instructions: 391000000 cycles: 5238088393 heartbeat IPC: 0.0602368 cumulative IPC: 0.0744614 (Simulation time: 1 hr 7 min 3 sec) 
Heartbeat CPU 0 instructions: 392000000 cycles: 5253424965 heartbeat IPC: 0.0652036 cumulative IPC: 0.0744344 (Simulation time: 1 hr 7 min 11 sec) 
Heartbeat CPU 0 instructions: 393000000 cycles: 5269978987 heartbeat IPC: 0.0604083 cumulative IPC: 0.0743903 (Simulation time: 1 hr 7 min 19 sec) 
Heartbeat CPU 0 instructions: 394000003 cycles: 5285308423 heartbeat IPC: 0.0652342 cumulative IPC: 0.0743637 (Simulation time: 1 hr 7 min 27 sec) 
Heartbeat CPU 0 instructions: 395000001 cycles: 5301573781 heartbeat IPC: 0.0614802 cumulative IPC: 0.0743242 (Simulation time: 1 hr 7 min 35 sec) 
Heartbeat CPU 0 instructions: 396000000 cycles: 5318360735 heartbeat IPC: 0.05957 cumulative IPC: 0.0742776 (Simulation time: 1 hr 7 min 45 sec) 
Heartbeat CPU 0 instructions: 397000001 cycles: 5334120503 heartbeat IPC: 0.0634528 cumulative IPC: 0.0742457 (Simulation time: 1 hr 7 min 53 sec) 
Heartbeat CPU 0 instructions: 398000000 cycles: 5350496037 heartbeat IPC: 0.0610666 cumulative IPC: 0.0742053 (Simulation time: 1 hr 8 min 2 sec) 
Heartbeat CPU 0 instructions: 399000001 cycles: 5367774159 heartbeat IPC: 0.0578767 cumulative IPC: 0.0741528 (Simulation time: 1 hr 8 min 10 sec) 
Heartbeat CPU 0 instructions: 400000000 cycles: 5384791032 heartbeat IPC: 0.0587651 cumulative IPC: 0.0741041 (Simulation time: 1 hr 8 min 18 sec) 
Heartbeat CPU 0 instructions: 401000002 cycles: 5400629843 heartbeat IPC: 0.0631362 cumulative IPC: 0.074072 (Simulation time: 1 hr 8 min 26 sec) 
Heartbeat CPU 0 instructions: 402000002 cycles: 5416656061 heartbeat IPC: 0.0623978 cumulative IPC: 0.0740374 (Simulation time: 1 hr 8 min 34 sec) 
Heartbeat CPU 0 instructions: 403000000 cycles: 5433697252 heartbeat IPC: 0.0586812 cumulative IPC: 0.0739892 (Simulation time: 1 hr 8 min 42 sec) 
Heartbeat CPU 0 instructions: 404000000 cycles: 5450275652 heartbeat IPC: 0.0603195 cumulative IPC: 0.0739477 (Simulation time: 1 hr 8 min 51 sec) 
Heartbeat CPU 0 instructions: 405000000 cycles: 5466848362 heartbeat IPC: 0.0603402 cumulative IPC: 0.0739064 (Simulation time: 1 hr 8 min 59 sec) 
Heartbeat CPU 0 instructions: 406000002 cycles: 5483388824 heartbeat IPC: 0.0604579 cumulative IPC: 0.0738658 (Simulation time: 1 hr 9 min 7 sec) 
Heartbeat CPU 0 instructions: 407000000 cycles: 5500691255 heartbeat IPC: 0.0577952 cumulative IPC: 0.0738153 (Simulation time: 1 hr 9 min 16 sec) 
Heartbeat CPU 0 instructions: 408000002 cycles: 5517865601 heartbeat IPC: 0.0582265 cumulative IPC: 0.0737668 (Simulation time: 1 hr 9 min 24 sec) 
Heartbeat CPU 0 instructions: 409000002 cycles: 5534613419 heartbeat IPC: 0.0597093 cumulative IPC: 0.0737242 (Simulation time: 1 hr 9 min 33 sec) 
Heartbeat CPU 0 instructions: 410000000 cycles: 5551750538 heartbeat IPC: 0.0583527 cumulative IPC: 0.0736768 (Simulation time: 1 hr 9 min 43 sec) 
Heartbeat CPU 0 instructions: 411000001 cycles: 5568049856 heartbeat IPC: 0.0613523 cumulative IPC: 0.0736407 (Simulation time: 1 hr 9 min 51 sec) 
Heartbeat CPU 0 instructions: 412000000 cycles: 5584540781 heartbeat IPC: 0.0606394 cumulative IPC: 0.0736023 (Simulation time: 1 hr 9 min 59 sec) 
Heartbeat CPU 0 instructions: 413000000 cycles: 5601273804 heartbeat IPC: 0.0597621 cumulative IPC: 0.0735609 (Simulation time: 1 hr 10 min 8 sec) 
Heartbeat CPU 0 instructions: 414000000 cycles: 5616980375 heartbeat IPC: 0.0636676 cumulative IPC: 0.0735333 (Simulation time: 1 hr 10 min 16 sec) 
Heartbeat CPU 0 instructions: 415000000 cycles: 5632119531 heartbeat IPC: 0.0660539 cumulative IPC: 0.0735132 (Simulation time: 1 hr 10 min 24 sec) 
Heartbeat CPU 0 instructions: 416000002 cycles: 5645856119 heartbeat IPC: 0.0727984 cumulative IPC: 0.0735114 (Simulation time: 1 hr 10 min 31 sec) 
Heartbeat CPU 0 instructions: 417000000 cycles: 5661676948 heartbeat IPC: 0.0632077 cumulative IPC: 0.0734826 (Simulation time: 1 hr 10 min 39 sec) 
Heartbeat CPU 0 instructions: 418000000 cycles: 5677111698 heartbeat IPC: 0.0647889 cumulative IPC: 0.073459 (Simulation time: 1 hr 10 min 47 sec) 
Heartbeat CPU 0 instructions: 419000000 cycles: 5694040402 heartbeat IPC: 0.0590713 cumulative IPC: 0.0734162 (Simulation time: 1 hr 10 min 56 sec) 
Heartbeat CPU 0 instructions: 420000000 cycles: 5705206336 heartbeat IPC: 0.0895581 cumulative IPC: 0.0734478 (Simulation time: 1 hr 11 min 3 sec) 
Heartbeat CPU 0 instructions: 421000000 cycles: 5712510921 heartbeat IPC: 0.1369 cumulative IPC: 0.073529 (Simulation time: 1 hr 11 min 8 sec) 
Heartbeat CPU 0 instructions: 422000000 cycles: 5720055056 heartbeat IPC: 0.132553 cumulative IPC: 0.0736068 (Simulation time: 1 hr 11 min 14 sec) 
Heartbeat CPU 0 instructions: 423000003 cycles: 5735863807 heartbeat IPC: 0.0632563 cumulative IPC: 0.0735783 (Simulation time: 1 hr 11 min 23 sec) 
Heartbeat CPU 0 instructions: 424000000 cycles: 5745928155 heartbeat IPC: 0.0993603 cumulative IPC: 0.0736234 (Simulation time: 1 hr 11 min 29 sec) 
Heartbeat CPU 0 instructions: 425000000 cycles: 5754062863 heartbeat IPC: 0.12293 cumulative IPC: 0.0736931 (Simulation time: 1 hr 11 min 35 sec) 
Heartbeat CPU 0 instructions: 426000000 cycles: 5761747991 heartbeat IPC: 0.130121 cumulative IPC: 0.0737684 (Simulation time: 1 hr 11 min 40 sec) 
Heartbeat CPU 0 instructions: 427000001 cycles: 5777826620 heartbeat IPC: 0.0621944 cumulative IPC: 0.0737362 (Simulation time: 1 hr 11 min 49 sec) 
Heartbeat CPU 0 instructions: 428000001 cycles: 5787474188 heartbeat IPC: 0.103653 cumulative IPC: 0.0737861 (Simulation time: 1 hr 11 min 55 sec) 
Heartbeat CPU 0 instructions: 429000000 cycles: 5796513005 heartbeat IPC: 0.110634 cumulative IPC: 0.0738435 (Simulation time: 1 hr 12 min 1 sec) 
Heartbeat CPU 0 instructions: 430000000 cycles: 5809859082 heartbeat IPC: 0.0749284 cumulative IPC: 0.073846 (Simulation time: 1 hr 12 min 9 sec) 
Heartbeat CPU 0 instructions: 431000000 cycles: 5823114599 heartbeat IPC: 0.0754403 cumulative IPC: 0.0738497 (Simulation time: 1 hr 12 min 17 sec) 
Heartbeat CPU 0 instructions: 432000000 cycles: 5832758542 heartbeat IPC: 0.103692 cumulative IPC: 0.073899 (Simulation time: 1 hr 12 min 23 sec) 
Heartbeat CPU 0 instructions: 433000000 cycles: 5842541589 heartbeat IPC: 0.102218 cumulative IPC: 0.0739464 (Simulation time: 1 hr 12 min 29 sec) 
Heartbeat CPU 0 instructions: 434000000 cycles: 5858086260 heartbeat IPC: 0.0643307 cumulative IPC: 0.0739209 (Simulation time: 1 hr 12 min 38 sec) 
Heartbeat CPU 0 instructions: 435000001 cycles: 5865199295 heartbeat IPC: 0.140587 cumulative IPC: 0.0740018 (Simulation time: 1 hr 12 min 43 sec) 
Heartbeat CPU 0 instructions: 436000001 cycles: 5875107867 heartbeat IPC: 0.100923 cumulative IPC: 0.0740472 (Simulation time: 1 hr 12 min 49 sec) 
Heartbeat CPU 0 instructions: 437000000 cycles: 5888890457 heartbeat IPC: 0.0725552 cumulative IPC: 0.0740437 (Simulation time: 1 hr 12 min 57 sec) 
Heartbeat CPU 0 instructions: 438000001 cycles: 5901137800 heartbeat IPC: 0.0816504 cumulative IPC: 0.0740595 (Simulation time: 1 hr 13 min 5 sec) 
Heartbeat CPU 0 instructions: 439000000 cycles: 5910166592 heartbeat IPC: 0.110757 cumulative IPC: 0.0741155 (Simulation time: 1 hr 13 min 10 sec) 
Heartbeat CPU 0 instructions: 440000000 cycles: 5923276511 heartbeat IPC: 0.0762781 cumulative IPC: 0.0741203 (Simulation time: 1 hr 13 min 18 sec) 
Heartbeat CPU 0 instructions: 441000000 cycles: 5936994786 heartbeat IPC: 0.0728955 cumulative IPC: 0.0741175 (Simulation time: 1 hr 13 min 26 sec) 
Heartbeat CPU 0 instructions: 442000000 cycles: 5946548876 heartbeat IPC: 0.104667 cumulative IPC: 0.0741666 (Simulation time: 1 hr 13 min 32 sec) 
Heartbeat CPU 0 instructions: 443000001 cycles: 5958104007 heartbeat IPC: 0.0865417 cumulative IPC: 0.0741906 (Simulation time: 1 hr 13 min 39 sec) 
Heartbeat CPU 0 instructions: 444000000 cycles: 5973314352 heartbeat IPC: 0.0657447 cumulative IPC: 0.0741691 (Simulation time: 1 hr 13 min 47 sec) 
Heartbeat CPU 0 instructions: 445000000 cycles: 5982220541 heartbeat IPC: 0.112281 cumulative IPC: 0.0742258 (Simulation time: 1 hr 13 min 53 sec) 
Heartbeat CPU 0 instructions: 446000000 cycles: 5992284611 heartbeat IPC: 0.0993634 cumulative IPC: 0.0742681 (Simulation time: 1 hr 14 min 1 sec) 
Heartbeat CPU 0 instructions: 447000000 cycles: 6008477090 heartbeat IPC: 0.0617571 cumulative IPC: 0.0742343 (Simulation time: 1 hr 14 min 10 sec) 
Heartbeat CPU 0 instructions: 448000000 cycles: 6017173541 heartbeat IPC: 0.114989 cumulative IPC: 0.0742932 (Simulation time: 1 hr 14 min 16 sec) 
Heartbeat CPU 0 instructions: 449000000 cycles: 6026087886 heartbeat IPC: 0.112179 cumulative IPC: 0.0743493 (Simulation time: 1 hr 14 min 21 sec) 
Heartbeat CPU 0 instructions: 450000000 cycles: 6042485688 heartbeat IPC: 0.0609838 cumulative IPC: 0.074313 (Simulation time: 1 hr 14 min 30 sec) 

Warmup complete CPU 0 instructions: 450000001 cycles: 6042485689 (Simulation time: 1 hr 14 min 30 sec) 

Heartbeat CPU 0 instructions: 451000000 cycles: 6051771537 heartbeat IPC: 0.107691 cumulative IPC: 0.107691 (Simulation time: 1 hr 14 min 37 sec) 
Heartbeat CPU 0 instructions: 452000000 cycles: 6060321918 heartbeat IPC: 0.116954 cumulative IPC: 0.112131 (Simulation time: 1 hr 14 min 42 sec) 
Heartbeat CPU 0 instructions: 453000001 cycles: 6070600912 heartbeat IPC: 0.0972859 cumulative IPC: 0.106704 (Simulation time: 1 hr 14 min 49 sec) 
Heartbeat CPU 0 instructions: 454000002 cycles: 6080009535 heartbeat IPC: 0.106286 cumulative IPC: 0.106599 (Simulation time: 1 hr 14 min 56 sec) 
Heartbeat CPU 0 instructions: 455000000 cycles: 6088795758 heartbeat IPC: 0.113814 cumulative IPC: 0.107968 (Simulation time: 1 hr 15 min 1 sec) 
Heartbeat CPU 0 instructions: 456000002 cycles: 6098704995 heartbeat IPC: 0.100916 cumulative IPC: 0.106725 (Simulation time: 1 hr 15 min 8 sec) 
Heartbeat CPU 0 instructions: 457000003 cycles: 6108538236 heartbeat IPC: 0.101696 cumulative IPC: 0.105976 (Simulation time: 1 hr 15 min 15 sec) 
Heartbeat CPU 0 instructions: 458000000 cycles: 6116840251 heartbeat IPC: 0.120452 cumulative IPC: 0.107593 (Simulation time: 1 hr 15 min 20 sec) 
Heartbeat CPU 0 instructions: 459000001 cycles: 6126264310 heartbeat IPC: 0.106111 cumulative IPC: 0.107426 (Simulation time: 1 hr 15 min 27 sec) 
Heartbeat CPU 0 instructions: 460000001 cycles: 6136214060 heartbeat IPC: 0.100505 cumulative IPC: 0.106691 (Simulation time: 1 hr 15 min 34 sec) 
Heartbeat CPU 0 instructions: 461000000 cycles: 6144416073 heartbeat IPC: 0.121921 cumulative IPC: 0.107917 (Simulation time: 1 hr 15 min 39 sec) 
Heartbeat CPU 0 instructions: 462000000 cycles: 6153311763 heartbeat IPC: 0.112414 cumulative IPC: 0.108278 (Simulation time: 1 hr 15 min 45 sec) 
Heartbeat CPU 0 instructions: 463000000 cycles: 6163737434 heartbeat IPC: 0.0959171 cumulative IPC: 0.107215 (Simulation time: 1 hr 15 min 53 sec) 
Heartbeat CPU 0 instructions: 464000000 cycles: 6171958101 heartbeat IPC: 0.121645 cumulative IPC: 0.108131 (Simulation time: 1 hr 15 min 58 sec) 
Heartbeat CPU 0 instructions: 465000002 cycles: 6180520915 heartbeat IPC: 0.116784 cumulative IPC: 0.108668 (Simulation time: 1 hr 16 min 4 sec) 
Heartbeat CPU 0 instructions: 466000000 cycles: 6191096856 heartbeat IPC: 0.094554 cumulative IPC: 0.107664 (Simulation time: 1 hr 16 min 12 sec) 
Heartbeat CPU 0 instructions: 467000000 cycles: 6199233518 heartbeat IPC: 0.122901 cumulative IPC: 0.108454 (Simulation time: 1 hr 16 min 17 sec) 
Heartbeat CPU 0 instructions: 468000001 cycles: 6207455797 heartbeat IPC: 0.121621 cumulative IPC: 0.109111 (Simulation time: 1 hr 16 min 23 sec) 
Heartbeat CPU 0 instructions: 469000000 cycles: 6218210319 heartbeat IPC: 0.0929841 cumulative IPC: 0.108124 (Simulation time: 1 hr 16 min 30 sec) 
Heartbeat CPU 0 instructions: 470000002 cycles: 6226588167 heartbeat IPC: 0.119363 cumulative IPC: 0.108635 (Simulation time: 1 hr 16 min 36 sec) 
Heartbeat CPU 0 instructions: 471000002 cycles: 6234622431 heartbeat IPC: 0.124467 cumulative IPC: 0.109297 (Simulation time: 1 hr 16 min 42 sec) 
Heartbeat CPU 0 instructions: 472000000 cycles: 6245000855 heartbeat IPC: 0.0963536 cumulative IPC: 0.108634 (Simulation time: 1 hr 16 min 49 sec) 
Heartbeat CPU 0 instructions: 473000000 cycles: 6255992931 heartbeat IPC: 0.0909746 cumulative IPC: 0.107725 (Simulation time: 1 hr 16 min 56 sec) 
Heartbeat CPU 0 instructions: 474000000 cycles: 6265360370 heartbeat IPC: 0.106753 cumulative IPC: 0.107684 (Simulation time: 1 hr 17 min 2 sec) 
Heartbeat CPU 0 instructions: 475000001 cycles: 6275057990 heartbeat IPC: 0.103118 cumulative IPC: 0.107493 (Simulation time: 1 hr 17 min 9 sec) 
Heartbeat CPU 0 instructions: 476000000 cycles: 6285627699 heartbeat IPC: 0.0946099 cumulative IPC: 0.106933 (Simulation time: 1 hr 17 min 17 sec) 
Heartbeat CPU 0 instructions: 477000000 cycles: 6294721101 heartbeat IPC: 0.10997 cumulative IPC: 0.107043 (Simulation time: 1 hr 17 min 23 sec) 
Heartbeat CPU 0 instructions: 478000000 cycles: 6303934632 heartbeat IPC: 0.108536 cumulative IPC: 0.107095 (Simulation time: 1 hr 17 min 29 sec) 
Heartbeat CPU 0 instructions: 479000002 cycles: 6314823563 heartbeat IPC: 0.0918366 cumulative IPC: 0.106485 (Simulation time: 1 hr 17 min 36 sec) 
Heartbeat CPU 0 instructions: 480000000 cycles: 6324706777 heartbeat IPC: 0.101181 cumulative IPC: 0.1063 (Simulation time: 1 hr 17 min 43 sec) 
Heartbeat CPU 0 instructions: 481000001 cycles: 6333448168 heartbeat IPC: 0.114398 cumulative IPC: 0.106543 (Simulation time: 1 hr 17 min 49 sec) 
Heartbeat CPU 0 instructions: 482000003 cycles: 6344325774 heartbeat IPC: 0.0919322 cumulative IPC: 0.106016 (Simulation time: 1 hr 17 min 57 sec) 
Heartbeat CPU 0 instructions: 483000002 cycles: 6353675927 heartbeat IPC: 0.10695 cumulative IPC: 0.106044 (Simulation time: 1 hr 18 min 3 sec) 
Heartbeat CPU 0 instructions: 484000000 cycles: 6362966014 heartbeat IPC: 0.107641 cumulative IPC: 0.106091 (Simulation time: 1 hr 18 min 9 sec) 
Heartbeat CPU 0 instructions: 485000001 cycles: 6373951866 heartbeat IPC: 0.0910263 cumulative IPC: 0.105591 (Simulation time: 1 hr 18 min 17 sec) 
Heartbeat CPU 0 instructions: 486000000 cycles: 6384106133 heartbeat IPC: 0.0984807 cumulative IPC: 0.10538 (Simulation time: 1 hr 18 min 24 sec) 
Heartbeat CPU 0 instructions: 487000000 cycles: 6394776571 heartbeat IPC: 0.0937169 cumulative IPC: 0.105027 (Simulation time: 1 hr 18 min 31 sec) 
Heartbeat CPU 0 instructions: 488000003 cycles: 6405450237 heartbeat IPC: 0.0936888 cumulative IPC: 0.104693 (Simulation time: 1 hr 18 min 38 sec) 
Heartbeat CPU 0 instructions: 489000001 cycles: 6417094956 heartbeat IPC: 0.0858757 cumulative IPC: 0.104108 (Simulation time: 1 hr 18 min 46 sec) 
Heartbeat CPU 0 instructions: 490000000 cycles: 6429364629 heartbeat IPC: 0.0815017 cumulative IPC: 0.103392 (Simulation time: 1 hr 18 min 53 sec) 
Heartbeat CPU 0 instructions: 491000002 cycles: 6440928097 heartbeat IPC: 0.0864794 cumulative IPC: 0.102901 (Simulation time: 1 hr 18 min 59 sec) 
Heartbeat CPU 0 instructions: 492000002 cycles: 6452201112 heartbeat IPC: 0.0887074 cumulative IPC: 0.10251 (Simulation time: 1 hr 19 min 6 sec) 
Heartbeat CPU 0 instructions: 493000000 cycles: 6464018925 heartbeat IPC: 0.0846179 cumulative IPC: 0.102009 (Simulation time: 1 hr 19 min 15 sec) 
Heartbeat CPU 0 instructions: 494000003 cycles: 6476822345 heartbeat IPC: 0.0781044 cumulative IPC: 0.101304 (Simulation time: 1 hr 19 min 22 sec) 
Heartbeat CPU 0 instructions: 495000000 cycles: 6489336371 heartbeat IPC: 0.0799101 cumulative IPC: 0.100705 (Simulation time: 1 hr 19 min 29 sec) 
Heartbeat CPU 0 instructions: 496000000 cycles: 6501293482 heartbeat IPC: 0.0836322 cumulative IPC: 0.10026 (Simulation time: 1 hr 19 min 36 sec) 
Heartbeat CPU 0 instructions: 497000000 cycles: 6512515629 heartbeat IPC: 0.0891095 cumulative IPC: 0.0999936 (Simulation time: 1 hr 19 min 43 sec) 
Heartbeat CPU 0 instructions: 498000000 cycles: 6524921275 heartbeat IPC: 0.0806085 cumulative IPC: 0.0994951 (Simulation time: 1 hr 19 min 51 sec) 
Heartbeat CPU 0 instructions: 499000001 cycles: 6538899453 heartbeat IPC: 0.0715402 cumulative IPC: 0.098708 (Simulation time: 1 hr 19 min 58 sec) 
Heartbeat CPU 0 instructions: 500000000 cycles: 6550440463 heartbeat IPC: 0.0866474 cumulative IPC: 0.098434 (Simulation time: 1 hr 20 min 5 sec) 
Heartbeat CPU 0 instructions: 501000000 cycles: 6562197214 heartbeat IPC: 0.0850575 cumulative IPC: 0.0981314 (Simulation time: 1 hr 20 min 12 sec) 
Heartbeat CPU 0 instructions: 502000000 cycles: 6574213181 heartbeat IPC: 0.0832226 cumulative IPC: 0.0977945 (Simulation time: 1 hr 20 min 21 sec) 
Heartbeat CPU 0 instructions: 503000000 cycles: 6585084401 heartbeat IPC: 0.091986 cumulative IPC: 0.0976781 (Simulation time: 1 hr 20 min 27 sec) 
Heartbeat CPU 0 instructions: 504000000 cycles: 6592853119 heartbeat IPC: 0.128721 cumulative IPC: 0.0981163 (Simulation time: 1 hr 20 min 33 sec) 
Heartbeat CPU 0 instructions: 505000000 cycles: 6602544987 heartbeat IPC: 0.103179 cumulative IPC: 0.0982039 (Simulation time: 1 hr 20 min 40 sec) 
Heartbeat CPU 0 instructions: 506000000 cycles: 6612319029 heartbeat IPC: 0.102312 cumulative IPC: 0.0982743 (Simulation time: 1 hr 20 min 47 sec) 
Heartbeat CPU 0 instructions: 507000001 cycles: 6620901865 heartbeat IPC: 0.116512 cumulative IPC: 0.098545 (Simulation time: 1 hr 20 min 53 sec) 
Heartbeat CPU 0 instructions: 508000000 cycles: 6629581138 heartbeat IPC: 0.115217 cumulative IPC: 0.0987914 (Simulation time: 1 hr 20 min 59 sec) 
Heartbeat CPU 0 instructions: 509000002 cycles: 6640212209 heartbeat IPC: 0.0940641 cumulative IPC: 0.0987073 (Simulation time: 1 hr 21 min 7 sec) 
Heartbeat CPU 0 instructions: 510000001 cycles: 6650970290 heartbeat IPC: 0.0929533 cumulative IPC: 0.0986056 (Simulation time: 1 hr 21 min 13 sec) 
Heartbeat CPU 0 instructions: 511000001 cycles: 6661681192 heartbeat IPC: 0.0933628 cumulative IPC: 0.0985149 (Simulation time: 1 hr 21 min 19 sec) 
Heartbeat CPU 0 instructions: 512000000 cycles: 6671838948 heartbeat IPC: 0.0984468 cumulative IPC: 0.0985138 (Simulation time: 1 hr 21 min 26 sec) 
Heartbeat CPU 0 instructions: 513000002 cycles: 6683192739 heartbeat IPC: 0.0880765 cumulative IPC: 0.0983289 (Simulation time: 1 hr 21 min 34 sec) 
Heartbeat CPU 0 instructions: 514000000 cycles: 6695694666 heartbeat IPC: 0.0799875 cumulative IPC: 0.0979778 (Simulation time: 1 hr 21 min 41 sec) 
Heartbeat CPU 0 instructions: 515000001 cycles: 6708424744 heartbeat IPC: 0.0785542 cumulative IPC: 0.0976065 (Simulation time: 1 hr 21 min 48 sec) 
Heartbeat CPU 0 instructions: 516000000 cycles: 6721286132 heartbeat IPC: 0.077752 cumulative IPC: 0.0972303 (Simulation time: 1 hr 21 min 55 sec) 
Heartbeat CPU 0 instructions: 517000000 cycles: 6732446121 heartbeat IPC: 0.0896058 cumulative IPC: 0.097107 (Simulation time: 1 hr 22 min 4 sec) 
Heartbeat CPU 0 instructions: 518000000 cycles: 6744181297 heartbeat IPC: 0.0852139 cumulative IPC: 0.0969081 (Simulation time: 1 hr 22 min 11 sec) 
Heartbeat CPU 0 instructions: 519000002 cycles: 6756188654 heartbeat IPC: 0.0832824 cumulative IPC: 0.0966789 (Simulation time: 1 hr 22 min 18 sec) 
Heartbeat CPU 0 instructions: 520000000 cycles: 6768467096 heartbeat IPC: 0.0814434 cumulative IPC: 0.0964212 (Simulation time: 1 hr 22 min 25 sec) 
Heartbeat CPU 0 instructions: 521000000 cycles: 6779718028 heartbeat IPC: 0.0888815 cumulative IPC: 0.0963061 (Simulation time: 1 hr 22 min 32 sec) 
Heartbeat CPU 0 instructions: 522000000 cycles: 6792843642 heartbeat IPC: 0.0761869 cumulative IPC: 0.0959542 (Simulation time: 1 hr 22 min 40 sec) 
Heartbeat CPU 0 instructions: 523000000 cycles: 6804767743 heartbeat IPC: 0.0838638 cumulative IPC: 0.0957651 (Simulation time: 1 hr 22 min 47 sec) 
Heartbeat CPU 0 instructions: 524000000 cycles: 6818297735 heartbeat IPC: 0.0739099 cumulative IPC: 0.0953839 (Simulation time: 1 hr 22 min 54 sec) 
Heartbeat CPU 0 instructions: 525000003 cycles: 6832558880 heartbeat IPC: 0.0701208 cumulative IPC: 0.0949279 (Simulation time: 1 hr 23 min 2 sec) 
Heartbeat CPU 0 instructions: 526000001 cycles: 6844367816 heartbeat IPC: 0.0846815 cumulative IPC: 0.094777 (Simulation time: 1 hr 23 min 10 sec) 
Heartbeat CPU 0 instructions: 527000000 cycles: 6858092586 heartbeat IPC: 0.0728609 cumulative IPC: 0.0944082 (Simulation time: 1 hr 23 min 18 sec) 
Heartbeat CPU 0 instructions: 528000000 cycles: 6872151680 heartbeat IPC: 0.0711283 cumulative IPC: 0.0940137 (Simulation time: 1 hr 23 min 26 sec) 
Heartbeat CPU 0 instructions: 529000000 cycles: 6886864639 heartbeat IPC: 0.0679673 cumulative IPC: 0.0935599 (Simulation time: 1 hr 23 min 33 sec) 
Heartbeat CPU 0 instructions: 530000002 cycles: 6901300757 heartbeat IPC: 0.0692708 cumulative IPC: 0.0931516 (Simulation time: 1 hr 23 min 41 sec) 
Heartbeat CPU 0 instructions: 531000002 cycles: 6915715946 heartbeat IPC: 0.0693713 cumulative IPC: 0.092759 (Simulation time: 1 hr 23 min 49 sec) 
Heartbeat CPU 0 instructions: 532000001 cycles: 6929082166 heartbeat IPC: 0.0748154 cumulative IPC: 0.0924885 (Simulation time: 1 hr 23 min 56 sec) 
Heartbeat CPU 0 instructions: 533000001 cycles: 6940613673 heartbeat IPC: 0.0867189 cumulative IPC: 0.0924144 (Simulation time: 1 hr 24 min 5 sec) 
Heartbeat CPU 0 instructions: 534000002 cycles: 6957089039 heartbeat IPC: 0.0606967 cumulative IPC: 0.0918431 (Simulation time: 1 hr 24 min 13 sec) 
Heartbeat CPU 0 instructions: 535000002 cycles: 6973741587 heartbeat IPC: 0.0600509 cumulative IPC: 0.0912746 (Simulation time: 1 hr 24 min 22 sec) 
Heartbeat CPU 0 instructions: 536000001 cycles: 6988486294 heartbeat IPC: 0.0678209 cumulative IPC: 0.090909 (Simulation time: 1 hr 24 min 30 sec) 
Heartbeat CPU 0 instructions: 537000000 cycles: 7001989216 heartbeat IPC: 0.074058 cumulative IPC: 0.0906719 (Simulation time: 1 hr 24 min 37 sec) 
[...]
Heartbeat CPU 0 instructions: 836000000 cycles: 10662165893 heartbeat IPC: 0.121038 cumulative IPC: 0.0835556 (Simulation time: 2 hr 2 min 14 sec) 
Heartbeat CPU 0 instructions: 837000002 cycles: 10673713249 heartbeat IPC: 0.0866001 cumulative IPC: 0.0835632 (Simulation time: 2 hr 2 min 22 sec) 
Heartbeat CPU 0 instructions: 838000002 cycles: 10684180063 heartbeat IPC: 0.0955401 cumulative IPC: 0.0835902 (Simulation time: 2 hr 2 min 29 sec) 
Heartbeat CPU 0 instructions: 839000001 cycles: 10694706237 heartbeat IPC: 0.0950012 cumulative IPC: 0.083616 (Simulation time: 2 hr 2 min 37 sec) 
Heartbeat CPU 0 instructions: 840000003 cycles: 10704170666 heartbeat IPC: 0.105659 cumulative IPC: 0.0836607 (Simulation time: 2 hr 2 min 44 sec) 
Heartbeat CPU 0 instructions: 841000000 cycles: 10713737296 heartbeat IPC: 0.10453 cumulative IPC: 0.0837035 (Simulation time: 2 hr 2 min 51 sec) 
Heartbeat CPU 0 instructions: 842000000 cycles: 10722670968 heartbeat IPC: 0.111936 cumulative IPC: 0.0837574 (Simulation time: 2 hr 2 min 58 sec) 
Heartbeat CPU 0 instructions: 843000000 cycles: 10734304074 heartbeat IPC: 0.0859616 cumulative IPC: 0.0837628 (Simulation time: 2 hr 3 min 6 sec) 
Heartbeat CPU 0 instructions: 844000003 cycles: 10744905491 heartbeat IPC: 0.0943273 cumulative IPC: 0.0837867 (Simulation time: 2 hr 3 min 14 sec) 
Heartbeat CPU 0 instructions: 845000000 cycles: 10755977160 heartbeat IPC: 0.0903203 cumulative IPC: 0.083802 (Simulation time: 2 hr 3 min 22 sec) 
Heartbeat CPU 0 instructions: 846000002 cycles: 10767090090 heartbeat IPC: 0.0899855 cumulative IPC: 0.0838165 (Simulation time: 2 hr 3 min 29 sec) 
Heartbeat CPU 0 instructions: 847000000 cycles: 10778405892 heartbeat IPC: 0.0883718 cumulative IPC: 0.0838274 (Simulation time: 2 hr 3 min 37 sec) 
Heartbeat CPU 0 instructions: 848000000 cycles: 10788835973 heartbeat IPC: 0.0958765 cumulative IPC: 0.0838539 (Simulation time: 2 hr 3 min 44 sec) 
Heartbeat CPU 0 instructions: 849000000 cycles: 10799248070 heartbeat IPC: 0.0960421 cumulative IPC: 0.0838806 (Simulation time: 2 hr 3 min 51 sec) 
Heartbeat CPU 0 instructions: 850000000 cycles: 10809381083 heartbeat IPC: 0.0986873 cumulative IPC: 0.0839121 (Simulation time: 2 hr 3 min 58 sec) 
Heartbeat CPU 0 instructions: 851000003 cycles: 10820063366 heartbeat IPC: 0.0936132 cumulative IPC: 0.0839337 (Simulation time: 2 hr 4 min 5 sec) 
Heartbeat CPU 0 instructions: 852000001 cycles: 10831561804 heartbeat IPC: 0.0869682 cumulative IPC: 0.083941 (Simulation time: 2 hr 4 min 14 sec) 
Heartbeat CPU 0 instructions: 853000000 cycles: 10843417915 heartbeat IPC: 0.0843446 cumulative IPC: 0.083942 (Simulation time: 2 hr 4 min 21 sec) 
Heartbeat CPU 0 instructions: 854000002 cycles: 10852611477 heartbeat IPC: 0.108772 cumulative IPC: 0.0839895 (Simulation time: 2 hr 4 min 28 sec) 
Heartbeat CPU 0 instructions: 855000000 cycles: 10862457233 heartbeat IPC: 0.101566 cumulative IPC: 0.0840254 (Simulation time: 2 hr 4 min 35 sec) 
Heartbeat CPU 0 instructions: 856000002 cycles: 10871454994 heartbeat IPC: 0.111139 cumulative IPC: 0.0840759 (Simulation time: 2 hr 4 min 42 sec) 
Heartbeat CPU 0 instructions: 857000001 cycles: 10882485465 heartbeat IPC: 0.0906579 cumulative IPC: 0.0840909 (Simulation time: 2 hr 4 min 50 sec) 
Heartbeat CPU 0 instructions: 858000000 cycles: 10892774088 heartbeat IPC: 0.0971946 cumulative IPC: 0.0841187 (Simulation time: 2 hr 4 min 57 sec) 
Heartbeat CPU 0 instructions: 859000001 cycles: 10901532881 heartbeat IPC: 0.114171 cumulative IPC: 0.0841729 (Simulation time: 2 hr 5 min 3 sec) 
Heartbeat CPU 0 instructions: 860000000 cycles: 10908645172 heartbeat IPC: 0.140602 cumulative IPC: 0.0842554 (Simulation time: 2 hr 5 min 9 sec) 
Heartbeat CPU 0 instructions: 861000002 cycles: 10918727945 heartbeat IPC: 0.0991793 cumulative IPC: 0.0842862 (Simulation time: 2 hr 5 min 16 sec) 
Heartbeat CPU 0 instructions: 862000000 cycles: 10927025931 heartbeat IPC: 0.120511 cumulative IPC: 0.0843478 (Simulation time: 2 hr 5 min 23 sec) 
Heartbeat CPU 0 instructions: 863000000 cycles: 10933965333 heartbeat IPC: 0.144105 cumulative IPC: 0.0844325 (Simulation time: 2 hr 5 min 29 sec) 
Heartbeat CPU 0 instructions: 864000002 cycles: 10942166235 heartbeat IPC: 0.121938 cumulative IPC: 0.0844953 (Simulation time: 2 hr 5 min 35 sec) 
Heartbeat CPU 0 instructions: 865000000 cycles: 10952228606 heartbeat IPC: 0.09938 cumulative IPC: 0.0845258 (Simulation time: 2 hr 5 min 43 sec) 
Heartbeat CPU 0 instructions: 866000000 cycles: 10959074016 heartbeat IPC: 0.146083 cumulative IPC: 0.0846115 (Simulation time: 2 hr 5 min 48 sec) 
Heartbeat CPU 0 instructions: 867000001 cycles: 10966118575 heartbeat IPC: 0.141954 cumulative IPC: 0.0846936 (Simulation time: 2 hr 5 min 54 sec) 
Heartbeat CPU 0 instructions: 868000001 cycles: 10976574638 heartbeat IPC: 0.0956383 cumulative IPC: 0.0847168 (Simulation time: 2 hr 6 min 2 sec) 
Heartbeat CPU 0 instructions: 869000000 cycles: 10985150112 heartbeat IPC: 0.116612 cumulative IPC: 0.0847721 (Simulation time: 2 hr 6 min 9 sec) 
Heartbeat CPU 0 instructions: 870000000 cycles: 10992570973 heartbeat IPC: 0.134755 cumulative IPC: 0.084847 (Simulation time: 2 hr 6 min 15 sec) 
Heartbeat CPU 0 instructions: 871000000 cycles: 11000237527 heartbeat IPC: 0.130437 cumulative IPC: 0.0849175 (Simulation time: 2 hr 6 min 21 sec) 
Heartbeat CPU 0 instructions: 872000000 cycles: 11011271277 heartbeat IPC: 0.090631 cumulative IPC: 0.0849302 (Simulation time: 2 hr 6 min 29 sec) 
Heartbeat CPU 0 instructions: 873000000 cycles: 11020033356 heartbeat IPC: 0.114128 cumulative IPC: 0.0849816 (Simulation time: 2 hr 6 min 36 sec) 
Heartbeat CPU 0 instructions: 874000000 cycles: 11028384304 heartbeat IPC: 0.119747 cumulative IPC: 0.0850398 (Simulation time: 2 hr 6 min 42 sec) 
Heartbeat CPU 0 instructions: 875000000 cycles: 11035745230 heartbeat IPC: 0.135852 cumulative IPC: 0.0851147 (Simulation time: 2 hr 6 min 48 sec) 
Heartbeat CPU 0 instructions: 876000003 cycles: 11046375870 heartbeat IPC: 0.094068 cumulative IPC: 0.0851338 (Simulation time: 2 hr 6 min 56 sec) 
Heartbeat CPU 0 instructions: 877000000 cycles: 11055258681 heartbeat IPC: 0.112577 cumulative IPC: 0.0851824 (Simulation time: 2 hr 7 min 3 sec) 
Heartbeat CPU 0 instructions: 878000002 cycles: 11063958615 heartbeat IPC: 0.114944 cumulative IPC: 0.085234 (Simulation time: 2 hr 7 min 10 sec) 
Heartbeat CPU 0 instructions: 879000002 cycles: 11073682457 heartbeat IPC: 0.10284 cumulative IPC: 0.085268 (Simulation time: 2 hr 7 min 17 sec) 
Heartbeat CPU 0 instructions: 880000000 cycles: 11083092819 heartbeat IPC: 0.106266 cumulative IPC: 0.0853072 (Simulation time: 2 hr 7 min 24 sec) 
Heartbeat CPU 0 instructions: 881000003 cycles: 11093042720 heartbeat IPC: 0.100504 cumulative IPC: 0.0853371 (Simulation time: 2 hr 7 min 31 sec) 
Heartbeat CPU 0 instructions: 882000003 cycles: 11103907632 heartbeat IPC: 0.0920394 cumulative IPC: 0.0853515 (Simulation time: 2 hr 7 min 40 sec) 
Heartbeat CPU 0 instructions: 883000002 cycles: 11113088984 heartbeat IPC: 0.108916 cumulative IPC: 0.0853942 (Simulation time: 2 hr 7 min 46 sec) 
Heartbeat CPU 0 instructions: 884000001 cycles: 11122095311 heartbeat IPC: 0.111033 cumulative IPC: 0.0854396 (Simulation time: 2 hr 7 min 53 sec) 
Heartbeat CPU 0 instructions: 885000000 cycles: 11131013083 heartbeat IPC: 0.112136 cumulative IPC: 0.0854864 (Simulation time: 2 hr 8 min 0 sec) 
Heartbeat CPU 0 instructions: 886000001 cycles: 11139978992 heartbeat IPC: 0.111534 cumulative IPC: 0.0855322 (Simulation time: 2 hr 8 min 6 sec) 
Heartbeat CPU 0 instructions: 887000001 cycles: 11151251319 heartbeat IPC: 0.0887128 cumulative IPC: 0.0855393 (Simulation time: 2 hr 8 min 14 sec) 
Heartbeat CPU 0 instructions: 888000000 cycles: 11160562765 heartbeat IPC: 0.107395 cumulative IPC: 0.085579 (Simulation time: 2 hr 8 min 21 sec) 
Heartbeat CPU 0 instructions: 889000000 cycles: 11169672924 heartbeat IPC: 0.109768 cumulative IPC: 0.085622 (Simulation time: 2 hr 8 min 28 sec) 
Heartbeat CPU 0 instructions: 890000000 cycles: 11179816687 heartbeat IPC: 0.0985827 cumulative IPC: 0.0856476 (Simulation time: 2 hr 8 min 36 sec) 
Heartbeat CPU 0 instructions: 891000000 cycles: 11189748078 heartbeat IPC: 0.100691 cumulative IPC: 0.0856766 (Simulation time: 2 hr 8 min 43 sec) 
Heartbeat CPU 0 instructions: 892000000 cycles: 11199632065 heartbeat IPC: 0.101174 cumulative IPC: 0.0857063 (Simulation time: 2 hr 8 min 50 sec) 
Heartbeat CPU 0 instructions: 893000003 cycles: 11210720047 heartbeat IPC: 0.090188 cumulative IPC: 0.0857159 (Simulation time: 2 hr 8 min 58 sec) 
Heartbeat CPU 0 instructions: 894000000 cycles: 11221501351 heartbeat IPC: 0.0927529 cumulative IPC: 0.0857306 (Simulation time: 2 hr 9 min 6 sec) 
Heartbeat CPU 0 instructions: 895000000 cycles: 11232439192 heartbeat IPC: 0.0914257 cumulative IPC: 0.0857426 (Simulation time: 2 hr 9 min 13 sec) 
Heartbeat CPU 0 instructions: 896000002 cycles: 11242986676 heartbeat IPC: 0.0948095 cumulative IPC: 0.085761 (Simulation time: 2 hr 9 min 21 sec) 
Heartbeat CPU 0 instructions: 897000002 cycles: 11253526661 heartbeat IPC: 0.0948768 cumulative IPC: 0.0857794 (Simulation time: 2 hr 9 min 28 sec) 
Heartbeat CPU 0 instructions: 898000000 cycles: 11264559284 heartbeat IPC: 0.0906401 cumulative IPC: 0.0857897 (Simulation time: 2 hr 9 min 36 sec) 
Heartbeat CPU 0 instructions: 899000000 cycles: 11275497414 heartbeat IPC: 0.0914233 cumulative IPC: 0.0858015 (Simulation time: 2 hr 9 min 43 sec) 
Heartbeat CPU 0 instructions: 900000002 cycles: 11285907063 heartbeat IPC: 0.0960649 cumulative IPC: 0.0858218 (Simulation time: 2 hr 9 min 50 sec) 
Heartbeat CPU 0 instructions: 901000000 cycles: 11296666240 heartbeat IPC: 0.0929437 cumulative IPC: 0.0858364 (Simulation time: 2 hr 9 min 58 sec) 
Heartbeat CPU 0 instructions: 902000000 cycles: 11307773418 heartbeat IPC: 0.0900319 cumulative IPC: 0.0858453 (Simulation time: 2 hr 10 min 5 sec) 
Heartbeat CPU 0 instructions: 903000000 cycles: 11318926232 heartbeat IPC: 0.0896635 cumulative IPC: 0.0858533 (Simulation time: 2 hr 10 min 13 sec) 
Heartbeat CPU 0 instructions: 904000000 cycles: 11329717005 heartbeat IPC: 0.0926718 cumulative IPC: 0.0858672 (Simulation time: 2 hr 10 min 21 sec) 
Heartbeat CPU 0 instructions: 905000003 cycles: 11341882177 heartbeat IPC: 0.0822021 cumulative IPC: 0.0858588 (Simulation time: 2 hr 10 min 29 sec) 
Heartbeat CPU 0 instructions: 906000000 cycles: 11352771085 heartbeat IPC: 0.0918363 cumulative IPC: 0.0858711 (Simulation time: 2 hr 10 min 37 sec) 
Heartbeat CPU 0 instructions: 907000003 cycles: 11362781670 heartbeat IPC: 0.0998946 cumulative IPC: 0.0858975 (Simulation time: 2 hr 10 min 44 sec) 
Heartbeat CPU 0 instructions: 908000002 cycles: 11373254065 heartbeat IPC: 0.095489 cumulative IPC: 0.0859163 (Simulation time: 2 hr 10 min 51 sec) 
Heartbeat CPU 0 instructions: 909000001 cycles: 11383566746 heartbeat IPC: 0.0969679 cumulative IPC: 0.0859377 (Simulation time: 2 hr 10 min 59 sec) 
Heartbeat CPU 0 instructions: 910000001 cycles: 11393911636 heartbeat IPC: 0.0966661 cumulative IPC: 0.0859584 (Simulation time: 2 hr 11 min 6 sec) 
Heartbeat CPU 0 instructions: 911000001 cycles: 11405078261 heartbeat IPC: 0.0895526 cumulative IPC: 0.0859659 (Simulation time: 2 hr 11 min 13 sec) 
Heartbeat CPU 0 instructions: 912000000 cycles: 11416752353 heartbeat IPC: 0.0856597 cumulative IPC: 0.0859652 (Simulation time: 2 hr 11 min 21 sec) 
Heartbeat CPU 0 instructions: 913000000 cycles: 11427821697 heartbeat IPC: 0.0903396 cumulative IPC: 0.0859742 (Simulation time: 2 hr 11 min 29 sec) 
Heartbeat CPU 0 instructions: 914000000 cycles: 11439701587 heartbeat IPC: 0.0841759 cumulative IPC: 0.0859703 (Simulation time: 2 hr 11 min 38 sec) 
Heartbeat CPU 0 instructions: 915000000 cycles: 11451103457 heartbeat IPC: 0.0877049 cumulative IPC: 0.0859739 (Simulation time: 2 hr 11 min 45 sec) 
Heartbeat CPU 0 instructions: 916000002 cycles: 11461454564 heartbeat IPC: 0.0966082 cumulative IPC: 0.0859942 (Simulation time: 2 hr 11 min 53 sec) 
Heartbeat CPU 0 instructions: 917000001 cycles: 11472482592 heartbeat IPC: 0.090678 cumulative IPC: 0.0860037 (Simulation time: 2 hr 12 min 0 sec) 
Heartbeat CPU 0 instructions: 918000000 cycles: 11483684998 heartbeat IPC: 0.0892664 cumulative IPC: 0.0860104 (Simulation time: 2 hr 12 min 8 sec) 
Heartbeat CPU 0 instructions: 919000000 cycles: 11491923279 heartbeat IPC: 0.121385 cumulative IPC: 0.0860639 (Simulation time: 2 hr 12 min 14 sec) 
Heartbeat CPU 0 instructions: 920000001 cycles: 11500834877 heartbeat IPC: 0.112213 cumulative IPC: 0.0861066 (Simulation time: 2 hr 12 min 20 sec) 
Heartbeat CPU 0 instructions: 921000001 cycles: 11512469329 heartbeat IPC: 0.0859516 cumulative IPC: 0.0861063 (Simulation time: 2 hr 12 min 29 sec) 
Heartbeat CPU 0 instructions: 922000001 cycles: 11521513345 heartbeat IPC: 0.11057 cumulative IPC: 0.0861467 (Simulation time: 2 hr 12 min 36 sec) 
Heartbeat CPU 0 instructions: 923000001 cycles: 11528639837 heartbeat IPC: 0.140321 cumulative IPC: 0.086217 (Simulation time: 2 hr 12 min 42 sec) 
Heartbeat CPU 0 instructions: 924000000 cycles: 11537313391 heartbeat IPC: 0.115293 cumulative IPC: 0.0862629 (Simulation time: 2 hr 12 min 48 sec) 
Heartbeat CPU 0 instructions: 925000000 cycles: 11546235730 heartbeat IPC: 0.112078 cumulative IPC: 0.0863048 (Simulation time: 2 hr 12 min 56 sec) 
Heartbeat CPU 0 instructions: 926000001 cycles: 11552606147 heartbeat IPC: 0.156976 cumulative IPC: 0.0863865 (Simulation time: 2 hr 13 min 1 sec) 
Heartbeat CPU 0 instructions: 927000002 cycles: 11561388347 heartbeat IPC: 0.113867 cumulative IPC: 0.0864302 (Simulation time: 2 hr 13 min 8 sec) 
Heartbeat CPU 0 instructions: 928000001 cycles: 11570259712 heartbeat IPC: 0.112722 cumulative IPC: 0.0864724 (Simulation time: 2 hr 13 min 15 sec) 
Heartbeat CPU 0 instructions: 929000002 cycles: 11577078385 heartbeat IPC: 0.146656 cumulative IPC: 0.0865466 (Simulation time: 2 hr 13 min 21 sec) 
Heartbeat CPU 0 instructions: 930000000 cycles: 11587832976 heartbeat IPC: 0.0929834 cumulative IPC: 0.086559 (Simulation time: 2 hr 13 min 29 sec) 
Heartbeat CPU 0 instructions: 931000000 cycles: 11599104174 heartbeat IPC: 0.0887217 cumulative IPC: 0.0865634 (Simulation time: 2 hr 13 min 37 sec) 
Heartbeat CPU 0 instructions: 932000000 cycles: 11609336010 heartbeat IPC: 0.0977342 cumulative IPC: 0.086584 (Simulation time: 2 hr 13 min 44 sec) 
Heartbeat CPU 0 instructions: 933000002 cycles: 11620837824 heartbeat IPC: 0.086943 cumulative IPC: 0.0865847 (Simulation time: 2 hr 13 min 53 sec) 
Heartbeat CPU 0 instructions: 934000002 cycles: 11632037372 heartbeat IPC: 0.0892893 cumulative IPC: 0.0865901 (Simulation time: 2 hr 14 min 1 sec) 
Heartbeat CPU 0 instructions: 935000000 cycles: 11643419893 heartbeat IPC: 0.0878538 cumulative IPC: 0.0865927 (Simulation time: 2 hr 14 min 9 sec) 
Heartbeat CPU 0 instructions: 936000002 cycles: 11653008489 heartbeat IPC: 0.104291 cumulative IPC: 0.0866229 (Simulation time: 2 hr 14 min 16 sec) 
Heartbeat CPU 0 instructions: 937000002 cycles: 11663806033 heartbeat IPC: 0.0926137 cumulative IPC: 0.0866344 (Simulation time: 2 hr 14 min 24 sec) 
Heartbeat CPU 0 instructions: 938000000 cycles: 11675623457 heartbeat IPC: 0.0846206 cumulative IPC: 0.0866302 (Simulation time: 2 hr 14 min 32 sec) 
Heartbeat CPU 0 instructions: 939000000 cycles: 11687036469 heartbeat IPC: 0.0876193 cumulative IPC: 0.0866322 (Simulation time: 2 hr 14 min 39 sec) 
Heartbeat CPU 0 instructions: 940000002 cycles: 11698058395 heartbeat IPC: 0.0907284 cumulative IPC: 0.0866402 (Simulation time: 2 hr 14 min 47 sec) 
Heartbeat CPU 0 instructions: 941000000 cycles: 11709466236 heartbeat IPC: 0.0876588 cumulative IPC: 0.0866423 (Simulation time: 2 hr 14 min 55 sec) 
Heartbeat CPU 0 instructions: 942000002 cycles: 11720222152 heartbeat IPC: 0.0929723 cumulative IPC: 0.0866543 (Simulation time: 2 hr 15 min 3 sec) 
Heartbeat CPU 0 instructions: 943000001 cycles: 11731014732 heartbeat IPC: 0.0926562 cumulative IPC: 0.0866656 (Simulation time: 2 hr 15 min 10 sec) 
Heartbeat CPU 0 instructions: 944000003 cycles: 11742431047 heartbeat IPC: 0.0875941 cumulative IPC: 0.0866675 (Simulation time: 2 hr 15 min 18 sec) 
Heartbeat CPU 0 instructions: 945000000 cycles: 11754630922 heartbeat IPC: 0.0819678 cumulative IPC: 0.0866575 (Simulation time: 2 hr 15 min 27 sec) 
Heartbeat CPU 0 instructions: 946000000 cycles: 11765984077 heartbeat IPC: 0.0880812 cumulative IPC: 0.0866603 (Simulation time: 2 hr 15 min 35 sec) 
Heartbeat CPU 0 instructions: 947000003 cycles: 11776723211 heartbeat IPC: 0.0931177 cumulative IPC: 0.0866724 (Simulation time: 2 hr 15 min 43 sec) 
Heartbeat CPU 0 instructions: 948000000 cycles: 11787633198 heartbeat IPC: 0.0916589 cumulative IPC: 0.0866819 (Simulation time: 2 hr 15 min 50 sec) 
Heartbeat CPU 0 instructions: 949000001 cycles: 11798933375 heartbeat IPC: 0.0884943 cumulative IPC: 0.0866854 (Simulation time: 2 hr 15 min 58 sec) 
Heartbeat CPU 0 instructions: 950000002 cycles: 11810485155 heartbeat IPC: 0.0865668 cumulative IPC: 0.0866852 (Simulation time: 2 hr 16 min 6 sec) 
Finished CPU 0 instructions: 500000001 cycles: 5767999466 cumulative IPC: 0.0866852 (Simulation time: 2 hr 16 min 6 sec) 

ChampSim completed all CPUs

Region of Interest Statistics

CPU 0 cumulative IPC: 0.0866852 instructions: 500000001 cycles: 5767999466
L1D TOTAL     ACCESS:  117178997  HIT:   41891444  MISS:   75287553
L1D LOAD      ACCESS:  102057247  HIT:   27518972  MISS:   74538275
L1D RFO       ACCESS:   15121750  HIT:   14372472  MISS:     749278
L1D PREFETCH  ACCESS:          0  HIT:          0  MISS:          0
L1D WRITEBACK ACCESS:          0  HIT:          0  MISS:          0
L1D PREFETCH  REQUESTED:          0  ISSUED:          0  USEFUL:          0  USELESS:          0
L1D AVERAGE MISS LATENCY: 148.18 cycles
L1I TOTAL     ACCESS:   94992281  HIT:   94992281  MISS:          0
L1I LOAD      ACCESS:   94992281  HIT:   94992281  MISS:          0
L1I RFO       ACCESS:          0  HIT:          0  MISS:          0
L1I PREFETCH  ACCESS:          0  HIT:          0  MISS:          0
L1I WRITEBACK ACCESS:          0  HIT:          0  MISS:          0
L1I PREFETCH  REQUESTED:          0  ISSUED:          0  USEFUL:          0  USELESS:          0
L1I AVERAGE MISS LATENCY: -nan cycles
L2C TOTAL     ACCESS:   83170496  HIT:   28871230  MISS:   54299266
L2C LOAD      ACCESS:   74537269  HIT:   20722037  MISS:   53815232
L2C RFO       ACCESS:     749263  HIT:     265473  MISS:     483790
L2C PREFETCH  ACCESS:          0  HIT:          0  MISS:          0
L2C WRITEBACK ACCESS:    7883964  HIT:    7883720  MISS:        244
L2C PREFETCH  REQUESTED:          0  ISSUED:          0  USEFUL:          0  USELESS:          0
L2C AVERAGE MISS LATENCY: 181.139 cycles
LLC TOTAL     ACCESS:  131417779  HIT:   83714049  MISS:   47703730
LLC LOAD      ACCESS:   53815189  HIT:   27833981  MISS:   25981208
LLC RFO       ACCESS:     483790  HIT:     175564  MISS:     308226
LLC PREFETCH  ACCESS:   71097533  HIT:   49727536  MISS:   21369997
LLC WRITEBACK ACCESS:    6021267  HIT:    5976968  MISS:      44299
LLC PREFETCH  REQUESTED:  102539871  ISSUED:   83640945  USEFUL:   14264885  USELESS:    7103183
LLC AVERAGE MISS LATENCY: 284.621 cycles
Major fault: 0 Minor fault: 428296
performance stats:
mapping cache size: 27410314
divergence: 44514767

DRAM Statistics
 CHANNEL 0
 RQ ROW_BUFFER_HIT:     732911  ROW_BUFFER_MISS:   46918292
 DBUS_CONGESTED:   14400449
 WQ ROW_BUFFER_HIT:    1775848  ROW_BUFFER_MISS:    3895691  FULL:          0

 AVG_CONGESTED_CYCLE: 6

CPU 0 Branch Prediction Accuracy: 93.9262% MPKI: 17.519 Average ROB Occupancy at Mispredict: 32.5215

Branch types
NOT_BRANCH: 355783516 71.1567%
BRANCH_DIRECT_JUMP: 5207349 1.04147%
BRANCH_INDIRECT: 0 0%
BRANCH_CONDITIONAL: 138861421 27.7723%
BRANCH_DIRECT_CALL: 73965 0.014793%
BRANCH_INDIRECT_CALL: 0 0%
BRANCH_RETURN: 73965 0.014793%
BRANCH_OTHER: 0 0%


gzip: stdout: Broken pipe
