
*** ChampSim Multicore Out-of-Order Simulator ***

Warmup Instructions: 1000000
Prefetch Warmup Instructions: 450000000
Simulation Instructions: 500000000
Stat Printing Period: 1000000
Number of CPUs: 1
LLC sets: 2048
LLC ways: 16
Off-chip DRAM Size: 4096 MB Channels: 1 Width: 64-bit Data Rate: 3200 MT/s

CPU 0 runs /scratch/cluster/cmolder/ML-DPC/ChampSimTraces/spec06/471.omnetpp-s0.trace.gz
Read seed: 1036
Heartbeat CPU 0 instructions: 1000000 cycles: 363762 heartbeat IPC: 2.74905 cumulative IPC: 2.74905 (Simulation time: 0 hr 0 min 2 sec) 

Warmup complete CPU 0 instructions: 1000004 cycles: 363763 (Simulation time: 0 hr 0 min 2 sec) 

Heartbeat CPU 0 instructions: 2000000 cycles: 3054755 heartbeat IPC: 0.37161 cumulative IPC: 0.371609 (Simulation time: 0 hr 0 min 5 sec) 
Heartbeat CPU 0 instructions: 3000000 cycles: 3800132 heartbeat IPC: 1.3416 cumulative IPC: 0.582008 (Simulation time: 0 hr 0 min 8 sec) 
Heartbeat CPU 0 instructions: 4000002 cycles: 6808198 heartbeat IPC: 0.33244 cumulative IPC: 0.465518 (Simulation time: 0 hr 0 min 12 sec) 
Heartbeat CPU 0 instructions: 5000000 cycles: 9741204 heartbeat IPC: 0.340946 cumulative IPC: 0.426555 (Simulation time: 0 hr 0 min 16 sec) 
Heartbeat CPU 0 instructions: 6000001 cycles: 12167496 heartbeat IPC: 0.412152 cumulative IPC: 0.423595 (Simulation time: 0 hr 0 min 19 sec) 
Heartbeat CPU 0 instructions: 7000001 cycles: 15455793 heartbeat IPC: 0.304109 cumulative IPC: 0.397561 (Simulation time: 0 hr 0 min 23 sec) 
Heartbeat CPU 0 instructions: 8000002 cycles: 15992799 heartbeat IPC: 1.86218 cumulative IPC: 0.447884 (Simulation time: 0 hr 0 min 25 sec) 
Heartbeat CPU 0 instructions: 9000002 cycles: 16529199 heartbeat IPC: 1.86428 cumulative IPC: 0.494883 (Simulation time: 0 hr 0 min 27 sec) 
Heartbeat CPU 0 instructions: 10000000 cycles: 17062856 heartbeat IPC: 1.87386 cumulative IPC: 0.538951 (Simulation time: 0 hr 0 min 28 sec) 
Heartbeat CPU 0 instructions: 11000000 cycles: 17596609 heartbeat IPC: 1.87353 cumulative IPC: 0.580287 (Simulation time: 0 hr 0 min 30 sec) 
Heartbeat CPU 0 instructions: 12000002 cycles: 18130897 heartbeat IPC: 1.87165 cumulative IPC: 0.619121 (Simulation time: 0 hr 0 min 31 sec) 
Heartbeat CPU 0 instructions: 13000001 cycles: 18677406 heartbeat IPC: 1.82979 cumulative IPC: 0.655249 (Simulation time: 0 hr 0 min 33 sec) 
Heartbeat CPU 0 instructions: 14000000 cycles: 19210259 heartbeat IPC: 1.87669 cumulative IPC: 0.689783 (Simulation time: 0 hr 0 min 34 sec) 
Heartbeat CPU 0 instructions: 15000001 cycles: 19742282 heartbeat IPC: 1.87962 cumulative IPC: 0.722449 (Simulation time: 0 hr 0 min 36 sec) 
Heartbeat CPU 0 instructions: 16000002 cycles: 20277618 heartbeat IPC: 1.86799 cumulative IPC: 0.753244 (Simulation time: 0 hr 0 min 37 sec) 
Heartbeat CPU 0 instructions: 17000003 cycles: 20817403 heartbeat IPC: 1.85259 cumulative IPC: 0.782257 (Simulation time: 0 hr 0 min 39 sec) 
Heartbeat CPU 0 instructions: 18000000 cycles: 21351270 heartbeat IPC: 1.87312 cumulative IPC: 0.810005 (Simulation time: 0 hr 0 min 40 sec) 
Heartbeat CPU 0 instructions: 19000000 cycles: 21879618 heartbeat IPC: 1.89269 cumulative IPC: 0.836592 (Simulation time: 0 hr 0 min 42 sec) 
Heartbeat CPU 0 instructions: 20000003 cycles: 24946413 heartbeat IPC: 0.326074 cumulative IPC: 0.772903 (Simulation time: 0 hr 0 min 45 sec) 
Heartbeat CPU 0 instructions: 21000001 cycles: 27095372 heartbeat IPC: 0.465341 cumulative IPC: 0.748178 (Simulation time: 0 hr 0 min 47 sec) 
Heartbeat CPU 0 instructions: 22000000 cycles: 28465631 heartbeat IPC: 0.729788 cumulative IPC: 0.747281 (Simulation time: 0 hr 0 min 48 sec) 
Heartbeat CPU 0 instructions: 23000001 cycles: 31455626 heartbeat IPC: 0.334449 cumulative IPC: 0.707581 (Simulation time: 0 hr 0 min 51 sec) 
Heartbeat CPU 0 instructions: 24000002 cycles: 34376280 heartbeat IPC: 0.342389 cumulative IPC: 0.676222 (Simulation time: 0 hr 0 min 53 sec) 
Heartbeat CPU 0 instructions: 25000000 cycles: 36670448 heartbeat IPC: 0.435887 cumulative IPC: 0.661035 (Simulation time: 0 hr 0 min 55 sec) 
Heartbeat CPU 0 instructions: 26000002 cycles: 37862994 heartbeat IPC: 0.838544 cumulative IPC: 0.66668 (Simulation time: 0 hr 0 min 57 sec) 
Heartbeat CPU 0 instructions: 27000000 cycles: 40789360 heartbeat IPC: 0.34172 cumulative IPC: 0.643157 (Simulation time: 0 hr 0 min 59 sec) 
Heartbeat CPU 0 instructions: 28000002 cycles: 43757755 heartbeat IPC: 0.336883 cumulative IPC: 0.622206 (Simulation time: 0 hr 1 min 2 sec) 
Heartbeat CPU 0 instructions: 29000001 cycles: 46237208 heartbeat IPC: 0.403314 cumulative IPC: 0.610375 (Simulation time: 0 hr 1 min 4 sec) 
Heartbeat CPU 0 instructions: 30000001 cycles: 47240762 heartbeat IPC: 0.996459 cumulative IPC: 0.61864 (Simulation time: 0 hr 1 min 6 sec) 
Heartbeat CPU 0 instructions: 31000001 cycles: 50215958 heartbeat IPC: 0.336112 cumulative IPC: 0.601779 (Simulation time: 0 hr 1 min 8 sec) 
Heartbeat CPU 0 instructions: 32000000 cycles: 53177200 heartbeat IPC: 0.337696 cumulative IPC: 0.586972 (Simulation time: 0 hr 1 min 10 sec) 
Heartbeat CPU 0 instructions: 33000000 cycles: 55867613 heartbeat IPC: 0.37169 cumulative IPC: 0.576537 (Simulation time: 0 hr 1 min 13 sec) 
Heartbeat CPU 0 instructions: 34000002 cycles: 56671212 heartbeat IPC: 1.2444 cumulative IPC: 0.586068 (Simulation time: 0 hr 1 min 14 sec) 
Heartbeat CPU 0 instructions: 35000000 cycles: 59647512 heartbeat IPC: 0.335987 cumulative IPC: 0.573513 (Simulation time: 0 hr 1 min 17 sec) 
Heartbeat CPU 0 instructions: 36000002 cycles: 62672425 heartbeat IPC: 0.330589 cumulative IPC: 0.56172 (Simulation time: 0 hr 1 min 19 sec) 
Heartbeat CPU 0 instructions: 37000002 cycles: 65245278 heartbeat IPC: 0.388674 cumulative IPC: 0.554858 (Simulation time: 0 hr 1 min 21 sec) 
Heartbeat CPU 0 instructions: 38000003 cycles: 66159021 heartbeat IPC: 1.0944 cumulative IPC: 0.562351 (Simulation time: 0 hr 1 min 23 sec) 
Heartbeat CPU 0 instructions: 39000001 cycles: 69052280 heartbeat IPC: 0.34563 cumulative IPC: 0.553222 (Simulation time: 0 hr 1 min 25 sec) 
Heartbeat CPU 0 instructions: 40000003 cycles: 72016219 heartbeat IPC: 0.33739 cumulative IPC: 0.544294 (Simulation time: 0 hr 1 min 27 sec) 
Heartbeat CPU 0 instructions: 41000000 cycles: 74497655 heartbeat IPC: 0.402991 cumulative IPC: 0.539564 (Simulation time: 0 hr 1 min 30 sec) 
Heartbeat CPU 0 instructions: 42000000 cycles: 75528080 heartbeat IPC: 0.970473 cumulative IPC: 0.545472 (Simulation time: 0 hr 1 min 33 sec) 
Heartbeat CPU 0 instructions: 43000000 cycles: 80728504 heartbeat IPC: 0.192292 cumulative IPC: 0.522617 (Simulation time: 0 hr 1 min 38 sec) 
Heartbeat CPU 0 instructions: 44000000 cycles: 81264363 heartbeat IPC: 1.86616 cumulative IPC: 0.531516 (Simulation time: 0 hr 1 min 41 sec) 
Heartbeat CPU 0 instructions: 45000000 cycles: 81796726 heartbeat IPC: 1.87842 cumulative IPC: 0.540322 (Simulation time: 0 hr 1 min 43 sec) 
Heartbeat CPU 0 instructions: 46000001 cycles: 82328825 heartbeat IPC: 1.87935 cumulative IPC: 0.549014 (Simulation time: 0 hr 1 min 46 sec) 
Heartbeat CPU 0 instructions: 47000002 cycles: 82860671 heartbeat IPC: 1.88025 cumulative IPC: 0.557597 (Simulation time: 0 hr 1 min 48 sec) 
Heartbeat CPU 0 instructions: 48000001 cycles: 83391986 heartbeat IPC: 1.88212 cumulative IPC: 0.566073 (Simulation time: 0 hr 1 min 50 sec) 
Heartbeat CPU 0 instructions: 49000001 cycles: 83924003 heartbeat IPC: 1.87964 cumulative IPC: 0.574436 (Simulation time: 0 hr 1 min 53 sec) 
Heartbeat CPU 0 instructions: 50000002 cycles: 84455404 heartbeat IPC: 1.88182 cumulative IPC: 0.582698 (Simulation time: 0 hr 1 min 55 sec) 
Heartbeat CPU 0 instructions: 51000003 cycles: 84986413 heartbeat IPC: 1.88321 cumulative IPC: 0.590858 (Simulation time: 0 hr 1 min 58 sec) 
Heartbeat CPU 0 instructions: 52000003 cycles: 85517975 heartbeat IPC: 1.88125 cumulative IPC: 0.598913 (Simulation time: 0 hr 2 min 0 sec) 
Heartbeat CPU 0 instructions: 53000000 cycles: 86052501 heartbeat IPC: 1.87081 cumulative IPC: 0.606848 (Simulation time: 0 hr 2 min 3 sec) 
Heartbeat CPU 0 instructions: 54000002 cycles: 86598337 heartbeat IPC: 1.83206 cumulative IPC: 0.614603 (Simulation time: 0 hr 2 min 5 sec) 
Heartbeat CPU 0 instructions: 55000000 cycles: 87129912 heartbeat IPC: 1.8812 cumulative IPC: 0.622362 (Simulation time: 0 hr 2 min 8 sec) 
Heartbeat CPU 0 instructions: 56000002 cycles: 88998331 heartbeat IPC: 0.535213 cumulative IPC: 0.620525 (Simulation time: 0 hr 2 min 11 sec) 
Heartbeat CPU 0 instructions: 57000000 cycles: 90590417 heartbeat IPC: 0.628106 cumulative IPC: 0.620659 (Simulation time: 0 hr 2 min 15 sec) 
Heartbeat CPU 0 instructions: 58000001 cycles: 93537567 heartbeat IPC: 0.339311 cumulative IPC: 0.61176 (Simulation time: 0 hr 2 min 19 sec) 
Heartbeat CPU 0 instructions: 59000002 cycles: 96459808 heartbeat IPC: 0.342203 cumulative IPC: 0.603563 (Simulation time: 0 hr 2 min 23 sec) 
Heartbeat CPU 0 instructions: 60000001 cycles: 98542690 heartbeat IPC: 0.480104 cumulative IPC: 0.600944 (Simulation time: 0 hr 2 min 26 sec) 
Heartbeat CPU 0 instructions: 61000002 cycles: 99987529 heartbeat IPC: 0.692119 cumulative IPC: 0.602266 (Simulation time: 0 hr 2 min 29 sec) 
Heartbeat CPU 0 instructions: 62000002 cycles: 102919620 heartbeat IPC: 0.341054 cumulative IPC: 0.594798 (Simulation time: 0 hr 2 min 34 sec) 
Heartbeat CPU 0 instructions: 63000001 cycles: 105825204 heartbeat IPC: 0.344165 cumulative IPC: 0.587893 (Simulation time: 0 hr 2 min 36 sec) 
Heartbeat CPU 0 instructions: 64000002 cycles: 108063776 heartbeat IPC: 0.446714 cumulative IPC: 0.584958 (Simulation time: 0 hr 2 min 38 sec) 
Heartbeat CPU 0 instructions: 65000002 cycles: 109306035 heartbeat IPC: 0.804985 cumulative IPC: 0.587467 (Simulation time: 0 hr 2 min 40 sec) 
Heartbeat CPU 0 instructions: 66000000 cycles: 112285466 heartbeat IPC: 0.335634 cumulative IPC: 0.580763 (Simulation time: 0 hr 2 min 42 sec) 
Heartbeat CPU 0 instructions: 67000000 cycles: 115250435 heartbeat IPC: 0.337272 cumulative IPC: 0.574479 (Simulation time: 0 hr 2 min 45 sec) 
Heartbeat CPU 0 instructions: 68000002 cycles: 117722158 heartbeat IPC: 0.404577 cumulative IPC: 0.570901 (Simulation time: 0 hr 2 min 48 sec) 
Heartbeat CPU 0 instructions: 69000000 cycles: 118776420 heartbeat IPC: 0.948529 cumulative IPC: 0.574263 (Simulation time: 0 hr 2 min 51 sec) 
Heartbeat CPU 0 instructions: 70000000 cycles: 121775164 heartbeat IPC: 0.333473 cumulative IPC: 0.568316 (Simulation time: 0 hr 2 min 55 sec) 
Heartbeat CPU 0 instructions: 71000002 cycles: 124734950 heartbeat IPC: 0.337863 cumulative IPC: 0.562831 (Simulation time: 0 hr 2 min 59 sec) 
Heartbeat CPU 0 instructions: 72000002 cycles: 127184160 heartbeat IPC: 0.408295 cumulative IPC: 0.559847 (Simulation time: 0 hr 3 min 3 sec) 
Heartbeat CPU 0 instructions: 73000001 cycles: 128238690 heartbeat IPC: 0.948289 cumulative IPC: 0.56305 (Simulation time: 0 hr 3 min 5 sec) 
Heartbeat CPU 0 instructions: 74000002 cycles: 131216485 heartbeat IPC: 0.335819 cumulative IPC: 0.557879 (Simulation time: 0 hr 3 min 9 sec) 
Heartbeat CPU 0 instructions: 75000000 cycles: 134148977 heartbeat IPC: 0.341006 cumulative IPC: 0.553125 (Simulation time: 0 hr 3 min 13 sec) 
Heartbeat CPU 0 instructions: 76000000 cycles: 136471816 heartbeat IPC: 0.430508 cumulative IPC: 0.551033 (Simulation time: 0 hr 3 min 15 sec) 
Heartbeat CPU 0 instructions: 77000000 cycles: 137633631 heartbeat IPC: 0.860722 cumulative IPC: 0.553654 (Simulation time: 0 hr 3 min 17 sec) 
Heartbeat CPU 0 instructions: 78000002 cycles: 140587484 heartbeat IPC: 0.338542 cumulative IPC: 0.549123 (Simulation time: 0 hr 3 min 19 sec) 
Heartbeat CPU 0 instructions: 79000001 cycles: 143629067 heartbeat IPC: 0.328776 cumulative IPC: 0.544444 (Simulation time: 0 hr 3 min 22 sec) 
Heartbeat CPU 0 instructions: 80000002 cycles: 145071388 heartbeat IPC: 0.693328 cumulative IPC: 0.545928 (Simulation time: 0 hr 3 min 24 sec) 
Heartbeat CPU 0 instructions: 81000002 cycles: 147143798 heartbeat IPC: 0.48253 cumulative IPC: 0.545033 (Simulation time: 0 hr 3 min 26 sec) 
Heartbeat CPU 0 instructions: 82000001 cycles: 150105194 heartbeat IPC: 0.337678 cumulative IPC: 0.540932 (Simulation time: 0 hr 3 min 29 sec) 
Heartbeat CPU 0 instructions: 83000002 cycles: 153037726 heartbeat IPC: 0.341003 cumulative IPC: 0.537092 (Simulation time: 0 hr 3 min 33 sec) 
Heartbeat CPU 0 instructions: 84000002 cycles: 154426118 heartbeat IPC: 0.720258 cumulative IPC: 0.538743 (Simulation time: 0 hr 3 min 36 sec) 
Heartbeat CPU 0 instructions: 85000000 cycles: 156510608 heartbeat IPC: 0.479733 cumulative IPC: 0.537955 (Simulation time: 0 hr 3 min 39 sec) 
Heartbeat CPU 0 instructions: 86000000 cycles: 159405150 heartbeat IPC: 0.345478 cumulative IPC: 0.534452 (Simulation time: 0 hr 3 min 43 sec) 
Heartbeat CPU 0 instructions: 87000001 cycles: 162374187 heartbeat IPC: 0.33681 cumulative IPC: 0.53083 (Simulation time: 0 hr 3 min 46 sec) 
Heartbeat CPU 0 instructions: 88000000 cycles: 163606492 heartbeat IPC: 0.811487 cumulative IPC: 0.532949 (Simulation time: 0 hr 3 min 48 sec) 
Heartbeat CPU 0 instructions: 89000002 cycles: 168150557 heartbeat IPC: 0.220068 cumulative IPC: 0.524475 (Simulation time: 0 hr 3 min 53 sec) 
Heartbeat CPU 0 instructions: 90000000 cycles: 168684079 heartbeat IPC: 1.87433 cumulative IPC: 0.528754 (Simulation time: 0 hr 3 min 55 sec) 
Heartbeat CPU 0 instructions: 91000002 cycles: 169216090 heartbeat IPC: 1.87966 cumulative IPC: 0.53301 (Simulation time: 0 hr 3 min 58 sec) 
Heartbeat CPU 0 instructions: 92000003 cycles: 169748225 heartbeat IPC: 1.87922 cumulative IPC: 0.537239 (Simulation time: 0 hr 4 min 0 sec) 
Heartbeat CPU 0 instructions: 93000000 cycles: 170281162 heartbeat IPC: 1.87639 cumulative IPC: 0.54144 (Simulation time: 0 hr 4 min 3 sec) 
Heartbeat CPU 0 instructions: 94000002 cycles: 170811962 heartbeat IPC: 1.88395 cumulative IPC: 0.54562 (Simulation time: 0 hr 4 min 5 sec) 
Heartbeat CPU 0 instructions: 95000000 cycles: 171343975 heartbeat IPC: 1.87965 cumulative IPC: 0.549771 (Simulation time: 0 hr 4 min 7 sec) 
Heartbeat CPU 0 instructions: 96000000 cycles: 171875714 heartbeat IPC: 1.88062 cumulative IPC: 0.553897 (Simulation time: 0 hr 4 min 8 sec) 
Heartbeat CPU 0 instructions: 97000000 cycles: 172420969 heartbeat IPC: 1.834 cumulative IPC: 0.557954 (Simulation time: 0 hr 4 min 10 sec) 
Heartbeat CPU 0 instructions: 98000001 cycles: 172954434 heartbeat IPC: 1.87454 cumulative IPC: 0.562023 (Simulation time: 0 hr 4 min 11 sec) 
Heartbeat CPU 0 instructions: 99000000 cycles: 173486879 heartbeat IPC: 1.87813 cumulative IPC: 0.566071 (Simulation time: 0 hr 4 min 13 sec) 
Heartbeat CPU 0 instructions: 100000002 cycles: 174018248 heartbeat IPC: 1.88194 cumulative IPC: 0.570098 (Simulation time: 0 hr 4 min 15 sec) 
Heartbeat CPU 0 instructions: 101000002 cycles: 174550278 heartbeat IPC: 1.87959 cumulative IPC: 0.574097 (Simulation time: 0 hr 4 min 17 sec) 
Heartbeat CPU 0 instructions: 102000000 cycles: 177529261 heartbeat IPC: 0.335684 cumulative IPC: 0.570088 (Simulation time: 0 hr 4 min 21 sec) 
Heartbeat CPU 0 instructions: 103000000 cycles: 178446634 heartbeat IPC: 1.09007 cumulative IPC: 0.572767 (Simulation time: 0 hr 4 min 24 sec) 
Heartbeat CPU 0 instructions: 104000001 cycles: 181085095 heartbeat IPC: 0.379009 cumulative IPC: 0.569938 (Simulation time: 0 hr 4 min 28 sec) 
Heartbeat CPU 0 instructions: 105000002 cycles: 184061135 heartbeat IPC: 0.336017 cumulative IPC: 0.566149 (Simulation time: 0 hr 4 min 31 sec) 
Heartbeat CPU 0 instructions: 106000003 cycles: 186957553 heartbeat IPC: 0.345254 cumulative IPC: 0.56272 (Simulation time: 0 hr 4 min 35 sec) 
Heartbeat CPU 0 instructions: 107000002 cycles: 188046621 heartbeat IPC: 0.918215 cumulative IPC: 0.564783 (Simulation time: 0 hr 4 min 38 sec) 
Heartbeat CPU 0 instructions: 108000000 cycles: 190500640 heartbeat IPC: 0.407494 cumulative IPC: 0.562752 (Simulation time: 0 hr 4 min 41 sec) 
Heartbeat CPU 0 instructions: 109000000 cycles: 193440293 heartbeat IPC: 0.340176 cumulative IPC: 0.559364 (Simulation time: 0 hr 4 min 45 sec) 
Heartbeat CPU 0 instructions: 110000000 cycles: 196394560 heartbeat IPC: 0.338493 cumulative IPC: 0.556035 (Simulation time: 0 hr 4 min 48 sec) 
Heartbeat CPU 0 instructions: 111000001 cycles: 197655110 heartbeat IPC: 0.793305 cumulative IPC: 0.557551 (Simulation time: 0 hr 4 min 51 sec) 
Heartbeat CPU 0 instructions: 112000001 cycles: 199902614 heartbeat IPC: 0.444938 cumulative IPC: 0.556283 (Simulation time: 0 hr 4 min 55 sec) 
Heartbeat CPU 0 instructions: 113000000 cycles: 202872549 heartbeat IPC: 0.336707 cumulative IPC: 0.553062 (Simulation time: 0 hr 4 min 58 sec) 
Heartbeat CPU 0 instructions: 114000003 cycles: 205875050 heartbeat IPC: 0.333057 cumulative IPC: 0.549848 (Simulation time: 0 hr 5 min 2 sec) 
Heartbeat CPU 0 instructions: 115000000 cycles: 207328959 heartbeat IPC: 0.687799 cumulative IPC: 0.550817 (Simulation time: 0 hr 5 min 4 sec) 
Heartbeat CPU 0 instructions: 116000000 cycles: 209354645 heartbeat IPC: 0.49366 cumulative IPC: 0.550263 (Simulation time: 0 hr 5 min 8 sec) 
Heartbeat CPU 0 instructions: 117000001 cycles: 212314145 heartbeat IPC: 0.337895 cumulative IPC: 0.547298 (Simulation time: 0 hr 5 min 12 sec) 
Heartbeat CPU 0 instructions: 118000000 cycles: 215265257 heartbeat IPC: 0.338855 cumulative IPC: 0.544435 (Simulation time: 0 hr 5 min 16 sec) 
Heartbeat CPU 0 instructions: 119000000 cycles: 216610745 heartbeat IPC: 0.743225 cumulative IPC: 0.545672 (Simulation time: 0 hr 5 min 19 sec) 
Heartbeat CPU 0 instructions: 120000001 cycles: 218740997 heartbeat IPC: 0.469429 cumulative IPC: 0.544929 (Simulation time: 0 hr 5 min 22 sec) 
Heartbeat CPU 0 instructions: 121000000 cycles: 221708991 heartbeat IPC: 0.336928 cumulative IPC: 0.54214 (Simulation time: 0 hr 5 min 26 sec) 
Heartbeat CPU 0 instructions: 122000001 cycles: 224632747 heartbeat IPC: 0.342026 cumulative IPC: 0.539531 (Simulation time: 0 hr 5 min 29 sec) 
Heartbeat CPU 0 instructions: 123000000 cycles: 225884983 heartbeat IPC: 0.798571 cumulative IPC: 0.540969 (Simulation time: 0 hr 5 min 31 sec) 
Heartbeat CPU 0 instructions: 124000000 cycles: 228147749 heartbeat IPC: 0.441937 cumulative IPC: 0.539985 (Simulation time: 0 hr 5 min 33 sec) 
Heartbeat CPU 0 instructions: 125000001 cycles: 231255397 heartbeat IPC: 0.321787 cumulative IPC: 0.537048 (Simulation time: 0 hr 5 min 36 sec) 
Heartbeat CPU 0 instructions: 126000002 cycles: 234076312 heartbeat IPC: 0.354495 cumulative IPC: 0.534845 (Simulation time: 0 hr 5 min 40 sec) 
Heartbeat CPU 0 instructions: 127000000 cycles: 234715074 heartbeat IPC: 1.56553 cumulative IPC: 0.537654 (Simulation time: 0 hr 5 min 42 sec) 
Heartbeat CPU 0 instructions: 128000002 cycles: 237706134 heartbeat IPC: 0.33433 cumulative IPC: 0.535092 (Simulation time: 0 hr 5 min 46 sec) 
Heartbeat CPU 0 instructions: 129000001 cycles: 240655396 heartbeat IPC: 0.339068 cumulative IPC: 0.532686 (Simulation time: 0 hr 5 min 48 sec) 
Heartbeat CPU 0 instructions: 130000002 cycles: 243497446 heartbeat IPC: 0.351859 cumulative IPC: 0.530572 (Simulation time: 0 hr 5 min 50 sec) 
Heartbeat CPU 0 instructions: 131000001 cycles: 244175700 heartbeat IPC: 1.47437 cumulative IPC: 0.533198 (Simulation time: 0 hr 5 min 52 sec) 
Heartbeat CPU 0 instructions: 132000000 cycles: 247161931 heartbeat IPC: 0.33487 cumulative IPC: 0.530798 (Simulation time: 0 hr 5 min 54 sec) 
Heartbeat CPU 0 instructions: 133000000 cycles: 250162668 heartbeat IPC: 0.333251 cumulative IPC: 0.528425 (Simulation time: 0 hr 5 min 57 sec) 
Heartbeat CPU 0 instructions: 134000001 cycles: 252748407 heartbeat IPC: 0.386737 cumulative IPC: 0.526973 (Simulation time: 0 hr 6 min 0 sec) 
Heartbeat CPU 0 instructions: 135000002 cycles: 255812268 heartbeat IPC: 0.326386 cumulative IPC: 0.524568 (Simulation time: 0 hr 6 min 5 sec) 
Heartbeat CPU 0 instructions: 136000000 cycles: 256344703 heartbeat IPC: 1.87816 cumulative IPC: 0.527383 (Simulation time: 0 hr 6 min 7 sec) 
Heartbeat CPU 0 instructions: 137000002 cycles: 256876615 heartbeat IPC: 1.88001 cumulative IPC: 0.530188 (Simulation time: 0 hr 6 min 9 sec) 
Heartbeat CPU 0 instructions: 138000001 cycles: 257407651 heartbeat IPC: 1.88311 cumulative IPC: 0.532983 (Simulation time: 0 hr 6 min 12 sec) 
Heartbeat CPU 0 instructions: 139000001 cycles: 257939928 heartbeat IPC: 1.87872 cumulative IPC: 0.535764 (Simulation time: 0 hr 6 min 14 sec) 
Heartbeat CPU 0 instructions: 140000003 cycles: 258472462 heartbeat IPC: 1.87782 cumulative IPC: 0.538533 (Simulation time: 0 hr 6 min 17 sec) 
Heartbeat CPU 0 instructions: 141000000 cycles: 259017370 heartbeat IPC: 1.83517 cumulative IPC: 0.541264 (Simulation time: 0 hr 6 min 20 sec) 
Heartbeat CPU 0 instructions: 142000003 cycles: 259549670 heartbeat IPC: 1.87865 cumulative IPC: 0.544011 (Simulation time: 0 hr 6 min 22 sec) 
Heartbeat CPU 0 instructions: 143000000 cycles: 260082081 heartbeat IPC: 1.87824 cumulative IPC: 0.546746 (Simulation time: 0 hr 6 min 25 sec) 
Heartbeat CPU 0 instructions: 144000001 cycles: 260616089 heartbeat IPC: 1.87263 cumulative IPC: 0.549467 (Simulation time: 0 hr 6 min 27 sec) 
Heartbeat CPU 0 instructions: 145000000 cycles: 261149640 heartbeat IPC: 1.87423 cumulative IPC: 0.552177 (Simulation time: 0 hr 6 min 30 sec) 
Heartbeat CPU 0 instructions: 146000003 cycles: 261681907 heartbeat IPC: 1.87876 cumulative IPC: 0.554879 (Simulation time: 0 hr 6 min 32 sec) 
Heartbeat CPU 0 instructions: 147000003 cycles: 262213928 heartbeat IPC: 1.87963 cumulative IPC: 0.557571 (Simulation time: 0 hr 6 min 34 sec) 
Heartbeat CPU 0 instructions: 148000003 cycles: 265273803 heartbeat IPC: 0.326811 cumulative IPC: 0.554905 (Simulation time: 0 hr 6 min 37 sec) 
Heartbeat CPU 0 instructions: 149000001 cycles: 267575536 heartbeat IPC: 0.434454 cumulative IPC: 0.553868 (Simulation time: 0 hr 6 min 40 sec) 
Heartbeat CPU 0 instructions: 150000002 cycles: 268776460 heartbeat IPC: 0.832693 cumulative IPC: 0.555115 (Simulation time: 0 hr 6 min 42 sec) 
Heartbeat CPU 0 instructions: 151000000 cycles: 271697592 heartbeat IPC: 0.342332 cumulative IPC: 0.552825 (Simulation time: 0 hr 6 min 44 sec) 
Heartbeat CPU 0 instructions: 152000001 cycles: 274664431 heartbeat IPC: 0.337059 cumulative IPC: 0.550491 (Simulation time: 0 hr 6 min 48 sec) 
Heartbeat CPU 0 instructions: 153000002 cycles: 277138024 heartbeat IPC: 0.404271 cumulative IPC: 0.549184 (Simulation time: 0 hr 6 min 51 sec) 
Heartbeat CPU 0 instructions: 154000000 cycles: 278170334 heartbeat IPC: 0.968699 cumulative IPC: 0.550743 (Simulation time: 0 hr 6 min 53 sec) 
Heartbeat CPU 0 instructions: 155000000 cycles: 281098045 heartbeat IPC: 0.341564 cumulative IPC: 0.548561 (Simulation time: 0 hr 6 min 57 sec) 
Heartbeat CPU 0 instructions: 156000002 cycles: 284077477 heartbeat IPC: 0.335635 cumulative IPC: 0.546325 (Simulation time: 0 hr 7 min 1 sec) 
Heartbeat CPU 0 instructions: 157000000 cycles: 286761157 heartbeat IPC: 0.372622 cumulative IPC: 0.544698 (Simulation time: 0 hr 7 min 5 sec) 
Heartbeat CPU 0 instructions: 158000003 cycles: 287592656 heartbeat IPC: 1.20265 cumulative IPC: 0.546602 (Simulation time: 0 hr 7 min 7 sec) 
Heartbeat CPU 0 instructions: 159000002 cycles: 290581304 heartbeat IPC: 0.334599 cumulative IPC: 0.544419 (Simulation time: 0 hr 7 min 11 sec) 
Heartbeat CPU 0 instructions: 160000001 cycles: 293583573 heartbeat IPC: 0.333081 cumulative IPC: 0.542255 (Simulation time: 0 hr 7 min 14 sec) 
Heartbeat CPU 0 instructions: 161000001 cycles: 296474570 heartbeat IPC: 0.345901 cumulative IPC: 0.540338 (Simulation time: 0 hr 7 min 17 sec) 
Heartbeat CPU 0 instructions: 162000001 cycles: 297098106 heartbeat IPC: 1.60376 cumulative IPC: 0.542573 (Simulation time: 0 hr 7 min 19 sec) 
Heartbeat CPU 0 instructions: 163000003 cycles: 300035952 heartbeat IPC: 0.340386 cumulative IPC: 0.540591 (Simulation time: 0 hr 7 min 23 sec) 
Heartbeat CPU 0 instructions: 164000000 cycles: 303042186 heartbeat IPC: 0.332641 cumulative IPC: 0.538525 (Simulation time: 0 hr 7 min 27 sec) 
Heartbeat CPU 0 instructions: 165000000 cycles: 305787175 heartbeat IPC: 0.3643 cumulative IPC: 0.536959 (Simulation time: 0 hr 7 min 31 sec) 
Heartbeat CPU 0 instructions: 166000002 cycles: 306520131 heartbeat IPC: 1.36434 cumulative IPC: 0.53894 (Simulation time: 0 hr 7 min 33 sec) 
Heartbeat CPU 0 instructions: 167000002 cycles: 309419086 heartbeat IPC: 0.344952 cumulative IPC: 0.537121 (Simulation time: 0 hr 7 min 37 sec) 
Heartbeat CPU 0 instructions: 168000002 cycles: 312427499 heartbeat IPC: 0.332401 cumulative IPC: 0.535147 (Simulation time: 0 hr 7 min 40 sec) 
Heartbeat CPU 0 instructions: 169000000 cycles: 315072036 heartbeat IPC: 0.378137 cumulative IPC: 0.533828 (Simulation time: 0 hr 7 min 44 sec) 
Heartbeat CPU 0 instructions: 170000000 cycles: 315910348 heartbeat IPC: 1.19287 cumulative IPC: 0.535579 (Simulation time: 0 hr 7 min 46 sec) 
Heartbeat CPU 0 instructions: 171000003 cycles: 318968374 heartbeat IPC: 0.327009 cumulative IPC: 0.533577 (Simulation time: 0 hr 7 min 51 sec) 
Heartbeat CPU 0 instructions: 172000001 cycles: 321956788 heartbeat IPC: 0.334625 cumulative IPC: 0.531728 (Simulation time: 0 hr 7 min 54 sec) 
Heartbeat CPU 0 instructions: 173000002 cycles: 323749034 heartbeat IPC: 0.55796 cumulative IPC: 0.531873 (Simulation time: 0 hr 7 min 56 sec) 
Heartbeat CPU 0 instructions: 174000000 cycles: 325452684 heartbeat IPC: 0.586974 cumulative IPC: 0.532162 (Simulation time: 0 hr 7 min 58 sec) 
Heartbeat CPU 0 instructions: 175000003 cycles: 328446834 heartbeat IPC: 0.333986 cumulative IPC: 0.530353 (Simulation time: 0 hr 8 min 1 sec) 
Heartbeat CPU 0 instructions: 176000000 cycles: 331413137 heartbeat IPC: 0.337119 cumulative IPC: 0.528622 (Simulation time: 0 hr 8 min 3 sec) 
Heartbeat CPU 0 instructions: 177000000 cycles: 333159704 heartbeat IPC: 0.572552 cumulative IPC: 0.528853 (Simulation time: 0 hr 8 min 5 sec) 
Heartbeat CPU 0 instructions: 178000000 cycles: 334894757 heartbeat IPC: 0.576351 cumulative IPC: 0.529099 (Simulation time: 0 hr 8 min 7 sec) 
Heartbeat CPU 0 instructions: 179000000 cycles: 337867703 heartbeat IPC: 0.336367 cumulative IPC: 0.527401 (Simulation time: 0 hr 8 min 9 sec) 
Heartbeat CPU 0 instructions: 180000001 cycles: 340872696 heartbeat IPC: 0.33278 cumulative IPC: 0.525684 (Simulation time: 0 hr 8 min 12 sec) 
Heartbeat CPU 0 instructions: 181000001 cycles: 341409449 heartbeat IPC: 1.86305 cumulative IPC: 0.527789 (Simulation time: 0 hr 8 min 14 sec) 
Heartbeat CPU 0 instructions: 182000001 cycles: 341941697 heartbeat IPC: 1.87882 cumulative IPC: 0.529894 (Simulation time: 0 hr 8 min 16 sec) 
Heartbeat CPU 0 instructions: 183000001 cycles: 342469363 heartbeat IPC: 1.89514 cumulative IPC: 0.531999 (Simulation time: 0 hr 8 min 18 sec) 
Heartbeat CPU 0 instructions: 184000003 cycles: 342999304 heartbeat IPC: 1.88701 cumulative IPC: 0.534095 (Simulation time: 0 hr 8 min 20 sec) 
Heartbeat CPU 0 instructions: 185000002 cycles: 343529568 heartbeat IPC: 1.88585 cumulative IPC: 0.536184 (Simulation time: 0 hr 8 min 21 sec) 
Heartbeat CPU 0 instructions: 186000000 cycles: 344060077 heartbeat IPC: 1.88498 cumulative IPC: 0.538266 (Simulation time: 0 hr 8 min 23 sec) 
Heartbeat CPU 0 instructions: 187000000 cycles: 344600379 heartbeat IPC: 1.85082 cumulative IPC: 0.540326 (Simulation time: 0 hr 8 min 26 sec) 
Heartbeat CPU 0 instructions: 188000001 cycles: 345130517 heartbeat IPC: 1.8863 cumulative IPC: 0.542396 (Simulation time: 0 hr 8 min 28 sec) 
Heartbeat CPU 0 instructions: 189000001 cycles: 345662863 heartbeat IPC: 1.87848 cumulative IPC: 0.544456 (Simulation time: 0 hr 8 min 30 sec) 
Heartbeat CPU 0 instructions: 190000002 cycles: 346191884 heartbeat IPC: 1.89029 cumulative IPC: 0.546514 (Simulation time: 0 hr 8 min 33 sec) 
Heartbeat CPU 0 instructions: 191000000 cycles: 346722233 heartbeat IPC: 1.88555 cumulative IPC: 0.548565 (Simulation time: 0 hr 8 min 35 sec) 
Heartbeat CPU 0 instructions: 192000001 cycles: 347252912 heartbeat IPC: 1.88438 cumulative IPC: 0.550608 (Simulation time: 0 hr 8 min 37 sec) 
Heartbeat CPU 0 instructions: 193000001 cycles: 347781113 heartbeat IPC: 1.89322 cumulative IPC: 0.552649 (Simulation time: 0 hr 8 min 40 sec) 
Heartbeat CPU 0 instructions: 194000003 cycles: 348323960 heartbeat IPC: 1.84214 cumulative IPC: 0.554661 (Simulation time: 0 hr 8 min 42 sec) 
Heartbeat CPU 0 instructions: 195000000 cycles: 350083146 heartbeat IPC: 0.568443 cumulative IPC: 0.55473 (Simulation time: 0 hr 8 min 45 sec) 
Heartbeat CPU 0 instructions: 196000000 cycles: 351918911 heartbeat IPC: 0.544732 cumulative IPC: 0.554678 (Simulation time: 0 hr 8 min 48 sec) 
Heartbeat CPU 0 instructions: 197000001 cycles: 357156198 heartbeat IPC: 0.190939 cumulative IPC: 0.549339 (Simulation time: 0 hr 8 min 53 sec) 
Heartbeat CPU 0 instructions: 198000000 cycles: 359761879 heartbeat IPC: 0.383776 cumulative IPC: 0.548139 (Simulation time: 0 hr 8 min 56 sec) 
Heartbeat CPU 0 instructions: 199000001 cycles: 360688512 heartbeat IPC: 1.07918 cumulative IPC: 0.549504 (Simulation time: 0 hr 8 min 58 sec) 
Heartbeat CPU 0 instructions: 200000000 cycles: 363681302 heartbeat IPC: 0.334136 cumulative IPC: 0.54773 (Simulation time: 0 hr 9 min 1 sec) 
Heartbeat CPU 0 instructions: 201000000 cycles: 366606418 heartbeat IPC: 0.341867 cumulative IPC: 0.546086 (Simulation time: 0 hr 9 min 3 sec) 
Heartbeat CPU 0 instructions: 202000001 cycles: 369272741 heartbeat IPC: 0.375049 cumulative IPC: 0.54485 (Simulation time: 0 hr 9 min 5 sec) 
Heartbeat CPU 0 instructions: 203000000 cycles: 370053535 heartbeat IPC: 1.28075 cumulative IPC: 0.546404 (Simulation time: 0 hr 9 min 7 sec) 
Heartbeat CPU 0 instructions: 204000003 cycles: 375257505 heartbeat IPC: 0.192162 cumulative IPC: 0.541487 (Simulation time: 0 hr 9 min 11 sec) 
Heartbeat CPU 0 instructions: 205000000 cycles: 378082469 heartbeat IPC: 0.353986 cumulative IPC: 0.540084 (Simulation time: 0 hr 9 min 14 sec) 
Heartbeat CPU 0 instructions: 206000000 cycles: 378775966 heartbeat IPC: 1.44197 cumulative IPC: 0.541737 (Simulation time: 0 hr 9 min 15 sec) 
Heartbeat CPU 0 instructions: 207000002 cycles: 381734422 heartbeat IPC: 0.338015 cumulative IPC: 0.540157 (Simulation time: 0 hr 9 min 17 sec) 
Heartbeat CPU 0 instructions: 208000003 cycles: 384731892 heartbeat IPC: 0.333615 cumulative IPC: 0.538546 (Simulation time: 0 hr 9 min 20 sec) 
Heartbeat CPU 0 instructions: 209000000 cycles: 387644354 heartbeat IPC: 0.343351 cumulative IPC: 0.537078 (Simulation time: 0 hr 9 min 22 sec) 
Heartbeat CPU 0 instructions: 210000002 cycles: 388201805 heartbeat IPC: 1.79388 cumulative IPC: 0.538885 (Simulation time: 0 hr 9 min 23 sec) 
Heartbeat CPU 0 instructions: 211000000 cycles: 393476973 heartbeat IPC: 0.189567 cumulative IPC: 0.534197 (Simulation time: 0 hr 9 min 27 sec) 
Heartbeat CPU 0 instructions: 212000001 cycles: 396376250 heartbeat IPC: 0.344914 cumulative IPC: 0.532811 (Simulation time: 0 hr 9 min 29 sec) 
Heartbeat CPU 0 instructions: 213000001 cycles: 396994404 heartbeat IPC: 1.61772 cumulative IPC: 0.534502 (Simulation time: 0 hr 9 min 30 sec) 
Heartbeat CPU 0 instructions: 214000002 cycles: 399886381 heartbeat IPC: 0.345785 cumulative IPC: 0.533136 (Simulation time: 0 hr 9 min 33 sec) 
Heartbeat CPU 0 instructions: 215000000 cycles: 402888622 heartbeat IPC: 0.333084 cumulative IPC: 0.531644 (Simulation time: 0 hr 9 min 35 sec) 
Heartbeat CPU 0 instructions: 216000003 cycles: 405833614 heartbeat IPC: 0.339561 cumulative IPC: 0.530249 (Simulation time: 0 hr 9 min 38 sec) 
Heartbeat CPU 0 instructions: 217000000 cycles: 406491614 heartbeat IPC: 1.51975 cumulative IPC: 0.531852 (Simulation time: 0 hr 9 min 39 sec) 
Heartbeat CPU 0 instructions: 218000000 cycles: 411580508 heartbeat IPC: 0.196506 cumulative IPC: 0.527702 (Simulation time: 0 hr 9 min 43 sec) 
Heartbeat CPU 0 instructions: 219000000 cycles: 414486375 heartbeat IPC: 0.344131 cumulative IPC: 0.526414 (Simulation time: 0 hr 9 min 46 sec) 
Heartbeat CPU 0 instructions: 220000000 cycles: 415328550 heartbeat IPC: 1.1874 cumulative IPC: 0.527756 (Simulation time: 0 hr 9 min 47 sec) 
Heartbeat CPU 0 instructions: 221000001 cycles: 417999510 heartbeat IPC: 0.374398 cumulative IPC: 0.526775 (Simulation time: 0 hr 9 min 49 sec) 
Heartbeat CPU 0 instructions: 222000003 cycles: 420989371 heartbeat IPC: 0.334464 cumulative IPC: 0.525408 (Simulation time: 0 hr 9 min 52 sec) 
Heartbeat CPU 0 instructions: 223000002 cycles: 423961360 heartbeat IPC: 0.336475 cumulative IPC: 0.524082 (Simulation time: 0 hr 9 min 54 sec) 
Heartbeat CPU 0 instructions: 224000001 cycles: 424830214 heartbeat IPC: 1.15094 cumulative IPC: 0.525365 (Simulation time: 0 hr 9 min 56 sec) 
Heartbeat CPU 0 instructions: 225000001 cycles: 429812663 heartbeat IPC: 0.200705 cumulative IPC: 0.521599 (Simulation time: 0 hr 9 min 59 sec) 
Heartbeat CPU 0 instructions: 226000001 cycles: 430346850 heartbeat IPC: 1.872 cumulative IPC: 0.523276 (Simulation time: 0 hr 10 min 0 sec) 
Heartbeat CPU 0 instructions: 227000000 cycles: 430878775 heartbeat IPC: 1.87996 cumulative IPC: 0.524953 (Simulation time: 0 hr 10 min 2 sec) 
Heartbeat CPU 0 instructions: 228000000 cycles: 431411343 heartbeat IPC: 1.87769 cumulative IPC: 0.526624 (Simulation time: 0 hr 10 min 3 sec) 
Heartbeat CPU 0 instructions: 229000001 cycles: 431943645 heartbeat IPC: 1.87863 cumulative IPC: 0.528292 (Simulation time: 0 hr 10 min 5 sec) 
Heartbeat CPU 0 instructions: 230000002 cycles: 432475568 heartbeat IPC: 1.87997 cumulative IPC: 0.529955 (Simulation time: 0 hr 10 min 6 sec) 
Heartbeat CPU 0 instructions: 231000000 cycles: 433007331 heartbeat IPC: 1.88053 cumulative IPC: 0.531615 (Simulation time: 0 hr 10 min 8 sec) 
Heartbeat CPU 0 instructions: 232000000 cycles: 433539002 heartbeat IPC: 1.88086 cumulative IPC: 0.533271 (Simulation time: 0 hr 10 min 10 sec) 
Heartbeat CPU 0 instructions: 233000000 cycles: 434071179 heartbeat IPC: 1.87907 cumulative IPC: 0.534923 (Simulation time: 0 hr 10 min 12 sec) 
Heartbeat CPU 0 instructions: 234000000 cycles: 434617221 heartbeat IPC: 1.83136 cumulative IPC: 0.536553 (Simulation time: 0 hr 10 min 14 sec) 
Heartbeat CPU 0 instructions: 235000000 cycles: 435150079 heartbeat IPC: 1.87667 cumulative IPC: 0.538195 (Simulation time: 0 hr 10 min 15 sec) 
Heartbeat CPU 0 instructions: 236000000 cycles: 435683453 heartbeat IPC: 1.87486 cumulative IPC: 0.539833 (Simulation time: 0 hr 10 min 17 sec) 
Heartbeat CPU 0 instructions: 237000002 cycles: 436214894 heartbeat IPC: 1.88168 cumulative IPC: 0.541469 (Simulation time: 0 hr 10 min 18 sec) 
Heartbeat CPU 0 instructions: 238000002 cycles: 439154930 heartbeat IPC: 0.340132 cumulative IPC: 0.54012 (Simulation time: 0 hr 10 min 20 sec) 
Heartbeat CPU 0 instructions: 239000001 cycles: 439773581 heartbeat IPC: 1.61642 cumulative IPC: 0.541636 (Simulation time: 0 hr 10 min 22 sec) 
Heartbeat CPU 0 instructions: 240000001 cycles: 442776098 heartbeat IPC: 0.333054 cumulative IPC: 0.54022 (Simulation time: 0 hr 10 min 24 sec) 
Heartbeat CPU 0 instructions: 241000003 cycles: 445668330 heartbeat IPC: 0.345754 cumulative IPC: 0.538957 (Simulation time: 0 hr 10 min 27 sec) 
Heartbeat CPU 0 instructions: 242000000 cycles: 448605330 heartbeat IPC: 0.340482 cumulative IPC: 0.537656 (Simulation time: 0 hr 10 min 29 sec) 
Heartbeat CPU 0 instructions: 243000001 cycles: 449283219 heartbeat IPC: 1.47517 cumulative IPC: 0.539072 (Simulation time: 0 hr 10 min 31 sec) 
Heartbeat CPU 0 instructions: 244000001 cycles: 452078116 heartbeat IPC: 0.357795 cumulative IPC: 0.537951 (Simulation time: 0 hr 10 min 33 sec) 
Heartbeat CPU 0 instructions: 245000001 cycles: 455012185 heartbeat IPC: 0.340824 cumulative IPC: 0.536678 (Simulation time: 0 hr 10 min 36 sec) 
Heartbeat CPU 0 instructions: 246000000 cycles: 457985096 heartbeat IPC: 0.33637 cumulative IPC: 0.535377 (Simulation time: 0 hr 10 min 40 sec) 
Heartbeat CPU 0 instructions: 247000001 cycles: 458867419 heartbeat IPC: 1.13337 cumulative IPC: 0.536528 (Simulation time: 0 hr 10 min 42 sec) 
Heartbeat CPU 0 instructions: 248000001 cycles: 461494695 heartbeat IPC: 0.380622 cumulative IPC: 0.53564 (Simulation time: 0 hr 10 min 46 sec) 
Heartbeat CPU 0 instructions: 249000000 cycles: 464412284 heartbeat IPC: 0.342748 cumulative IPC: 0.534427 (Simulation time: 0 hr 10 min 50 sec) 
Heartbeat CPU 0 instructions: 250000001 cycles: 467275487 heartbeat IPC: 0.34926 cumulative IPC: 0.533291 (Simulation time: 0 hr 10 min 54 sec) 
Heartbeat CPU 0 instructions: 251000000 cycles: 468364557 heartbeat IPC: 0.918214 cumulative IPC: 0.534187 (Simulation time: 0 hr 10 min 57 sec) 
Heartbeat CPU 0 instructions: 252000000 cycles: 470746870 heartbeat IPC: 0.41976 cumulative IPC: 0.533608 (Simulation time: 0 hr 10 min 59 sec) 
Heartbeat CPU 0 instructions: 253000000 cycles: 473648294 heartbeat IPC: 0.344658 cumulative IPC: 0.532449 (Simulation time: 0 hr 11 min 1 sec) 
Heartbeat CPU 0 instructions: 254000003 cycles: 476592198 heartbeat IPC: 0.339686 cumulative IPC: 0.531258 (Simulation time: 0 hr 11 min 4 sec) 
Heartbeat CPU 0 instructions: 255000002 cycles: 477604212 heartbeat IPC: 0.988128 cumulative IPC: 0.532226 (Simulation time: 0 hr 11 min 5 sec) 
Heartbeat CPU 0 instructions: 256000001 cycles: 480140350 heartbeat IPC: 0.3943 cumulative IPC: 0.531497 (Simulation time: 0 hr 11 min 8 sec) 
Heartbeat CPU 0 instructions: 257000002 cycles: 483137831 heartbeat IPC: 0.333614 cumulative IPC: 0.530269 (Simulation time: 0 hr 11 min 10 sec) 
Heartbeat CPU 0 instructions: 258000000 cycles: 486030004 heartbeat IPC: 0.34576 cumulative IPC: 0.52917 (Simulation time: 0 hr 11 min 12 sec) 
Heartbeat CPU 0 instructions: 259000002 cycles: 486942023 heartbeat IPC: 1.09647 cumulative IPC: 0.530233 (Simulation time: 0 hr 11 min 14 sec) 
Heartbeat CPU 0 instructions: 260000000 cycles: 489568685 heartbeat IPC: 0.380711 cumulative IPC: 0.52943 (Simulation time: 0 hr 11 min 16 sec) 
Heartbeat CPU 0 instructions: 261000001 cycles: 494759243 heartbeat IPC: 0.192658 cumulative IPC: 0.525895 (Simulation time: 0 hr 11 min 20 sec) 
Heartbeat CPU 0 instructions: 262000002 cycles: 495351251 heartbeat IPC: 1.68917 cumulative IPC: 0.527286 (Simulation time: 0 hr 11 min 21 sec) 
Heartbeat CPU 0 instructions: 263000001 cycles: 495883821 heartbeat IPC: 1.87769 cumulative IPC: 0.528737 (Simulation time: 0 hr 11 min 23 sec) 
Heartbeat CPU 0 instructions: 264000000 cycles: 496416320 heartbeat IPC: 1.87794 cumulative IPC: 0.530186 (Simulation time: 0 hr 11 min 24 sec) 
Heartbeat CPU 0 instructions: 265000001 cycles: 496948443 heartbeat IPC: 1.87927 cumulative IPC: 0.531631 (Simulation time: 0 hr 11 min 26 sec) 
Heartbeat CPU 0 instructions: 266000001 cycles: 497480937 heartbeat IPC: 1.87796 cumulative IPC: 0.533073 (Simulation time: 0 hr 11 min 27 sec) 
Heartbeat CPU 0 instructions: 267000002 cycles: 498013514 heartbeat IPC: 1.87766 cumulative IPC: 0.534512 (Simulation time: 0 hr 11 min 29 sec) 
Heartbeat CPU 0 instructions: 268000003 cycles: 498544661 heartbeat IPC: 1.88272 cumulative IPC: 0.53595 (Simulation time: 0 hr 11 min 30 sec) 
Heartbeat CPU 0 instructions: 269000003 cycles: 499075912 heartbeat IPC: 1.88235 cumulative IPC: 0.537384 (Simulation time: 0 hr 11 min 32 sec) 
Heartbeat CPU 0 instructions: 270000000 cycles: 499607875 heartbeat IPC: 1.87982 cumulative IPC: 0.538815 (Simulation time: 0 hr 11 min 33 sec) 
Heartbeat CPU 0 instructions: 271000003 cycles: 500142343 heartbeat IPC: 1.87102 cumulative IPC: 0.540239 (Simulation time: 0 hr 11 min 34 sec) 
Heartbeat CPU 0 instructions: 272000000 cycles: 500674725 heartbeat IPC: 1.87834 cumulative IPC: 0.541663 (Simulation time: 0 hr 11 min 36 sec) 
Heartbeat CPU 0 instructions: 273000003 cycles: 501207406 heartbeat IPC: 1.8773 cumulative IPC: 0.543084 (Simulation time: 0 hr 11 min 37 sec) 
Heartbeat CPU 0 instructions: 274000003 cycles: 501738753 heartbeat IPC: 1.88201 cumulative IPC: 0.544503 (Simulation time: 0 hr 11 min 39 sec) 
Heartbeat CPU 0 instructions: 275000000 cycles: 504789883 heartbeat IPC: 0.327746 cumulative IPC: 0.543192 (Simulation time: 0 hr 11 min 44 sec) 
Heartbeat CPU 0 instructions: 276000002 cycles: 507790485 heartbeat IPC: 0.333267 cumulative IPC: 0.54195 (Simulation time: 0 hr 11 min 46 sec) 
Heartbeat CPU 0 instructions: 277000001 cycles: 510644907 heartbeat IPC: 0.350333 cumulative IPC: 0.540878 (Simulation time: 0 hr 11 min 48 sec) 
Heartbeat CPU 0 instructions: 278000002 cycles: 511237094 heartbeat IPC: 1.68866 cumulative IPC: 0.542209 (Simulation time: 0 hr 11 min 50 sec) 
Heartbeat CPU 0 instructions: 279000002 cycles: 514193030 heartbeat IPC: 0.338302 cumulative IPC: 0.541036 (Simulation time: 0 hr 11 min 52 sec) 
Heartbeat CPU 0 instructions: 280000001 cycles: 517139326 heartbeat IPC: 0.339409 cumulative IPC: 0.539886 (Simulation time: 0 hr 11 min 55 sec) 
Heartbeat CPU 0 instructions: 281000000 cycles: 520065987 heartbeat IPC: 0.341686 cumulative IPC: 0.53877 (Simulation time: 0 hr 11 min 58 sec) 
Heartbeat CPU 0 instructions: 282000000 cycles: 520773024 heartbeat IPC: 1.41435 cumulative IPC: 0.53996 (Simulation time: 0 hr 12 min 0 sec) 
Heartbeat CPU 0 instructions: 283000002 cycles: 523568204 heartbeat IPC: 0.357759 cumulative IPC: 0.538986 (Simulation time: 0 hr 12 min 4 sec) 
Heartbeat CPU 0 instructions: 284000001 cycles: 526527276 heartbeat IPC: 0.337943 cumulative IPC: 0.537856 (Simulation time: 0 hr 12 min 8 sec) 
Heartbeat CPU 0 instructions: 285000001 cycles: 529394636 heartbeat IPC: 0.348753 cumulative IPC: 0.536831 (Simulation time: 0 hr 12 min 12 sec) 
Heartbeat CPU 0 instructions: 286000000 cycles: 530319776 heartbeat IPC: 1.08092 cumulative IPC: 0.53778 (Simulation time: 0 hr 12 min 14 sec) 
Heartbeat CPU 0 instructions: 287000002 cycles: 532884052 heartbeat IPC: 0.389974 cumulative IPC: 0.537069 (Simulation time: 0 hr 12 min 16 sec) 
Heartbeat CPU 0 instructions: 288000001 cycles: 535861442 heartbeat IPC: 0.335864 cumulative IPC: 0.53595 (Simulation time: 0 hr 12 min 18 sec) 
Heartbeat CPU 0 instructions: 289000002 cycles: 538757071 heartbeat IPC: 0.345348 cumulative IPC: 0.534925 (Simulation time: 0 hr 12 min 20 sec) 
Heartbeat CPU 0 instructions: 290000000 cycles: 539715593 heartbeat IPC: 1.04327 cumulative IPC: 0.535828 (Simulation time: 0 hr 12 min 22 sec) 
Heartbeat CPU 0 instructions: 291000001 cycles: 542299072 heartbeat IPC: 0.387075 cumulative IPC: 0.535119 (Simulation time: 0 hr 12 min 24 sec) 
Heartbeat CPU 0 instructions: 292000001 cycles: 545198472 heartbeat IPC: 0.344899 cumulative IPC: 0.534107 (Simulation time: 0 hr 12 min 27 sec) 
Heartbeat CPU 0 instructions: 293000002 cycles: 548169634 heartbeat IPC: 0.336569 cumulative IPC: 0.533036 (Simulation time: 0 hr 12 min 29 sec) 
Heartbeat CPU 0 instructions: 294000001 cycles: 549013092 heartbeat IPC: 1.18559 cumulative IPC: 0.534039 (Simulation time: 0 hr 12 min 31 sec) 
Heartbeat CPU 0 instructions: 295000000 cycles: 551715865 heartbeat IPC: 0.36999 cumulative IPC: 0.533235 (Simulation time: 0 hr 12 min 33 sec) 
Heartbeat CPU 0 instructions: 296000000 cycles: 554672780 heartbeat IPC: 0.33819 cumulative IPC: 0.532194 (Simulation time: 0 hr 12 min 35 sec) 
Heartbeat CPU 0 instructions: 297000000 cycles: 557722658 heartbeat IPC: 0.327882 cumulative IPC: 0.531076 (Simulation time: 0 hr 12 min 38 sec) 
Heartbeat CPU 0 instructions: 298000003 cycles: 560401896 heartbeat IPC: 0.373242 cumulative IPC: 0.530321 (Simulation time: 0 hr 12 min 40 sec) 
Heartbeat CPU 0 instructions: 299000001 cycles: 560934323 heartbeat IPC: 1.87819 cumulative IPC: 0.531601 (Simulation time: 0 hr 12 min 41 sec) 
Heartbeat CPU 0 instructions: 300000000 cycles: 561465888 heartbeat IPC: 1.88124 cumulative IPC: 0.53288 (Simulation time: 0 hr 12 min 43 sec) 
Heartbeat CPU 0 instructions: 301000002 cycles: 561998386 heartbeat IPC: 1.87795 cumulative IPC: 0.534155 (Simulation time: 0 hr 12 min 45 sec) 
Heartbeat CPU 0 instructions: 302000000 cycles: 562530134 heartbeat IPC: 1.88059 cumulative IPC: 0.535429 (Simulation time: 0 hr 12 min 46 sec) 
Heartbeat CPU 0 instructions: 303000003 cycles: 563075263 heartbeat IPC: 1.83443 cumulative IPC: 0.536687 (Simulation time: 0 hr 12 min 48 sec) 
Heartbeat CPU 0 instructions: 304000002 cycles: 563607150 heartbeat IPC: 1.8801 cumulative IPC: 0.537956 (Simulation time: 0 hr 12 min 49 sec) 
Heartbeat CPU 0 instructions: 305000001 cycles: 564139411 heartbeat IPC: 1.87878 cumulative IPC: 0.539222 (Simulation time: 0 hr 12 min 51 sec) 
Heartbeat CPU 0 instructions: 306000000 cycles: 564670966 heartbeat IPC: 1.88127 cumulative IPC: 0.540486 (Simulation time: 0 hr 12 min 52 sec) 
Heartbeat CPU 0 instructions: 307000001 cycles: 565204169 heartbeat IPC: 1.87546 cumulative IPC: 0.541746 (Simulation time: 0 hr 12 min 54 sec) 
Heartbeat CPU 0 instructions: 308000000 cycles: 565737640 heartbeat IPC: 1.87451 cumulative IPC: 0.543003 (Simulation time: 0 hr 12 min 55 sec) 
Heartbeat CPU 0 instructions: 309000000 cycles: 566269805 heartbeat IPC: 1.87912 cumulative IPC: 0.54426 (Simulation time: 0 hr 12 min 57 sec) 
Heartbeat CPU 0 instructions: 310000000 cycles: 566798251 heartbeat IPC: 1.89234 cumulative IPC: 0.545518 (Simulation time: 0 hr 12 min 58 sec) 
Heartbeat CPU 0 instructions: 311000000 cycles: 569816015 heartbeat IPC: 0.331371 cumulative IPC: 0.544383 (Simulation time: 0 hr 13 min 1 sec) 
Heartbeat CPU 0 instructions: 312000000 cycles: 572481977 heartbeat IPC: 0.375099 cumulative IPC: 0.543594 (Simulation time: 0 hr 13 min 3 sec) 
Heartbeat CPU 0 instructions: 313000003 cycles: 573229226 heartbeat IPC: 1.33825 cumulative IPC: 0.54463 (Simulation time: 0 hr 13 min 4 sec) 
Heartbeat CPU 0 instructions: 314000001 cycles: 576193328 heartbeat IPC: 0.33737 cumulative IPC: 0.543564 (Simulation time: 0 hr 13 min 7 sec) 
Heartbeat CPU 0 instructions: 315000001 cycles: 579154712 heartbeat IPC: 0.33768 cumulative IPC: 0.54251 (Simulation time: 0 hr 13 min 12 sec) 
Heartbeat CPU 0 instructions: 316000000 cycles: 582089873 heartbeat IPC: 0.340696 cumulative IPC: 0.541492 (Simulation time: 0 hr 13 min 15 sec) 
Heartbeat CPU 0 instructions: 317000000 cycles: 582656970 heartbeat IPC: 1.76337 cumulative IPC: 0.542682 (Simulation time: 0 hr 13 min 17 sec) 
Heartbeat CPU 0 instructions: 318000002 cycles: 585582536 heartbeat IPC: 0.341815 cumulative IPC: 0.541678 (Simulation time: 0 hr 13 min 20 sec) 
Heartbeat CPU 0 instructions: 319000000 cycles: 588559754 heartbeat IPC: 0.335883 cumulative IPC: 0.540636 (Simulation time: 0 hr 13 min 22 sec) 
Heartbeat CPU 0 instructions: 320000000 cycles: 591460199 heartbeat IPC: 0.344775 cumulative IPC: 0.539675 (Simulation time: 0 hr 13 min 24 sec) 
Heartbeat CPU 0 instructions: 321000001 cycles: 592219468 heartbeat IPC: 1.31706 cumulative IPC: 0.540672 (Simulation time: 0 hr 13 min 26 sec) 
Heartbeat CPU 0 instructions: 322000000 cycles: 594959000 heartbeat IPC: 0.365025 cumulative IPC: 0.539863 (Simulation time: 0 hr 13 min 28 sec) 
Heartbeat CPU 0 instructions: 323000000 cycles: 597894381 heartbeat IPC: 0.340671 cumulative IPC: 0.538885 (Simulation time: 0 hr 13 min 32 sec) 
Heartbeat CPU 0 instructions: 324000003 cycles: 600826845 heartbeat IPC: 0.341011 cumulative IPC: 0.537918 (Simulation time: 0 hr 13 min 36 sec) 
Heartbeat CPU 0 instructions: 325000001 cycles: 601744295 heartbeat IPC: 1.08998 cumulative IPC: 0.53876 (Simulation time: 0 hr 13 min 39 sec) 
Heartbeat CPU 0 instructions: 326000002 cycles: 604382398 heartbeat IPC: 0.379061 cumulative IPC: 0.538063 (Simulation time: 0 hr 13 min 43 sec) 
Heartbeat CPU 0 instructions: 327000001 cycles: 607292048 heartbeat IPC: 0.343684 cumulative IPC: 0.537131 (Simulation time: 0 hr 13 min 45 sec) 
Heartbeat CPU 0 instructions: 328000002 cycles: 610220183 heartbeat IPC: 0.341515 cumulative IPC: 0.536192 (Simulation time: 0 hr 13 min 48 sec) 
Heartbeat CPU 0 instructions: 329000001 cycles: 611009349 heartbeat IPC: 1.26716 cumulative IPC: 0.537136 (Simulation time: 0 hr 13 min 51 sec) 
Heartbeat CPU 0 instructions: 330000000 cycles: 613767341 heartbeat IPC: 0.362582 cumulative IPC: 0.536352 (Simulation time: 0 hr 13 min 55 sec) 
Heartbeat CPU 0 instructions: 331000001 cycles: 616695843 heartbeat IPC: 0.341472 cumulative IPC: 0.535426 (Simulation time: 0 hr 13 min 58 sec) 
Heartbeat CPU 0 instructions: 332000003 cycles: 619644946 heartbeat IPC: 0.339087 cumulative IPC: 0.534491 (Simulation time: 0 hr 14 min 2 sec) 
Heartbeat CPU 0 instructions: 333000000 cycles: 620274281 heartbeat IPC: 1.58897 cumulative IPC: 0.535561 (Simulation time: 0 hr 14 min 5 sec) 
Heartbeat CPU 0 instructions: 334000001 cycles: 625514791 heartbeat IPC: 0.190821 cumulative IPC: 0.532671 (Simulation time: 0 hr 14 min 10 sec) 
Heartbeat CPU 0 instructions: 335000001 cycles: 626048160 heartbeat IPC: 1.87487 cumulative IPC: 0.533815 (Simulation time: 0 hr 14 min 13 sec) 
Heartbeat CPU 0 instructions: 336000002 cycles: 626581244 heartbeat IPC: 1.87588 cumulative IPC: 0.534958 (Simulation time: 0 hr 14 min 15 sec) 
Heartbeat CPU 0 instructions: 337000000 cycles: 627113155 heartbeat IPC: 1.88001 cumulative IPC: 0.536099 (Simulation time: 0 hr 14 min 18 sec) 
Heartbeat CPU 0 instructions: 338000000 cycles: 627646303 heartbeat IPC: 1.87565 cumulative IPC: 0.537238 (Simulation time: 0 hr 14 min 20 sec) 
Heartbeat CPU 0 instructions: 339000000 cycles: 628178874 heartbeat IPC: 1.87768 cumulative IPC: 0.538375 (Simulation time: 0 hr 14 min 23 sec) 
Heartbeat CPU 0 instructions: 340000000 cycles: 628710603 heartbeat IPC: 1.88066 cumulative IPC: 0.539511 (Simulation time: 0 hr 14 min 25 sec) 
Heartbeat CPU 0 instructions: 341000000 cycles: 629241792 heartbeat IPC: 1.88257 cumulative IPC: 0.540645 (Simulation time: 0 hr 14 min 28 sec) 
Heartbeat CPU 0 instructions: 342000002 cycles: 629774613 heartbeat IPC: 1.87681 cumulative IPC: 0.541776 (Simulation time: 0 hr 14 min 30 sec) 
Heartbeat CPU 0 instructions: 343000000 cycles: 630314123 heartbeat IPC: 1.85353 cumulative IPC: 0.5429 (Simulation time: 0 hr 14 min 33 sec) 
Heartbeat CPU 0 instructions: 344000001 cycles: 630850604 heartbeat IPC: 1.864 cumulative IPC: 0.544024 (Simulation time: 0 hr 14 min 34 sec) 
Heartbeat CPU 0 instructions: 345000000 cycles: 631383831 heartbeat IPC: 1.87537 cumulative IPC: 0.545149 (Simulation time: 0 hr 14 min 35 sec) 
Heartbeat CPU 0 instructions: 346000002 cycles: 631916997 heartbeat IPC: 1.87559 cumulative IPC: 0.546272 (Simulation time: 0 hr 14 min 37 sec) 
Heartbeat CPU 0 instructions: 347000001 cycles: 634499216 heartbeat IPC: 0.387263 cumulative IPC: 0.545625 (Simulation time: 0 hr 14 min 39 sec) 
Heartbeat CPU 0 instructions: 348000001 cycles: 635403953 heartbeat IPC: 1.10529 cumulative IPC: 0.546422 (Simulation time: 0 hr 14 min 41 sec) 
Heartbeat CPU 0 instructions: 349000000 cycles: 638367752 heartbeat IPC: 0.337404 cumulative IPC: 0.545451 (Simulation time: 0 hr 14 min 43 sec) 
Heartbeat CPU 0 instructions: 350000000 cycles: 641369341 heartbeat IPC: 0.333157 cumulative IPC: 0.544457 (Simulation time: 0 hr 14 min 45 sec) 
Heartbeat CPU 0 instructions: 351000000 cycles: 644080221 heartbeat IPC: 0.368884 cumulative IPC: 0.543718 (Simulation time: 0 hr 14 min 48 sec) 
Heartbeat CPU 0 instructions: 352000000 cycles: 644781636 heartbeat IPC: 1.42569 cumulative IPC: 0.544678 (Simulation time: 0 hr 14 min 50 sec) 
Heartbeat CPU 0 instructions: 353000002 cycles: 647674079 heartbeat IPC: 0.345729 cumulative IPC: 0.543789 (Simulation time: 0 hr 14 min 54 sec) 
Heartbeat CPU 0 instructions: 354000003 cycles: 650599385 heartbeat IPC: 0.341845 cumulative IPC: 0.54288 (Simulation time: 0 hr 14 min 57 sec) 
Heartbeat CPU 0 instructions: 355000000 cycles: 653541385 heartbeat IPC: 0.339904 cumulative IPC: 0.541966 (Simulation time: 0 hr 15 min 1 sec) 
Heartbeat CPU 0 instructions: 356000000 cycles: 654151807 heartbeat IPC: 1.63821 cumulative IPC: 0.542989 (Simulation time: 0 hr 15 min 4 sec) 
Heartbeat CPU 0 instructions: 357000002 cycles: 657022439 heartbeat IPC: 0.348356 cumulative IPC: 0.542139 (Simulation time: 0 hr 15 min 8 sec) 
Heartbeat CPU 0 instructions: 358000001 cycles: 660017296 heartbeat IPC: 0.333905 cumulative IPC: 0.541193 (Simulation time: 0 hr 15 min 12 sec) 
Heartbeat CPU 0 instructions: 359000001 cycles: 662950992 heartbeat IPC: 0.340867 cumulative IPC: 0.540306 (Simulation time: 0 hr 15 min 15 sec) 
Heartbeat CPU 0 instructions: 360000002 cycles: 663789830 heartbeat IPC: 1.19213 cumulative IPC: 0.54113 (Simulation time: 0 hr 15 min 16 sec) 
Heartbeat CPU 0 instructions: 361000000 cycles: 666429049 heartbeat IPC: 0.378899 cumulative IPC: 0.540488 (Simulation time: 0 hr 15 min 19 sec) 
Heartbeat CPU 0 instructions: 362000001 cycles: 669359272 heartbeat IPC: 0.341271 cumulative IPC: 0.539615 (Simulation time: 0 hr 15 min 21 sec) 
Heartbeat CPU 0 instructions: 363000000 cycles: 672315791 heartbeat IPC: 0.338235 cumulative IPC: 0.538729 (Simulation time: 0 hr 15 min 25 sec) 
Heartbeat CPU 0 instructions: 364000001 cycles: 673060959 heartbeat IPC: 1.34198 cumulative IPC: 0.539619 (Simulation time: 0 hr 15 min 26 sec) 
Heartbeat CPU 0 instructions: 365000001 cycles: 675761966 heartbeat IPC: 0.370232 cumulative IPC: 0.538941 (Simulation time: 0 hr 15 min 29 sec) 
Heartbeat CPU 0 instructions: 366000000 cycles: 678654230 heartbeat IPC: 0.34575 cumulative IPC: 0.538118 (Simulation time: 0 hr 15 min 31 sec) 
Heartbeat CPU 0 instructions: 367000000 cycles: 681601663 heartbeat IPC: 0.339278 cumulative IPC: 0.537257 (Simulation time: 0 hr 15 min 33 sec) 
Heartbeat CPU 0 instructions: 368000000 cycles: 682268912 heartbeat IPC: 1.49869 cumulative IPC: 0.538198 (Simulation time: 0 hr 15 min 36 sec) 
Heartbeat CPU 0 instructions: 369000001 cycles: 685076448 heartbeat IPC: 0.356185 cumulative IPC: 0.537452 (Simulation time: 0 hr 15 min 40 sec) 
Heartbeat CPU 0 instructions: 370000000 cycles: 690333486 heartbeat IPC: 0.190221 cumulative IPC: 0.534806 (Simulation time: 0 hr 15 min 45 sec) 
Heartbeat CPU 0 instructions: 371000000 cycles: 690909738 heartbeat IPC: 1.73535 cumulative IPC: 0.535808 (Simulation time: 0 hr 15 min 48 sec) 
Heartbeat CPU 0 instructions: 372000001 cycles: 691456756 heartbeat IPC: 1.8281 cumulative IPC: 0.536831 (Simulation time: 0 hr 15 min 51 sec) 
Heartbeat CPU 0 instructions: 373000001 cycles: 691988769 heartbeat IPC: 1.87965 cumulative IPC: 0.537864 (Simulation time: 0 hr 15 min 53 sec) 
Heartbeat CPU 0 instructions: 374000000 cycles: 692520788 heartbeat IPC: 1.87963 cumulative IPC: 0.538895 (Simulation time: 0 hr 15 min 55 sec) 
Heartbeat CPU 0 instructions: 375000001 cycles: 693051852 heartbeat IPC: 1.88301 cumulative IPC: 0.539926 (Simulation time: 0 hr 15 min 57 sec) 
Heartbeat CPU 0 instructions: 376000003 cycles: 693583539 heartbeat IPC: 1.88081 cumulative IPC: 0.540954 (Simulation time: 0 hr 15 min 58 sec) 
Heartbeat CPU 0 instructions: 377000002 cycles: 694116263 heartbeat IPC: 1.87714 cumulative IPC: 0.54198 (Simulation time: 0 hr 16 min 1 sec) 
Heartbeat CPU 0 instructions: 378000000 cycles: 694648143 heartbeat IPC: 1.88012 cumulative IPC: 0.543005 (Simulation time: 0 hr 16 min 3 sec) 
Heartbeat CPU 0 instructions: 379000001 cycles: 695180091 heartbeat IPC: 1.87988 cumulative IPC: 0.544029 (Simulation time: 0 hr 16 min 6 sec) 
Heartbeat CPU 0 instructions: 380000002 cycles: 695713172 heartbeat IPC: 1.87589 cumulative IPC: 0.54505 (Simulation time: 0 hr 16 min 8 sec) 
Heartbeat CPU 0 instructions: 381000001 cycles: 696244492 heartbeat IPC: 1.8821 cumulative IPC: 0.546071 (Simulation time: 0 hr 16 min 10 sec) 
Heartbeat CPU 0 instructions: 382000000 cycles: 696776427 heartbeat IPC: 1.87993 cumulative IPC: 0.547089 (Simulation time: 0 hr 16 min 12 sec) 
Heartbeat CPU 0 instructions: 383000001 cycles: 697309712 heartbeat IPC: 1.87517 cumulative IPC: 0.548106 (Simulation time: 0 hr 16 min 14 sec) 
Heartbeat CPU 0 instructions: 384000001 cycles: 700371582 heartbeat IPC: 0.326598 cumulative IPC: 0.547137 (Simulation time: 0 hr 16 min 18 sec) 
Heartbeat CPU 0 instructions: 385000000 cycles: 703295056 heartbeat IPC: 0.342058 cumulative IPC: 0.546284 (Simulation time: 0 hr 16 min 22 sec) 
Heartbeat CPU 0 instructions: 386000001 cycles: 705889693 heartbeat IPC: 0.385411 cumulative IPC: 0.545692 (Simulation time: 0 hr 16 min 25 sec) 
Heartbeat CPU 0 instructions: 387000001 cycles: 706708807 heartbeat IPC: 1.22083 cumulative IPC: 0.546475 (Simulation time: 0 hr 16 min 28 sec) 
Heartbeat CPU 0 instructions: 388000003 cycles: 709665582 heartbeat IPC: 0.338207 cumulative IPC: 0.545607 (Simulation time: 0 hr 16 min 32 sec) 
Heartbeat CPU 0 instructions: 389000001 cycles: 712623647 heartbeat IPC: 0.338058 cumulative IPC: 0.544745 (Simulation time: 0 hr 16 min 34 sec) 
Heartbeat CPU 0 instructions: 390000000 cycles: 715429684 heartbeat IPC: 0.356374 cumulative IPC: 0.544006 (Simulation time: 0 hr 16 min 36 sec) 
Heartbeat CPU 0 instructions: 391000000 cycles: 716063946 heartbeat IPC: 1.57664 cumulative IPC: 0.544921 (Simulation time: 0 hr 16 min 38 sec) 
Heartbeat CPU 0 instructions: 392000000 cycles: 718988206 heartbeat IPC: 0.341967 cumulative IPC: 0.544095 (Simulation time: 0 hr 16 min 40 sec) 
Heartbeat CPU 0 instructions: 393000001 cycles: 721968449 heartbeat IPC: 0.335543 cumulative IPC: 0.543234 (Simulation time: 0 hr 16 min 43 sec) 
Heartbeat CPU 0 instructions: 394000000 cycles: 724936270 heartbeat IPC: 0.336947 cumulative IPC: 0.542389 (Simulation time: 0 hr 16 min 45 sec) 
Heartbeat CPU 0 instructions: 395000001 cycles: 725642190 heartbeat IPC: 1.41659 cumulative IPC: 0.54324 (Simulation time: 0 hr 16 min 46 sec) 
Heartbeat CPU 0 instructions: 396000000 cycles: 728371036 heartbeat IPC: 0.366455 cumulative IPC: 0.542577 (Simulation time: 0 hr 16 min 49 sec) 
Heartbeat CPU 0 instructions: 397000002 cycles: 731351897 heartbeat IPC: 0.335474 cumulative IPC: 0.541732 (Simulation time: 0 hr 16 min 53 sec) 
Heartbeat CPU 0 instructions: 398000003 cycles: 734287641 heartbeat IPC: 0.340629 cumulative IPC: 0.540928 (Simulation time: 0 hr 16 min 57 sec) 
Heartbeat CPU 0 instructions: 399000000 cycles: 735030572 heartbeat IPC: 1.34602 cumulative IPC: 0.541742 (Simulation time: 0 hr 16 min 59 sec) 
Heartbeat CPU 0 instructions: 400000001 cycles: 737778321 heartbeat IPC: 0.363935 cumulative IPC: 0.54108 (Simulation time: 0 hr 17 min 3 sec) 
Heartbeat CPU 0 instructions: 401000000 cycles: 740754271 heartbeat IPC: 0.336027 cumulative IPC: 0.540255 (Simulation time: 0 hr 17 min 5 sec) 
Heartbeat CPU 0 instructions: 402000000 cycles: 743673622 heartbeat IPC: 0.342542 cumulative IPC: 0.539479 (Simulation time: 0 hr 17 min 7 sec) 
Heartbeat CPU 0 instructions: 403000001 cycles: 744321132 heartbeat IPC: 1.54438 cumulative IPC: 0.540354 (Simulation time: 0 hr 17 min 9 sec) 
Heartbeat CPU 0 instructions: 404000002 cycles: 747224641 heartbeat IPC: 0.344411 cumulative IPC: 0.539592 (Simulation time: 0 hr 17 min 11 sec) 
Heartbeat CPU 0 instructions: 405000003 cycles: 750201608 heartbeat IPC: 0.335913 cumulative IPC: 0.538783 (Simulation time: 0 hr 17 min 14 sec) 
Heartbeat CPU 0 instructions: 406000001 cycles: 753146214 heartbeat IPC: 0.339603 cumulative IPC: 0.538004 (Simulation time: 0 hr 17 min 16 sec) 
Heartbeat CPU 0 instructions: 407000000 cycles: 755992543 heartbeat IPC: 0.351329 cumulative IPC: 0.537301 (Simulation time: 0 hr 17 min 18 sec) 
Heartbeat CPU 0 instructions: 408000003 cycles: 756525047 heartbeat IPC: 1.87793 cumulative IPC: 0.538245 (Simulation time: 0 hr 17 min 20 sec) 
Heartbeat CPU 0 instructions: 409000001 cycles: 757057426 heartbeat IPC: 1.87836 cumulative IPC: 0.539188 (Simulation time: 0 hr 17 min 21 sec) 
Heartbeat CPU 0 instructions: 410000000 cycles: 757589776 heartbeat IPC: 1.87846 cumulative IPC: 0.540129 (Simulation time: 0 hr 17 min 22 sec) 
Heartbeat CPU 0 instructions: 411000002 cycles: 758121857 heartbeat IPC: 1.87942 cumulative IPC: 0.54107 (Simulation time: 0 hr 17 min 24 sec) 
Heartbeat CPU 0 instructions: 412000002 cycles: 758667932 heartbeat IPC: 1.83125 cumulative IPC: 0.541999 (Simulation time: 0 hr 17 min 25 sec) 
Heartbeat CPU 0 instructions: 413000001 cycles: 759199215 heartbeat IPC: 1.88223 cumulative IPC: 0.542937 (Simulation time: 0 hr 17 min 27 sec) 
Heartbeat CPU 0 instructions: 414000002 cycles: 759731094 heartbeat IPC: 1.88013 cumulative IPC: 0.543874 (Simulation time: 0 hr 17 min 28 sec) 
Heartbeat CPU 0 instructions: 415000002 cycles: 760263945 heartbeat IPC: 1.8767 cumulative IPC: 0.544808 (Simulation time: 0 hr 17 min 30 sec) 
Heartbeat CPU 0 instructions: 416000001 cycles: 760797425 heartbeat IPC: 1.87448 cumulative IPC: 0.545741 (Simulation time: 0 hr 17 min 31 sec) 
Heartbeat CPU 0 instructions: 417000002 cycles: 761325680 heartbeat IPC: 1.89303 cumulative IPC: 0.546677 (Simulation time: 0 hr 17 min 33 sec) 
Heartbeat CPU 0 instructions: 418000000 cycles: 761858730 heartbeat IPC: 1.87599 cumulative IPC: 0.547607 (Simulation time: 0 hr 17 min 34 sec) 
Heartbeat CPU 0 instructions: 419000001 cycles: 762390206 heartbeat IPC: 1.88155 cumulative IPC: 0.548537 (Simulation time: 0 hr 17 min 35 sec) 
Heartbeat CPU 0 instructions: 420000002 cycles: 765373280 heartbeat IPC: 0.335225 cumulative IPC: 0.547706 (Simulation time: 0 hr 17 min 38 sec) 
Heartbeat CPU 0 instructions: 421000000 cycles: 767915017 heartbeat IPC: 0.393431 cumulative IPC: 0.547195 (Simulation time: 0 hr 17 min 40 sec) 
Heartbeat CPU 0 instructions: 422000001 cycles: 768868644 heartbeat IPC: 1.04863 cumulative IPC: 0.547817 (Simulation time: 0 hr 17 min 41 sec) 
Heartbeat CPU 0 instructions: 423000001 cycles: 771853035 heartbeat IPC: 0.335077 cumulative IPC: 0.546994 (Simulation time: 0 hr 17 min 44 sec) 
Heartbeat CPU 0 instructions: 424000000 cycles: 774741363 heartbeat IPC: 0.346221 cumulative IPC: 0.546245 (Simulation time: 0 hr 17 min 46 sec) 
Heartbeat CPU 0 instructions: 425000002 cycles: 777461484 heartbeat IPC: 0.367631 cumulative IPC: 0.54562 (Simulation time: 0 hr 17 min 48 sec) 
Heartbeat CPU 0 instructions: 426000001 cycles: 778219371 heartbeat IPC: 1.31946 cumulative IPC: 0.546374 (Simulation time: 0 hr 17 min 50 sec) 
Heartbeat CPU 0 instructions: 427000002 cycles: 781116937 heartbeat IPC: 0.345118 cumulative IPC: 0.545627 (Simulation time: 0 hr 17 min 52 sec) 
Heartbeat CPU 0 instructions: 428000002 cycles: 784031062 heartbeat IPC: 0.343156 cumulative IPC: 0.544874 (Simulation time: 0 hr 17 min 54 sec) 
Heartbeat CPU 0 instructions: 429000000 cycles: 786987171 heartbeat IPC: 0.338282 cumulative IPC: 0.544098 (Simulation time: 0 hr 17 min 57 sec) 
Heartbeat CPU 0 instructions: 430000000 cycles: 787569040 heartbeat IPC: 1.7186 cumulative IPC: 0.544966 (Simulation time: 0 hr 17 min 58 sec) 
Heartbeat CPU 0 instructions: 431000001 cycles: 790461617 heartbeat IPC: 0.345713 cumulative IPC: 0.544236 (Simulation time: 0 hr 18 min 0 sec) 
Heartbeat CPU 0 instructions: 432000001 cycles: 793363229 heartbeat IPC: 0.344636 cumulative IPC: 0.543506 (Simulation time: 0 hr 18 min 3 sec) 
Heartbeat CPU 0 instructions: 433000002 cycles: 796257438 heartbeat IPC: 0.345518 cumulative IPC: 0.542786 (Simulation time: 0 hr 18 min 5 sec) 
Heartbeat CPU 0 instructions: 434000001 cycles: 796989527 heartbeat IPC: 1.36595 cumulative IPC: 0.543543 (Simulation time: 0 hr 18 min 6 sec) 
Heartbeat CPU 0 instructions: 435000001 cycles: 799765253 heartbeat IPC: 0.360266 cumulative IPC: 0.542906 (Simulation time: 0 hr 18 min 9 sec) 
Heartbeat CPU 0 instructions: 436000002 cycles: 802766790 heartbeat IPC: 0.333163 cumulative IPC: 0.542122 (Simulation time: 0 hr 18 min 11 sec) 
Heartbeat CPU 0 instructions: 437000002 cycles: 805698037 heartbeat IPC: 0.341152 cumulative IPC: 0.54139 (Simulation time: 0 hr 18 min 13 sec) 
Heartbeat CPU 0 instructions: 438000001 cycles: 806314521 heartbeat IPC: 1.6221 cumulative IPC: 0.542217 (Simulation time: 0 hr 18 min 15 sec) 
Heartbeat CPU 0 instructions: 439000000 cycles: 809172115 heartbeat IPC: 0.349944 cumulative IPC: 0.541537 (Simulation time: 0 hr 18 min 17 sec) 
Heartbeat CPU 0 instructions: 440000000 cycles: 812071792 heartbeat IPC: 0.344866 cumulative IPC: 0.540835 (Simulation time: 0 hr 18 min 19 sec) 
Heartbeat CPU 0 instructions: 441000001 cycles: 814999357 heartbeat IPC: 0.341581 cumulative IPC: 0.540119 (Simulation time: 0 hr 18 min 22 sec) 
Heartbeat CPU 0 instructions: 442000002 cycles: 815548874 heartbeat IPC: 1.81978 cumulative IPC: 0.540981 (Simulation time: 0 hr 18 min 23 sec) 
Heartbeat CPU 0 instructions: 443000002 cycles: 820927242 heartbeat IPC: 0.18593 cumulative IPC: 0.538654 (Simulation time: 0 hr 18 min 26 sec) 
Heartbeat CPU 0 instructions: 444000002 cycles: 821461444 heartbeat IPC: 1.87195 cumulative IPC: 0.539522 (Simulation time: 0 hr 18 min 28 sec) 
Heartbeat CPU 0 instructions: 445000001 cycles: 821994422 heartbeat IPC: 1.87625 cumulative IPC: 0.540389 (Simulation time: 0 hr 18 min 29 sec) 
Heartbeat CPU 0 instructions: 446000000 cycles: 822526266 heartbeat IPC: 1.88025 cumulative IPC: 0.541256 (Simulation time: 0 hr 18 min 30 sec) 
Heartbeat CPU 0 instructions: 447000002 cycles: 823058279 heartbeat IPC: 1.87966 cumulative IPC: 0.542121 (Simulation time: 0 hr 18 min 32 sec) 
Heartbeat CPU 0 instructions: 448000000 cycles: 823589115 heartbeat IPC: 1.88382 cumulative IPC: 0.542986 (Simulation time: 0 hr 18 min 33 sec) 
Heartbeat CPU 0 instructions: 449000003 cycles: 824120182 heartbeat IPC: 1.88301 cumulative IPC: 0.54385 (Simulation time: 0 hr 18 min 35 sec) 
Heartbeat CPU 0 instructions: 450000002 cycles: 824651415 heartbeat IPC: 1.88241 cumulative IPC: 0.544713 (Simulation time: 0 hr 18 min 36 sec) 

Warmup complete CPU 0 instructions: 450000002 cycles: 824651415 (Simulation time: 0 hr 18 min 36 sec) 

Heartbeat CPU 0 instructions: 451000000 cycles: 825182638 heartbeat IPC: 1.88244 cumulative IPC: 1.88244 (Simulation time: 0 hr 18 min 37 sec) 
Heartbeat CPU 0 instructions: 452000000 cycles: 825715613 heartbeat IPC: 1.87626 cumulative IPC: 1.87935 (Simulation time: 0 hr 18 min 39 sec) 
Heartbeat CPU 0 instructions: 453000001 cycles: 826263670 heartbeat IPC: 1.82463 cumulative IPC: 1.86075 (Simulation time: 0 hr 18 min 40 sec) 
Heartbeat CPU 0 instructions: 454000001 cycles: 826793837 heartbeat IPC: 1.8862 cumulative IPC: 1.86705 (Simulation time: 0 hr 18 min 42 sec) 
Heartbeat CPU 0 instructions: 455000000 cycles: 827322753 heartbeat IPC: 1.89066 cumulative IPC: 1.87172 (Simulation time: 0 hr 18 min 43 sec) 
Heartbeat CPU 0 instructions: 456000000 cycles: 829803253 heartbeat IPC: 0.403145 cumulative IPC: 1.16463 (Simulation time: 0 hr 18 min 45 sec) 
Heartbeat CPU 0 instructions: 457000001 cycles: 830893724 heartbeat IPC: 0.917036 cumulative IPC: 1.12138 (Simulation time: 0 hr 18 min 47 sec) 
Heartbeat CPU 0 instructions: 458000001 cycles: 833867063 heartbeat IPC: 0.336322 cumulative IPC: 0.868089 (Simulation time: 0 hr 18 min 49 sec) 
Heartbeat CPU 0 instructions: 459000000 cycles: 836842949 heartbeat IPC: 0.336034 cumulative IPC: 0.738217 (Simulation time: 0 hr 18 min 52 sec) 
Heartbeat CPU 0 instructions: 460000002 cycles: 839498290 heartbeat IPC: 0.3766 cumulative IPC: 0.673542 (Simulation time: 0 hr 18 min 54 sec) 
Heartbeat CPU 0 instructions: 461000002 cycles: 840362866 heartbeat IPC: 1.15664 cumulative IPC: 0.700126 (Simulation time: 0 hr 18 min 56 sec) 
Heartbeat CPU 0 instructions: 462000000 cycles: 843329538 heartbeat IPC: 0.337077 cumulative IPC: 0.642463 (Simulation time: 0 hr 18 min 58 sec) 
Heartbeat CPU 0 instructions: 463000002 cycles: 846303939 heartbeat IPC: 0.336203 cumulative IPC: 0.600392 (Simulation time: 0 hr 19 min 0 sec) 
Heartbeat CPU 0 instructions: 464000002 cycles: 849171941 heartbeat IPC: 0.348675 cumulative IPC: 0.57095 (Simulation time: 0 hr 19 min 3 sec) 
Heartbeat CPU 0 instructions: 465000003 cycles: 849824018 heartbeat IPC: 1.53356 cumulative IPC: 0.595886 (Simulation time: 0 hr 19 min 4 sec) 
Heartbeat CPU 0 instructions: 466000000 cycles: 852780903 heartbeat IPC: 0.338193 cumulative IPC: 0.568798 (Simulation time: 0 hr 19 min 7 sec) 
Heartbeat CPU 0 instructions: 467000001 cycles: 855668074 heartbeat IPC: 0.34636 cumulative IPC: 0.548093 (Simulation time: 0 hr 19 min 11 sec) 
Heartbeat CPU 0 instructions: 468000002 cycles: 858629155 heartbeat IPC: 0.337715 cumulative IPC: 0.529759 (Simulation time: 0 hr 19 min 15 sec) 
Heartbeat CPU 0 instructions: 469000000 cycles: 859330255 heartbeat IPC: 1.42633 cumulative IPC: 0.547884 (Simulation time: 0 hr 19 min 17 sec) 
Heartbeat CPU 0 instructions: 470000003 cycles: 862098898 heartbeat IPC: 0.361189 cumulative IPC: 0.534081 (Simulation time: 0 hr 19 min 21 sec) 
Heartbeat CPU 0 instructions: 471000001 cycles: 865049986 heartbeat IPC: 0.338857 cumulative IPC: 0.51982 (Simulation time: 0 hr 19 min 25 sec) 
Heartbeat CPU 0 instructions: 472000000 cycles: 867936472 heartbeat IPC: 0.346442 cumulative IPC: 0.508259 (Simulation time: 0 hr 19 min 29 sec) 
Heartbeat CPU 0 instructions: 473000000 cycles: 868559282 heartbeat IPC: 1.60563 cumulative IPC: 0.523824 (Simulation time: 0 hr 19 min 31 sec) 
Heartbeat CPU 0 instructions: 474000001 cycles: 871444199 heartbeat IPC: 0.346631 cumulative IPC: 0.5129 (Simulation time: 0 hr 19 min 33 sec) 
Heartbeat CPU 0 instructions: 475000001 cycles: 874370140 heartbeat IPC: 0.34177 cumulative IPC: 0.502829 (Simulation time: 0 hr 19 min 35 sec) 
Heartbeat CPU 0 instructions: 476000001 cycles: 877306529 heartbeat IPC: 0.340554 cumulative IPC: 0.493779 (Simulation time: 0 hr 19 min 38 sec) 
Heartbeat CPU 0 instructions: 477000002 cycles: 877855909 heartbeat IPC: 1.82024 cumulative IPC: 0.507476 (Simulation time: 0 hr 19 min 39 sec) 
Heartbeat CPU 0 instructions: 478000002 cycles: 880807995 heartbeat IPC: 0.338744 cumulative IPC: 0.498606 (Simulation time: 0 hr 19 min 42 sec) 
Heartbeat CPU 0 instructions: 479000000 cycles: 885976178 heartbeat IPC: 0.193491 cumulative IPC: 0.472892 (Simulation time: 0 hr 19 min 45 sec) 
Heartbeat CPU 0 instructions: 480000000 cycles: 886557063 heartbeat IPC: 1.72151 cumulative IPC: 0.484608 (Simulation time: 0 hr 19 min 46 sec) 
Heartbeat CPU 0 instructions: 481000001 cycles: 887103497 heartbeat IPC: 1.83005 cumulative IPC: 0.496381 (Simulation time: 0 hr 19 min 48 sec) 
Heartbeat CPU 0 instructions: 482000000 cycles: 887637175 heartbeat IPC: 1.87379 cumulative IPC: 0.508051 (Simulation time: 0 hr 19 min 49 sec) 
Heartbeat CPU 0 instructions: 483000003 cycles: 888169226 heartbeat IPC: 1.87952 cumulative IPC: 0.519539 (Simulation time: 0 hr 19 min 51 sec) 
Heartbeat CPU 0 instructions: 484000000 cycles: 888701368 heartbeat IPC: 1.87919 cumulative IPC: 0.530836 (Simulation time: 0 hr 19 min 54 sec) 
Heartbeat CPU 0 instructions: 485000002 cycles: 889232873 heartbeat IPC: 1.88145 cumulative IPC: 0.541951 (Simulation time: 0 hr 19 min 56 sec) 
Heartbeat CPU 0 instructions: 486000003 cycles: 889764209 heartbeat IPC: 1.88205 cumulative IPC: 0.552887 (Simulation time: 0 hr 19 min 59 sec) 
Heartbeat CPU 0 instructions: 487000003 cycles: 890296224 heartbeat IPC: 1.87965 cumulative IPC: 0.563639 (Simulation time: 0 hr 20 min 1 sec) 
Heartbeat CPU 0 instructions: 488000002 cycles: 890827016 heartbeat IPC: 1.88398 cumulative IPC: 0.57423 (Simulation time: 0 hr 20 min 3 sec) 
Heartbeat CPU 0 instructions: 489000002 cycles: 891360764 heartbeat IPC: 1.87354 cumulative IPC: 0.584626 (Simulation time: 0 hr 20 min 5 sec) 
Heartbeat CPU 0 instructions: 490000001 cycles: 891892607 heartbeat IPC: 1.88025 cumulative IPC: 0.594873 (Simulation time: 0 hr 20 min 6 sec) 
Heartbeat CPU 0 instructions: 491000001 cycles: 892421403 heartbeat IPC: 1.89109 cumulative IPC: 0.604988 (Simulation time: 0 hr 20 min 9 sec) 
Heartbeat CPU 0 instructions: 492000000 cycles: 892951580 heartbeat IPC: 1.88616 cumulative IPC: 0.614933 (Simulation time: 0 hr 20 min 11 sec) 
Heartbeat CPU 0 instructions: 493000002 cycles: 895953396 heartbeat IPC: 0.333132 cumulative IPC: 0.603069 (Simulation time: 0 hr 20 min 15 sec) 
Heartbeat CPU 0 instructions: 494000001 cycles: 898913454 heartbeat IPC: 0.337831 cumulative IPC: 0.592497 (Simulation time: 0 hr 20 min 19 sec) 
Heartbeat CPU 0 instructions: 495000000 cycles: 901443333 heartbeat IPC: 0.395275 cumulative IPC: 0.585999 (Simulation time: 0 hr 20 min 23 sec) 
Heartbeat CPU 0 instructions: 496000000 cycles: 902421815 heartbeat IPC: 1.02199 cumulative IPC: 0.591485 (Simulation time: 0 hr 20 min 26 sec) 
Heartbeat CPU 0 instructions: 497000002 cycles: 905348948 heartbeat IPC: 0.341632 cumulative IPC: 0.582422 (Simulation time: 0 hr 20 min 29 sec) 
Heartbeat CPU 0 instructions: 498000000 cycles: 908325099 heartbeat IPC: 0.336004 cumulative IPC: 0.573657 (Simulation time: 0 hr 20 min 33 sec) 
Heartbeat CPU 0 instructions: 499000002 cycles: 911004152 heartbeat IPC: 0.373267 cumulative IPC: 0.56744 (Simulation time: 0 hr 20 min 37 sec) 
Heartbeat CPU 0 instructions: 500000000 cycles: 911783884 heartbeat IPC: 1.28249 cumulative IPC: 0.573839 (Simulation time: 0 hr 20 min 40 sec) 
Heartbeat CPU 0 instructions: 501000001 cycles: 914771756 heartbeat IPC: 0.334687 cumulative IPC: 0.56591 (Simulation time: 0 hr 20 min 44 sec) 
Heartbeat CPU 0 instructions: 502000001 cycles: 917702279 heartbeat IPC: 0.341236 cumulative IPC: 0.558834 (Simulation time: 0 hr 20 min 48 sec) 
Heartbeat CPU 0 instructions: 503000001 cycles: 920598462 heartbeat IPC: 0.345282 cumulative IPC: 0.552388 (Simulation time: 0 hr 20 min 51 sec) 
Heartbeat CPU 0 instructions: 504000000 cycles: 921170165 heartbeat IPC: 1.74916 cumulative IPC: 0.559477 (Simulation time: 0 hr 20 min 54 sec) 
Heartbeat CPU 0 instructions: 505000001 cycles: 924116435 heartbeat IPC: 0.339413 cumulative IPC: 0.552958 (Simulation time: 0 hr 20 min 58 sec) 
Heartbeat CPU 0 instructions: 506000000 cycles: 927043949 heartbeat IPC: 0.341586 cumulative IPC: 0.546915 (Simulation time: 0 hr 21 min 2 sec) 
Heartbeat CPU 0 instructions: 507000001 cycles: 929973412 heartbeat IPC: 0.34136 cumulative IPC: 0.541197 (Simulation time: 0 hr 21 min 5 sec) 
Heartbeat CPU 0 instructions: 508000001 cycles: 930569653 heartbeat IPC: 1.67717 cumulative IPC: 0.547592 (Simulation time: 0 hr 21 min 8 sec) 
Heartbeat CPU 0 instructions: 509000000 cycles: 933469527 heartbeat IPC: 0.344842 cumulative IPC: 0.542189 (Simulation time: 0 hr 21 min 12 sec) 
Heartbeat CPU 0 instructions: 510000001 cycles: 936429029 heartbeat IPC: 0.337895 cumulative IPC: 0.53678 (Simulation time: 0 hr 21 min 16 sec) 
Heartbeat CPU 0 instructions: 511000002 cycles: 939349057 heartbeat IPC: 0.342463 cumulative IPC: 0.531833 (Simulation time: 0 hr 21 min 20 sec) 
Heartbeat CPU 0 instructions: 512000002 cycles: 939899539 heartbeat IPC: 1.81659 cumulative IPC: 0.53797 (Simulation time: 0 hr 21 min 22 sec) 
Heartbeat CPU 0 instructions: 513000003 cycles: 942865122 heartbeat IPC: 0.337202 cumulative IPC: 0.532933 (Simulation time: 0 hr 21 min 26 sec) 
Heartbeat CPU 0 instructions: 514000002 cycles: 945815269 heartbeat IPC: 0.338966 cumulative IPC: 0.52821 (Simulation time: 0 hr 21 min 28 sec) 
Heartbeat CPU 0 instructions: 515000000 cycles: 948659217 heartbeat IPC: 0.351623 cumulative IPC: 0.524161 (Simulation time: 0 hr 21 min 30 sec) 
Heartbeat CPU 0 instructions: 516000000 cycles: 951733469 heartbeat IPC: 0.325282 cumulative IPC: 0.519349 (Simulation time: 0 hr 21 min 33 sec) 
Heartbeat CPU 0 instructions: 517000000 cycles: 952265010 heartbeat IPC: 1.88132 cumulative IPC: 0.525022 (Simulation time: 0 hr 21 min 34 sec) 
Heartbeat CPU 0 instructions: 518000002 cycles: 952797463 heartbeat IPC: 1.8781 cumulative IPC: 0.530645 (Simulation time: 0 hr 21 min 36 sec) 
Heartbeat CPU 0 instructions: 519000003 cycles: 953328807 heartbeat IPC: 1.88202 cumulative IPC: 0.536225 (Simulation time: 0 hr 21 min 38 sec) 
Heartbeat CPU 0 instructions: 520000000 cycles: 953861656 heartbeat IPC: 1.8767 cumulative IPC: 0.541753 (Simulation time: 0 hr 21 min 40 sec) 
Heartbeat CPU 0 instructions: 521000002 cycles: 954402978 heartbeat IPC: 1.84733 cumulative IPC: 0.5472 (Simulation time: 0 hr 21 min 43 sec) 
Heartbeat CPU 0 instructions: 522000000 cycles: 954937844 heartbeat IPC: 1.86962 cumulative IPC: 0.552629 (Simulation time: 0 hr 21 min 45 sec) 
Heartbeat CPU 0 instructions: 523000002 cycles: 955469457 heartbeat IPC: 1.88107 cumulative IPC: 0.558027 (Simulation time: 0 hr 21 min 48 sec) 
Heartbeat CPU 0 instructions: 524000002 cycles: 956001665 heartbeat IPC: 1.87896 cumulative IPC: 0.563379 (Simulation time: 0 hr 21 min 50 sec) 
Heartbeat CPU 0 instructions: 525000000 cycles: 956534102 heartbeat IPC: 1.87815 cumulative IPC: 0.568687 (Simulation time: 0 hr 21 min 53 sec) 
Heartbeat CPU 0 instructions: 526000001 cycles: 957063395 heartbeat IPC: 1.88931 cumulative IPC: 0.573966 (Simulation time: 0 hr 21 min 55 sec) 
Heartbeat CPU 0 instructions: 527000002 cycles: 957593046 heartbeat IPC: 1.88804 cumulative IPC: 0.579202 (Simulation time: 0 hr 21 min 57 sec) 
Heartbeat CPU 0 instructions: 528000000 cycles: 958120726 heartbeat IPC: 1.89508 cumulative IPC: 0.584404 (Simulation time: 0 hr 21 min 58 sec) 
Heartbeat CPU 0 instructions: 529000002 cycles: 961164132 heartbeat IPC: 0.32858 cumulative IPC: 0.578701 (Simulation time: 0 hr 22 min 1 sec) 
Heartbeat CPU 0 instructions: 530000001 cycles: 963603509 heartbeat IPC: 0.40994 cumulative IPC: 0.575738 (Simulation time: 0 hr 22 min 3 sec) 
Heartbeat CPU 0 instructions: 531000000 cycles: 964691628 heartbeat IPC: 0.919016 cumulative IPC: 0.578405 (Simulation time: 0 hr 22 min 5 sec) 
Heartbeat CPU 0 instructions: 532000001 cycles: 967674187 heartbeat IPC: 0.335283 cumulative IPC: 0.573335 (Simulation time: 0 hr 22 min 7 sec) 
Heartbeat CPU 0 instructions: 533000000 cycles: 970649649 heartbeat IPC: 0.336082 cumulative IPC: 0.5685 (Simulation time: 0 hr 22 min 9 sec) 
Heartbeat CPU 0 instructions: 534000001 cycles: 973289050 heartbeat IPC: 0.378874 cumulative IPC: 0.565133 (Simulation time: 0 hr 22 min 12 sec) 
Heartbeat CPU 0 instructions: 535000001 cycles: 974178052 heartbeat IPC: 1.12486 cumulative IPC: 0.568461 (Simulation time: 0 hr 22 min 13 sec) 
Heartbeat CPU 0 instructions: 536000001 cycles: 977130327 heartbeat IPC: 0.338722 cumulative IPC: 0.564012 (Simulation time: 0 hr 22 min 16 sec) 
Heartbeat CPU 0 instructions: 537000002 cycles: 980173294 heartbeat IPC: 0.328627 cumulative IPC: 0.559407 (Simulation time: 0 hr 22 min 18 sec) 
Heartbeat CPU 0 instructions: 538000001 cycles: 983023803 heartbeat IPC: 0.350814 cumulative IPC: 0.555652 (Simulation time: 0 hr 22 min 22 sec) 
Heartbeat CPU 0 instructions: 539000000 cycles: 983681272 heartbeat IPC: 1.52098 cumulative IPC: 0.559643 (Simulation time: 0 hr 22 min 25 sec) 
Heartbeat CPU 0 instructions: 540000000 cycles: 986679043 heartbeat IPC: 0.333581 cumulative IPC: 0.555461 (Simulation time: 0 hr 22 min 29 sec) 
Heartbeat CPU 0 instructions: 541000003 cycles: 989601959 heartbeat IPC: 0.342125 cumulative IPC: 0.551681 (Simulation time: 0 hr 22 min 33 sec) 
Heartbeat CPU 0 instructions: 542000003 cycles: 992523348 heartbeat IPC: 0.342303 cumulative IPC: 0.548037 (Simulation time: 0 hr 22 min 37 sec) 
Heartbeat CPU 0 instructions: 543000002 cycles: 993153414 heartbeat IPC: 1.58713 cumulative IPC: 0.551922 (Simulation time: 0 hr 22 min 39 sec) 
Heartbeat CPU 0 instructions: 544000003 cycles: 996044157 heartbeat IPC: 0.345932 cumulative IPC: 0.548448 (Simulation time: 0 hr 22 min 43 sec) 
Heartbeat CPU 0 instructions: 545000001 cycles: 999052251 heartbeat IPC: 0.332436 cumulative IPC: 0.544722 (Simulation time: 0 hr 22 min 46 sec) 
Heartbeat CPU 0 instructions: 546000003 cycles: 1001945450 heartbeat IPC: 0.345639 cumulative IPC: 0.541473 (Simulation time: 0 hr 22 min 48 sec) 
Heartbeat CPU 0 instructions: 547000001 cycles: 1002493963 heartbeat IPC: 1.82311 cumulative IPC: 0.545426 (Simulation time: 0 hr 22 min 49 sec) 
Heartbeat CPU 0 instructions: 548000002 cycles: 1005476870 heartbeat IPC: 0.335244 cumulative IPC: 0.541959 (Simulation time: 0 hr 22 min 52 sec) 
Heartbeat CPU 0 instructions: 549000000 cycles: 1008472034 heartbeat IPC: 0.333871 cumulative IPC: 0.538568 (Simulation time: 0 hr 22 min 54 sec) 
[...]
Heartbeat CPU 0 instructions: 834000000 cycles: 2441021842 heartbeat IPC: 0.151959 cumulative IPC: 0.237569 (Simulation time: 0 hr 42 min 57 sec) 
Heartbeat CPU 0 instructions: 835000001 cycles: 2447697590 heartbeat IPC: 0.149796 cumulative IPC: 0.237208 (Simulation time: 0 hr 43 min 1 sec) 
Heartbeat CPU 0 instructions: 836000000 cycles: 2454373629 heartbeat IPC: 0.149789 cumulative IPC: 0.23685 (Simulation time: 0 hr 43 min 5 sec) 
Heartbeat CPU 0 instructions: 837000001 cycles: 2461089551 heartbeat IPC: 0.1489 cumulative IPC: 0.236489 (Simulation time: 0 hr 43 min 10 sec) 
Heartbeat CPU 0 instructions: 838000000 cycles: 2468430848 heartbeat IPC: 0.136216 cumulative IPC: 0.236041 (Simulation time: 0 hr 43 min 14 sec) 
Heartbeat CPU 0 instructions: 839000000 cycles: 2475050449 heartbeat IPC: 0.151067 cumulative IPC: 0.235701 (Simulation time: 0 hr 43 min 18 sec) 
Heartbeat CPU 0 instructions: 840000001 cycles: 2481748206 heartbeat IPC: 0.149304 cumulative IPC: 0.235351 (Simulation time: 0 hr 43 min 23 sec) 
Heartbeat CPU 0 instructions: 841000002 cycles: 2488482159 heartbeat IPC: 0.148501 cumulative IPC: 0.235 (Simulation time: 0 hr 43 min 29 sec) 
Heartbeat CPU 0 instructions: 842000001 cycles: 2495162854 heartbeat IPC: 0.149685 cumulative IPC: 0.234659 (Simulation time: 0 hr 43 min 36 sec) 
Heartbeat CPU 0 instructions: 843000001 cycles: 2501855652 heartbeat IPC: 0.149414 cumulative IPC: 0.234319 (Simulation time: 0 hr 43 min 42 sec) 
Heartbeat CPU 0 instructions: 844000002 cycles: 2508386420 heartbeat IPC: 0.153122 cumulative IPC: 0.234004 (Simulation time: 0 hr 43 min 48 sec) 
Heartbeat CPU 0 instructions: 845000001 cycles: 2514998081 heartbeat IPC: 0.151248 cumulative IPC: 0.23368 (Simulation time: 0 hr 43 min 51 sec) 
Heartbeat CPU 0 instructions: 846000000 cycles: 2521648980 heartbeat IPC: 0.150355 cumulative IPC: 0.233353 (Simulation time: 0 hr 43 min 57 sec) 
Heartbeat CPU 0 instructions: 847000000 cycles: 2528526827 heartbeat IPC: 0.145394 cumulative IPC: 0.232998 (Simulation time: 0 hr 44 min 2 sec) 
Heartbeat CPU 0 instructions: 848000001 cycles: 2535595672 heartbeat IPC: 0.141466 cumulative IPC: 0.23262 (Simulation time: 0 hr 44 min 6 sec) 
Heartbeat CPU 0 instructions: 849000000 cycles: 2542329195 heartbeat IPC: 0.148511 cumulative IPC: 0.23229 (Simulation time: 0 hr 44 min 10 sec) 
Heartbeat CPU 0 instructions: 850000001 cycles: 2548962157 heartbeat IPC: 0.150762 cumulative IPC: 0.231977 (Simulation time: 0 hr 44 min 14 sec) 
Heartbeat CPU 0 instructions: 851000000 cycles: 2555257564 heartbeat IPC: 0.158846 cumulative IPC: 0.231711 (Simulation time: 0 hr 44 min 18 sec) 
Heartbeat CPU 0 instructions: 852000002 cycles: 2561901635 heartbeat IPC: 0.15051 cumulative IPC: 0.2314 (Simulation time: 0 hr 44 min 21 sec) 
Heartbeat CPU 0 instructions: 853000001 cycles: 2568525952 heartbeat IPC: 0.150959 cumulative IPC: 0.231095 (Simulation time: 0 hr 44 min 25 sec) 
Heartbeat CPU 0 instructions: 854000002 cycles: 2575219816 heartbeat IPC: 0.149391 cumulative IPC: 0.230782 (Simulation time: 0 hr 44 min 29 sec) 
Heartbeat CPU 0 instructions: 855000000 cycles: 2582503460 heartbeat IPC: 0.137294 cumulative IPC: 0.230395 (Simulation time: 0 hr 44 min 33 sec) 
Heartbeat CPU 0 instructions: 856000001 cycles: 2589042488 heartbeat IPC: 0.152928 cumulative IPC: 0.230108 (Simulation time: 0 hr 44 min 36 sec) 
Heartbeat CPU 0 instructions: 857000000 cycles: 2595734762 heartbeat IPC: 0.149426 cumulative IPC: 0.229803 (Simulation time: 0 hr 44 min 40 sec) 
Heartbeat CPU 0 instructions: 858000000 cycles: 2602414614 heartbeat IPC: 0.149704 cumulative IPC: 0.229502 (Simulation time: 0 hr 44 min 46 sec) 
Heartbeat CPU 0 instructions: 859000000 cycles: 2609114175 heartbeat IPC: 0.149264 cumulative IPC: 0.229201 (Simulation time: 0 hr 44 min 50 sec) 
Heartbeat CPU 0 instructions: 860000001 cycles: 2615818595 heartbeat IPC: 0.149155 cumulative IPC: 0.228901 (Simulation time: 0 hr 44 min 54 sec) 
Heartbeat CPU 0 instructions: 861000000 cycles: 2622327639 heartbeat IPC: 0.153632 cumulative IPC: 0.228628 (Simulation time: 0 hr 44 min 57 sec) 
Heartbeat CPU 0 instructions: 862000000 cycles: 2628942697 heartbeat IPC: 0.15117 cumulative IPC: 0.228345 (Simulation time: 0 hr 45 min 1 sec) 
Heartbeat CPU 0 instructions: 863000001 cycles: 2635576929 heartbeat IPC: 0.150734 cumulative IPC: 0.22806 (Simulation time: 0 hr 45 min 7 sec) 
Heartbeat CPU 0 instructions: 864000000 cycles: 2642199053 heartbeat IPC: 0.151009 cumulative IPC: 0.227779 (Simulation time: 0 hr 45 min 10 sec) 
Heartbeat CPU 0 instructions: 865000000 cycles: 2648870367 heartbeat IPC: 0.149896 cumulative IPC: 0.227495 (Simulation time: 0 hr 45 min 14 sec) 
Heartbeat CPU 0 instructions: 866000002 cycles: 2656245387 heartbeat IPC: 0.135593 cumulative IPC: 0.227125 (Simulation time: 0 hr 45 min 18 sec) 
Heartbeat CPU 0 instructions: 867000001 cycles: 2662788645 heartbeat IPC: 0.152829 cumulative IPC: 0.22686 (Simulation time: 0 hr 45 min 22 sec) 
Heartbeat CPU 0 instructions: 868000002 cycles: 2669453926 heartbeat IPC: 0.150031 cumulative IPC: 0.226583 (Simulation time: 0 hr 45 min 25 sec) 
Heartbeat CPU 0 instructions: 869000000 cycles: 2676135280 heartbeat IPC: 0.14967 cumulative IPC: 0.226305 (Simulation time: 0 hr 45 min 29 sec) 
Heartbeat CPU 0 instructions: 870000000 cycles: 2682817079 heartbeat IPC: 0.14966 cumulative IPC: 0.226029 (Simulation time: 0 hr 45 min 35 sec) 
Heartbeat CPU 0 instructions: 871000001 cycles: 2689514360 heartbeat IPC: 0.149314 cumulative IPC: 0.225754 (Simulation time: 0 hr 45 min 39 sec) 
Heartbeat CPU 0 instructions: 872000000 cycles: 2696006340 heartbeat IPC: 0.154036 cumulative IPC: 0.225505 (Simulation time: 0 hr 45 min 43 sec) 
Heartbeat CPU 0 instructions: 873000002 cycles: 2702619961 heartbeat IPC: 0.151203 cumulative IPC: 0.225243 (Simulation time: 0 hr 45 min 46 sec) 
Heartbeat CPU 0 instructions: 874000000 cycles: 2709222926 heartbeat IPC: 0.151447 cumulative IPC: 0.224985 (Simulation time: 0 hr 45 min 50 sec) 
Heartbeat CPU 0 instructions: 875000001 cycles: 2716000226 heartbeat IPC: 0.147552 cumulative IPC: 0.224707 (Simulation time: 0 hr 45 min 54 sec) 
Heartbeat CPU 0 instructions: 876000003 cycles: 2723178414 heartbeat IPC: 0.139311 cumulative IPC: 0.224384 (Simulation time: 0 hr 45 min 57 sec) 
Heartbeat CPU 0 instructions: 877000001 cycles: 2729915277 heartbeat IPC: 0.148437 cumulative IPC: 0.224116 (Simulation time: 0 hr 46 min 1 sec) 
Heartbeat CPU 0 instructions: 878000001 cycles: 2736569419 heartbeat IPC: 0.150282 cumulative IPC: 0.223859 (Simulation time: 0 hr 46 min 4 sec) 
Heartbeat CPU 0 instructions: 879000002 cycles: 2743158303 heartbeat IPC: 0.151771 cumulative IPC: 0.223611 (Simulation time: 0 hr 46 min 8 sec) 
Heartbeat CPU 0 instructions: 880000000 cycles: 2749765888 heartbeat IPC: 0.151341 cumulative IPC: 0.223363 (Simulation time: 0 hr 46 min 11 sec) 
Heartbeat CPU 0 instructions: 881000000 cycles: 2756398074 heartbeat IPC: 0.15078 cumulative IPC: 0.223114 (Simulation time: 0 hr 46 min 15 sec) 
Heartbeat CPU 0 instructions: 882000000 cycles: 2763089748 heartbeat IPC: 0.149439 cumulative IPC: 0.22286 (Simulation time: 0 hr 46 min 19 sec) 
Heartbeat CPU 0 instructions: 883000000 cycles: 2770158494 heartbeat IPC: 0.141468 cumulative IPC: 0.222564 (Simulation time: 0 hr 46 min 22 sec) 
Heartbeat CPU 0 instructions: 884000001 cycles: 2776783395 heartbeat IPC: 0.150946 cumulative IPC: 0.222321 (Simulation time: 0 hr 46 min 26 sec) 
Heartbeat CPU 0 instructions: 885000002 cycles: 2783423320 heartbeat IPC: 0.150604 cumulative IPC: 0.222078 (Simulation time: 0 hr 46 min 29 sec) 
Heartbeat CPU 0 instructions: 886000000 cycles: 2790040470 heartbeat IPC: 0.151122 cumulative IPC: 0.221839 (Simulation time: 0 hr 46 min 33 sec) 
Heartbeat CPU 0 instructions: 887000000 cycles: 2796805223 heartbeat IPC: 0.147825 cumulative IPC: 0.221585 (Simulation time: 0 hr 46 min 36 sec) 
Heartbeat CPU 0 instructions: 888000000 cycles: 2803534575 heartbeat IPC: 0.148603 cumulative IPC: 0.221337 (Simulation time: 0 hr 46 min 40 sec) 
Heartbeat CPU 0 instructions: 889000000 cycles: 2810096800 heartbeat IPC: 0.152387 cumulative IPC: 0.221109 (Simulation time: 0 hr 46 min 43 sec) 
Heartbeat CPU 0 instructions: 890000000 cycles: 2816673437 heartbeat IPC: 0.152053 cumulative IPC: 0.220881 (Simulation time: 0 hr 46 min 47 sec) 
Heartbeat CPU 0 instructions: 891000000 cycles: 2823292531 heartbeat IPC: 0.151078 cumulative IPC: 0.22065 (Simulation time: 0 hr 46 min 50 sec) 
Heartbeat CPU 0 instructions: 892000000 cycles: 2829912495 heartbeat IPC: 0.151058 cumulative IPC: 0.22042 (Simulation time: 0 hr 46 min 54 sec) 
Heartbeat CPU 0 instructions: 893000002 cycles: 2836629245 heartbeat IPC: 0.148882 cumulative IPC: 0.220181 (Simulation time: 0 hr 46 min 57 sec) 
Heartbeat CPU 0 instructions: 894000000 cycles: 2843905746 heartbeat IPC: 0.137428 cumulative IPC: 0.219883 (Simulation time: 0 hr 47 min 1 sec) 
Heartbeat CPU 0 instructions: 895000002 cycles: 2850430151 heartbeat IPC: 0.153271 cumulative IPC: 0.219669 (Simulation time: 0 hr 47 min 5 sec) 
Heartbeat CPU 0 instructions: 896000001 cycles: 2857070546 heartbeat IPC: 0.150593 cumulative IPC: 0.219443 (Simulation time: 0 hr 47 min 10 sec) 
Heartbeat CPU 0 instructions: 897000000 cycles: 2863713603 heartbeat IPC: 0.150533 cumulative IPC: 0.219218 (Simulation time: 0 hr 47 min 16 sec) 
Heartbeat CPU 0 instructions: 898000002 cycles: 2870458781 heartbeat IPC: 0.148254 cumulative IPC: 0.218984 (Simulation time: 0 hr 47 min 22 sec) 
Heartbeat CPU 0 instructions: 899000000 cycles: 2877221316 heartbeat IPC: 0.147873 cumulative IPC: 0.21875 (Simulation time: 0 hr 47 min 29 sec) 
Heartbeat CPU 0 instructions: 900000001 cycles: 2883659336 heartbeat IPC: 0.155327 cumulative IPC: 0.218552 (Simulation time: 0 hr 47 min 35 sec) 
Heartbeat CPU 0 instructions: 901000000 cycles: 2890227525 heartbeat IPC: 0.152249 cumulative IPC: 0.218341 (Simulation time: 0 hr 47 min 40 sec) 
Heartbeat CPU 0 instructions: 902000000 cycles: 2896844304 heartbeat IPC: 0.151131 cumulative IPC: 0.218126 (Simulation time: 0 hr 47 min 46 sec) 
Heartbeat CPU 0 instructions: 903000001 cycles: 2903494802 heartbeat IPC: 0.150365 cumulative IPC: 0.21791 (Simulation time: 0 hr 47 min 49 sec) 
Heartbeat CPU 0 instructions: 904000000 cycles: 2910162875 heartbeat IPC: 0.149968 cumulative IPC: 0.217692 (Simulation time: 0 hr 47 min 53 sec) 
Heartbeat CPU 0 instructions: 905000000 cycles: 2917475362 heartbeat IPC: 0.136752 cumulative IPC: 0.21741 (Simulation time: 0 hr 47 min 59 sec) 
Heartbeat CPU 0 instructions: 906000002 cycles: 2924051756 heartbeat IPC: 0.152059 cumulative IPC: 0.217205 (Simulation time: 0 hr 48 min 5 sec) 
Heartbeat CPU 0 instructions: 907000000 cycles: 2930655922 heartbeat IPC: 0.151419 cumulative IPC: 0.216999 (Simulation time: 0 hr 48 min 11 sec) 
Heartbeat CPU 0 instructions: 908000001 cycles: 2937320311 heartbeat IPC: 0.150051 cumulative IPC: 0.216787 (Simulation time: 0 hr 48 min 17 sec) 
Heartbeat CPU 0 instructions: 909000002 cycles: 2943982181 heartbeat IPC: 0.150108 cumulative IPC: 0.216578 (Simulation time: 0 hr 48 min 23 sec) 
Heartbeat CPU 0 instructions: 910000000 cycles: 2950643523 heartbeat IPC: 0.15012 cumulative IPC: 0.21637 (Simulation time: 0 hr 48 min 30 sec) 
Heartbeat CPU 0 instructions: 911000000 cycles: 2957104965 heartbeat IPC: 0.154764 cumulative IPC: 0.216183 (Simulation time: 0 hr 48 min 36 sec) 
Heartbeat CPU 0 instructions: 912000000 cycles: 2963701901 heartbeat IPC: 0.151586 cumulative IPC: 0.215984 (Simulation time: 0 hr 48 min 39 sec) 
Heartbeat CPU 0 instructions: 913000000 cycles: 2970368696 heartbeat IPC: 0.149997 cumulative IPC: 0.215779 (Simulation time: 0 hr 48 min 43 sec) 
Heartbeat CPU 0 instructions: 914000000 cycles: 2977259441 heartbeat IPC: 0.145122 cumulative IPC: 0.215552 (Simulation time: 0 hr 48 min 49 sec) 
Heartbeat CPU 0 instructions: 915000000 cycles: 2984281601 heartbeat IPC: 0.142406 cumulative IPC: 0.215315 (Simulation time: 0 hr 48 min 55 sec) 
Heartbeat CPU 0 instructions: 916000002 cycles: 2990943395 heartbeat IPC: 0.15011 cumulative IPC: 0.215114 (Simulation time: 0 hr 49 min 1 sec) 
Heartbeat CPU 0 instructions: 917000000 cycles: 2997507249 heartbeat IPC: 0.152349 cumulative IPC: 0.214925 (Simulation time: 0 hr 49 min 7 sec) 
Heartbeat CPU 0 instructions: 918000000 cycles: 3004111238 heartbeat IPC: 0.151424 cumulative IPC: 0.214732 (Simulation time: 0 hr 49 min 13 sec) 
Heartbeat CPU 0 instructions: 919000000 cycles: 3010714344 heartbeat IPC: 0.151444 cumulative IPC: 0.214541 (Simulation time: 0 hr 49 min 19 sec) 
Heartbeat CPU 0 instructions: 920000000 cycles: 3017337534 heartbeat IPC: 0.150985 cumulative IPC: 0.214349 (Simulation time: 0 hr 49 min 25 sec) 
Heartbeat CPU 0 instructions: 921000001 cycles: 3024008107 heartbeat IPC: 0.149912 cumulative IPC: 0.214154 (Simulation time: 0 hr 49 min 31 sec) 
Heartbeat CPU 0 instructions: 922000002 cycles: 3031185878 heartbeat IPC: 0.139319 cumulative IPC: 0.21391 (Simulation time: 0 hr 49 min 37 sec) 
Heartbeat CPU 0 instructions: 923000002 cycles: 3037914267 heartbeat IPC: 0.148624 cumulative IPC: 0.213712 (Simulation time: 0 hr 49 min 43 sec) 
Heartbeat CPU 0 instructions: 924000000 cycles: 3044520503 heartbeat IPC: 0.151372 cumulative IPC: 0.213526 (Simulation time: 0 hr 49 min 49 sec) 
Heartbeat CPU 0 instructions: 925000001 cycles: 3051138185 heartbeat IPC: 0.15111 cumulative IPC: 0.213341 (Simulation time: 0 hr 49 min 55 sec) 
Heartbeat CPU 0 instructions: 926000000 cycles: 3057795428 heartbeat IPC: 0.150212 cumulative IPC: 0.213152 (Simulation time: 0 hr 50 min 1 sec) 
Heartbeat CPU 0 instructions: 927000002 cycles: 3064496834 heartbeat IPC: 0.149223 cumulative IPC: 0.212961 (Simulation time: 0 hr 50 min 7 sec) 
Heartbeat CPU 0 instructions: 928000002 cycles: 3071157285 heartbeat IPC: 0.15014 cumulative IPC: 0.212775 (Simulation time: 0 hr 50 min 12 sec) 
Heartbeat CPU 0 instructions: 929000000 cycles: 3077927308 heartbeat IPC: 0.14771 cumulative IPC: 0.212579 (Simulation time: 0 hr 50 min 15 sec) 
Heartbeat CPU 0 instructions: 930000002 cycles: 3084686596 heartbeat IPC: 0.147945 cumulative IPC: 0.212386 (Simulation time: 0 hr 50 min 19 sec) 
Heartbeat CPU 0 instructions: 931000000 cycles: 3091471305 heartbeat IPC: 0.14739 cumulative IPC: 0.212192 (Simulation time: 0 hr 50 min 24 sec) 
Heartbeat CPU 0 instructions: 932000002 cycles: 3098757461 heartbeat IPC: 0.137247 cumulative IPC: 0.211951 (Simulation time: 0 hr 50 min 28 sec) 
Heartbeat CPU 0 instructions: 933000000 cycles: 3105642868 heartbeat IPC: 0.145234 cumulative IPC: 0.21175 (Simulation time: 0 hr 50 min 32 sec) 
Heartbeat CPU 0 instructions: 934000000 cycles: 3112435003 heartbeat IPC: 0.147229 cumulative IPC: 0.211558 (Simulation time: 0 hr 50 min 36 sec) 
Heartbeat CPU 0 instructions: 935000000 cycles: 3119197199 heartbeat IPC: 0.147881 cumulative IPC: 0.211371 (Simulation time: 0 hr 50 min 40 sec) 
Heartbeat CPU 0 instructions: 936000002 cycles: 3125796488 heartbeat IPC: 0.151532 cumulative IPC: 0.211199 (Simulation time: 0 hr 50 min 43 sec) 
Heartbeat CPU 0 instructions: 937000001 cycles: 3132426167 heartbeat IPC: 0.150837 cumulative IPC: 0.211026 (Simulation time: 0 hr 50 min 47 sec) 
Heartbeat CPU 0 instructions: 938000002 cycles: 3139067085 heartbeat IPC: 0.150582 cumulative IPC: 0.210852 (Simulation time: 0 hr 50 min 50 sec) 
Heartbeat CPU 0 instructions: 939000000 cycles: 3145716711 heartbeat IPC: 0.150384 cumulative IPC: 0.210679 (Simulation time: 0 hr 50 min 54 sec) 
Heartbeat CPU 0 instructions: 940000000 cycles: 3152371342 heartbeat IPC: 0.150271 cumulative IPC: 0.210506 (Simulation time: 0 hr 50 min 58 sec) 
Heartbeat CPU 0 instructions: 941000001 cycles: 3159472233 heartbeat IPC: 0.140828 cumulative IPC: 0.210295 (Simulation time: 0 hr 51 min 2 sec) 
Heartbeat CPU 0 instructions: 942000000 cycles: 3166139326 heartbeat IPC: 0.14999 cumulative IPC: 0.210123 (Simulation time: 0 hr 51 min 6 sec) 
Heartbeat CPU 0 instructions: 943000000 cycles: 3172786115 heartbeat IPC: 0.150449 cumulative IPC: 0.209954 (Simulation time: 0 hr 51 min 12 sec) 
Heartbeat CPU 0 instructions: 944000000 cycles: 3179435496 heartbeat IPC: 0.15039 cumulative IPC: 0.209786 (Simulation time: 0 hr 51 min 19 sec) 
Heartbeat CPU 0 instructions: 945000000 cycles: 3186143665 heartbeat IPC: 0.149072 cumulative IPC: 0.209613 (Simulation time: 0 hr 51 min 25 sec) 
Heartbeat CPU 0 instructions: 946000000 cycles: 3192827544 heartbeat IPC: 0.149614 cumulative IPC: 0.209444 (Simulation time: 0 hr 51 min 32 sec) 
Heartbeat CPU 0 instructions: 947000001 cycles: 3199504527 heartbeat IPC: 0.149768 cumulative IPC: 0.209276 (Simulation time: 0 hr 51 min 38 sec) 
Heartbeat CPU 0 instructions: 948000001 cycles: 3206218267 heartbeat IPC: 0.148948 cumulative IPC: 0.209106 (Simulation time: 0 hr 51 min 44 sec) 
Heartbeat CPU 0 instructions: 949000000 cycles: 3212883739 heartbeat IPC: 0.150027 cumulative IPC: 0.208941 (Simulation time: 0 hr 51 min 50 sec) 
Heartbeat CPU 0 instructions: 950000001 cycles: 3219619171 heartbeat IPC: 0.148469 cumulative IPC: 0.208771 (Simulation time: 0 hr 51 min 56 sec) 
Finished CPU 0 instructions: 500000001 cycles: 2394967757 cumulative IPC: 0.208771 (Simulation time: 0 hr 51 min 56 sec) 

ChampSim completed all CPUs

Region of Interest Statistics

CPU 0 cumulative IPC: 0.208771 instructions: 500000001 cycles: 2394967757
L1D TOTAL     ACCESS:   57713502  HIT:   27629801  MISS:   30083701
L1D LOAD      ACCESS:   49705049  HIT:   19681543  MISS:   30023506
L1D RFO       ACCESS:    8008453  HIT:    7948258  MISS:      60195
L1D PREFETCH  ACCESS:          0  HIT:          0  MISS:          0
L1D WRITEBACK ACCESS:          0  HIT:          0  MISS:          0
L1D PREFETCH  REQUESTED:          0  ISSUED:          0  USEFUL:          0  USELESS:          0
L1D AVERAGE MISS LATENCY: 243.724 cycles
L1I TOTAL     ACCESS:   95456869  HIT:   95432253  MISS:      24616
L1I LOAD      ACCESS:   95456869  HIT:   95432253  MISS:      24616
L1I RFO       ACCESS:          0  HIT:          0  MISS:          0
L1I PREFETCH  ACCESS:          0  HIT:          0  MISS:          0
L1I WRITEBACK ACCESS:          0  HIT:          0  MISS:          0
L1I PREFETCH  REQUESTED:          0  ISSUED:          0  USEFUL:          0  USELESS:          0
L1I AVERAGE MISS LATENCY: 142.266 cycles
L2C TOTAL     ACCESS:   30187889  HIT:     405248  MISS:   29782641
L2C LOAD      ACCESS:   30048122  HIT:     325884  MISS:   29722238
L2C RFO       ACCESS:      60195  HIT:        322  MISS:      59873
L2C PREFETCH  ACCESS:          0  HIT:          0  MISS:          0
L2C WRITEBACK ACCESS:      79572  HIT:      79042  MISS:        530
L2C PREFETCH  REQUESTED:          0  ISSUED:          0  USEFUL:          0  USELESS:          0
L2C AVERAGE MISS LATENCY: 146.536 cycles
LLC TOTAL     ACCESS:   29916409  HIT:   16805572  MISS:   13110837
LLC LOAD      ACCESS:   29722238  HIT:   16700617  MISS:   13021621
LLC RFO       ACCESS:      59873  HIT:      20963  MISS:      38910
LLC PREFETCH  ACCESS:      54517  HIT:       4381  MISS:      50136
LLC WRITEBACK ACCESS:      79781  HIT:      79611  MISS:        170
LLC PREFETCH  REQUESTED:      55200  ISSUED:      55144  USEFUL:       3225  USELESS:      46117
LLC AVERAGE MISS LATENCY: 148.533 cycles
Major fault: 0 Minor fault: 22841

DRAM Statistics
 CHANNEL 0
 RQ ROW_BUFFER_HIT:    4656435  ROW_BUFFER_MISS:    8454220
 DBUS_CONGESTED:    3566989
 WQ ROW_BUFFER_HIT:       6489  ROW_BUFFER_MISS:      48342  FULL:          0

 AVG_CONGESTED_CYCLE: 5

CPU 0 Branch Prediction Accuracy: 99.8639% MPKI: 0.499602 Average ROB Occupancy at Mispredict: 111.047

Branch types
NOT_BRANCH: 316494051 63.2988%
BRANCH_DIRECT_JUMP: 3251330 0.650266%
BRANCH_INDIRECT: 70303 0.0140606%
BRANCH_CONDITIONAL: 178194583 35.6389%
BRANCH_DIRECT_CALL: 900078 0.180016%
BRANCH_INDIRECT_CALL: 94923 0.0189846%
BRANCH_RETURN: 995004 0.199001%
BRANCH_OTHER: 0 0%


gzip: stdout: Broken pipe
