
*** ChampSim Multicore Out-of-Order Simulator ***

Warmup Instructions: 1000000
Prefetch Warmup Instructions: 450000000
Simulation Instructions: 500000000
Stat Printing Period: 1000000
Number of CPUs: 1
LLC sets: 2048
LLC ways: 16
Off-chip DRAM Size: 4096 MB Channels: 1 Width: 64-bit Data Rate: 3200 MT/s

CPU 0 runs /scratch/cluster/cmolder/ML-DPC/ChampSimTraces/spec17/602.gcc-s0.trace.xz
Read seed: 272
Heartbeat CPU 0 instructions: 1000001 cycles: 487879 heartbeat IPC: 2.04969 cumulative IPC: 2.04969 (Simulation time: 0 hr 0 min 4 sec) 

Warmup complete CPU 0 instructions: 1000001 cycles: 487879 (Simulation time: 0 hr 0 min 4 sec) 

Heartbeat CPU 0 instructions: 2000003 cycles: 3358859 heartbeat IPC: 0.348314 cumulative IPC: 0.348314 (Simulation time: 0 hr 0 min 12 sec) 
Heartbeat CPU 0 instructions: 3000000 cycles: 6236591 heartbeat IPC: 0.347495 cumulative IPC: 0.347904 (Simulation time: 0 hr 0 min 19 sec) 
Heartbeat CPU 0 instructions: 4000001 cycles: 9106559 heartbeat IPC: 0.348436 cumulative IPC: 0.348081 (Simulation time: 0 hr 0 min 26 sec) 
Heartbeat CPU 0 instructions: 5000001 cycles: 11988487 heartbeat IPC: 0.34699 cumulative IPC: 0.347808 (Simulation time: 0 hr 0 min 35 sec) 
Heartbeat CPU 0 instructions: 6000000 cycles: 14881999 heartbeat IPC: 0.3456 cumulative IPC: 0.347364 (Simulation time: 0 hr 0 min 44 sec) 
Heartbeat CPU 0 instructions: 7000003 cycles: 17748213 heartbeat IPC: 0.348893 cumulative IPC: 0.347618 (Simulation time: 0 hr 0 min 51 sec) 
Heartbeat CPU 0 instructions: 8000000 cycles: 20616365 heartbeat IPC: 0.348656 cumulative IPC: 0.347766 (Simulation time: 0 hr 1 min 0 sec) 
Heartbeat CPU 0 instructions: 9000000 cycles: 23506027 heartbeat IPC: 0.346061 cumulative IPC: 0.347552 (Simulation time: 0 hr 1 min 8 sec) 
Heartbeat CPU 0 instructions: 10000002 cycles: 26392321 heartbeat IPC: 0.346466 cumulative IPC: 0.347431 (Simulation time: 0 hr 1 min 16 sec) 
Heartbeat CPU 0 instructions: 11000000 cycles: 29263775 heartbeat IPC: 0.348255 cumulative IPC: 0.347513 (Simulation time: 0 hr 1 min 23 sec) 
Heartbeat CPU 0 instructions: 12000002 cycles: 32139325 heartbeat IPC: 0.34776 cumulative IPC: 0.347535 (Simulation time: 0 hr 1 min 31 sec) 
Heartbeat CPU 0 instructions: 13000000 cycles: 35030530 heartbeat IPC: 0.345876 cumulative IPC: 0.347397 (Simulation time: 0 hr 1 min 38 sec) 
Heartbeat CPU 0 instructions: 14000001 cycles: 37922262 heartbeat IPC: 0.345814 cumulative IPC: 0.347274 (Simulation time: 0 hr 1 min 46 sec) 
Heartbeat CPU 0 instructions: 15000001 cycles: 40809587 heartbeat IPC: 0.346341 cumulative IPC: 0.347208 (Simulation time: 0 hr 1 min 54 sec) 
Heartbeat CPU 0 instructions: 16000003 cycles: 43707581 heartbeat IPC: 0.345067 cumulative IPC: 0.347064 (Simulation time: 0 hr 2 min 2 sec) 
Heartbeat CPU 0 instructions: 17000001 cycles: 46598847 heartbeat IPC: 0.345869 cumulative IPC: 0.346989 (Simulation time: 0 hr 2 min 10 sec) 
Heartbeat CPU 0 instructions: 18000000 cycles: 49477657 heartbeat IPC: 0.347365 cumulative IPC: 0.347011 (Simulation time: 0 hr 2 min 17 sec) 
Heartbeat CPU 0 instructions: 19000001 cycles: 52352345 heartbeat IPC: 0.347864 cumulative IPC: 0.347058 (Simulation time: 0 hr 2 min 25 sec) 
Heartbeat CPU 0 instructions: 20000000 cycles: 55228729 heartbeat IPC: 0.347658 cumulative IPC: 0.34709 (Simulation time: 0 hr 2 min 32 sec) 
Heartbeat CPU 0 instructions: 21000000 cycles: 58117534 heartbeat IPC: 0.346164 cumulative IPC: 0.347044 (Simulation time: 0 hr 2 min 41 sec) 
Heartbeat CPU 0 instructions: 22000000 cycles: 61004407 heartbeat IPC: 0.346396 cumulative IPC: 0.347013 (Simulation time: 0 hr 2 min 49 sec) 
Heartbeat CPU 0 instructions: 23000000 cycles: 63878594 heartbeat IPC: 0.347924 cumulative IPC: 0.347054 (Simulation time: 0 hr 2 min 57 sec) 
Heartbeat CPU 0 instructions: 24000002 cycles: 66765112 heartbeat IPC: 0.346439 cumulative IPC: 0.347027 (Simulation time: 0 hr 3 min 4 sec) 
Heartbeat CPU 0 instructions: 25000003 cycles: 69655239 heartbeat IPC: 0.346006 cumulative IPC: 0.346985 (Simulation time: 0 hr 3 min 13 sec) 
Heartbeat CPU 0 instructions: 26000003 cycles: 72541909 heartbeat IPC: 0.34642 cumulative IPC: 0.346962 (Simulation time: 0 hr 3 min 21 sec) 
Heartbeat CPU 0 instructions: 27000000 cycles: 75410793 heartbeat IPC: 0.348567 cumulative IPC: 0.347023 (Simulation time: 0 hr 3 min 29 sec) 
Heartbeat CPU 0 instructions: 28000003 cycles: 78258016 heartbeat IPC: 0.35122 cumulative IPC: 0.347177 (Simulation time: 0 hr 3 min 36 sec) 
Heartbeat CPU 0 instructions: 29000000 cycles: 81148941 heartbeat IPC: 0.345909 cumulative IPC: 0.347132 (Simulation time: 0 hr 3 min 43 sec) 
Heartbeat CPU 0 instructions: 30000000 cycles: 84031432 heartbeat IPC: 0.346922 cumulative IPC: 0.347124 (Simulation time: 0 hr 3 min 50 sec) 
Heartbeat CPU 0 instructions: 31000000 cycles: 86885992 heartbeat IPC: 0.350317 cumulative IPC: 0.34723 (Simulation time: 0 hr 3 min 57 sec) 
Heartbeat CPU 0 instructions: 32000001 cycles: 89790244 heartbeat IPC: 0.344323 cumulative IPC: 0.347135 (Simulation time: 0 hr 4 min 6 sec) 
Heartbeat CPU 0 instructions: 33000000 cycles: 92671321 heartbeat IPC: 0.347092 cumulative IPC: 0.347134 (Simulation time: 0 hr 4 min 13 sec) 
Heartbeat CPU 0 instructions: 34000000 cycles: 95550808 heartbeat IPC: 0.347284 cumulative IPC: 0.347138 (Simulation time: 0 hr 4 min 22 sec) 
Heartbeat CPU 0 instructions: 35000000 cycles: 98435508 heartbeat IPC: 0.346657 cumulative IPC: 0.347124 (Simulation time: 0 hr 4 min 31 sec) 
Heartbeat CPU 0 instructions: 36000002 cycles: 101313701 heartbeat IPC: 0.347441 cumulative IPC: 0.347133 (Simulation time: 0 hr 4 min 40 sec) 
Heartbeat CPU 0 instructions: 37000000 cycles: 104187472 heartbeat IPC: 0.347974 cumulative IPC: 0.347157 (Simulation time: 0 hr 4 min 48 sec) 
Heartbeat CPU 0 instructions: 38000000 cycles: 107077826 heartbeat IPC: 0.345978 cumulative IPC: 0.347125 (Simulation time: 0 hr 4 min 56 sec) 
Heartbeat CPU 0 instructions: 39000000 cycles: 109963123 heartbeat IPC: 0.346585 cumulative IPC: 0.34711 (Simulation time: 0 hr 5 min 3 sec) 
Heartbeat CPU 0 instructions: 40000000 cycles: 112840797 heartbeat IPC: 0.347503 cumulative IPC: 0.34712 (Simulation time: 0 hr 5 min 11 sec) 
Heartbeat CPU 0 instructions: 41000002 cycles: 115732523 heartbeat IPC: 0.345815 cumulative IPC: 0.347088 (Simulation time: 0 hr 5 min 18 sec) 
Heartbeat CPU 0 instructions: 42000000 cycles: 118616251 heartbeat IPC: 0.346773 cumulative IPC: 0.34708 (Simulation time: 0 hr 5 min 26 sec) 
Heartbeat CPU 0 instructions: 43000000 cycles: 121506041 heartbeat IPC: 0.346046 cumulative IPC: 0.347055 (Simulation time: 0 hr 5 min 33 sec) 
Heartbeat CPU 0 instructions: 44000000 cycles: 124382016 heartbeat IPC: 0.347708 cumulative IPC: 0.34707 (Simulation time: 0 hr 5 min 40 sec) 
Heartbeat CPU 0 instructions: 45000001 cycles: 127256197 heartbeat IPC: 0.347926 cumulative IPC: 0.34709 (Simulation time: 0 hr 5 min 48 sec) 
Heartbeat CPU 0 instructions: 46000003 cycles: 130145866 heartbeat IPC: 0.346061 cumulative IPC: 0.347067 (Simulation time: 0 hr 5 min 55 sec) 
Heartbeat CPU 0 instructions: 47000002 cycles: 133043664 heartbeat IPC: 0.345089 cumulative IPC: 0.347024 (Simulation time: 0 hr 6 min 3 sec) 
Heartbeat CPU 0 instructions: 48000001 cycles: 135915485 heartbeat IPC: 0.348211 cumulative IPC: 0.347049 (Simulation time: 0 hr 6 min 10 sec) 
Heartbeat CPU 0 instructions: 49000002 cycles: 138795811 heartbeat IPC: 0.347183 cumulative IPC: 0.347052 (Simulation time: 0 hr 6 min 18 sec) 
Heartbeat CPU 0 instructions: 50000000 cycles: 141673789 heartbeat IPC: 0.347465 cumulative IPC: 0.34706 (Simulation time: 0 hr 6 min 27 sec) 
Heartbeat CPU 0 instructions: 51000001 cycles: 144558848 heartbeat IPC: 0.346614 cumulative IPC: 0.347051 (Simulation time: 0 hr 6 min 34 sec) 
Heartbeat CPU 0 instructions: 52000001 cycles: 147431506 heartbeat IPC: 0.34811 cumulative IPC: 0.347072 (Simulation time: 0 hr 6 min 42 sec) 
Heartbeat CPU 0 instructions: 53000003 cycles: 150309262 heartbeat IPC: 0.347494 cumulative IPC: 0.34708 (Simulation time: 0 hr 6 min 49 sec) 
Heartbeat CPU 0 instructions: 54000000 cycles: 153191345 heartbeat IPC: 0.34697 cumulative IPC: 0.347078 (Simulation time: 0 hr 6 min 57 sec) 
Heartbeat CPU 0 instructions: 55000000 cycles: 156083150 heartbeat IPC: 0.345805 cumulative IPC: 0.347054 (Simulation time: 0 hr 7 min 6 sec) 
Heartbeat CPU 0 instructions: 56000000 cycles: 158952505 heartbeat IPC: 0.34851 cumulative IPC: 0.347081 (Simulation time: 0 hr 7 min 13 sec) 
Heartbeat CPU 0 instructions: 57000000 cycles: 161834057 heartbeat IPC: 0.347035 cumulative IPC: 0.34708 (Simulation time: 0 hr 7 min 20 sec) 
Heartbeat CPU 0 instructions: 58000000 cycles: 164727335 heartbeat IPC: 0.345629 cumulative IPC: 0.347054 (Simulation time: 0 hr 7 min 28 sec) 
Heartbeat CPU 0 instructions: 59000001 cycles: 167615692 heartbeat IPC: 0.346218 cumulative IPC: 0.34704 (Simulation time: 0 hr 7 min 35 sec) 
Heartbeat CPU 0 instructions: 60000003 cycles: 170496392 heartbeat IPC: 0.347139 cumulative IPC: 0.347041 (Simulation time: 0 hr 7 min 42 sec) 
Heartbeat CPU 0 instructions: 61000000 cycles: 173365198 heartbeat IPC: 0.348576 cumulative IPC: 0.347067 (Simulation time: 0 hr 7 min 50 sec) 
Heartbeat CPU 0 instructions: 62000000 cycles: 176247209 heartbeat IPC: 0.34698 cumulative IPC: 0.347066 (Simulation time: 0 hr 7 min 58 sec) 
Heartbeat CPU 0 instructions: 63000000 cycles: 179135083 heartbeat IPC: 0.346276 cumulative IPC: 0.347053 (Simulation time: 0 hr 8 min 4 sec) 
Heartbeat CPU 0 instructions: 64000001 cycles: 182010961 heartbeat IPC: 0.34772 cumulative IPC: 0.347063 (Simulation time: 0 hr 8 min 11 sec) 
Heartbeat CPU 0 instructions: 65000001 cycles: 184893043 heartbeat IPC: 0.346971 cumulative IPC: 0.347062 (Simulation time: 0 hr 8 min 19 sec) 
Heartbeat CPU 0 instructions: 66000000 cycles: 187765884 heartbeat IPC: 0.348087 cumulative IPC: 0.347078 (Simulation time: 0 hr 8 min 27 sec) 
Heartbeat CPU 0 instructions: 67000002 cycles: 190643917 heartbeat IPC: 0.34746 cumulative IPC: 0.347083 (Simulation time: 0 hr 8 min 35 sec) 
Heartbeat CPU 0 instructions: 68000000 cycles: 193530300 heartbeat IPC: 0.346454 cumulative IPC: 0.347074 (Simulation time: 0 hr 8 min 41 sec) 
Heartbeat CPU 0 instructions: 69000003 cycles: 196401681 heartbeat IPC: 0.348266 cumulative IPC: 0.347091 (Simulation time: 0 hr 8 min 48 sec) 
Heartbeat CPU 0 instructions: 70000002 cycles: 199280476 heartbeat IPC: 0.347367 cumulative IPC: 0.347095 (Simulation time: 0 hr 8 min 56 sec) 
Heartbeat CPU 0 instructions: 71000000 cycles: 202171030 heartbeat IPC: 0.345954 cumulative IPC: 0.347079 (Simulation time: 0 hr 9 min 3 sec) 
Heartbeat CPU 0 instructions: 72000002 cycles: 205038186 heartbeat IPC: 0.348778 cumulative IPC: 0.347103 (Simulation time: 0 hr 9 min 10 sec) 
Heartbeat CPU 0 instructions: 73000000 cycles: 207921025 heartbeat IPC: 0.34688 cumulative IPC: 0.3471 (Simulation time: 0 hr 9 min 17 sec) 
Heartbeat CPU 0 instructions: 74000002 cycles: 210800095 heartbeat IPC: 0.347335 cumulative IPC: 0.347103 (Simulation time: 0 hr 9 min 24 sec) 
Heartbeat CPU 0 instructions: 75000003 cycles: 213687114 heartbeat IPC: 0.346378 cumulative IPC: 0.347093 (Simulation time: 0 hr 9 min 32 sec) 
Heartbeat CPU 0 instructions: 76000000 cycles: 216574259 heartbeat IPC: 0.346362 cumulative IPC: 0.347083 (Simulation time: 0 hr 9 min 40 sec) 
Heartbeat CPU 0 instructions: 77000000 cycles: 219450757 heartbeat IPC: 0.347645 cumulative IPC: 0.347091 (Simulation time: 0 hr 9 min 47 sec) 
Heartbeat CPU 0 instructions: 78000000 cycles: 222337238 heartbeat IPC: 0.346443 cumulative IPC: 0.347082 (Simulation time: 0 hr 9 min 55 sec) 
Heartbeat CPU 0 instructions: 79000001 cycles: 225211392 heartbeat IPC: 0.347929 cumulative IPC: 0.347093 (Simulation time: 0 hr 10 min 2 sec) 
Heartbeat CPU 0 instructions: 80000003 cycles: 228087239 heartbeat IPC: 0.347724 cumulative IPC: 0.347101 (Simulation time: 0 hr 10 min 8 sec) 
Heartbeat CPU 0 instructions: 81000001 cycles: 230956469 heartbeat IPC: 0.348525 cumulative IPC: 0.347119 (Simulation time: 0 hr 10 min 15 sec) 
Heartbeat CPU 0 instructions: 82000001 cycles: 233830634 heartbeat IPC: 0.347927 cumulative IPC: 0.347129 (Simulation time: 0 hr 10 min 23 sec) 
Heartbeat CPU 0 instructions: 83000000 cycles: 236708203 heartbeat IPC: 0.347515 cumulative IPC: 0.347134 (Simulation time: 0 hr 10 min 30 sec) 
Heartbeat CPU 0 instructions: 84000000 cycles: 239594304 heartbeat IPC: 0.346488 cumulative IPC: 0.347126 (Simulation time: 0 hr 10 min 36 sec) 
Heartbeat CPU 0 instructions: 85000001 cycles: 242479831 heartbeat IPC: 0.346557 cumulative IPC: 0.347119 (Simulation time: 0 hr 10 min 43 sec) 
Heartbeat CPU 0 instructions: 86000001 cycles: 245369799 heartbeat IPC: 0.346025 cumulative IPC: 0.347106 (Simulation time: 0 hr 10 min 50 sec) 
Heartbeat CPU 0 instructions: 87000003 cycles: 248253517 heartbeat IPC: 0.346775 cumulative IPC: 0.347102 (Simulation time: 0 hr 10 min 59 sec) 
Heartbeat CPU 0 instructions: 88000000 cycles: 251146424 heartbeat IPC: 0.345672 cumulative IPC: 0.347086 (Simulation time: 0 hr 11 min 6 sec) 
Heartbeat CPU 0 instructions: 89000000 cycles: 254032074 heartbeat IPC: 0.346542 cumulative IPC: 0.34708 (Simulation time: 0 hr 11 min 14 sec) 
Heartbeat CPU 0 instructions: 90000001 cycles: 256918258 heartbeat IPC: 0.346479 cumulative IPC: 0.347073 (Simulation time: 0 hr 11 min 21 sec) 
Heartbeat CPU 0 instructions: 91000003 cycles: 259811059 heartbeat IPC: 0.345686 cumulative IPC: 0.347057 (Simulation time: 0 hr 11 min 28 sec) 
Heartbeat CPU 0 instructions: 92000003 cycles: 262699028 heartbeat IPC: 0.346264 cumulative IPC: 0.347049 (Simulation time: 0 hr 11 min 35 sec) 
Heartbeat CPU 0 instructions: 93000003 cycles: 265576673 heartbeat IPC: 0.347506 cumulative IPC: 0.347054 (Simulation time: 0 hr 11 min 41 sec) 
Heartbeat CPU 0 instructions: 94000000 cycles: 268445787 heartbeat IPC: 0.348539 cumulative IPC: 0.347069 (Simulation time: 0 hr 11 min 48 sec) 
Heartbeat CPU 0 instructions: 95000000 cycles: 271333638 heartbeat IPC: 0.346278 cumulative IPC: 0.347061 (Simulation time: 0 hr 11 min 54 sec) 
Heartbeat CPU 0 instructions: 96000000 cycles: 274220425 heartbeat IPC: 0.346406 cumulative IPC: 0.347054 (Simulation time: 0 hr 12 min 2 sec) 
Heartbeat CPU 0 instructions: 97000002 cycles: 277101041 heartbeat IPC: 0.347149 cumulative IPC: 0.347055 (Simulation time: 0 hr 12 min 9 sec) 
Heartbeat CPU 0 instructions: 98000001 cycles: 279977334 heartbeat IPC: 0.347669 cumulative IPC: 0.347061 (Simulation time: 0 hr 12 min 17 sec) 
Heartbeat CPU 0 instructions: 99000000 cycles: 282864267 heartbeat IPC: 0.346388 cumulative IPC: 0.347055 (Simulation time: 0 hr 12 min 24 sec) 
Heartbeat CPU 0 instructions: 100000002 cycles: 285749338 heartbeat IPC: 0.346613 cumulative IPC: 0.34705 (Simulation time: 0 hr 12 min 31 sec) 
Heartbeat CPU 0 instructions: 101000001 cycles: 288626661 heartbeat IPC: 0.347545 cumulative IPC: 0.347055 (Simulation time: 0 hr 12 min 39 sec) 
Heartbeat CPU 0 instructions: 102000000 cycles: 291529996 heartbeat IPC: 0.344431 cumulative IPC: 0.347029 (Simulation time: 0 hr 12 min 46 sec) 
Heartbeat CPU 0 instructions: 103000003 cycles: 294414068 heartbeat IPC: 0.346733 cumulative IPC: 0.347026 (Simulation time: 0 hr 12 min 53 sec) 
Heartbeat CPU 0 instructions: 104000003 cycles: 297301209 heartbeat IPC: 0.346363 cumulative IPC: 0.347019 (Simulation time: 0 hr 13 min 1 sec) 
Heartbeat CPU 0 instructions: 105000002 cycles: 300173533 heartbeat IPC: 0.34815 cumulative IPC: 0.34703 (Simulation time: 0 hr 13 min 8 sec) 
Heartbeat CPU 0 instructions: 106000002 cycles: 303056246 heartbeat IPC: 0.346895 cumulative IPC: 0.347029 (Simulation time: 0 hr 13 min 16 sec) 
Heartbeat CPU 0 instructions: 107000003 cycles: 305945964 heartbeat IPC: 0.346055 cumulative IPC: 0.34702 (Simulation time: 0 hr 13 min 24 sec) 
Heartbeat CPU 0 instructions: 108000002 cycles: 308833643 heartbeat IPC: 0.346299 cumulative IPC: 0.347013 (Simulation time: 0 hr 13 min 31 sec) 
Heartbeat CPU 0 instructions: 109000000 cycles: 311710918 heartbeat IPC: 0.34755 cumulative IPC: 0.347018 (Simulation time: 0 hr 13 min 38 sec) 
Heartbeat CPU 0 instructions: 110000000 cycles: 314579513 heartbeat IPC: 0.348603 cumulative IPC: 0.347032 (Simulation time: 0 hr 13 min 45 sec) 
Heartbeat CPU 0 instructions: 111000002 cycles: 317449061 heartbeat IPC: 0.348488 cumulative IPC: 0.347046 (Simulation time: 0 hr 13 min 53 sec) 
Heartbeat CPU 0 instructions: 112000003 cycles: 320337043 heartbeat IPC: 0.346263 cumulative IPC: 0.347039 (Simulation time: 0 hr 14 min 0 sec) 
Heartbeat CPU 0 instructions: 113000000 cycles: 323214821 heartbeat IPC: 0.347489 cumulative IPC: 0.347043 (Simulation time: 0 hr 14 min 7 sec) 
Heartbeat CPU 0 instructions: 114000000 cycles: 326087096 heartbeat IPC: 0.348156 cumulative IPC: 0.347052 (Simulation time: 0 hr 14 min 15 sec) 
Heartbeat CPU 0 instructions: 115000003 cycles: 328965975 heartbeat IPC: 0.347358 cumulative IPC: 0.347055 (Simulation time: 0 hr 14 min 22 sec) 
Heartbeat CPU 0 instructions: 116000000 cycles: 331850061 heartbeat IPC: 0.346729 cumulative IPC: 0.347052 (Simulation time: 0 hr 14 min 30 sec) 
Heartbeat CPU 0 instructions: 117000000 cycles: 334739098 heartbeat IPC: 0.346136 cumulative IPC: 0.347044 (Simulation time: 0 hr 14 min 38 sec) 
Heartbeat CPU 0 instructions: 118000000 cycles: 337635515 heartbeat IPC: 0.345254 cumulative IPC: 0.347029 (Simulation time: 0 hr 14 min 45 sec) 
Heartbeat CPU 0 instructions: 119000003 cycles: 340503350 heartbeat IPC: 0.348696 cumulative IPC: 0.347043 (Simulation time: 0 hr 14 min 52 sec) 
Heartbeat CPU 0 instructions: 120000003 cycles: 343366685 heartbeat IPC: 0.349243 cumulative IPC: 0.347061 (Simulation time: 0 hr 15 min 0 sec) 
Heartbeat CPU 0 instructions: 121000000 cycles: 346250904 heartbeat IPC: 0.346713 cumulative IPC: 0.347059 (Simulation time: 0 hr 15 min 8 sec) 
Heartbeat CPU 0 instructions: 122000000 cycles: 349133766 heartbeat IPC: 0.346878 cumulative IPC: 0.347057 (Simulation time: 0 hr 15 min 15 sec) 
Heartbeat CPU 0 instructions: 123000001 cycles: 352008216 heartbeat IPC: 0.347893 cumulative IPC: 0.347064 (Simulation time: 0 hr 15 min 22 sec) 
Heartbeat CPU 0 instructions: 124000002 cycles: 354888984 heartbeat IPC: 0.34713 cumulative IPC: 0.347064 (Simulation time: 0 hr 15 min 30 sec) 
Heartbeat CPU 0 instructions: 125000001 cycles: 357767847 heartbeat IPC: 0.347359 cumulative IPC: 0.347067 (Simulation time: 0 hr 15 min 37 sec) 
Heartbeat CPU 0 instructions: 126000001 cycles: 360655586 heartbeat IPC: 0.346292 cumulative IPC: 0.347061 (Simulation time: 0 hr 15 min 46 sec) 
Heartbeat CPU 0 instructions: 127000002 cycles: 363532313 heartbeat IPC: 0.347618 cumulative IPC: 0.347065 (Simulation time: 0 hr 15 min 54 sec) 
Heartbeat CPU 0 instructions: 128000001 cycles: 366408729 heartbeat IPC: 0.347655 cumulative IPC: 0.34707 (Simulation time: 0 hr 16 min 1 sec) 
Heartbeat CPU 0 instructions: 129000000 cycles: 369294987 heartbeat IPC: 0.346469 cumulative IPC: 0.347065 (Simulation time: 0 hr 16 min 9 sec) 
Heartbeat CPU 0 instructions: 130000003 cycles: 372170959 heartbeat IPC: 0.34771 cumulative IPC: 0.34707 (Simulation time: 0 hr 16 min 16 sec) 
Heartbeat CPU 0 instructions: 131000000 cycles: 375045741 heartbeat IPC: 0.347851 cumulative IPC: 0.347076 (Simulation time: 0 hr 16 min 21 sec) 
Heartbeat CPU 0 instructions: 132000000 cycles: 377937019 heartbeat IPC: 0.345868 cumulative IPC: 0.347067 (Simulation time: 0 hr 16 min 29 sec) 
Heartbeat CPU 0 instructions: 133000000 cycles: 380825823 heartbeat IPC: 0.346164 cumulative IPC: 0.34706 (Simulation time: 0 hr 16 min 35 sec) 
Heartbeat CPU 0 instructions: 134000003 cycles: 383700235 heartbeat IPC: 0.347898 cumulative IPC: 0.347066 (Simulation time: 0 hr 16 min 44 sec) 
Heartbeat CPU 0 instructions: 135000001 cycles: 386568219 heartbeat IPC: 0.348676 cumulative IPC: 0.347078 (Simulation time: 0 hr 16 min 52 sec) 
Heartbeat CPU 0 instructions: 136000002 cycles: 389460549 heartbeat IPC: 0.345742 cumulative IPC: 0.347068 (Simulation time: 0 hr 16 min 59 sec) 
Heartbeat CPU 0 instructions: 137000002 cycles: 392344843 heartbeat IPC: 0.346705 cumulative IPC: 0.347065 (Simulation time: 0 hr 17 min 7 sec) 
Heartbeat CPU 0 instructions: 138000003 cycles: 395229628 heartbeat IPC: 0.346647 cumulative IPC: 0.347062 (Simulation time: 0 hr 17 min 14 sec) 
Heartbeat CPU 0 instructions: 139000000 cycles: 398089009 heartbeat IPC: 0.349725 cumulative IPC: 0.347082 (Simulation time: 0 hr 17 min 21 sec) 
Heartbeat CPU 0 instructions: 140000000 cycles: 400965799 heartbeat IPC: 0.34761 cumulative IPC: 0.347085 (Simulation time: 0 hr 17 min 29 sec) 
Heartbeat CPU 0 instructions: 141000002 cycles: 403856344 heartbeat IPC: 0.345956 cumulative IPC: 0.347077 (Simulation time: 0 hr 17 min 37 sec) 
Heartbeat CPU 0 instructions: 142000001 cycles: 406726109 heartbeat IPC: 0.34846 cumulative IPC: 0.347087 (Simulation time: 0 hr 17 min 45 sec) 
Heartbeat CPU 0 instructions: 143000000 cycles: 409596716 heartbeat IPC: 0.348358 cumulative IPC: 0.347096 (Simulation time: 0 hr 17 min 53 sec) 
Heartbeat CPU 0 instructions: 144000001 cycles: 412498863 heartbeat IPC: 0.344573 cumulative IPC: 0.347078 (Simulation time: 0 hr 18 min 1 sec) 
Heartbeat CPU 0 instructions: 145000000 cycles: 415379786 heartbeat IPC: 0.347111 cumulative IPC: 0.347078 (Simulation time: 0 hr 18 min 8 sec) 
Heartbeat CPU 0 instructions: 146000002 cycles: 418260829 heartbeat IPC: 0.347097 cumulative IPC: 0.347078 (Simulation time: 0 hr 18 min 15 sec) 
Heartbeat CPU 0 instructions: 147000000 cycles: 421116811 heartbeat IPC: 0.350142 cumulative IPC: 0.347099 (Simulation time: 0 hr 18 min 22 sec) 
Heartbeat CPU 0 instructions: 148000000 cycles: 423996979 heartbeat IPC: 0.347202 cumulative IPC: 0.3471 (Simulation time: 0 hr 18 min 30 sec) 
Heartbeat CPU 0 instructions: 149000001 cycles: 426879663 heartbeat IPC: 0.346899 cumulative IPC: 0.347099 (Simulation time: 0 hr 18 min 38 sec) 
Heartbeat CPU 0 instructions: 150000000 cycles: 429748119 heartbeat IPC: 0.348619 cumulative IPC: 0.347109 (Simulation time: 0 hr 18 min 45 sec) 
Heartbeat CPU 0 instructions: 151000002 cycles: 432640819 heartbeat IPC: 0.345698 cumulative IPC: 0.347099 (Simulation time: 0 hr 18 min 53 sec) 
Heartbeat CPU 0 instructions: 152000001 cycles: 435522042 heartbeat IPC: 0.347074 cumulative IPC: 0.347099 (Simulation time: 0 hr 19 min 2 sec) 
Heartbeat CPU 0 instructions: 153000001 cycles: 438431448 heartbeat IPC: 0.343713 cumulative IPC: 0.347077 (Simulation time: 0 hr 19 min 9 sec) 
Heartbeat CPU 0 instructions: 154000000 cycles: 441312743 heartbeat IPC: 0.347066 cumulative IPC: 0.347077 (Simulation time: 0 hr 19 min 17 sec) 
Heartbeat CPU 0 instructions: 155000002 cycles: 444185537 heartbeat IPC: 0.348094 cumulative IPC: 0.347083 (Simulation time: 0 hr 19 min 25 sec) 
Heartbeat CPU 0 instructions: 156000000 cycles: 447068982 heartbeat IPC: 0.346807 cumulative IPC: 0.347081 (Simulation time: 0 hr 19 min 33 sec) 
Heartbeat CPU 0 instructions: 157000003 cycles: 449948435 heartbeat IPC: 0.347289 cumulative IPC: 0.347083 (Simulation time: 0 hr 19 min 41 sec) 
Heartbeat CPU 0 instructions: 158000002 cycles: 452829331 heartbeat IPC: 0.347114 cumulative IPC: 0.347083 (Simulation time: 0 hr 19 min 48 sec) 
Heartbeat CPU 0 instructions: 159000001 cycles: 455696651 heartbeat IPC: 0.348757 cumulative IPC: 0.347093 (Simulation time: 0 hr 19 min 55 sec) 
Heartbeat CPU 0 instructions: 160000000 cycles: 458572059 heartbeat IPC: 0.347776 cumulative IPC: 0.347098 (Simulation time: 0 hr 20 min 3 sec) 
Heartbeat CPU 0 instructions: 161000000 cycles: 461467879 heartbeat IPC: 0.345325 cumulative IPC: 0.347087 (Simulation time: 0 hr 20 min 11 sec) 
Heartbeat CPU 0 instructions: 162000000 cycles: 464354546 heartbeat IPC: 0.34642 cumulative IPC: 0.347082 (Simulation time: 0 hr 20 min 18 sec) 
Heartbeat CPU 0 instructions: 163000002 cycles: 467229371 heartbeat IPC: 0.347848 cumulative IPC: 0.347087 (Simulation time: 0 hr 20 min 25 sec) 
Heartbeat CPU 0 instructions: 164000003 cycles: 470106221 heartbeat IPC: 0.347603 cumulative IPC: 0.34709 (Simulation time: 0 hr 20 min 33 sec) 
Heartbeat CPU 0 instructions: 165000000 cycles: 472999483 heartbeat IPC: 0.34563 cumulative IPC: 0.347081 (Simulation time: 0 hr 20 min 40 sec) 
Heartbeat CPU 0 instructions: 166000003 cycles: 475888286 heartbeat IPC: 0.346165 cumulative IPC: 0.347076 (Simulation time: 0 hr 20 min 48 sec) 
Heartbeat CPU 0 instructions: 167000000 cycles: 478763072 heartbeat IPC: 0.347851 cumulative IPC: 0.34708 (Simulation time: 0 hr 20 min 56 sec) 
Heartbeat CPU 0 instructions: 168000000 cycles: 481633427 heartbeat IPC: 0.348389 cumulative IPC: 0.347088 (Simulation time: 0 hr 21 min 2 sec) 
Heartbeat CPU 0 instructions: 169000000 cycles: 484516016 heartbeat IPC: 0.34691 cumulative IPC: 0.347087 (Simulation time: 0 hr 21 min 8 sec) 
Heartbeat CPU 0 instructions: 170000003 cycles: 487408931 heartbeat IPC: 0.345673 cumulative IPC: 0.347079 (Simulation time: 0 hr 21 min 16 sec) 
Heartbeat CPU 0 instructions: 171000003 cycles: 490284941 heartbeat IPC: 0.347704 cumulative IPC: 0.347083 (Simulation time: 0 hr 21 min 23 sec) 
Heartbeat CPU 0 instructions: 172000003 cycles: 493162368 heartbeat IPC: 0.347533 cumulative IPC: 0.347085 (Simulation time: 0 hr 21 min 31 sec) 
Heartbeat CPU 0 instructions: 173000001 cycles: 496048453 heartbeat IPC: 0.346489 cumulative IPC: 0.347082 (Simulation time: 0 hr 21 min 38 sec) 
Heartbeat CPU 0 instructions: 174000001 cycles: 498944168 heartbeat IPC: 0.345338 cumulative IPC: 0.347072 (Simulation time: 0 hr 21 min 45 sec) 
Heartbeat CPU 0 instructions: 175000000 cycles: 501815533 heartbeat IPC: 0.348266 cumulative IPC: 0.347078 (Simulation time: 0 hr 21 min 53 sec) 
Heartbeat CPU 0 instructions: 176000000 cycles: 504676655 heartbeat IPC: 0.349513 cumulative IPC: 0.347092 (Simulation time: 0 hr 22 min 2 sec) 
Heartbeat CPU 0 instructions: 177000000 cycles: 507555984 heartbeat IPC: 0.347303 cumulative IPC: 0.347093 (Simulation time: 0 hr 22 min 9 sec) 
Heartbeat CPU 0 instructions: 178000003 cycles: 510436853 heartbeat IPC: 0.347119 cumulative IPC: 0.347094 (Simulation time: 0 hr 22 min 17 sec) 
Heartbeat CPU 0 instructions: 179000000 cycles: 513309860 heartbeat IPC: 0.348066 cumulative IPC: 0.347099 (Simulation time: 0 hr 22 min 24 sec) 
Heartbeat CPU 0 instructions: 180000000 cycles: 516182565 heartbeat IPC: 0.348104 cumulative IPC: 0.347105 (Simulation time: 0 hr 22 min 32 sec) 
Heartbeat CPU 0 instructions: 181000000 cycles: 519069544 heartbeat IPC: 0.346383 cumulative IPC: 0.347101 (Simulation time: 0 hr 22 min 40 sec) 
Heartbeat CPU 0 instructions: 182000002 cycles: 521953901 heartbeat IPC: 0.346698 cumulative IPC: 0.347098 (Simulation time: 0 hr 22 min 49 sec) 
Heartbeat CPU 0 instructions: 183000003 cycles: 524826360 heartbeat IPC: 0.348134 cumulative IPC: 0.347104 (Simulation time: 0 hr 22 min 57 sec) 
Heartbeat CPU 0 instructions: 184000001 cycles: 527701892 heartbeat IPC: 0.347761 cumulative IPC: 0.347108 (Simulation time: 0 hr 23 min 4 sec) 
Heartbeat CPU 0 instructions: 185000002 cycles: 530585524 heartbeat IPC: 0.346785 cumulative IPC: 0.347106 (Simulation time: 0 hr 23 min 12 sec) 
Heartbeat CPU 0 instructions: 186000001 cycles: 533479643 heartbeat IPC: 0.345528 cumulative IPC: 0.347097 (Simulation time: 0 hr 23 min 20 sec) 
Heartbeat CPU 0 instructions: 187000000 cycles: 536365003 heartbeat IPC: 0.346577 cumulative IPC: 0.347095 (Simulation time: 0 hr 23 min 29 sec) 
Heartbeat CPU 0 instructions: 188000000 cycles: 539256431 heartbeat IPC: 0.34585 cumulative IPC: 0.347088 (Simulation time: 0 hr 23 min 37 sec) 
Heartbeat CPU 0 instructions: 189000001 cycles: 542186691 heartbeat IPC: 0.341267 cumulative IPC: 0.347056 (Simulation time: 0 hr 23 min 44 sec) 
Heartbeat CPU 0 instructions: 190000002 cycles: 545077935 heartbeat IPC: 0.345872 cumulative IPC: 0.34705 (Simulation time: 0 hr 23 min 51 sec) 
Heartbeat CPU 0 instructions: 191000000 cycles: 547952680 heartbeat IPC: 0.347856 cumulative IPC: 0.347054 (Simulation time: 0 hr 23 min 59 sec) 
Heartbeat CPU 0 instructions: 192000000 cycles: 550832136 heartbeat IPC: 0.347288 cumulative IPC: 0.347055 (Simulation time: 0 hr 24 min 7 sec) 
Heartbeat CPU 0 instructions: 193000002 cycles: 553712208 heartbeat IPC: 0.347214 cumulative IPC: 0.347056 (Simulation time: 0 hr 24 min 16 sec) 
Heartbeat CPU 0 instructions: 194000000 cycles: 556602632 heartbeat IPC: 0.345969 cumulative IPC: 0.347051 (Simulation time: 0 hr 24 min 24 sec) 
Heartbeat CPU 0 instructions: 195000000 cycles: 559486148 heartbeat IPC: 0.346799 cumulative IPC: 0.347049 (Simulation time: 0 hr 24 min 31 sec) 
Heartbeat CPU 0 instructions: 196000002 cycles: 562360236 heartbeat IPC: 0.347937 cumulative IPC: 0.347054 (Simulation time: 0 hr 24 min 39 sec) 
Heartbeat CPU 0 instructions: 197000001 cycles: 565247046 heartbeat IPC: 0.346403 cumulative IPC: 0.347051 (Simulation time: 0 hr 24 min 46 sec) 
Heartbeat CPU 0 instructions: 198000000 cycles: 568130626 heartbeat IPC: 0.346791 cumulative IPC: 0.347049 (Simulation time: 0 hr 24 min 53 sec) 
Heartbeat CPU 0 instructions: 199000003 cycles: 571016703 heartbeat IPC: 0.346492 cumulative IPC: 0.347046 (Simulation time: 0 hr 25 min 0 sec) 
Heartbeat CPU 0 instructions: 200000000 cycles: 573891419 heartbeat IPC: 0.347859 cumulative IPC: 0.347051 (Simulation time: 0 hr 25 min 8 sec) 
Heartbeat CPU 0 instructions: 201000000 cycles: 576781014 heartbeat IPC: 0.346069 cumulative IPC: 0.347046 (Simulation time: 0 hr 25 min 16 sec) 
Heartbeat CPU 0 instructions: 202000000 cycles: 579665553 heartbeat IPC: 0.346676 cumulative IPC: 0.347044 (Simulation time: 0 hr 25 min 23 sec) 
Heartbeat CPU 0 instructions: 203000000 cycles: 582551945 heartbeat IPC: 0.346453 cumulative IPC: 0.347041 (Simulation time: 0 hr 25 min 30 sec) 
Heartbeat CPU 0 instructions: 204000001 cycles: 585420864 heartbeat IPC: 0.348564 cumulative IPC: 0.347048 (Simulation time: 0 hr 25 min 38 sec) 
Heartbeat CPU 0 instructions: 205000001 cycles: 588306202 heartbeat IPC: 0.34658 cumulative IPC: 0.347046 (Simulation time: 0 hr 25 min 46 sec) 
Heartbeat CPU 0 instructions: 206000000 cycles: 591184367 heartbeat IPC: 0.347443 cumulative IPC: 0.347048 (Simulation time: 0 hr 25 min 53 sec) 
Heartbeat CPU 0 instructions: 207000000 cycles: 594069661 heartbeat IPC: 0.346585 cumulative IPC: 0.347046 (Simulation time: 0 hr 26 min 2 sec) 
Heartbeat CPU 0 instructions: 208000003 cycles: 596946988 heartbeat IPC: 0.347546 cumulative IPC: 0.347048 (Simulation time: 0 hr 26 min 9 sec) 
Heartbeat CPU 0 instructions: 209000000 cycles: 599829189 heartbeat IPC: 0.346956 cumulative IPC: 0.347048 (Simulation time: 0 hr 26 min 17 sec) 
Heartbeat CPU 0 instructions: 210000002 cycles: 602710300 heartbeat IPC: 0.347089 cumulative IPC: 0.347048 (Simulation time: 0 hr 26 min 24 sec) 
Heartbeat CPU 0 instructions: 211000002 cycles: 605596325 heartbeat IPC: 0.346497 cumulative IPC: 0.347045 (Simulation time: 0 hr 26 min 30 sec) 
Heartbeat CPU 0 instructions: 212000002 cycles: 608478360 heartbeat IPC: 0.346977 cumulative IPC: 0.347045 (Simulation time: 0 hr 26 min 38 sec) 
Heartbeat CPU 0 instructions: 213000000 cycles: 611349337 heartbeat IPC: 0.348313 cumulative IPC: 0.347051 (Simulation time: 0 hr 26 min 45 sec) 
Heartbeat CPU 0 instructions: 214000003 cycles: 614224552 heartbeat IPC: 0.347801 cumulative IPC: 0.347054 (Simulation time: 0 hr 26 min 53 sec) 
Heartbeat CPU 0 instructions: 215000000 cycles: 617118099 heartbeat IPC: 0.345596 cumulative IPC: 0.347048 (Simulation time: 0 hr 27 min 0 sec) 
Heartbeat CPU 0 instructions: 216000002 cycles: 620029482 heartbeat IPC: 0.34348 cumulative IPC: 0.347031 (Simulation time: 0 hr 27 min 7 sec) 
Heartbeat CPU 0 instructions: 217000002 cycles: 622911954 heartbeat IPC: 0.346924 cumulative IPC: 0.34703 (Simulation time: 0 hr 27 min 15 sec) 
Heartbeat CPU 0 instructions: 218000000 cycles: 625783203 heartbeat IPC: 0.34828 cumulative IPC: 0.347036 (Simulation time: 0 hr 27 min 22 sec) 
Heartbeat CPU 0 instructions: 219000003 cycles: 628664363 heartbeat IPC: 0.347083 cumulative IPC: 0.347036 (Simulation time: 0 hr 27 min 28 sec) 
Heartbeat CPU 0 instructions: 220000000 cycles: 631551756 heartbeat IPC: 0.346332 cumulative IPC: 0.347033 (Simulation time: 0 hr 27 min 36 sec) 
Heartbeat CPU 0 instructions: 221000003 cycles: 634443657 heartbeat IPC: 0.345794 cumulative IPC: 0.347027 (Simulation time: 0 hr 27 min 42 sec) 
Heartbeat CPU 0 instructions: 222000000 cycles: 637352952 heartbeat IPC: 0.343725 cumulative IPC: 0.347012 (Simulation time: 0 hr 27 min 50 sec) 
Heartbeat CPU 0 instructions: 223000001 cycles: 640237755 heartbeat IPC: 0.346644 cumulative IPC: 0.347011 (Simulation time: 0 hr 27 min 57 sec) 
Heartbeat CPU 0 instructions: 224000001 cycles: 643133189 heartbeat IPC: 0.345371 cumulative IPC: 0.347003 (Simulation time: 0 hr 28 min 4 sec) 
Heartbeat CPU 0 instructions: 225000000 cycles: 646015403 heartbeat IPC: 0.346955 cumulative IPC: 0.347003 (Simulation time: 0 hr 28 min 12 sec) 
Heartbeat CPU 0 instructions: 226000001 cycles: 648895231 heartbeat IPC: 0.347243 cumulative IPC: 0.347004 (Simulation time: 0 hr 28 min 19 sec) 
Heartbeat CPU 0 instructions: 227000001 cycles: 651787452 heartbeat IPC: 0.345755 cumulative IPC: 0.346999 (Simulation time: 0 hr 28 min 27 sec) 
Heartbeat CPU 0 instructions: 228000002 cycles: 654673037 heartbeat IPC: 0.346551 cumulative IPC: 0.346997 (Simulation time: 0 hr 28 min 35 sec) 
Heartbeat CPU 0 instructions: 229000003 cycles: 657537279 heartbeat IPC: 0.349133 cumulative IPC: 0.347006 (Simulation time: 0 hr 28 min 43 sec) 
Heartbeat CPU 0 instructions: 230000003 cycles: 660415861 heartbeat IPC: 0.347393 cumulative IPC: 0.347008 (Simulation time: 0 hr 28 min 51 sec) 
Heartbeat CPU 0 instructions: 231000000 cycles: 663301927 heartbeat IPC: 0.346491 cumulative IPC: 0.347005 (Simulation time: 0 hr 28 min 58 sec) 
Heartbeat CPU 0 instructions: 232000003 cycles: 666188781 heartbeat IPC: 0.346399 cumulative IPC: 0.347003 (Simulation time: 0 hr 29 min 5 sec) 
Heartbeat CPU 0 instructions: 233000000 cycles: 669079683 heartbeat IPC: 0.345912 cumulative IPC: 0.346998 (Simulation time: 0 hr 29 min 12 sec) 
Heartbeat CPU 0 instructions: 234000003 cycles: 671974702 heartbeat IPC: 0.345422 cumulative IPC: 0.346991 (Simulation time: 0 hr 29 min 19 sec) 
Heartbeat CPU 0 instructions: 235000001 cycles: 674868585 heartbeat IPC: 0.345556 cumulative IPC: 0.346985 (Simulation time: 0 hr 29 min 26 sec) 
Heartbeat CPU 0 instructions: 236000000 cycles: 677769471 heartbeat IPC: 0.344722 cumulative IPC: 0.346975 (Simulation time: 0 hr 29 min 34 sec) 
Heartbeat CPU 0 instructions: 237000003 cycles: 680632122 heartbeat IPC: 0.349328 cumulative IPC: 0.346985 (Simulation time: 0 hr 29 min 41 sec) 
Heartbeat CPU 0 instructions: 238000001 cycles: 683515912 heartbeat IPC: 0.346765 cumulative IPC: 0.346984 (Simulation time: 0 hr 29 min 48 sec) 
Heartbeat CPU 0 instructions: 239000002 cycles: 686400807 heartbeat IPC: 0.346633 cumulative IPC: 0.346983 (Simulation time: 0 hr 29 min 55 sec) 
Heartbeat CPU 0 instructions: 240000000 cycles: 689288239 heartbeat IPC: 0.346328 cumulative IPC: 0.34698 (Simulation time: 0 hr 30 min 2 sec) 
Heartbeat CPU 0 instructions: 241000003 cycles: 692160531 heartbeat IPC: 0.348155 cumulative IPC: 0.346985 (Simulation time: 0 hr 30 min 9 sec) 
Heartbeat CPU 0 instructions: 242000000 cycles: 695068919 heartbeat IPC: 0.343832 cumulative IPC: 0.346972 (Simulation time: 0 hr 30 min 15 sec) 
Heartbeat CPU 0 instructions: 243000000 cycles: 697954679 heartbeat IPC: 0.346529 cumulative IPC: 0.34697 (Simulation time: 0 hr 30 min 23 sec) 
Heartbeat CPU 0 instructions: 244000000 cycles: 700840121 heartbeat IPC: 0.346567 cumulative IPC: 0.346968 (Simulation time: 0 hr 30 min 30 sec) 
Heartbeat CPU 0 instructions: 245000001 cycles: 703706209 heartbeat IPC: 0.348908 cumulative IPC: 0.346976 (Simulation time: 0 hr 30 min 37 sec) 
Heartbeat CPU 0 instructions: 246000000 cycles: 706618839 heartbeat IPC: 0.343332 cumulative IPC: 0.346961 (Simulation time: 0 hr 30 min 44 sec) 
Heartbeat CPU 0 instructions: 247000001 cycles: 709495341 heartbeat IPC: 0.347645 cumulative IPC: 0.346964 (Simulation time: 0 hr 30 min 51 sec) 
Heartbeat CPU 0 instructions: 248000001 cycles: 712387417 heartbeat IPC: 0.345772 cumulative IPC: 0.346959 (Simulation time: 0 hr 30 min 58 sec) 
Heartbeat CPU 0 instructions: 249000000 cycles: 715258985 heartbeat IPC: 0.348241 cumulative IPC: 0.346964 (Simulation time: 0 hr 31 min 5 sec) 
Heartbeat CPU 0 instructions: 250000000 cycles: 718138984 heartbeat IPC: 0.347222 cumulative IPC: 0.346965 (Simulation time: 0 hr 31 min 12 sec) 
Heartbeat CPU 0 instructions: 251000001 cycles: 721021075 heartbeat IPC: 0.346971 cumulative IPC: 0.346965 (Simulation time: 0 hr 31 min 20 sec) 
Heartbeat CPU 0 instructions: 252000000 cycles: 723898484 heartbeat IPC: 0.347535 cumulative IPC: 0.346968 (Simulation time: 0 hr 31 min 26 sec) 
Heartbeat CPU 0 instructions: 253000000 cycles: 726807021 heartbeat IPC: 0.343815 cumulative IPC: 0.346955 (Simulation time: 0 hr 31 min 34 sec) 
Heartbeat CPU 0 instructions: 254000001 cycles: 729673040 heartbeat IPC: 0.348916 cumulative IPC: 0.346963 (Simulation time: 0 hr 31 min 40 sec) 
Heartbeat CPU 0 instructions: 255000002 cycles: 732553234 heartbeat IPC: 0.347199 cumulative IPC: 0.346964 (Simulation time: 0 hr 31 min 47 sec) 
Heartbeat CPU 0 instructions: 256000003 cycles: 735432700 heartbeat IPC: 0.347287 cumulative IPC: 0.346965 (Simulation time: 0 hr 31 min 55 sec) 
Heartbeat CPU 0 instructions: 257000003 cycles: 738310384 heartbeat IPC: 0.347502 cumulative IPC: 0.346967 (Simulation time: 0 hr 32 min 1 sec) 
Heartbeat CPU 0 instructions: 258000003 cycles: 741198783 heartbeat IPC: 0.346213 cumulative IPC: 0.346964 (Simulation time: 0 hr 32 min 8 sec) 
Heartbeat CPU 0 instructions: 259000000 cycles: 744073424 heartbeat IPC: 0.347868 cumulative IPC: 0.346967 (Simulation time: 0 hr 32 min 16 sec) 
Heartbeat CPU 0 instructions: 260000000 cycles: 746995496 heartbeat IPC: 0.342223 cumulative IPC: 0.346949 (Simulation time: 0 hr 32 min 23 sec) 
Heartbeat CPU 0 instructions: 261000003 cycles: 749875021 heartbeat IPC: 0.347281 cumulative IPC: 0.34695 (Simulation time: 0 hr 32 min 29 sec) 
Heartbeat CPU 0 instructions: 262000003 cycles: 752756728 heartbeat IPC: 0.347017 cumulative IPC: 0.34695 (Simulation time: 0 hr 32 min 37 sec) 
Heartbeat CPU 0 instructions: 263000001 cycles: 755671590 heartbeat IPC: 0.343069 cumulative IPC: 0.346935 (Simulation time: 0 hr 32 min 44 sec) 
Heartbeat CPU 0 instructions: 264000000 cycles: 758576509 heartbeat IPC: 0.344243 cumulative IPC: 0.346925 (Simulation time: 0 hr 32 min 52 sec) 
Heartbeat CPU 0 instructions: 265000003 cycles: 761440986 heartbeat IPC: 0.349105 cumulative IPC: 0.346933 (Simulation time: 0 hr 32 min 59 sec) 
Heartbeat CPU 0 instructions: 266000000 cycles: 764322399 heartbeat IPC: 0.347051 cumulative IPC: 0.346934 (Simulation time: 0 hr 33 min 6 sec) 
Heartbeat CPU 0 instructions: 267000000 cycles: 767210662 heartbeat IPC: 0.346229 cumulative IPC: 0.346931 (Simulation time: 0 hr 33 min 14 sec) 
Heartbeat CPU 0 instructions: 268000002 cycles: 770100455 heartbeat IPC: 0.346046 cumulative IPC: 0.346928 (Simulation time: 0 hr 33 min 21 sec) 
Heartbeat CPU 0 instructions: 269000001 cycles: 772975069 heartbeat IPC: 0.347872 cumulative IPC: 0.346931 (Simulation time: 0 hr 33 min 28 sec) 
Heartbeat CPU 0 instructions: 270000002 cycles: 775877503 heartbeat IPC: 0.344539 cumulative IPC: 0.346922 (Simulation time: 0 hr 33 min 34 sec) 
Heartbeat CPU 0 instructions: 271000001 cycles: 778774568 heartbeat IPC: 0.345177 cumulative IPC: 0.346916 (Simulation time: 0 hr 33 min 42 sec) 
Heartbeat CPU 0 instructions: 272000002 cycles: 781655152 heartbeat IPC: 0.347152 cumulative IPC: 0.346917 (Simulation time: 0 hr 33 min 49 sec) 
Heartbeat CPU 0 instructions: 273000000 cycles: 784544548 heartbeat IPC: 0.346092 cumulative IPC: 0.346914 (Simulation time: 0 hr 33 min 56 sec) 
Heartbeat CPU 0 instructions: 274000000 cycles: 787423549 heartbeat IPC: 0.347343 cumulative IPC: 0.346915 (Simulation time: 0 hr 34 min 3 sec) 
Heartbeat CPU 0 instructions: 275000000 cycles: 790316910 heartbeat IPC: 0.345619 cumulative IPC: 0.346911 (Simulation time: 0 hr 34 min 11 sec) 
Heartbeat CPU 0 instructions: 276000000 cycles: 793195214 heartbeat IPC: 0.347427 cumulative IPC: 0.346912 (Simulation time: 0 hr 34 min 19 sec) 
Heartbeat CPU 0 instructions: 277000002 cycles: 796062097 heartbeat IPC: 0.348812 cumulative IPC: 0.346919 (Simulation time: 0 hr 34 min 26 sec) 
Heartbeat CPU 0 instructions: 278000003 cycles: 798941459 heartbeat IPC: 0.3473 cumulative IPC: 0.346921 (Simulation time: 0 hr 34 min 33 sec) 
Heartbeat CPU 0 instructions: 279000000 cycles: 801824637 heartbeat IPC: 0.346838 cumulative IPC: 0.34692 (Simulation time: 0 hr 34 min 39 sec) 
Heartbeat CPU 0 instructions: 280000001 cycles: 804712084 heartbeat IPC: 0.346327 cumulative IPC: 0.346918 (Simulation time: 0 hr 34 min 47 sec) 
Heartbeat CPU 0 instructions: 281000001 cycles: 807584814 heartbeat IPC: 0.348101 cumulative IPC: 0.346922 (Simulation time: 0 hr 34 min 54 sec) 
Heartbeat CPU 0 instructions: 282000002 cycles: 810466656 heartbeat IPC: 0.347001 cumulative IPC: 0.346923 (Simulation time: 0 hr 35 min 1 sec) 
Heartbeat CPU 0 instructions: 283000000 cycles: 813367257 heartbeat IPC: 0.344755 cumulative IPC: 0.346915 (Simulation time: 0 hr 35 min 7 sec) 
Heartbeat CPU 0 instructions: 284000001 cycles: 816274559 heartbeat IPC: 0.343962 cumulative IPC: 0.346904 (Simulation time: 0 hr 35 min 14 sec) 
Heartbeat CPU 0 instructions: 285000001 cycles: 819151632 heartbeat IPC: 0.347575 cumulative IPC: 0.346907 (Simulation time: 0 hr 35 min 21 sec) 
Heartbeat CPU 0 instructions: 286000000 cycles: 822032138 heartbeat IPC: 0.347161 cumulative IPC: 0.346908 (Simulation time: 0 hr 35 min 27 sec) 
Heartbeat CPU 0 instructions: 287000002 cycles: 824916268 heartbeat IPC: 0.346726 cumulative IPC: 0.346907 (Simulation time: 0 hr 35 min 35 sec) 
Heartbeat CPU 0 instructions: 288000000 cycles: 827794355 heartbeat IPC: 0.347452 cumulative IPC: 0.346909 (Simulation time: 0 hr 35 min 42 sec) 
Heartbeat CPU 0 instructions: 289000001 cycles: 830676029 heartbeat IPC: 0.347021 cumulative IPC: 0.346909 (Simulation time: 0 hr 35 min 49 sec) 
Heartbeat CPU 0 instructions: 290000002 cycles: 833535168 heartbeat IPC: 0.349756 cumulative IPC: 0.346919 (Simulation time: 0 hr 35 min 57 sec) 
Heartbeat CPU 0 instructions: 291000003 cycles: 836423017 heartbeat IPC: 0.346279 cumulative IPC: 0.346917 (Simulation time: 0 hr 36 min 5 sec) 
Heartbeat CPU 0 instructions: 292000003 cycles: 839319412 heartbeat IPC: 0.345257 cumulative IPC: 0.346911 (Simulation time: 0 hr 36 min 14 sec) 
Heartbeat CPU 0 instructions: 293000002 cycles: 842202067 heartbeat IPC: 0.346902 cumulative IPC: 0.346911 (Simulation time: 0 hr 36 min 22 sec) 
Heartbeat CPU 0 instructions: 294000000 cycles: 845077842 heartbeat IPC: 0.347732 cumulative IPC: 0.346914 (Simulation time: 0 hr 36 min 29 sec) 
Heartbeat CPU 0 instructions: 295000003 cycles: 847955294 heartbeat IPC: 0.347531 cumulative IPC: 0.346916 (Simulation time: 0 hr 36 min 37 sec) 
Heartbeat CPU 0 instructions: 296000000 cycles: 850845265 heartbeat IPC: 0.346023 cumulative IPC: 0.346913 (Simulation time: 0 hr 36 min 45 sec) 
Heartbeat CPU 0 instructions: 297000000 cycles: 853728768 heartbeat IPC: 0.3468 cumulative IPC: 0.346913 (Simulation time: 0 hr 36 min 53 sec) 
Heartbeat CPU 0 instructions: 298000001 cycles: 856590821 heartbeat IPC: 0.3494 cumulative IPC: 0.346921 (Simulation time: 0 hr 37 min 1 sec) 
Heartbeat CPU 0 instructions: 299000000 cycles: 859480349 heartbeat IPC: 0.346077 cumulative IPC: 0.346918 (Simulation time: 0 hr 37 min 8 sec) 
Heartbeat CPU 0 instructions: 300000000 cycles: 862360975 heartbeat IPC: 0.347147 cumulative IPC: 0.346919 (Simulation time: 0 hr 37 min 15 sec) 
Heartbeat CPU 0 instructions: 301000003 cycles: 865238997 heartbeat IPC: 0.347462 cumulative IPC: 0.346921 (Simulation time: 0 hr 37 min 24 sec) 
Heartbeat CPU 0 instructions: 302000000 cycles: 868102201 heartbeat IPC: 0.349258 cumulative IPC: 0.346928 (Simulation time: 0 hr 37 min 32 sec) 
Heartbeat CPU 0 instructions: 303000003 cycles: 870981114 heartbeat IPC: 0.347354 cumulative IPC: 0.34693 (Simulation time: 0 hr 37 min 40 sec) 
Heartbeat CPU 0 instructions: 304000001 cycles: 873895532 heartbeat IPC: 0.343121 cumulative IPC: 0.346917 (Simulation time: 0 hr 37 min 47 sec) 
Heartbeat CPU 0 instructions: 305000001 cycles: 876780144 heartbeat IPC: 0.346667 cumulative IPC: 0.346916 (Simulation time: 0 hr 37 min 53 sec) 
Heartbeat CPU 0 instructions: 306000000 cycles: 879651377 heartbeat IPC: 0.348282 cumulative IPC: 0.346921 (Simulation time: 0 hr 38 min 1 sec) 
Heartbeat CPU 0 instructions: 307000001 cycles: 882532111 heartbeat IPC: 0.347134 cumulative IPC: 0.346921 (Simulation time: 0 hr 38 min 8 sec) 
Heartbeat CPU 0 instructions: 308000000 cycles: 885418719 heartbeat IPC: 0.346427 cumulative IPC: 0.34692 (Simulation time: 0 hr 38 min 15 sec) 
Heartbeat CPU 0 instructions: 309000000 cycles: 888311579 heartbeat IPC: 0.345679 cumulative IPC: 0.346916 (Simulation time: 0 hr 38 min 22 sec) 
Heartbeat CPU 0 instructions: 310000000 cycles: 891198639 heartbeat IPC: 0.346373 cumulative IPC: 0.346914 (Simulation time: 0 hr 38 min 29 sec) 
Heartbeat CPU 0 instructions: 311000003 cycles: 894062004 heartbeat IPC: 0.34924 cumulative IPC: 0.346921 (Simulation time: 0 hr 38 min 36 sec) 
Heartbeat CPU 0 instructions: 312000001 cycles: 896934823 heartbeat IPC: 0.348089 cumulative IPC: 0.346925 (Simulation time: 0 hr 38 min 42 sec) 
Heartbeat CPU 0 instructions: 313000003 cycles: 899821532 heartbeat IPC: 0.346416 cumulative IPC: 0.346924 (Simulation time: 0 hr 38 min 49 sec) 
Heartbeat CPU 0 instructions: 314000002 cycles: 902702758 heartbeat IPC: 0.347074 cumulative IPC: 0.346924 (Simulation time: 0 hr 38 min 56 sec) 
Heartbeat CPU 0 instructions: 315000000 cycles: 905580591 heartbeat IPC: 0.347483 cumulative IPC: 0.346926 (Simulation time: 0 hr 39 min 3 sec) 
Heartbeat CPU 0 instructions: 316000000 cycles: 908466441 heartbeat IPC: 0.346518 cumulative IPC: 0.346924 (Simulation time: 0 hr 39 min 10 sec) 
Heartbeat CPU 0 instructions: 317000000 cycles: 911345397 heartbeat IPC: 0.347348 cumulative IPC: 0.346926 (Simulation time: 0 hr 39 min 17 sec) 
Heartbeat CPU 0 instructions: 318000003 cycles: 914243803 heartbeat IPC: 0.345018 cumulative IPC: 0.34692 (Simulation time: 0 hr 39 min 22 sec) 
Heartbeat CPU 0 instructions: 319000000 cycles: 917118773 heartbeat IPC: 0.347829 cumulative IPC: 0.346923 (Simulation time: 0 hr 39 min 27 sec) 
Heartbeat CPU 0 instructions: 320000001 cycles: 920008389 heartbeat IPC: 0.346067 cumulative IPC: 0.34692 (Simulation time: 0 hr 39 min 35 sec) 
Heartbeat CPU 0 instructions: 321000000 cycles: 922896525 heartbeat IPC: 0.346244 cumulative IPC: 0.346918 (Simulation time: 0 hr 39 min 43 sec) 
Heartbeat CPU 0 instructions: 322000001 cycles: 925785574 heartbeat IPC: 0.346135 cumulative IPC: 0.346915 (Simulation time: 0 hr 39 min 51 sec) 
Heartbeat CPU 0 instructions: 323000002 cycles: 928658374 heartbeat IPC: 0.348093 cumulative IPC: 0.346919 (Simulation time: 0 hr 39 min 59 sec) 
Heartbeat CPU 0 instructions: 324000000 cycles: 931527067 heartbeat IPC: 0.34859 cumulative IPC: 0.346924 (Simulation time: 0 hr 40 min 7 sec) 
Heartbeat CPU 0 instructions: 325000000 cycles: 934420409 heartbeat IPC: 0.345621 cumulative IPC: 0.34692 (Simulation time: 0 hr 40 min 16 sec) 
Heartbeat CPU 0 instructions: 326000002 cycles: 937294303 heartbeat IPC: 0.347961 cumulative IPC: 0.346923 (Simulation time: 0 hr 40 min 23 sec) 
Heartbeat CPU 0 instructions: 327000001 cycles: 940168857 heartbeat IPC: 0.34788 cumulative IPC: 0.346926 (Simulation time: 0 hr 40 min 31 sec) 
Heartbeat CPU 0 instructions: 328000003 cycles: 943055872 heartbeat IPC: 0.346379 cumulative IPC: 0.346925 (Simulation time: 0 hr 40 min 39 sec) 
Heartbeat CPU 0 instructions: 329000000 cycles: 945938912 heartbeat IPC: 0.346855 cumulative IPC: 0.346924 (Simulation time: 0 hr 40 min 46 sec) 
Heartbeat CPU 0 instructions: 330000000 cycles: 948812694 heartbeat IPC: 0.347973 cumulative IPC: 0.346928 (Simulation time: 0 hr 40 min 52 sec) 
Heartbeat CPU 0 instructions: 331000000 cycles: 951683130 heartbeat IPC: 0.348379 cumulative IPC: 0.346932 (Simulation time: 0 hr 40 min 56 sec) 
Heartbeat CPU 0 instructions: 332000000 cycles: 954574733 heartbeat IPC: 0.345829 cumulative IPC: 0.346929 (Simulation time: 0 hr 41 min 1 sec) 
Heartbeat CPU 0 instructions: 333000001 cycles: 957466206 heartbeat IPC: 0.345845 cumulative IPC: 0.346925 (Simulation time: 0 hr 41 min 6 sec) 
Heartbeat CPU 0 instructions: 334000003 cycles: 960341677 heartbeat IPC: 0.34777 cumulative IPC: 0.346928 (Simulation time: 0 hr 41 min 11 sec) 
Heartbeat CPU 0 instructions: 335000000 cycles: 963215320 heartbeat IPC: 0.347989 cumulative IPC: 0.346931 (Simulation time: 0 hr 41 min 15 sec) 
Heartbeat CPU 0 instructions: 336000002 cycles: 966103534 heartbeat IPC: 0.346235 cumulative IPC: 0.346929 (Simulation time: 0 hr 41 min 20 sec) 
Heartbeat CPU 0 instructions: 337000000 cycles: 968986099 heartbeat IPC: 0.346913 cumulative IPC: 0.346929 (Simulation time: 0 hr 41 min 25 sec) 
Heartbeat CPU 0 instructions: 338000003 cycles: 971874402 heartbeat IPC: 0.346225 cumulative IPC: 0.346927 (Simulation time: 0 hr 41 min 30 sec) 
Heartbeat CPU 0 instructions: 339000000 cycles: 974744402 heartbeat IPC: 0.348431 cumulative IPC: 0.346931 (Simulation time: 0 hr 41 min 34 sec) 
Heartbeat CPU 0 instructions: 340000000 cycles: 977629100 heartbeat IPC: 0.346657 cumulative IPC: 0.34693 (Simulation time: 0 hr 41 min 39 sec) 
Heartbeat CPU 0 instructions: 341000000 cycles: 980518947 heartbeat IPC: 0.346039 cumulative IPC: 0.346928 (Simulation time: 0 hr 41 min 44 sec) 
Heartbeat CPU 0 instructions: 342000003 cycles: 983418612 heartbeat IPC: 0.344868 cumulative IPC: 0.346922 (Simulation time: 0 hr 41 min 48 sec) 
Heartbeat CPU 0 instructions: 343000001 cycles: 986298117 heartbeat IPC: 0.347281 cumulative IPC: 0.346923 (Simulation time: 0 hr 41 min 53 sec) 
Heartbeat CPU 0 instructions: 344000000 cycles: 989185724 heartbeat IPC: 0.346307 cumulative IPC: 0.346921 (Simulation time: 0 hr 41 min 58 sec) 
Heartbeat CPU 0 instructions: 345000000 cycles: 992083622 heartbeat IPC: 0.345078 cumulative IPC: 0.346916 (Simulation time: 0 hr 42 min 3 sec) 
Heartbeat CPU 0 instructions: 346000002 cycles: 994970478 heartbeat IPC: 0.346398 cumulative IPC: 0.346914 (Simulation time: 0 hr 42 min 8 sec) 
Heartbeat CPU 0 instructions: 347000000 cycles: 997832434 heartbeat IPC: 0.349411 cumulative IPC: 0.346921 (Simulation time: 0 hr 42 min 12 sec) 
Heartbeat CPU 0 instructions: 348000000 cycles: 1000704898 heartbeat IPC: 0.348133 cumulative IPC: 0.346925 (Simulation time: 0 hr 42 min 17 sec) 
Heartbeat CPU 0 instructions: 349000003 cycles: 1003579110 heartbeat IPC: 0.347923 cumulative IPC: 0.346928 (Simulation time: 0 hr 42 min 24 sec) 
Heartbeat CPU 0 instructions: 350000000 cycles: 1006463900 heartbeat IPC: 0.346645 cumulative IPC: 0.346927 (Simulation time: 0 hr 42 min 29 sec) 
Heartbeat CPU 0 instructions: 351000002 cycles: 1009348498 heartbeat IPC: 0.346669 cumulative IPC: 0.346926 (Simulation time: 0 hr 42 min 33 sec) 
Heartbeat CPU 0 instructions: 352000000 cycles: 1012233664 heartbeat IPC: 0.3466 cumulative IPC: 0.346925 (Simulation time: 0 hr 42 min 38 sec) 
Heartbeat CPU 0 instructions: 353000003 cycles: 1015111033 heartbeat IPC: 0.347541 cumulative IPC: 0.346927 (Simulation time: 0 hr 42 min 43 sec) 
Heartbeat CPU 0 instructions: 354000001 cycles: 1017996204 heartbeat IPC: 0.346599 cumulative IPC: 0.346926 (Simulation time: 0 hr 42 min 47 sec) 
Heartbeat CPU 0 instructions: 355000003 cycles: 1020868652 heartbeat IPC: 0.348136 cumulative IPC: 0.346929 (Simulation time: 0 hr 42 min 52 sec) 
Heartbeat CPU 0 instructions: 356000003 cycles: 1023747346 heartbeat IPC: 0.34738 cumulative IPC: 0.346931 (Simulation time: 0 hr 42 min 57 sec) 
Heartbeat CPU 0 instructions: 357000003 cycles: 1026631774 heartbeat IPC: 0.346689 cumulative IPC: 0.34693 (Simulation time: 0 hr 43 min 2 sec) 
Heartbeat CPU 0 instructions: 358000002 cycles: 1029523993 heartbeat IPC: 0.345755 cumulative IPC: 0.346927 (Simulation time: 0 hr 43 min 6 sec) 
Heartbeat CPU 0 instructions: 359000002 cycles: 1032405483 heartbeat IPC: 0.347043 cumulative IPC: 0.346927 (Simulation time: 0 hr 43 min 11 sec) 
Heartbeat CPU 0 instructions: 360000000 cycles: 1035284256 heartbeat IPC: 0.34737 cumulative IPC: 0.346928 (Simulation time: 0 hr 43 min 16 sec) 
Heartbeat CPU 0 instructions: 361000001 cycles: 1038163236 heartbeat IPC: 0.347346 cumulative IPC: 0.346929 (Simulation time: 0 hr 43 min 20 sec) 
Heartbeat CPU 0 instructions: 362000002 cycles: 1041068588 heartbeat IPC: 0.344193 cumulative IPC: 0.346922 (Simulation time: 0 hr 43 min 25 sec) 
Heartbeat CPU 0 instructions: 363000000 cycles: 1043933710 heartbeat IPC: 0.349025 cumulative IPC: 0.346927 (Simulation time: 0 hr 43 min 30 sec) 
Heartbeat CPU 0 instructions: 364000003 cycles: 1046822042 heartbeat IPC: 0.346222 cumulative IPC: 0.346925 (Simulation time: 0 hr 43 min 34 sec) 
Heartbeat CPU 0 instructions: 365000000 cycles: 1049701057 heartbeat IPC: 0.34734 cumulative IPC: 0.346927 (Simulation time: 0 hr 43 min 41 sec) 
Heartbeat CPU 0 instructions: 366000002 cycles: 1052572428 heartbeat IPC: 0.348266 cumulative IPC: 0.34693 (Simulation time: 0 hr 43 min 48 sec) 
Heartbeat CPU 0 instructions: 367000003 cycles: 1055456155 heartbeat IPC: 0.346774 cumulative IPC: 0.34693 (Simulation time: 0 hr 43 min 54 sec) 
Heartbeat CPU 0 instructions: 368000000 cycles: 1058336425 heartbeat IPC: 0.347189 cumulative IPC: 0.346931 (Simulation time: 0 hr 44 min 2 sec) 
Heartbeat CPU 0 instructions: 369000003 cycles: 1061215011 heartbeat IPC: 0.347394 cumulative IPC: 0.346932 (Simulation time: 0 hr 44 min 8 sec) 
Heartbeat CPU 0 instructions: 370000002 cycles: 1064108653 heartbeat IPC: 0.345585 cumulative IPC: 0.346928 (Simulation time: 0 hr 44 min 12 sec) 
Heartbeat CPU 0 instructions: 371000000 cycles: 1066990562 heartbeat IPC: 0.346992 cumulative IPC: 0.346928 (Simulation time: 0 hr 44 min 17 sec) 
Heartbeat CPU 0 instructions: 372000003 cycles: 1069869500 heartbeat IPC: 0.347351 cumulative IPC: 0.346929 (Simulation time: 0 hr 44 min 22 sec) 
Heartbeat CPU 0 instructions: 373000003 cycles: 1072764545 heartbeat IPC: 0.345418 cumulative IPC: 0.346925 (Simulation time: 0 hr 44 min 28 sec) 
Heartbeat CPU 0 instructions: 374000000 cycles: 1075657255 heartbeat IPC: 0.345696 cumulative IPC: 0.346922 (Simulation time: 0 hr 44 min 34 sec) 
Heartbeat CPU 0 instructions: 375000000 cycles: 1078522245 heartbeat IPC: 0.349041 cumulative IPC: 0.346928 (Simulation time: 0 hr 44 min 38 sec) 
Heartbeat CPU 0 instructions: 376000002 cycles: 1081394235 heartbeat IPC: 0.348191 cumulative IPC: 0.346931 (Simulation time: 0 hr 44 min 43 sec) 
Heartbeat CPU 0 instructions: 377000002 cycles: 1084278916 heartbeat IPC: 0.346659 cumulative IPC: 0.34693 (Simulation time: 0 hr 44 min 48 sec) 
Heartbeat CPU 0 instructions: 378000000 cycles: 1087159460 heartbeat IPC: 0.347156 cumulative IPC: 0.346931 (Simulation time: 0 hr 44 min 52 sec) 
Heartbeat CPU 0 instructions: 379000002 cycles: 1090023198 heartbeat IPC: 0.349195 cumulative IPC: 0.346937 (Simulation time: 0 hr 44 min 57 sec) 
Heartbeat CPU 0 instructions: 380000003 cycles: 1092897945 heartbeat IPC: 0.347857 cumulative IPC: 0.346939 (Simulation time: 0 hr 45 min 2 sec) 
Heartbeat CPU 0 instructions: 381000003 cycles: 1095771602 heartbeat IPC: 0.347989 cumulative IPC: 0.346942 (Simulation time: 0 hr 45 min 7 sec) 
Heartbeat CPU 0 instructions: 382000000 cycles: 1098661970 heartbeat IPC: 0.345976 cumulative IPC: 0.34694 (Simulation time: 0 hr 45 min 11 sec) 
Heartbeat CPU 0 instructions: 383000000 cycles: 1101546122 heartbeat IPC: 0.346722 cumulative IPC: 0.346939 (Simulation time: 0 hr 45 min 16 sec) 
Heartbeat CPU 0 instructions: 384000001 cycles: 1104417975 heartbeat IPC: 0.348208 cumulative IPC: 0.346942 (Simulation time: 0 hr 45 min 21 sec) 
Heartbeat CPU 0 instructions: 385000000 cycles: 1107303466 heartbeat IPC: 0.346561 cumulative IPC: 0.346941 (Simulation time: 0 hr 45 min 26 sec) 
Heartbeat CPU 0 instructions: 386000000 cycles: 1110197077 heartbeat IPC: 0.345589 cumulative IPC: 0.346938 (Simulation time: 0 hr 45 min 31 sec) 
Heartbeat CPU 0 instructions: 387000003 cycles: 1113081364 heartbeat IPC: 0.346707 cumulative IPC: 0.346937 (Simulation time: 0 hr 45 min 38 sec) 
Heartbeat CPU 0 instructions: 388000000 cycles: 1115950780 heartbeat IPC: 0.348502 cumulative IPC: 0.346941 (Simulation time: 0 hr 45 min 46 sec) 
Heartbeat CPU 0 instructions: 389000000 cycles: 1118825143 heartbeat IPC: 0.347903 cumulative IPC: 0.346944 (Simulation time: 0 hr 45 min 54 sec) 
Heartbeat CPU 0 instructions: 390000002 cycles: 1121730037 heartbeat IPC: 0.344247 cumulative IPC: 0.346937 (Simulation time: 0 hr 46 min 2 sec) 
Heartbeat CPU 0 instructions: 391000001 cycles: 1124610798 heartbeat IPC: 0.34713 cumulative IPC: 0.346937 (Simulation time: 0 hr 46 min 9 sec) 
Heartbeat CPU 0 instructions: 392000002 cycles: 1127492813 heartbeat IPC: 0.34698 cumulative IPC: 0.346937 (Simulation time: 0 hr 46 min 14 sec) 
Heartbeat CPU 0 instructions: 393000003 cycles: 1130379635 heartbeat IPC: 0.346402 cumulative IPC: 0.346936 (Simulation time: 0 hr 46 min 19 sec) 
Heartbeat CPU 0 instructions: 394000000 cycles: 1133256234 heartbeat IPC: 0.347632 cumulative IPC: 0.346938 (Simulation time: 0 hr 46 min 23 sec) 
Heartbeat CPU 0 instructions: 395000003 cycles: 1136152899 heartbeat IPC: 0.345226 cumulative IPC: 0.346933 (Simulation time: 0 hr 46 min 28 sec) 
Heartbeat CPU 0 instructions: 396000000 cycles: 1139028354 heartbeat IPC: 0.34777 cumulative IPC: 0.346935 (Simulation time: 0 hr 46 min 33 sec) 
Heartbeat CPU 0 instructions: 397000000 cycles: 1141907396 heartbeat IPC: 0.347338 cumulative IPC: 0.346936 (Simulation time: 0 hr 46 min 37 sec) 
Heartbeat CPU 0 instructions: 398000002 cycles: 1144787808 heartbeat IPC: 0.347173 cumulative IPC: 0.346937 (Simulation time: 0 hr 46 min 42 sec) 
Heartbeat CPU 0 instructions: 399000003 cycles: 1147674871 heartbeat IPC: 0.346373 cumulative IPC: 0.346936 (Simulation time: 0 hr 46 min 47 sec) 
Heartbeat CPU 0 instructions: 400000000 cycles: 1150531925 heartbeat IPC: 0.35001 cumulative IPC: 0.346943 (Simulation time: 0 hr 46 min 51 sec) 
Heartbeat CPU 0 instructions: 401000000 cycles: 1153413346 heartbeat IPC: 0.347051 cumulative IPC: 0.346943 (Simulation time: 0 hr 46 min 56 sec) 
Heartbeat CPU 0 instructions: 402000001 cycles: 1156298344 heartbeat IPC: 0.346621 cumulative IPC: 0.346943 (Simulation time: 0 hr 47 min 1 sec) 
Heartbeat CPU 0 instructions: 403000001 cycles: 1159174418 heartbeat IPC: 0.347696 cumulative IPC: 0.346945 (Simulation time: 0 hr 47 min 5 sec) 
Heartbeat CPU 0 instructions: 404000003 cycles: 1162043044 heartbeat IPC: 0.3486 cumulative IPC: 0.346949 (Simulation time: 0 hr 47 min 10 sec) 
Heartbeat CPU 0 instructions: 405000002 cycles: 1164914371 heartbeat IPC: 0.348271 cumulative IPC: 0.346952 (Simulation time: 0 hr 47 min 15 sec) 
Heartbeat CPU 0 instructions: 406000003 cycles: 1167794565 heartbeat IPC: 0.347199 cumulative IPC: 0.346953 (Simulation time: 0 hr 47 min 20 sec) 
Heartbeat CPU 0 instructions: 407000000 cycles: 1170689191 heartbeat IPC: 0.345467 cumulative IPC: 0.346949 (Simulation time: 0 hr 47 min 24 sec) 
Heartbeat CPU 0 instructions: 408000000 cycles: 1173570412 heartbeat IPC: 0.347075 cumulative IPC: 0.346949 (Simulation time: 0 hr 47 min 29 sec) 
Heartbeat CPU 0 instructions: 409000001 cycles: 1176441572 heartbeat IPC: 0.348292 cumulative IPC: 0.346952 (Simulation time: 0 hr 47 min 33 sec) 
Heartbeat CPU 0 instructions: 410000003 cycles: 1179325214 heartbeat IPC: 0.346784 cumulative IPC: 0.346952 (Simulation time: 0 hr 47 min 38 sec) 
Heartbeat CPU 0 instructions: 411000003 cycles: 1182196996 heartbeat IPC: 0.348216 cumulative IPC: 0.346955 (Simulation time: 0 hr 47 min 44 sec) 
Heartbeat CPU 0 instructions: 412000000 cycles: 1185066893 heartbeat IPC: 0.348444 cumulative IPC: 0.346959 (Simulation time: 0 hr 47 min 49 sec) 
Heartbeat CPU 0 instructions: 413000001 cycles: 1187925149 heartbeat IPC: 0.349864 cumulative IPC: 0.346966 (Simulation time: 0 hr 47 min 53 sec) 
Heartbeat CPU 0 instructions: 414000002 cycles: 1190815299 heartbeat IPC: 0.346003 cumulative IPC: 0.346963 (Simulation time: 0 hr 47 min 58 sec) 
Heartbeat CPU 0 instructions: 415000002 cycles: 1193706981 heartbeat IPC: 0.34582 cumulative IPC: 0.346961 (Simulation time: 0 hr 48 min 3 sec) 
Heartbeat CPU 0 instructions: 416000001 cycles: 1196598545 heartbeat IPC: 0.345833 cumulative IPC: 0.346958 (Simulation time: 0 hr 48 min 8 sec) 
Heartbeat CPU 0 instructions: 417000001 cycles: 1199472774 heartbeat IPC: 0.347919 cumulative IPC: 0.34696 (Simulation time: 0 hr 48 min 12 sec) 
Heartbeat CPU 0 instructions: 418000000 cycles: 1202365663 heartbeat IPC: 0.345675 cumulative IPC: 0.346957 (Simulation time: 0 hr 48 min 18 sec) 
Heartbeat CPU 0 instructions: 419000001 cycles: 1205248791 heartbeat IPC: 0.346846 cumulative IPC: 0.346957 (Simulation time: 0 hr 48 min 23 sec) 
Heartbeat CPU 0 instructions: 420000000 cycles: 1208127904 heartbeat IPC: 0.347329 cumulative IPC: 0.346958 (Simulation time: 0 hr 48 min 30 sec) 
Heartbeat CPU 0 instructions: 421000001 cycles: 1211013784 heartbeat IPC: 0.346515 cumulative IPC: 0.346957 (Simulation time: 0 hr 48 min 37 sec) 
Heartbeat CPU 0 instructions: 422000000 cycles: 1213903295 heartbeat IPC: 0.346079 cumulative IPC: 0.346955 (Simulation time: 0 hr 48 min 45 sec) 
Heartbeat CPU 0 instructions: 423000000 cycles: 1216777719 heartbeat IPC: 0.347896 cumulative IPC: 0.346957 (Simulation time: 0 hr 48 min 52 sec) 
Heartbeat CPU 0 instructions: 424000001 cycles: 1219660385 heartbeat IPC: 0.346901 cumulative IPC: 0.346957 (Simulation time: 0 hr 49 min 0 sec) 
Heartbeat CPU 0 instructions: 425000000 cycles: 1222541378 heartbeat IPC: 0.347102 cumulative IPC: 0.346957 (Simulation time: 0 hr 49 min 7 sec) 
Heartbeat CPU 0 instructions: 426000001 cycles: 1225423163 heartbeat IPC: 0.347007 cumulative IPC: 0.346957 (Simulation time: 0 hr 49 min 15 sec) 
Heartbeat CPU 0 instructions: 427000003 cycles: 1228301169 heartbeat IPC: 0.347463 cumulative IPC: 0.346958 (Simulation time: 0 hr 49 min 23 sec) 
Heartbeat CPU 0 instructions: 428000003 cycles: 1231188897 heartbeat IPC: 0.346293 cumulative IPC: 0.346957 (Simulation time: 0 hr 49 min 28 sec) 
Heartbeat CPU 0 instructions: 429000000 cycles: 1234058633 heartbeat IPC: 0.348463 cumulative IPC: 0.34696 (Simulation time: 0 hr 49 min 33 sec) 
Heartbeat CPU 0 instructions: 430000002 cycles: 1236937298 heartbeat IPC: 0.347384 cumulative IPC: 0.346961 (Simulation time: 0 hr 49 min 37 sec) 
Heartbeat CPU 0 instructions: 431000002 cycles: 1239811684 heartbeat IPC: 0.3479 cumulative IPC: 0.346963 (Simulation time: 0 hr 49 min 42 sec) 
Heartbeat CPU 0 instructions: 432000003 cycles: 1242697003 heartbeat IPC: 0.346582 cumulative IPC: 0.346963 (Simulation time: 0 hr 49 min 47 sec) 
Heartbeat CPU 0 instructions: 433000002 cycles: 1245557146 heartbeat IPC: 0.349633 cumulative IPC: 0.346969 (Simulation time: 0 hr 49 min 51 sec) 
Heartbeat CPU 0 instructions: 434000001 cycles: 1248438167 heartbeat IPC: 0.347099 cumulative IPC: 0.346969 (Simulation time: 0 hr 49 min 58 sec) 
Heartbeat CPU 0 instructions: 435000003 cycles: 1251310553 heartbeat IPC: 0.348143 cumulative IPC: 0.346972 (Simulation time: 0 hr 50 min 5 sec) 
Heartbeat CPU 0 instructions: 436000001 cycles: 1254194823 heartbeat IPC: 0.346707 cumulative IPC: 0.346971 (Simulation time: 0 hr 50 min 9 sec) 
Heartbeat CPU 0 instructions: 437000002 cycles: 1257068168 heartbeat IPC: 0.348027 cumulative IPC: 0.346973 (Simulation time: 0 hr 50 min 14 sec) 
Heartbeat CPU 0 instructions: 438000001 cycles: 1259945892 heartbeat IPC: 0.347496 cumulative IPC: 0.346975 (Simulation time: 0 hr 50 min 18 sec) 
Heartbeat CPU 0 instructions: 439000002 cycles: 1262822165 heartbeat IPC: 0.347672 cumulative IPC: 0.346976 (Simulation time: 0 hr 50 min 26 sec) 
Heartbeat CPU 0 instructions: 440000000 cycles: 1265744266 heartbeat IPC: 0.342219 cumulative IPC: 0.346965 (Simulation time: 0 hr 50 min 32 sec) 
Heartbeat CPU 0 instructions: 441000000 cycles: 1268623221 heartbeat IPC: 0.347348 cumulative IPC: 0.346966 (Simulation time: 0 hr 50 min 36 sec) 
Heartbeat CPU 0 instructions: 442000000 cycles: 1271519066 heartbeat IPC: 0.345322 cumulative IPC: 0.346962 (Simulation time: 0 hr 50 min 43 sec) 
Heartbeat CPU 0 instructions: 443000001 cycles: 1274397139 heartbeat IPC: 0.347455 cumulative IPC: 0.346963 (Simulation time: 0 hr 50 min 50 sec) 
Heartbeat CPU 0 instructions: 444000002 cycles: 1277275303 heartbeat IPC: 0.347444 cumulative IPC: 0.346965 (Simulation time: 0 hr 50 min 55 sec) 
Heartbeat CPU 0 instructions: 445000003 cycles: 1280153367 heartbeat IPC: 0.347456 cumulative IPC: 0.346966 (Simulation time: 0 hr 51 min 0 sec) 
Heartbeat CPU 0 instructions: 446000001 cycles: 1283040021 heartbeat IPC: 0.346421 cumulative IPC: 0.346964 (Simulation time: 0 hr 51 min 4 sec) 
Heartbeat CPU 0 instructions: 447000001 cycles: 1285924806 heartbeat IPC: 0.346646 cumulative IPC: 0.346964 (Simulation time: 0 hr 51 min 10 sec) 
Heartbeat CPU 0 instructions: 448000001 cycles: 1288806682 heartbeat IPC: 0.346996 cumulative IPC: 0.346964 (Simulation time: 0 hr 51 min 16 sec) 
Heartbeat CPU 0 instructions: 449000001 cycles: 1291666778 heartbeat IPC: 0.349639 cumulative IPC: 0.34697 (Simulation time: 0 hr 51 min 22 sec) 
Heartbeat CPU 0 instructions: 450000000 cycles: 1294536332 heartbeat IPC: 0.348486 cumulative IPC: 0.346973 (Simulation time: 0 hr 51 min 30 sec) 

Warmup complete CPU 0 instructions: 450000001 cycles: 1294536333 (Simulation time: 0 hr 51 min 30 sec) 

Heartbeat CPU 0 instructions: 451000000 cycles: 1296263195 heartbeat IPC: 0.579085 cumulative IPC: 0.579085 (Simulation time: 0 hr 51 min 36 sec) 
Heartbeat CPU 0 instructions: 452000000 cycles: 1297970359 heartbeat IPC: 0.585767 cumulative IPC: 0.582406 (Simulation time: 0 hr 51 min 43 sec) 
Heartbeat CPU 0 instructions: 453000002 cycles: 1299667880 heartbeat IPC: 0.589096 cumulative IPC: 0.584619 (Simulation time: 0 hr 51 min 50 sec) 
Heartbeat CPU 0 instructions: 454000002 cycles: 1301383129 heartbeat IPC: 0.583006 cumulative IPC: 0.584215 (Simulation time: 0 hr 51 min 56 sec) 
Heartbeat CPU 0 instructions: 455000000 cycles: 1303107117 heartbeat IPC: 0.580049 cumulative IPC: 0.583377 (Simulation time: 0 hr 52 min 3 sec) 
Heartbeat CPU 0 instructions: 456000000 cycles: 1304801209 heartbeat IPC: 0.590287 cumulative IPC: 0.584517 (Simulation time: 0 hr 52 min 10 sec) 
Heartbeat CPU 0 instructions: 457000000 cycles: 1306512729 heartbeat IPC: 0.584276 cumulative IPC: 0.584483 (Simulation time: 0 hr 52 min 16 sec) 
Heartbeat CPU 0 instructions: 458000003 cycles: 1308215799 heartbeat IPC: 0.587177 cumulative IPC: 0.584818 (Simulation time: 0 hr 52 min 20 sec) 
Heartbeat CPU 0 instructions: 459000002 cycles: 1309926724 heartbeat IPC: 0.584479 cumulative IPC: 0.584781 (Simulation time: 0 hr 52 min 24 sec) 
Heartbeat CPU 0 instructions: 460000003 cycles: 1311651923 heartbeat IPC: 0.579644 cumulative IPC: 0.584263 (Simulation time: 0 hr 52 min 28 sec) 
Heartbeat CPU 0 instructions: 461000001 cycles: 1313361332 heartbeat IPC: 0.584996 cumulative IPC: 0.584329 (Simulation time: 0 hr 52 min 31 sec) 
Heartbeat CPU 0 instructions: 462000000 cycles: 1315056381 heartbeat IPC: 0.589953 cumulative IPC: 0.584794 (Simulation time: 0 hr 52 min 35 sec) 
Heartbeat CPU 0 instructions: 463000000 cycles: 1316751757 heartbeat IPC: 0.58984 cumulative IPC: 0.585179 (Simulation time: 0 hr 52 min 39 sec) 
Heartbeat CPU 0 instructions: 464000001 cycles: 1318457667 heartbeat IPC: 0.586198 cumulative IPC: 0.585252 (Simulation time: 0 hr 52 min 43 sec) 
Heartbeat CPU 0 instructions: 465000000 cycles: 1320153636 heartbeat IPC: 0.589633 cumulative IPC: 0.585542 (Simulation time: 0 hr 52 min 47 sec) 
Heartbeat CPU 0 instructions: 466000003 cycles: 1321863838 heartbeat IPC: 0.584728 cumulative IPC: 0.585491 (Simulation time: 0 hr 52 min 52 sec) 
Heartbeat CPU 0 instructions: 467000000 cycles: 1323555883 heartbeat IPC: 0.590999 cumulative IPC: 0.585812 (Simulation time: 0 hr 52 min 56 sec) 
Heartbeat CPU 0 instructions: 468000002 cycles: 1325257901 heartbeat IPC: 0.587539 cumulative IPC: 0.585908 (Simulation time: 0 hr 53 min 0 sec) 
Heartbeat CPU 0 instructions: 469000000 cycles: 1326961200 heartbeat IPC: 0.587095 cumulative IPC: 0.58597 (Simulation time: 0 hr 53 min 4 sec) 
Heartbeat CPU 0 instructions: 470000002 cycles: 1328666661 heartbeat IPC: 0.586353 cumulative IPC: 0.585989 (Simulation time: 0 hr 53 min 8 sec) 
Heartbeat CPU 0 instructions: 471000000 cycles: 1330376814 heartbeat IPC: 0.584742 cumulative IPC: 0.58593 (Simulation time: 0 hr 53 min 12 sec) 
Heartbeat CPU 0 instructions: 472000000 cycles: 1332084573 heartbeat IPC: 0.585563 cumulative IPC: 0.585913 (Simulation time: 0 hr 53 min 16 sec) 
Heartbeat CPU 0 instructions: 473000000 cycles: 1333796290 heartbeat IPC: 0.584209 cumulative IPC: 0.585839 (Simulation time: 0 hr 53 min 20 sec) 
Heartbeat CPU 0 instructions: 474000001 cycles: 1335491244 heartbeat IPC: 0.589987 cumulative IPC: 0.58601 (Simulation time: 0 hr 53 min 24 sec) 
Heartbeat CPU 0 instructions: 475000000 cycles: 1337188026 heartbeat IPC: 0.58935 cumulative IPC: 0.586143 (Simulation time: 0 hr 53 min 28 sec) 
Heartbeat CPU 0 instructions: 476000003 cycles: 1338905739 heartbeat IPC: 0.582171 cumulative IPC: 0.585989 (Simulation time: 0 hr 53 min 34 sec) 
Heartbeat CPU 0 instructions: 477000002 cycles: 1340615152 heartbeat IPC: 0.584996 cumulative IPC: 0.585953 (Simulation time: 0 hr 53 min 40 sec) 
Heartbeat CPU 0 instructions: 478000002 cycles: 1342317430 heartbeat IPC: 0.587448 cumulative IPC: 0.586006 (Simulation time: 0 hr 53 min 44 sec) 
Heartbeat CPU 0 instructions: 479000003 cycles: 1344052407 heartbeat IPC: 0.576377 cumulative IPC: 0.585668 (Simulation time: 0 hr 53 min 48 sec) 
Heartbeat CPU 0 instructions: 480000000 cycles: 1345754061 heartbeat IPC: 0.587662 cumulative IPC: 0.585735 (Simulation time: 0 hr 53 min 52 sec) 
Heartbeat CPU 0 instructions: 481000002 cycles: 1347455213 heartbeat IPC: 0.587838 cumulative IPC: 0.585802 (Simulation time: 0 hr 53 min 57 sec) 
Heartbeat CPU 0 instructions: 482000003 cycles: 1349171121 heartbeat IPC: 0.582782 cumulative IPC: 0.585707 (Simulation time: 0 hr 54 min 3 sec) 
Heartbeat CPU 0 instructions: 483000000 cycles: 1350880465 heartbeat IPC: 0.585018 cumulative IPC: 0.585687 (Simulation time: 0 hr 54 min 10 sec) 
Heartbeat CPU 0 instructions: 484000000 cycles: 1352584294 heartbeat IPC: 0.586913 cumulative IPC: 0.585723 (Simulation time: 0 hr 54 min 16 sec) 
Heartbeat CPU 0 instructions: 485000002 cycles: 1354279139 heartbeat IPC: 0.590026 cumulative IPC: 0.585845 (Simulation time: 0 hr 54 min 21 sec) 
Heartbeat CPU 0 instructions: 486000002 cycles: 1355978241 heartbeat IPC: 0.588546 cumulative IPC: 0.585919 (Simulation time: 0 hr 54 min 25 sec) 
Heartbeat CPU 0 instructions: 487000002 cycles: 1357677630 heartbeat IPC: 0.588447 cumulative IPC: 0.585987 (Simulation time: 0 hr 54 min 31 sec) 
Heartbeat CPU 0 instructions: 488000003 cycles: 1359382813 heartbeat IPC: 0.586448 cumulative IPC: 0.585999 (Simulation time: 0 hr 54 min 35 sec) 
Heartbeat CPU 0 instructions: 489000002 cycles: 1361092989 heartbeat IPC: 0.584735 cumulative IPC: 0.585967 (Simulation time: 0 hr 54 min 38 sec) 
Heartbeat CPU 0 instructions: 490000000 cycles: 1362796203 heartbeat IPC: 0.587124 cumulative IPC: 0.585996 (Simulation time: 0 hr 54 min 42 sec) 
Heartbeat CPU 0 instructions: 491000000 cycles: 1364499112 heartbeat IPC: 0.58723 cumulative IPC: 0.586026 (Simulation time: 0 hr 54 min 46 sec) 
Heartbeat CPU 0 instructions: 492000000 cycles: 1366215069 heartbeat IPC: 0.582765 cumulative IPC: 0.585948 (Simulation time: 0 hr 54 min 50 sec) 
Heartbeat CPU 0 instructions: 493000003 cycles: 1367935514 heartbeat IPC: 0.581247 cumulative IPC: 0.585838 (Simulation time: 0 hr 54 min 54 sec) 
Heartbeat CPU 0 instructions: 494000000 cycles: 1369638306 heartbeat IPC: 0.587269 cumulative IPC: 0.58587 (Simulation time: 0 hr 54 min 58 sec) 
Heartbeat CPU 0 instructions: 495000000 cycles: 1371355616 heartbeat IPC: 0.582306 cumulative IPC: 0.58579 (Simulation time: 0 hr 55 min 2 sec) 
Heartbeat CPU 0 instructions: 496000002 cycles: 1373061518 heartbeat IPC: 0.586201 cumulative IPC: 0.585799 (Simulation time: 0 hr 55 min 7 sec) 
Heartbeat CPU 0 instructions: 497000000 cycles: 1374780076 heartbeat IPC: 0.581882 cumulative IPC: 0.585715 (Simulation time: 0 hr 55 min 13 sec) 
Heartbeat CPU 0 instructions: 498000001 cycles: 1376493418 heartbeat IPC: 0.583655 cumulative IPC: 0.585672 (Simulation time: 0 hr 55 min 17 sec) 
Heartbeat CPU 0 instructions: 499000003 cycles: 1378206753 heartbeat IPC: 0.583658 cumulative IPC: 0.585631 (Simulation time: 0 hr 55 min 21 sec) 
Heartbeat CPU 0 instructions: 500000000 cycles: 1379918665 heartbeat IPC: 0.58414 cumulative IPC: 0.585601 (Simulation time: 0 hr 55 min 25 sec) 
Heartbeat CPU 0 instructions: 501000000 cycles: 1381652020 heartbeat IPC: 0.576916 cumulative IPC: 0.585428 (Simulation time: 0 hr 55 min 28 sec) 
Heartbeat CPU 0 instructions: 502000002 cycles: 1383372844 heartbeat IPC: 0.581118 cumulative IPC: 0.585345 (Simulation time: 0 hr 55 min 32 sec) 
Heartbeat CPU 0 instructions: 503000001 cycles: 1385097635 heartbeat IPC: 0.57978 cumulative IPC: 0.585239 (Simulation time: 0 hr 55 min 36 sec) 
Heartbeat CPU 0 instructions: 504000001 cycles: 1386818798 heartbeat IPC: 0.581002 cumulative IPC: 0.58516 (Simulation time: 0 hr 55 min 41 sec) 
Heartbeat CPU 0 instructions: 505000003 cycles: 1388532647 heartbeat IPC: 0.583483 cumulative IPC: 0.585129 (Simulation time: 0 hr 55 min 45 sec) 
Heartbeat CPU 0 instructions: 506000000 cycles: 1390244722 heartbeat IPC: 0.584085 cumulative IPC: 0.585111 (Simulation time: 0 hr 55 min 49 sec) 
Heartbeat CPU 0 instructions: 507000003 cycles: 1391932624 heartbeat IPC: 0.592453 cumulative IPC: 0.585238 (Simulation time: 0 hr 55 min 53 sec) 
Heartbeat CPU 0 instructions: 508000003 cycles: 1393634271 heartbeat IPC: 0.587666 cumulative IPC: 0.58528 (Simulation time: 0 hr 55 min 57 sec) 
Heartbeat CPU 0 instructions: 509000000 cycles: 1395333054 heartbeat IPC: 0.588655 cumulative IPC: 0.585337 (Simulation time: 0 hr 56 min 1 sec) 
Heartbeat CPU 0 instructions: 510000003 cycles: 1397039599 heartbeat IPC: 0.585981 cumulative IPC: 0.585347 (Simulation time: 0 hr 56 min 5 sec) 
Heartbeat CPU 0 instructions: 511000001 cycles: 1398731941 heartbeat IPC: 0.590896 cumulative IPC: 0.585437 (Simulation time: 0 hr 56 min 9 sec) 
Heartbeat CPU 0 instructions: 512000000 cycles: 1400432562 heartbeat IPC: 0.58802 cumulative IPC: 0.585479 (Simulation time: 0 hr 56 min 13 sec) 
Heartbeat CPU 0 instructions: 513000000 cycles: 1402134752 heartbeat IPC: 0.587478 cumulative IPC: 0.58551 (Simulation time: 0 hr 56 min 17 sec) 
Heartbeat CPU 0 instructions: 514000000 cycles: 1403850435 heartbeat IPC: 0.582858 cumulative IPC: 0.585469 (Simulation time: 0 hr 56 min 21 sec) 
Heartbeat CPU 0 instructions: 515000000 cycles: 1405543271 heartbeat IPC: 0.590725 cumulative IPC: 0.585549 (Simulation time: 0 hr 56 min 25 sec) 
Heartbeat CPU 0 instructions: 516000002 cycles: 1407226202 heartbeat IPC: 0.594203 cumulative IPC: 0.585678 (Simulation time: 0 hr 56 min 29 sec) 
Heartbeat CPU 0 instructions: 517000000 cycles: 1408923839 heartbeat IPC: 0.589053 cumulative IPC: 0.585728 (Simulation time: 0 hr 56 min 33 sec) 
Heartbeat CPU 0 instructions: 518000000 cycles: 1410605804 heartbeat IPC: 0.594543 cumulative IPC: 0.585856 (Simulation time: 0 hr 56 min 37 sec) 
Heartbeat CPU 0 instructions: 519000000 cycles: 1412320517 heartbeat IPC: 0.583188 cumulative IPC: 0.585817 (Simulation time: 0 hr 56 min 41 sec) 
Heartbeat CPU 0 instructions: 520000002 cycles: 1414008408 heartbeat IPC: 0.592457 cumulative IPC: 0.585911 (Simulation time: 0 hr 56 min 45 sec) 
Heartbeat CPU 0 instructions: 521000000 cycles: 1415709631 heartbeat IPC: 0.587811 cumulative IPC: 0.585938 (Simulation time: 0 hr 56 min 49 sec) 
Heartbeat CPU 0 instructions: 522000003 cycles: 1417412209 heartbeat IPC: 0.587346 cumulative IPC: 0.585957 (Simulation time: 0 hr 56 min 53 sec) 
Heartbeat CPU 0 instructions: 523000001 cycles: 1419107985 heartbeat IPC: 0.589699 cumulative IPC: 0.586008 (Simulation time: 0 hr 56 min 57 sec) 
Heartbeat CPU 0 instructions: 524000000 cycles: 1420807293 heartbeat IPC: 0.588474 cumulative IPC: 0.586041 (Simulation time: 0 hr 57 min 2 sec) 
Heartbeat CPU 0 instructions: 525000000 cycles: 1422513128 heartbeat IPC: 0.586223 cumulative IPC: 0.586044 (Simulation time: 0 hr 57 min 6 sec) 
Heartbeat CPU 0 instructions: 526000000 cycles: 1424205786 heartbeat IPC: 0.590787 cumulative IPC: 0.586106 (Simulation time: 0 hr 57 min 11 sec) 
Heartbeat CPU 0 instructions: 527000003 cycles: 1425909586 heartbeat IPC: 0.586925 cumulative IPC: 0.586116 (Simulation time: 0 hr 57 min 16 sec) 
Heartbeat CPU 0 instructions: 528000000 cycles: 1427619145 heartbeat IPC: 0.584944 cumulative IPC: 0.586101 (Simulation time: 0 hr 57 min 23 sec) 
Heartbeat CPU 0 instructions: 529000001 cycles: 1429320676 heartbeat IPC: 0.587707 cumulative IPC: 0.586121 (Simulation time: 0 hr 57 min 30 sec) 
Heartbeat CPU 0 instructions: 530000001 cycles: 1431018482 heartbeat IPC: 0.588995 cumulative IPC: 0.586157 (Simulation time: 0 hr 57 min 36 sec) 
Heartbeat CPU 0 instructions: 531000003 cycles: 1432726844 heartbeat IPC: 0.585357 cumulative IPC: 0.586147 (Simulation time: 0 hr 57 min 40 sec) 
Heartbeat CPU 0 instructions: 532000000 cycles: 1434453737 heartbeat IPC: 0.579073 cumulative IPC: 0.58606 (Simulation time: 0 hr 57 min 44 sec) 
Heartbeat CPU 0 instructions: 533000000 cycles: 1436195119 heartbeat IPC: 0.574257 cumulative IPC: 0.585915 (Simulation time: 0 hr 57 min 48 sec) 
Heartbeat CPU 0 instructions: 534000000 cycles: 1437898872 heartbeat IPC: 0.58694 cumulative IPC: 0.585927 (Simulation time: 0 hr 57 min 53 sec) 
Heartbeat CPU 0 instructions: 535000001 cycles: 1439607558 heartbeat IPC: 0.585246 cumulative IPC: 0.585919 (Simulation time: 0 hr 57 min 59 sec) 
Heartbeat CPU 0 instructions: 536000002 cycles: 1441333636 heartbeat IPC: 0.579349 cumulative IPC: 0.585842 (Simulation time: 0 hr 58 min 3 sec) 
Heartbeat CPU 0 instructions: 537000001 cycles: 1443065068 heartbeat IPC: 0.577556 cumulative IPC: 0.585745 (Simulation time: 0 hr 58 min 7 sec) 
Heartbeat CPU 0 instructions: 538000002 cycles: 1444767510 heartbeat IPC: 0.587392 cumulative IPC: 0.585764 (Simulation time: 0 hr 58 min 11 sec) 
Heartbeat CPU 0 instructions: 539000000 cycles: 1446477051 heartbeat IPC: 0.584951 cumulative IPC: 0.585755 (Simulation time: 0 hr 58 min 16 sec) 
Heartbeat CPU 0 instructions: 540000003 cycles: 1448187688 heartbeat IPC: 0.584579 cumulative IPC: 0.585742 (Simulation time: 0 hr 58 min 22 sec) 
Heartbeat CPU 0 instructions: 541000003 cycles: 1449912900 heartbeat IPC: 0.579639 cumulative IPC: 0.585674 (Simulation time: 0 hr 58 min 29 sec) 
Heartbeat CPU 0 instructions: 542000000 cycles: 1451614123 heartbeat IPC: 0.587811 cumulative IPC: 0.585697 (Simulation time: 0 hr 58 min 36 sec) 
Heartbeat CPU 0 instructions: 543000000 cycles: 1453365534 heartbeat IPC: 0.570968 cumulative IPC: 0.585535 (Simulation time: 0 hr 58 min 42 sec) 
Heartbeat CPU 0 instructions: 544000000 cycles: 1455074741 heartbeat IPC: 0.585067 cumulative IPC: 0.58553 (Simulation time: 0 hr 58 min 49 sec) 
Heartbeat CPU 0 instructions: 545000000 cycles: 1456803752 heartbeat IPC: 0.578365 cumulative IPC: 0.585453 (Simulation time: 0 hr 58 min 55 sec) 
[...]
Heartbeat CPU 0 instructions: 834000001 cycles: 1963476553 heartbeat IPC: 0.587004 cumulative IPC: 0.574042 (Simulation time: 1 hr 21 min 15 sec) 
Heartbeat CPU 0 instructions: 835000000 cycles: 1965206183 heartbeat IPC: 0.578158 cumulative IPC: 0.574053 (Simulation time: 1 hr 21 min 19 sec) 
Heartbeat CPU 0 instructions: 836000000 cycles: 1966907124 heartbeat IPC: 0.58791 cumulative IPC: 0.574088 (Simulation time: 1 hr 21 min 23 sec) 
Heartbeat CPU 0 instructions: 837000000 cycles: 1968618263 heartbeat IPC: 0.584406 cumulative IPC: 0.574114 (Simulation time: 1 hr 21 min 27 sec) 
Heartbeat CPU 0 instructions: 838000003 cycles: 1970345168 heartbeat IPC: 0.579072 cumulative IPC: 0.574127 (Simulation time: 1 hr 21 min 30 sec) 
Heartbeat CPU 0 instructions: 839000000 cycles: 1972046304 heartbeat IPC: 0.587841 cumulative IPC: 0.574161 (Simulation time: 1 hr 21 min 34 sec) 
Heartbeat CPU 0 instructions: 840000002 cycles: 1973746411 heartbeat IPC: 0.588199 cumulative IPC: 0.574196 (Simulation time: 1 hr 21 min 38 sec) 
Heartbeat CPU 0 instructions: 841000002 cycles: 1975451427 heartbeat IPC: 0.586505 cumulative IPC: 0.574227 (Simulation time: 1 hr 21 min 42 sec) 
Heartbeat CPU 0 instructions: 842000000 cycles: 1977154336 heartbeat IPC: 0.587229 cumulative IPC: 0.57426 (Simulation time: 1 hr 21 min 46 sec) 
Heartbeat CPU 0 instructions: 843000002 cycles: 1978876451 heartbeat IPC: 0.580682 cumulative IPC: 0.574276 (Simulation time: 1 hr 21 min 52 sec) 
Heartbeat CPU 0 instructions: 844000000 cycles: 1980616163 heartbeat IPC: 0.574807 cumulative IPC: 0.574277 (Simulation time: 1 hr 21 min 58 sec) 
Heartbeat CPU 0 instructions: 845000003 cycles: 1982337742 heartbeat IPC: 0.580864 cumulative IPC: 0.574294 (Simulation time: 1 hr 22 min 4 sec) 
Heartbeat CPU 0 instructions: 846000000 cycles: 1984036334 heartbeat IPC: 0.588721 cumulative IPC: 0.574329 (Simulation time: 1 hr 22 min 11 sec) 
Heartbeat CPU 0 instructions: 847000000 cycles: 1985743814 heartbeat IPC: 0.585658 cumulative IPC: 0.574357 (Simulation time: 1 hr 22 min 17 sec) 
Heartbeat CPU 0 instructions: 848000003 cycles: 1987443014 heartbeat IPC: 0.588514 cumulative IPC: 0.574392 (Simulation time: 1 hr 22 min 23 sec) 
Heartbeat CPU 0 instructions: 849000003 cycles: 1989178177 heartbeat IPC: 0.576315 cumulative IPC: 0.574397 (Simulation time: 1 hr 22 min 30 sec) 
Heartbeat CPU 0 instructions: 850000000 cycles: 1990871550 heartbeat IPC: 0.590536 cumulative IPC: 0.574436 (Simulation time: 1 hr 22 min 35 sec) 
Heartbeat CPU 0 instructions: 851000002 cycles: 1992599053 heartbeat IPC: 0.578871 cumulative IPC: 0.574447 (Simulation time: 1 hr 22 min 39 sec) 
Heartbeat CPU 0 instructions: 852000000 cycles: 1994298609 heartbeat IPC: 0.588388 cumulative IPC: 0.574481 (Simulation time: 1 hr 22 min 43 sec) 
Heartbeat CPU 0 instructions: 853000000 cycles: 1995990449 heartbeat IPC: 0.591072 cumulative IPC: 0.574521 (Simulation time: 1 hr 22 min 47 sec) 
Heartbeat CPU 0 instructions: 854000001 cycles: 1997695159 heartbeat IPC: 0.586611 cumulative IPC: 0.57455 (Simulation time: 1 hr 22 min 51 sec) 
Heartbeat CPU 0 instructions: 855000001 cycles: 1999379305 heartbeat IPC: 0.593773 cumulative IPC: 0.574596 (Simulation time: 1 hr 22 min 55 sec) 
Heartbeat CPU 0 instructions: 856000000 cycles: 2001066125 heartbeat IPC: 0.592831 cumulative IPC: 0.57464 (Simulation time: 1 hr 22 min 59 sec) 
Heartbeat CPU 0 instructions: 857000000 cycles: 2002752725 heartbeat IPC: 0.592909 cumulative IPC: 0.574683 (Simulation time: 1 hr 23 min 3 sec) 
Heartbeat CPU 0 instructions: 858000000 cycles: 2004451411 heartbeat IPC: 0.58869 cumulative IPC: 0.574717 (Simulation time: 1 hr 23 min 7 sec) 
Heartbeat CPU 0 instructions: 859000000 cycles: 2006156340 heartbeat IPC: 0.586535 cumulative IPC: 0.574745 (Simulation time: 1 hr 23 min 11 sec) 
Heartbeat CPU 0 instructions: 860000000 cycles: 2007845959 heartbeat IPC: 0.591849 cumulative IPC: 0.574785 (Simulation time: 1 hr 23 min 14 sec) 
Heartbeat CPU 0 instructions: 861000000 cycles: 2009543220 heartbeat IPC: 0.589185 cumulative IPC: 0.57482 (Simulation time: 1 hr 23 min 18 sec) 
Heartbeat CPU 0 instructions: 862000002 cycles: 2011243812 heartbeat IPC: 0.588032 cumulative IPC: 0.574851 (Simulation time: 1 hr 23 min 22 sec) 
Heartbeat CPU 0 instructions: 863000000 cycles: 2012923785 heartbeat IPC: 0.595246 cumulative IPC: 0.574899 (Simulation time: 1 hr 23 min 26 sec) 
Heartbeat CPU 0 instructions: 864000003 cycles: 2014620465 heartbeat IPC: 0.589388 cumulative IPC: 0.574933 (Simulation time: 1 hr 23 min 30 sec) 
Heartbeat CPU 0 instructions: 865000000 cycles: 2016323138 heartbeat IPC: 0.58731 cumulative IPC: 0.574962 (Simulation time: 1 hr 23 min 34 sec) 
Heartbeat CPU 0 instructions: 866000001 cycles: 2018022863 heartbeat IPC: 0.588331 cumulative IPC: 0.574993 (Simulation time: 1 hr 23 min 38 sec) 
Heartbeat CPU 0 instructions: 867000000 cycles: 2019708728 heartbeat IPC: 0.593167 cumulative IPC: 0.575036 (Simulation time: 1 hr 23 min 42 sec) 
Heartbeat CPU 0 instructions: 868000003 cycles: 2021406554 heartbeat IPC: 0.58899 cumulative IPC: 0.575068 (Simulation time: 1 hr 23 min 46 sec) 
Heartbeat CPU 0 instructions: 869000000 cycles: 2023105231 heartbeat IPC: 0.588692 cumulative IPC: 0.5751 (Simulation time: 1 hr 23 min 49 sec) 
Heartbeat CPU 0 instructions: 870000003 cycles: 2024809752 heartbeat IPC: 0.586677 cumulative IPC: 0.575127 (Simulation time: 1 hr 23 min 53 sec) 
Heartbeat CPU 0 instructions: 871000003 cycles: 2026510918 heartbeat IPC: 0.587832 cumulative IPC: 0.575157 (Simulation time: 1 hr 23 min 57 sec) 
Heartbeat CPU 0 instructions: 872000000 cycles: 2028237416 heartbeat IPC: 0.579205 cumulative IPC: 0.575166 (Simulation time: 1 hr 24 min 1 sec) 
Heartbeat CPU 0 instructions: 873000001 cycles: 2029951337 heartbeat IPC: 0.583458 cumulative IPC: 0.575185 (Simulation time: 1 hr 24 min 5 sec) 
Heartbeat CPU 0 instructions: 874000002 cycles: 2031640792 heartbeat IPC: 0.591907 cumulative IPC: 0.575224 (Simulation time: 1 hr 24 min 9 sec) 
Heartbeat CPU 0 instructions: 875000000 cycles: 2033338709 heartbeat IPC: 0.588956 cumulative IPC: 0.575255 (Simulation time: 1 hr 24 min 13 sec) 
Heartbeat CPU 0 instructions: 876000003 cycles: 2035038876 heartbeat IPC: 0.588179 cumulative IPC: 0.575285 (Simulation time: 1 hr 24 min 17 sec) 
Heartbeat CPU 0 instructions: 877000001 cycles: 2036744041 heartbeat IPC: 0.586452 cumulative IPC: 0.575311 (Simulation time: 1 hr 24 min 21 sec) 
Heartbeat CPU 0 instructions: 878000002 cycles: 2038442671 heartbeat IPC: 0.58871 cumulative IPC: 0.575341 (Simulation time: 1 hr 24 min 25 sec) 
Heartbeat CPU 0 instructions: 879000003 cycles: 2040128993 heartbeat IPC: 0.593007 cumulative IPC: 0.575381 (Simulation time: 1 hr 24 min 29 sec) 
Heartbeat CPU 0 instructions: 880000000 cycles: 2041820063 heartbeat IPC: 0.59134 cumulative IPC: 0.575417 (Simulation time: 1 hr 24 min 33 sec) 
Heartbeat CPU 0 instructions: 881000002 cycles: 2043522297 heartbeat IPC: 0.587464 cumulative IPC: 0.575445 (Simulation time: 1 hr 24 min 37 sec) 
Heartbeat CPU 0 instructions: 882000003 cycles: 2045225880 heartbeat IPC: 0.586999 cumulative IPC: 0.575471 (Simulation time: 1 hr 24 min 41 sec) 
Heartbeat CPU 0 instructions: 883000003 cycles: 2046912979 heartbeat IPC: 0.592733 cumulative IPC: 0.57551 (Simulation time: 1 hr 24 min 45 sec) 
Heartbeat CPU 0 instructions: 884000000 cycles: 2048602778 heartbeat IPC: 0.591785 cumulative IPC: 0.575546 (Simulation time: 1 hr 24 min 49 sec) 
Heartbeat CPU 0 instructions: 885000001 cycles: 2050302297 heartbeat IPC: 0.588402 cumulative IPC: 0.575575 (Simulation time: 1 hr 24 min 52 sec) 
Heartbeat CPU 0 instructions: 886000003 cycles: 2052003532 heartbeat IPC: 0.587809 cumulative IPC: 0.575602 (Simulation time: 1 hr 24 min 59 sec) 
Heartbeat CPU 0 instructions: 887000003 cycles: 2053702831 heartbeat IPC: 0.588478 cumulative IPC: 0.575631 (Simulation time: 1 hr 25 min 4 sec) 
Heartbeat CPU 0 instructions: 888000001 cycles: 2055418678 heartbeat IPC: 0.582801 cumulative IPC: 0.575647 (Simulation time: 1 hr 25 min 8 sec) 
Heartbeat CPU 0 instructions: 889000002 cycles: 2057125935 heartbeat IPC: 0.585735 cumulative IPC: 0.57567 (Simulation time: 1 hr 25 min 12 sec) 
Heartbeat CPU 0 instructions: 890000001 cycles: 2058823760 heartbeat IPC: 0.588988 cumulative IPC: 0.5757 (Simulation time: 1 hr 25 min 16 sec) 
Heartbeat CPU 0 instructions: 891000000 cycles: 2060522657 heartbeat IPC: 0.588617 cumulative IPC: 0.575728 (Simulation time: 1 hr 25 min 20 sec) 
Heartbeat CPU 0 instructions: 892000000 cycles: 2062222575 heartbeat IPC: 0.588264 cumulative IPC: 0.575756 (Simulation time: 1 hr 25 min 23 sec) 
Heartbeat CPU 0 instructions: 893000001 cycles: 2063957575 heartbeat IPC: 0.576369 cumulative IPC: 0.575757 (Simulation time: 1 hr 25 min 27 sec) 
Heartbeat CPU 0 instructions: 894000001 cycles: 2065658473 heartbeat IPC: 0.587925 cumulative IPC: 0.575784 (Simulation time: 1 hr 25 min 31 sec) 
Heartbeat CPU 0 instructions: 895000001 cycles: 2067367928 heartbeat IPC: 0.584982 cumulative IPC: 0.575805 (Simulation time: 1 hr 25 min 35 sec) 
Heartbeat CPU 0 instructions: 896000000 cycles: 2069078383 heartbeat IPC: 0.584639 cumulative IPC: 0.575824 (Simulation time: 1 hr 25 min 39 sec) 
Heartbeat CPU 0 instructions: 897000003 cycles: 2070782997 heartbeat IPC: 0.586645 cumulative IPC: 0.575848 (Simulation time: 1 hr 25 min 43 sec) 
Heartbeat CPU 0 instructions: 898000000 cycles: 2072489246 heartbeat IPC: 0.586079 cumulative IPC: 0.57587 (Simulation time: 1 hr 25 min 47 sec) 
Heartbeat CPU 0 instructions: 899000000 cycles: 2074196278 heartbeat IPC: 0.585812 cumulative IPC: 0.575892 (Simulation time: 1 hr 25 min 51 sec) 
Heartbeat CPU 0 instructions: 900000002 cycles: 2075897717 heartbeat IPC: 0.587739 cumulative IPC: 0.575918 (Simulation time: 1 hr 25 min 55 sec) 
Heartbeat CPU 0 instructions: 901000003 cycles: 2077602319 heartbeat IPC: 0.586648 cumulative IPC: 0.575941 (Simulation time: 1 hr 25 min 58 sec) 
Heartbeat CPU 0 instructions: 902000000 cycles: 2079319154 heartbeat IPC: 0.582465 cumulative IPC: 0.575956 (Simulation time: 1 hr 26 min 3 sec) 
Heartbeat CPU 0 instructions: 903000000 cycles: 2081020310 heartbeat IPC: 0.587836 cumulative IPC: 0.575981 (Simulation time: 1 hr 26 min 7 sec) 
Heartbeat CPU 0 instructions: 904000000 cycles: 2082728485 heartbeat IPC: 0.58542 cumulative IPC: 0.576002 (Simulation time: 1 hr 26 min 10 sec) 
Heartbeat CPU 0 instructions: 905000001 cycles: 2084439880 heartbeat IPC: 0.584319 cumulative IPC: 0.57602 (Simulation time: 1 hr 26 min 14 sec) 
Heartbeat CPU 0 instructions: 906000000 cycles: 2086142142 heartbeat IPC: 0.587453 cumulative IPC: 0.576044 (Simulation time: 1 hr 26 min 18 sec) 
Heartbeat CPU 0 instructions: 907000000 cycles: 2087853107 heartbeat IPC: 0.584466 cumulative IPC: 0.576062 (Simulation time: 1 hr 26 min 22 sec) 
Heartbeat CPU 0 instructions: 908000003 cycles: 2089555191 heartbeat IPC: 0.587517 cumulative IPC: 0.576087 (Simulation time: 1 hr 26 min 26 sec) 
Heartbeat CPU 0 instructions: 909000000 cycles: 2091246880 heartbeat IPC: 0.591123 cumulative IPC: 0.576119 (Simulation time: 1 hr 26 min 30 sec) 
Heartbeat CPU 0 instructions: 910000001 cycles: 2092944798 heartbeat IPC: 0.588957 cumulative IPC: 0.576146 (Simulation time: 1 hr 26 min 34 sec) 
Heartbeat CPU 0 instructions: 911000003 cycles: 2094645821 heartbeat IPC: 0.587883 cumulative IPC: 0.576171 (Simulation time: 1 hr 26 min 37 sec) 
Heartbeat CPU 0 instructions: 912000001 cycles: 2096365939 heartbeat IPC: 0.581354 cumulative IPC: 0.576182 (Simulation time: 1 hr 26 min 41 sec) 
Heartbeat CPU 0 instructions: 913000000 cycles: 2098087669 heartbeat IPC: 0.580811 cumulative IPC: 0.576192 (Simulation time: 1 hr 26 min 45 sec) 
Heartbeat CPU 0 instructions: 914000000 cycles: 2099791560 heartbeat IPC: 0.586892 cumulative IPC: 0.576215 (Simulation time: 1 hr 26 min 49 sec) 
Heartbeat CPU 0 instructions: 915000001 cycles: 2101497384 heartbeat IPC: 0.586228 cumulative IPC: 0.576236 (Simulation time: 1 hr 26 min 53 sec) 
Heartbeat CPU 0 instructions: 916000001 cycles: 2103203014 heartbeat IPC: 0.586294 cumulative IPC: 0.576257 (Simulation time: 1 hr 26 min 57 sec) 
Heartbeat CPU 0 instructions: 917000003 cycles: 2104926100 heartbeat IPC: 0.580355 cumulative IPC: 0.576266 (Simulation time: 1 hr 27 min 1 sec) 
Heartbeat CPU 0 instructions: 918000000 cycles: 2106617597 heartbeat IPC: 0.591191 cumulative IPC: 0.576297 (Simulation time: 1 hr 27 min 5 sec) 
Heartbeat CPU 0 instructions: 919000000 cycles: 2108318970 heartbeat IPC: 0.587761 cumulative IPC: 0.576321 (Simulation time: 1 hr 27 min 9 sec) 
Heartbeat CPU 0 instructions: 920000002 cycles: 2110007251 heartbeat IPC: 0.59232 cumulative IPC: 0.576354 (Simulation time: 1 hr 27 min 13 sec) 
Heartbeat CPU 0 instructions: 921000003 cycles: 2111705370 heartbeat IPC: 0.588887 cumulative IPC: 0.57638 (Simulation time: 1 hr 27 min 17 sec) 
Heartbeat CPU 0 instructions: 922000003 cycles: 2113400809 heartbeat IPC: 0.589818 cumulative IPC: 0.576408 (Simulation time: 1 hr 27 min 23 sec) 
Heartbeat CPU 0 instructions: 923000002 cycles: 2115103684 heartbeat IPC: 0.587242 cumulative IPC: 0.57643 (Simulation time: 1 hr 27 min 29 sec) 
Heartbeat CPU 0 instructions: 924000000 cycles: 2116801059 heartbeat IPC: 0.589144 cumulative IPC: 0.576457 (Simulation time: 1 hr 27 min 36 sec) 
Heartbeat CPU 0 instructions: 925000000 cycles: 2118516588 heartbeat IPC: 0.582911 cumulative IPC: 0.57647 (Simulation time: 1 hr 27 min 43 sec) 
Heartbeat CPU 0 instructions: 926000000 cycles: 2120212144 heartbeat IPC: 0.589777 cumulative IPC: 0.576497 (Simulation time: 1 hr 27 min 49 sec) 
Heartbeat CPU 0 instructions: 927000002 cycles: 2121905160 heartbeat IPC: 0.590663 cumulative IPC: 0.576526 (Simulation time: 1 hr 27 min 56 sec) 
Heartbeat CPU 0 instructions: 928000000 cycles: 2123614050 heartbeat IPC: 0.585174 cumulative IPC: 0.576544 (Simulation time: 1 hr 28 min 3 sec) 
Heartbeat CPU 0 instructions: 929000000 cycles: 2125328346 heartbeat IPC: 0.58333 cumulative IPC: 0.576558 (Simulation time: 1 hr 28 min 9 sec) 
Heartbeat CPU 0 instructions: 930000001 cycles: 2127042080 heartbeat IPC: 0.583522 cumulative IPC: 0.576573 (Simulation time: 1 hr 28 min 14 sec) 
Heartbeat CPU 0 instructions: 931000001 cycles: 2128741631 heartbeat IPC: 0.588391 cumulative IPC: 0.576597 (Simulation time: 1 hr 28 min 18 sec) 
Heartbeat CPU 0 instructions: 932000000 cycles: 2130446263 heartbeat IPC: 0.586636 cumulative IPC: 0.576617 (Simulation time: 1 hr 28 min 22 sec) 
Heartbeat CPU 0 instructions: 933000000 cycles: 2132147422 heartbeat IPC: 0.587835 cumulative IPC: 0.57664 (Simulation time: 1 hr 28 min 26 sec) 
Heartbeat CPU 0 instructions: 934000000 cycles: 2133844173 heartbeat IPC: 0.589362 cumulative IPC: 0.576666 (Simulation time: 1 hr 28 min 30 sec) 
Heartbeat CPU 0 instructions: 935000000 cycles: 2135540778 heartbeat IPC: 0.589412 cumulative IPC: 0.576691 (Simulation time: 1 hr 28 min 34 sec) 
Heartbeat CPU 0 instructions: 936000001 cycles: 2137255027 heartbeat IPC: 0.583346 cumulative IPC: 0.576705 (Simulation time: 1 hr 28 min 38 sec) 
Heartbeat CPU 0 instructions: 937000003 cycles: 2138956687 heartbeat IPC: 0.587663 cumulative IPC: 0.576727 (Simulation time: 1 hr 28 min 42 sec) 
Heartbeat CPU 0 instructions: 938000000 cycles: 2140657428 heartbeat IPC: 0.587977 cumulative IPC: 0.57675 (Simulation time: 1 hr 28 min 46 sec) 
Heartbeat CPU 0 instructions: 939000003 cycles: 2142373585 heartbeat IPC: 0.582699 cumulative IPC: 0.576762 (Simulation time: 1 hr 28 min 49 sec) 
Heartbeat CPU 0 instructions: 940000000 cycles: 2144068304 heartbeat IPC: 0.590067 cumulative IPC: 0.576788 (Simulation time: 1 hr 28 min 53 sec) 
Heartbeat CPU 0 instructions: 941000000 cycles: 2145785715 heartbeat IPC: 0.582272 cumulative IPC: 0.576799 (Simulation time: 1 hr 28 min 57 sec) 
Heartbeat CPU 0 instructions: 942000000 cycles: 2147491154 heartbeat IPC: 0.586359 cumulative IPC: 0.576818 (Simulation time: 1 hr 29 min 2 sec) 
Heartbeat CPU 0 instructions: 943000001 cycles: 2149187305 heartbeat IPC: 0.589571 cumulative IPC: 0.576844 (Simulation time: 1 hr 29 min 5 sec) 
Heartbeat CPU 0 instructions: 944000000 cycles: 2150895994 heartbeat IPC: 0.585243 cumulative IPC: 0.57686 (Simulation time: 1 hr 29 min 9 sec) 
Heartbeat CPU 0 instructions: 945000002 cycles: 2152637400 heartbeat IPC: 0.57425 cumulative IPC: 0.576855 (Simulation time: 1 hr 29 min 13 sec) 
Heartbeat CPU 0 instructions: 946000000 cycles: 2154345295 heartbeat IPC: 0.585515 cumulative IPC: 0.576872 (Simulation time: 1 hr 29 min 17 sec) 
Heartbeat CPU 0 instructions: 947000003 cycles: 2156056759 heartbeat IPC: 0.584297 cumulative IPC: 0.576887 (Simulation time: 1 hr 29 min 21 sec) 
Heartbeat CPU 0 instructions: 948000000 cycles: 2157767832 heartbeat IPC: 0.584427 cumulative IPC: 0.576902 (Simulation time: 1 hr 29 min 25 sec) 
Heartbeat CPU 0 instructions: 949000002 cycles: 2159480810 heartbeat IPC: 0.58378 cumulative IPC: 0.576916 (Simulation time: 1 hr 29 min 29 sec) 
Heartbeat CPU 0 instructions: 950000000 cycles: 2161177846 heartbeat IPC: 0.589262 cumulative IPC: 0.57694 (Simulation time: 1 hr 29 min 33 sec) 
Finished CPU 0 instructions: 500000001 cycles: 866641520 cumulative IPC: 0.57694 (Simulation time: 1 hr 29 min 33 sec) 

ChampSim completed all CPUs

Region of Interest Statistics

CPU 0 cumulative IPC: 0.57694 instructions: 500000001 cycles: 866641520
L1D TOTAL     ACCESS:  132951071  HIT:  120875519  MISS:   12075552
L1D LOAD      ACCESS:   89790486  HIT:   77719198  MISS:   12071288
L1D RFO       ACCESS:   43160585  HIT:   43156321  MISS:       4264
L1D PREFETCH  ACCESS:          0  HIT:          0  MISS:          0
L1D WRITEBACK ACCESS:          0  HIT:          0  MISS:          0
L1D PREFETCH  REQUESTED:          0  ISSUED:          0  USEFUL:          0  USELESS:          0
L1D AVERAGE MISS LATENCY: 41.2648 cycles
L1I TOTAL     ACCESS:  114492410  HIT:  114492410  MISS:          0
L1I LOAD      ACCESS:  114492410  HIT:  114492410  MISS:          0
L1I RFO       ACCESS:          0  HIT:          0  MISS:          0
L1I PREFETCH  ACCESS:          0  HIT:          0  MISS:          0
L1I WRITEBACK ACCESS:          0  HIT:          0  MISS:          0
L1I PREFETCH  REQUESTED:          0  ISSUED:          0  USEFUL:          0  USELESS:          0
L1I AVERAGE MISS LATENCY: -nan cycles
L2C TOTAL     ACCESS:   12101297  HIT:    3164303  MISS:    8936994
L2C LOAD      ACCESS:   12071287  HIT:    3138557  MISS:    8932730
L2C RFO       ACCESS:       4264  HIT:          0  MISS:       4264
L2C PREFETCH  ACCESS:          0  HIT:          0  MISS:          0
L2C WRITEBACK ACCESS:      25746  HIT:      25746  MISS:          0
L2C PREFETCH  REQUESTED:          0  ISSUED:          0  USEFUL:          0  USELESS:          0
L2C AVERAGE MISS LATENCY: 35.3883 cycles
LLC TOTAL     ACCESS:   24599789  HIT:   15494900  MISS:    9104889
LLC LOAD      ACCESS:    8932730  HIT:    8401333  MISS:     531397
LLC RFO       ACCESS:       4264  HIT:       2055  MISS:       2209
LLC PREFETCH  ACCESS:   15650905  HIT:    7079622  MISS:    8571283
LLC WRITEBACK ACCESS:      11890  HIT:      11890  MISS:          0
LLC PREFETCH  REQUESTED:   17865460  ISSUED:   16838791  USEFUL:    8370022  USELESS:     200938
LLC AVERAGE MISS LATENCY: 79.6366 cycles
Major fault: 0 Minor fault: 286692

DRAM Statistics
 CHANNEL 0
 RQ ROW_BUFFER_HIT:    8390477  ROW_BUFFER_MISS:     714413
 DBUS_CONGESTED:     552927
 WQ ROW_BUFFER_HIT:       6020  ROW_BUFFER_MISS:       5879  FULL:          0

 AVG_CONGESTED_CYCLE: 6

CPU 0 Branch Prediction Accuracy: 99.9637% MPKI: 0.093066 Average ROB Occupancy at Mispredict: 317.942

Branch types
NOT_BRANCH: 371796905 74.3594%
BRANCH_DIRECT_JUMP: 10794891 2.15898%
BRANCH_INDIRECT: 0 0%
BRANCH_CONDITIONAL: 106605962 21.3212%
BRANCH_DIRECT_CALL: 5401122 1.08022%
BRANCH_INDIRECT_CALL: 0 0%
BRANCH_RETURN: 5401122 1.08022%
BRANCH_OTHER: 0 0%

