
*** ChampSim Multicore Out-of-Order Simulator ***

Warmup Instructions: 1000000
Prefetch Warmup Instructions: 450000000
Simulation Instructions: 500000000
Stat Printing Period: 1000000
Number of CPUs: 1
LLC sets: 2048
LLC ways: 16
Off-chip DRAM Size: 4096 MB Channels: 1 Width: 64-bit Data Rate: 3200 MT/s

CPU 0 runs /scratch/cluster/cmolder/ML-DPC/ChampSimTraces/spec17/602.gcc-s0.trace.xz
Read seed: 272
Heartbeat CPU 0 instructions: 1000001 cycles: 487879 heartbeat IPC: 2.04969 cumulative IPC: 2.04969 (Simulation time: 0 hr 0 min 4 sec) 

Warmup complete CPU 0 instructions: 1000001 cycles: 487879 (Simulation time: 0 hr 0 min 4 sec) 

Heartbeat CPU 0 instructions: 2000003 cycles: 3358859 heartbeat IPC: 0.348314 cumulative IPC: 0.348314 (Simulation time: 0 hr 0 min 9 sec) 
Heartbeat CPU 0 instructions: 3000000 cycles: 6236591 heartbeat IPC: 0.347495 cumulative IPC: 0.347904 (Simulation time: 0 hr 0 min 13 sec) 
Heartbeat CPU 0 instructions: 4000001 cycles: 9106559 heartbeat IPC: 0.348436 cumulative IPC: 0.348081 (Simulation time: 0 hr 0 min 18 sec) 
Heartbeat CPU 0 instructions: 5000001 cycles: 11988487 heartbeat IPC: 0.34699 cumulative IPC: 0.347808 (Simulation time: 0 hr 0 min 22 sec) 
Heartbeat CPU 0 instructions: 6000000 cycles: 14881999 heartbeat IPC: 0.3456 cumulative IPC: 0.347364 (Simulation time: 0 hr 0 min 27 sec) 
Heartbeat CPU 0 instructions: 7000003 cycles: 17748213 heartbeat IPC: 0.348893 cumulative IPC: 0.347618 (Simulation time: 0 hr 0 min 31 sec) 
Heartbeat CPU 0 instructions: 8000000 cycles: 20616365 heartbeat IPC: 0.348656 cumulative IPC: 0.347766 (Simulation time: 0 hr 0 min 36 sec) 
Heartbeat CPU 0 instructions: 9000000 cycles: 23506027 heartbeat IPC: 0.346061 cumulative IPC: 0.347552 (Simulation time: 0 hr 0 min 40 sec) 
Heartbeat CPU 0 instructions: 10000002 cycles: 26392321 heartbeat IPC: 0.346466 cumulative IPC: 0.347431 (Simulation time: 0 hr 0 min 45 sec) 
Heartbeat CPU 0 instructions: 11000000 cycles: 29263775 heartbeat IPC: 0.348255 cumulative IPC: 0.347513 (Simulation time: 0 hr 0 min 49 sec) 
Heartbeat CPU 0 instructions: 12000002 cycles: 32139325 heartbeat IPC: 0.34776 cumulative IPC: 0.347535 (Simulation time: 0 hr 0 min 54 sec) 
Heartbeat CPU 0 instructions: 13000000 cycles: 35030530 heartbeat IPC: 0.345876 cumulative IPC: 0.347397 (Simulation time: 0 hr 0 min 58 sec) 
Heartbeat CPU 0 instructions: 14000001 cycles: 37922262 heartbeat IPC: 0.345814 cumulative IPC: 0.347274 (Simulation time: 0 hr 1 min 3 sec) 
Heartbeat CPU 0 instructions: 15000001 cycles: 40809587 heartbeat IPC: 0.346341 cumulative IPC: 0.347208 (Simulation time: 0 hr 1 min 7 sec) 
Heartbeat CPU 0 instructions: 16000003 cycles: 43707581 heartbeat IPC: 0.345067 cumulative IPC: 0.347064 (Simulation time: 0 hr 1 min 12 sec) 
Heartbeat CPU 0 instructions: 17000001 cycles: 46598847 heartbeat IPC: 0.345869 cumulative IPC: 0.346989 (Simulation time: 0 hr 1 min 16 sec) 
Heartbeat CPU 0 instructions: 18000000 cycles: 49477657 heartbeat IPC: 0.347365 cumulative IPC: 0.347011 (Simulation time: 0 hr 1 min 21 sec) 
Heartbeat CPU 0 instructions: 19000001 cycles: 52352345 heartbeat IPC: 0.347864 cumulative IPC: 0.347058 (Simulation time: 0 hr 1 min 26 sec) 
Heartbeat CPU 0 instructions: 20000000 cycles: 55228729 heartbeat IPC: 0.347658 cumulative IPC: 0.34709 (Simulation time: 0 hr 1 min 30 sec) 
Heartbeat CPU 0 instructions: 21000000 cycles: 58117534 heartbeat IPC: 0.346164 cumulative IPC: 0.347044 (Simulation time: 0 hr 1 min 35 sec) 
Heartbeat CPU 0 instructions: 22000000 cycles: 61004407 heartbeat IPC: 0.346396 cumulative IPC: 0.347013 (Simulation time: 0 hr 1 min 39 sec) 
Heartbeat CPU 0 instructions: 23000000 cycles: 63878594 heartbeat IPC: 0.347924 cumulative IPC: 0.347054 (Simulation time: 0 hr 1 min 44 sec) 
Heartbeat CPU 0 instructions: 24000002 cycles: 66765112 heartbeat IPC: 0.346439 cumulative IPC: 0.347027 (Simulation time: 0 hr 1 min 48 sec) 
Heartbeat CPU 0 instructions: 25000003 cycles: 69655239 heartbeat IPC: 0.346006 cumulative IPC: 0.346985 (Simulation time: 0 hr 1 min 53 sec) 
Heartbeat CPU 0 instructions: 26000003 cycles: 72541909 heartbeat IPC: 0.34642 cumulative IPC: 0.346962 (Simulation time: 0 hr 1 min 57 sec) 
Heartbeat CPU 0 instructions: 27000000 cycles: 75410793 heartbeat IPC: 0.348567 cumulative IPC: 0.347023 (Simulation time: 0 hr 2 min 2 sec) 
Heartbeat CPU 0 instructions: 28000003 cycles: 78258016 heartbeat IPC: 0.35122 cumulative IPC: 0.347177 (Simulation time: 0 hr 2 min 6 sec) 
Heartbeat CPU 0 instructions: 29000000 cycles: 81148941 heartbeat IPC: 0.345909 cumulative IPC: 0.347132 (Simulation time: 0 hr 2 min 11 sec) 
Heartbeat CPU 0 instructions: 30000000 cycles: 84031432 heartbeat IPC: 0.346922 cumulative IPC: 0.347124 (Simulation time: 0 hr 2 min 15 sec) 
Heartbeat CPU 0 instructions: 31000000 cycles: 86885992 heartbeat IPC: 0.350317 cumulative IPC: 0.34723 (Simulation time: 0 hr 2 min 20 sec) 
Heartbeat CPU 0 instructions: 32000001 cycles: 89790244 heartbeat IPC: 0.344323 cumulative IPC: 0.347135 (Simulation time: 0 hr 2 min 24 sec) 
Heartbeat CPU 0 instructions: 33000000 cycles: 92671321 heartbeat IPC: 0.347092 cumulative IPC: 0.347134 (Simulation time: 0 hr 2 min 29 sec) 
Heartbeat CPU 0 instructions: 34000000 cycles: 95550808 heartbeat IPC: 0.347284 cumulative IPC: 0.347138 (Simulation time: 0 hr 2 min 33 sec) 
Heartbeat CPU 0 instructions: 35000000 cycles: 98435508 heartbeat IPC: 0.346657 cumulative IPC: 0.347124 (Simulation time: 0 hr 2 min 38 sec) 
Heartbeat CPU 0 instructions: 36000002 cycles: 101313701 heartbeat IPC: 0.347441 cumulative IPC: 0.347133 (Simulation time: 0 hr 2 min 42 sec) 
Heartbeat CPU 0 instructions: 37000000 cycles: 104187472 heartbeat IPC: 0.347974 cumulative IPC: 0.347157 (Simulation time: 0 hr 2 min 47 sec) 
Heartbeat CPU 0 instructions: 38000000 cycles: 107077826 heartbeat IPC: 0.345978 cumulative IPC: 0.347125 (Simulation time: 0 hr 2 min 52 sec) 
Heartbeat CPU 0 instructions: 39000000 cycles: 109963123 heartbeat IPC: 0.346585 cumulative IPC: 0.34711 (Simulation time: 0 hr 2 min 56 sec) 
Heartbeat CPU 0 instructions: 40000000 cycles: 112840797 heartbeat IPC: 0.347503 cumulative IPC: 0.34712 (Simulation time: 0 hr 3 min 0 sec) 
Heartbeat CPU 0 instructions: 41000002 cycles: 115732523 heartbeat IPC: 0.345815 cumulative IPC: 0.347088 (Simulation time: 0 hr 3 min 5 sec) 
Heartbeat CPU 0 instructions: 42000000 cycles: 118616251 heartbeat IPC: 0.346773 cumulative IPC: 0.34708 (Simulation time: 0 hr 3 min 10 sec) 
Heartbeat CPU 0 instructions: 43000000 cycles: 121506041 heartbeat IPC: 0.346046 cumulative IPC: 0.347055 (Simulation time: 0 hr 3 min 14 sec) 
Heartbeat CPU 0 instructions: 44000000 cycles: 124382016 heartbeat IPC: 0.347708 cumulative IPC: 0.34707 (Simulation time: 0 hr 3 min 19 sec) 
Heartbeat CPU 0 instructions: 45000001 cycles: 127256197 heartbeat IPC: 0.347926 cumulative IPC: 0.34709 (Simulation time: 0 hr 3 min 23 sec) 
Heartbeat CPU 0 instructions: 46000003 cycles: 130145866 heartbeat IPC: 0.346061 cumulative IPC: 0.347067 (Simulation time: 0 hr 3 min 28 sec) 
Heartbeat CPU 0 instructions: 47000002 cycles: 133043664 heartbeat IPC: 0.345089 cumulative IPC: 0.347024 (Simulation time: 0 hr 3 min 34 sec) 
Heartbeat CPU 0 instructions: 48000001 cycles: 135915485 heartbeat IPC: 0.348211 cumulative IPC: 0.347049 (Simulation time: 0 hr 3 min 40 sec) 
Heartbeat CPU 0 instructions: 49000002 cycles: 138795811 heartbeat IPC: 0.347183 cumulative IPC: 0.347052 (Simulation time: 0 hr 3 min 45 sec) 
Heartbeat CPU 0 instructions: 50000000 cycles: 141673789 heartbeat IPC: 0.347465 cumulative IPC: 0.34706 (Simulation time: 0 hr 3 min 49 sec) 
Heartbeat CPU 0 instructions: 51000001 cycles: 144558848 heartbeat IPC: 0.346614 cumulative IPC: 0.347051 (Simulation time: 0 hr 3 min 55 sec) 
Heartbeat CPU 0 instructions: 52000001 cycles: 147431506 heartbeat IPC: 0.34811 cumulative IPC: 0.347072 (Simulation time: 0 hr 4 min 2 sec) 
Heartbeat CPU 0 instructions: 53000003 cycles: 150309262 heartbeat IPC: 0.347494 cumulative IPC: 0.34708 (Simulation time: 0 hr 4 min 10 sec) 
Heartbeat CPU 0 instructions: 54000000 cycles: 153191345 heartbeat IPC: 0.34697 cumulative IPC: 0.347078 (Simulation time: 0 hr 4 min 17 sec) 
Heartbeat CPU 0 instructions: 55000000 cycles: 156083150 heartbeat IPC: 0.345805 cumulative IPC: 0.347054 (Simulation time: 0 hr 4 min 25 sec) 
Heartbeat CPU 0 instructions: 56000000 cycles: 158952505 heartbeat IPC: 0.34851 cumulative IPC: 0.347081 (Simulation time: 0 hr 4 min 32 sec) 
Heartbeat CPU 0 instructions: 57000000 cycles: 161834057 heartbeat IPC: 0.347035 cumulative IPC: 0.34708 (Simulation time: 0 hr 4 min 39 sec) 
Heartbeat CPU 0 instructions: 58000000 cycles: 164727335 heartbeat IPC: 0.345629 cumulative IPC: 0.347054 (Simulation time: 0 hr 4 min 47 sec) 
Heartbeat CPU 0 instructions: 59000001 cycles: 167615692 heartbeat IPC: 0.346218 cumulative IPC: 0.34704 (Simulation time: 0 hr 4 min 53 sec) 
Heartbeat CPU 0 instructions: 60000003 cycles: 170496392 heartbeat IPC: 0.347139 cumulative IPC: 0.347041 (Simulation time: 0 hr 4 min 57 sec) 
Heartbeat CPU 0 instructions: 61000000 cycles: 173365198 heartbeat IPC: 0.348576 cumulative IPC: 0.347067 (Simulation time: 0 hr 5 min 2 sec) 
Heartbeat CPU 0 instructions: 62000000 cycles: 176247209 heartbeat IPC: 0.34698 cumulative IPC: 0.347066 (Simulation time: 0 hr 5 min 6 sec) 
Heartbeat CPU 0 instructions: 63000000 cycles: 179135083 heartbeat IPC: 0.346276 cumulative IPC: 0.347053 (Simulation time: 0 hr 5 min 10 sec) 
Heartbeat CPU 0 instructions: 64000001 cycles: 182010961 heartbeat IPC: 0.34772 cumulative IPC: 0.347063 (Simulation time: 0 hr 5 min 15 sec) 
Heartbeat CPU 0 instructions: 65000001 cycles: 184893043 heartbeat IPC: 0.346971 cumulative IPC: 0.347062 (Simulation time: 0 hr 5 min 19 sec) 
Heartbeat CPU 0 instructions: 66000000 cycles: 187765884 heartbeat IPC: 0.348087 cumulative IPC: 0.347078 (Simulation time: 0 hr 5 min 24 sec) 
Heartbeat CPU 0 instructions: 67000002 cycles: 190643917 heartbeat IPC: 0.34746 cumulative IPC: 0.347083 (Simulation time: 0 hr 5 min 28 sec) 
Heartbeat CPU 0 instructions: 68000000 cycles: 193530300 heartbeat IPC: 0.346454 cumulative IPC: 0.347074 (Simulation time: 0 hr 5 min 32 sec) 
Heartbeat CPU 0 instructions: 69000003 cycles: 196401681 heartbeat IPC: 0.348266 cumulative IPC: 0.347091 (Simulation time: 0 hr 5 min 37 sec) 
Heartbeat CPU 0 instructions: 70000002 cycles: 199280476 heartbeat IPC: 0.347367 cumulative IPC: 0.347095 (Simulation time: 0 hr 5 min 41 sec) 
Heartbeat CPU 0 instructions: 71000000 cycles: 202171030 heartbeat IPC: 0.345954 cumulative IPC: 0.347079 (Simulation time: 0 hr 5 min 46 sec) 
Heartbeat CPU 0 instructions: 72000002 cycles: 205038186 heartbeat IPC: 0.348778 cumulative IPC: 0.347103 (Simulation time: 0 hr 5 min 50 sec) 
Heartbeat CPU 0 instructions: 73000000 cycles: 207921025 heartbeat IPC: 0.34688 cumulative IPC: 0.3471 (Simulation time: 0 hr 5 min 54 sec) 
Heartbeat CPU 0 instructions: 74000002 cycles: 210800095 heartbeat IPC: 0.347335 cumulative IPC: 0.347103 (Simulation time: 0 hr 5 min 59 sec) 
Heartbeat CPU 0 instructions: 75000003 cycles: 213687114 heartbeat IPC: 0.346378 cumulative IPC: 0.347093 (Simulation time: 0 hr 6 min 4 sec) 
Heartbeat CPU 0 instructions: 76000000 cycles: 216574259 heartbeat IPC: 0.346362 cumulative IPC: 0.347083 (Simulation time: 0 hr 6 min 8 sec) 
Heartbeat CPU 0 instructions: 77000000 cycles: 219450757 heartbeat IPC: 0.347645 cumulative IPC: 0.347091 (Simulation time: 0 hr 6 min 13 sec) 
Heartbeat CPU 0 instructions: 78000000 cycles: 222337238 heartbeat IPC: 0.346443 cumulative IPC: 0.347082 (Simulation time: 0 hr 6 min 17 sec) 
Heartbeat CPU 0 instructions: 79000001 cycles: 225211392 heartbeat IPC: 0.347929 cumulative IPC: 0.347093 (Simulation time: 0 hr 6 min 22 sec) 
Heartbeat CPU 0 instructions: 80000003 cycles: 228087239 heartbeat IPC: 0.347724 cumulative IPC: 0.347101 (Simulation time: 0 hr 6 min 26 sec) 
Heartbeat CPU 0 instructions: 81000001 cycles: 230956469 heartbeat IPC: 0.348525 cumulative IPC: 0.347119 (Simulation time: 0 hr 6 min 31 sec) 
Heartbeat CPU 0 instructions: 82000001 cycles: 233830634 heartbeat IPC: 0.347927 cumulative IPC: 0.347129 (Simulation time: 0 hr 6 min 36 sec) 
Heartbeat CPU 0 instructions: 83000000 cycles: 236708203 heartbeat IPC: 0.347515 cumulative IPC: 0.347134 (Simulation time: 0 hr 6 min 40 sec) 
Heartbeat CPU 0 instructions: 84000000 cycles: 239594304 heartbeat IPC: 0.346488 cumulative IPC: 0.347126 (Simulation time: 0 hr 6 min 45 sec) 
Heartbeat CPU 0 instructions: 85000001 cycles: 242479831 heartbeat IPC: 0.346557 cumulative IPC: 0.347119 (Simulation time: 0 hr 6 min 49 sec) 
Heartbeat CPU 0 instructions: 86000001 cycles: 245369799 heartbeat IPC: 0.346025 cumulative IPC: 0.347106 (Simulation time: 0 hr 6 min 56 sec) 
Heartbeat CPU 0 instructions: 87000003 cycles: 248253517 heartbeat IPC: 0.346775 cumulative IPC: 0.347102 (Simulation time: 0 hr 7 min 4 sec) 
Heartbeat CPU 0 instructions: 88000000 cycles: 251146424 heartbeat IPC: 0.345672 cumulative IPC: 0.347086 (Simulation time: 0 hr 7 min 10 sec) 
Heartbeat CPU 0 instructions: 89000000 cycles: 254032074 heartbeat IPC: 0.346542 cumulative IPC: 0.34708 (Simulation time: 0 hr 7 min 15 sec) 
Heartbeat CPU 0 instructions: 90000001 cycles: 256918258 heartbeat IPC: 0.346479 cumulative IPC: 0.347073 (Simulation time: 0 hr 7 min 19 sec) 
Heartbeat CPU 0 instructions: 91000003 cycles: 259811059 heartbeat IPC: 0.345686 cumulative IPC: 0.347057 (Simulation time: 0 hr 7 min 24 sec) 
Heartbeat CPU 0 instructions: 92000003 cycles: 262699028 heartbeat IPC: 0.346264 cumulative IPC: 0.347049 (Simulation time: 0 hr 7 min 28 sec) 
Heartbeat CPU 0 instructions: 93000003 cycles: 265576673 heartbeat IPC: 0.347506 cumulative IPC: 0.347054 (Simulation time: 0 hr 7 min 33 sec) 
Heartbeat CPU 0 instructions: 94000000 cycles: 268445787 heartbeat IPC: 0.348539 cumulative IPC: 0.347069 (Simulation time: 0 hr 7 min 37 sec) 
Heartbeat CPU 0 instructions: 95000000 cycles: 271333638 heartbeat IPC: 0.346278 cumulative IPC: 0.347061 (Simulation time: 0 hr 7 min 42 sec) 
Heartbeat CPU 0 instructions: 96000000 cycles: 274220425 heartbeat IPC: 0.346406 cumulative IPC: 0.347054 (Simulation time: 0 hr 7 min 46 sec) 
Heartbeat CPU 0 instructions: 97000002 cycles: 277101041 heartbeat IPC: 0.347149 cumulative IPC: 0.347055 (Simulation time: 0 hr 7 min 51 sec) 
Heartbeat CPU 0 instructions: 98000001 cycles: 279977334 heartbeat IPC: 0.347669 cumulative IPC: 0.347061 (Simulation time: 0 hr 7 min 55 sec) 
Heartbeat CPU 0 instructions: 99000000 cycles: 282864267 heartbeat IPC: 0.346388 cumulative IPC: 0.347055 (Simulation time: 0 hr 8 min 0 sec) 
Heartbeat CPU 0 instructions: 100000002 cycles: 285749338 heartbeat IPC: 0.346613 cumulative IPC: 0.34705 (Simulation time: 0 hr 8 min 5 sec) 
Heartbeat CPU 0 instructions: 101000001 cycles: 288626661 heartbeat IPC: 0.347545 cumulative IPC: 0.347055 (Simulation time: 0 hr 8 min 13 sec) 
Heartbeat CPU 0 instructions: 102000000 cycles: 291529996 heartbeat IPC: 0.344431 cumulative IPC: 0.347029 (Simulation time: 0 hr 8 min 21 sec) 
Heartbeat CPU 0 instructions: 103000003 cycles: 294414068 heartbeat IPC: 0.346733 cumulative IPC: 0.347026 (Simulation time: 0 hr 8 min 27 sec) 
Heartbeat CPU 0 instructions: 104000003 cycles: 297301209 heartbeat IPC: 0.346363 cumulative IPC: 0.347019 (Simulation time: 0 hr 8 min 35 sec) 
