
*** ChampSim Multicore Out-of-Order Simulator ***

Warmup Instructions: 1000000
Prefetch Warmup Instructions: 450000000
Simulation Instructions: 500000000
Stat Printing Period: 1000000
Number of CPUs: 1
LLC sets: 2048
LLC ways: 16
Off-chip DRAM Size: 4096 MB Channels: 1 Width: 64-bit Data Rate: 3200 MT/s

CPU 0 runs /scratch/cluster/cmolder/ML-DPC/ChampSimTraces/spec17/605.mcf-s8.trace.xz
Read seed: 232
Heartbeat CPU 0 instructions: 1000001 cycles: 405702 heartbeat IPC: 2.46487 cumulative IPC: 2.46487 (Simulation time: 0 hr 0 min 5 sec) 

Warmup complete CPU 0 instructions: 1000001 cycles: 405702 (Simulation time: 0 hr 0 min 5 sec) 

Heartbeat CPU 0 instructions: 2000001 cycles: 1879626 heartbeat IPC: 0.678461 cumulative IPC: 0.678461 (Simulation time: 0 hr 0 min 9 sec) 
Heartbeat CPU 0 instructions: 3000000 cycles: 3042207 heartbeat IPC: 0.860154 cumulative IPC: 0.75858 (Simulation time: 0 hr 0 min 13 sec) 
Heartbeat CPU 0 instructions: 4000001 cycles: 6861877 heartbeat IPC: 0.261803 cumulative IPC: 0.464671 (Simulation time: 0 hr 0 min 19 sec) 
Heartbeat CPU 0 instructions: 5000000 cycles: 9111774 heartbeat IPC: 0.444464 cumulative IPC: 0.459449 (Simulation time: 0 hr 0 min 23 sec) 
Heartbeat CPU 0 instructions: 6000000 cycles: 10300319 heartbeat IPC: 0.841365 cumulative IPC: 0.505325 (Simulation time: 0 hr 0 min 27 sec) 
Heartbeat CPU 0 instructions: 7000001 cycles: 12345919 heartbeat IPC: 0.488855 cumulative IPC: 0.502503 (Simulation time: 0 hr 0 min 31 sec) 
Heartbeat CPU 0 instructions: 8000000 cycles: 13571014 heartbeat IPC: 0.816262 cumulative IPC: 0.5317 (Simulation time: 0 hr 0 min 35 sec) 
Heartbeat CPU 0 instructions: 9000000 cycles: 14875255 heartbeat IPC: 0.766729 cumulative IPC: 0.552885 (Simulation time: 0 hr 0 min 39 sec) 
Heartbeat CPU 0 instructions: 10000000 cycles: 16489330 heartbeat IPC: 0.61955 cumulative IPC: 0.559575 (Simulation time: 0 hr 0 min 43 sec) 
Heartbeat CPU 0 instructions: 11000000 cycles: 17634225 heartbeat IPC: 0.873443 cumulative IPC: 0.580433 (Simulation time: 0 hr 0 min 47 sec) 
Heartbeat CPU 0 instructions: 12000000 cycles: 24097448 heartbeat IPC: 0.154722 cumulative IPC: 0.464297 (Simulation time: 0 hr 0 min 54 sec) 
Heartbeat CPU 0 instructions: 13000000 cycles: 27979434 heartbeat IPC: 0.2576 cumulative IPC: 0.435197 (Simulation time: 0 hr 1 min 0 sec) 
Heartbeat CPU 0 instructions: 14000002 cycles: 29131608 heartbeat IPC: 0.867926 cumulative IPC: 0.452553 (Simulation time: 0 hr 1 min 4 sec) 
Heartbeat CPU 0 instructions: 15000001 cycles: 30631663 heartbeat IPC: 0.666642 cumulative IPC: 0.463178 (Simulation time: 0 hr 1 min 8 sec) 
Heartbeat CPU 0 instructions: 16000002 cycles: 31832930 heartbeat IPC: 0.832455 cumulative IPC: 0.477293 (Simulation time: 0 hr 1 min 12 sec) 
Heartbeat CPU 0 instructions: 17000001 cycles: 33753683 heartbeat IPC: 0.520629 cumulative IPC: 0.479789 (Simulation time: 0 hr 1 min 16 sec) 
Heartbeat CPU 0 instructions: 18000000 cycles: 35142467 heartbeat IPC: 0.720054 cumulative IPC: 0.489395 (Simulation time: 0 hr 1 min 20 sec) 
Heartbeat CPU 0 instructions: 19000002 cycles: 36955393 heartbeat IPC: 0.551596 cumulative IPC: 0.49248 (Simulation time: 0 hr 1 min 24 sec) 
Heartbeat CPU 0 instructions: 20000000 cycles: 40137305 heartbeat IPC: 0.314276 cumulative IPC: 0.478209 (Simulation time: 0 hr 1 min 30 sec) 
Heartbeat CPU 0 instructions: 21000001 cycles: 41314150 heartbeat IPC: 0.84973 cumulative IPC: 0.488897 (Simulation time: 0 hr 1 min 33 sec) 
Heartbeat CPU 0 instructions: 22000000 cycles: 42923905 heartbeat IPC: 0.621212 cumulative IPC: 0.493906 (Simulation time: 0 hr 1 min 37 sec) 
Heartbeat CPU 0 instructions: 23000002 cycles: 44157085 heartbeat IPC: 0.810913 cumulative IPC: 0.502841 (Simulation time: 0 hr 1 min 41 sec) 
Heartbeat CPU 0 instructions: 24000000 cycles: 45593370 heartbeat IPC: 0.696239 cumulative IPC: 0.508988 (Simulation time: 0 hr 1 min 45 sec) 
Heartbeat CPU 0 instructions: 25000002 cycles: 50047417 heartbeat IPC: 0.224515 cumulative IPC: 0.483464 (Simulation time: 0 hr 1 min 51 sec) 
Heartbeat CPU 0 instructions: 26000003 cycles: 57268010 heartbeat IPC: 0.138493 cumulative IPC: 0.439659 (Simulation time: 0 hr 1 min 58 sec) 
Heartbeat CPU 0 instructions: 27000001 cycles: 59458612 heartbeat IPC: 0.456495 cumulative IPC: 0.440283 (Simulation time: 0 hr 2 min 3 sec) 
Heartbeat CPU 0 instructions: 28000001 cycles: 60923808 heartbeat IPC: 0.682503 cumulative IPC: 0.446147 (Simulation time: 0 hr 2 min 7 sec) 
Heartbeat CPU 0 instructions: 29000002 cycles: 62057520 heartbeat IPC: 0.882059 cumulative IPC: 0.454163 (Simulation time: 0 hr 2 min 10 sec) 
Heartbeat CPU 0 instructions: 30000001 cycles: 64730049 heartbeat IPC: 0.374177 cumulative IPC: 0.45084 (Simulation time: 0 hr 2 min 15 sec) 
Heartbeat CPU 0 instructions: 31000000 cycles: 65946576 heartbeat IPC: 0.822011 cumulative IPC: 0.45773 (Simulation time: 0 hr 2 min 19 sec) 
Heartbeat CPU 0 instructions: 32000000 cycles: 67442400 heartbeat IPC: 0.668528 cumulative IPC: 0.462433 (Simulation time: 0 hr 2 min 23 sec) 
Heartbeat CPU 0 instructions: 33000000 cycles: 68728472 heartbeat IPC: 0.777561 cumulative IPC: 0.468365 (Simulation time: 0 hr 2 min 28 sec) 
Heartbeat CPU 0 instructions: 34000001 cycles: 71643703 heartbeat IPC: 0.343026 cumulative IPC: 0.463236 (Simulation time: 0 hr 2 min 33 sec) 
Heartbeat CPU 0 instructions: 35000000 cycles: 76391678 heartbeat IPC: 0.210616 cumulative IPC: 0.447451 (Simulation time: 0 hr 2 min 38 sec) 
Heartbeat CPU 0 instructions: 36000000 cycles: 77693327 heartbeat IPC: 0.768256 cumulative IPC: 0.452854 (Simulation time: 0 hr 2 min 42 sec) 
Heartbeat CPU 0 instructions: 37000002 cycles: 79210891 heartbeat IPC: 0.658952 cumulative IPC: 0.456823 (Simulation time: 0 hr 2 min 46 sec) 
Heartbeat CPU 0 instructions: 38000001 cycles: 82494101 heartbeat IPC: 0.30458 cumulative IPC: 0.450734 (Simulation time: 0 hr 2 min 52 sec) 
Heartbeat CPU 0 instructions: 39000001 cycles: 84244699 heartbeat IPC: 0.571233 cumulative IPC: 0.45325 (Simulation time: 0 hr 2 min 56 sec) 
Heartbeat CPU 0 instructions: 40000001 cycles: 85579907 heartbeat IPC: 0.748947 cumulative IPC: 0.457885 (Simulation time: 0 hr 3 min 0 sec) 
Heartbeat CPU 0 instructions: 41000003 cycles: 86643971 heartbeat IPC: 0.939795 cumulative IPC: 0.463831 (Simulation time: 0 hr 3 min 4 sec) 
Heartbeat CPU 0 instructions: 42000001 cycles: 88706241 heartbeat IPC: 0.484902 cumulative IPC: 0.464323 (Simulation time: 0 hr 3 min 8 sec) 
Heartbeat CPU 0 instructions: 43000002 cycles: 89897833 heartbeat IPC: 0.839214 cumulative IPC: 0.469315 (Simulation time: 0 hr 3 min 12 sec) 
Heartbeat CPU 0 instructions: 44000000 cycles: 98963788 heartbeat IPC: 0.110303 cumulative IPC: 0.436291 (Simulation time: 0 hr 3 min 20 sec) 
Heartbeat CPU 0 instructions: 45000001 cycles: 107796442 heartbeat IPC: 0.113216 cumulative IPC: 0.409719 (Simulation time: 0 hr 3 min 28 sec) 
Heartbeat CPU 0 instructions: 46000001 cycles: 116603822 heartbeat IPC: 0.113541 cumulative IPC: 0.38727 (Simulation time: 0 hr 3 min 36 sec) 
Heartbeat CPU 0 instructions: 47000003 cycles: 125254957 heartbeat IPC: 0.115592 cumulative IPC: 0.368444 (Simulation time: 0 hr 3 min 44 sec) 
Heartbeat CPU 0 instructions: 48000000 cycles: 134417114 heartbeat IPC: 0.109144 cumulative IPC: 0.350716 (Simulation time: 0 hr 3 min 52 sec) 
Heartbeat CPU 0 instructions: 49000001 cycles: 143909309 heartbeat IPC: 0.10535 cumulative IPC: 0.334486 (Simulation time: 0 hr 4 min 0 sec) 
Heartbeat CPU 0 instructions: 50000001 cycles: 152620396 heartbeat IPC: 0.114796 cumulative IPC: 0.321914 (Simulation time: 0 hr 4 min 8 sec) 
Heartbeat CPU 0 instructions: 51000002 cycles: 161958261 heartbeat IPC: 0.107091 cumulative IPC: 0.309497 (Simulation time: 0 hr 4 min 16 sec) 
Heartbeat CPU 0 instructions: 52000002 cycles: 169461671 heartbeat IPC: 0.133273 cumulative IPC: 0.301675 (Simulation time: 0 hr 4 min 23 sec) 
Heartbeat CPU 0 instructions: 53000003 cycles: 171794163 heartbeat IPC: 0.428726 cumulative IPC: 0.303404 (Simulation time: 0 hr 4 min 28 sec) 
Heartbeat CPU 0 instructions: 54000000 cycles: 173115857 heartbeat IPC: 0.756603 cumulative IPC: 0.306873 (Simulation time: 0 hr 4 min 32 sec) 
Heartbeat CPU 0 instructions: 55000000 cycles: 174675490 heartbeat IPC: 0.641176 cumulative IPC: 0.309864 (Simulation time: 0 hr 4 min 36 sec) 
Heartbeat CPU 0 instructions: 56000001 cycles: 175799239 heartbeat IPC: 0.889879 cumulative IPC: 0.313581 (Simulation time: 0 hr 4 min 40 sec) 
Heartbeat CPU 0 instructions: 57000001 cycles: 178905566 heartbeat IPC: 0.321924 cumulative IPC: 0.313726 (Simulation time: 0 hr 4 min 45 sec) 
Heartbeat CPU 0 instructions: 58000002 cycles: 180331272 heartbeat IPC: 0.701408 cumulative IPC: 0.316798 (Simulation time: 0 hr 4 min 50 sec) 
Heartbeat CPU 0 instructions: 59000000 cycles: 181629758 heartbeat IPC: 0.770126 cumulative IPC: 0.320046 (Simulation time: 0 hr 4 min 54 sec) 
Heartbeat CPU 0 instructions: 60000000 cycles: 183273165 heartbeat IPC: 0.608492 cumulative IPC: 0.322638 (Simulation time: 0 hr 4 min 58 sec) 
Heartbeat CPU 0 instructions: 61000003 cycles: 184497311 heartbeat IPC: 0.816898 cumulative IPC: 0.325925 (Simulation time: 0 hr 5 min 2 sec) 
Heartbeat CPU 0 instructions: 62000002 cycles: 192210907 heartbeat IPC: 0.129641 cumulative IPC: 0.318031 (Simulation time: 0 hr 5 min 9 sec) 
Heartbeat CPU 0 instructions: 63000000 cycles: 200574414 heartbeat IPC: 0.119567 cumulative IPC: 0.309739 (Simulation time: 0 hr 5 min 17 sec) 
Heartbeat CPU 0 instructions: 64000000 cycles: 206948952 heartbeat IPC: 0.156874 cumulative IPC: 0.305021 (Simulation time: 0 hr 5 min 23 sec) 
Heartbeat CPU 0 instructions: 65000000 cycles: 209143359 heartbeat IPC: 0.455704 cumulative IPC: 0.306605 (Simulation time: 0 hr 5 min 27 sec) 
Heartbeat CPU 0 instructions: 66000000 cycles: 210615781 heartbeat IPC: 0.679153 cumulative IPC: 0.309214 (Simulation time: 0 hr 5 min 31 sec) 
Heartbeat CPU 0 instructions: 67000000 cycles: 212445689 heartbeat IPC: 0.546476 cumulative IPC: 0.311262 (Simulation time: 0 hr 5 min 36 sec) 
Heartbeat CPU 0 instructions: 68000000 cycles: 213903132 heartbeat IPC: 0.686133 cumulative IPC: 0.313821 (Simulation time: 0 hr 5 min 40 sec) 
Heartbeat CPU 0 instructions: 69000000 cycles: 218269573 heartbeat IPC: 0.229019 cumulative IPC: 0.312122 (Simulation time: 0 hr 5 min 46 sec) 
Heartbeat CPU 0 instructions: 70000000 cycles: 220498368 heartbeat IPC: 0.448673 cumulative IPC: 0.313504 (Simulation time: 0 hr 5 min 50 sec) 
Heartbeat CPU 0 instructions: 71000001 cycles: 223448453 heartbeat IPC: 0.338974 cumulative IPC: 0.313841 (Simulation time: 0 hr 5 min 55 sec) 
Heartbeat CPU 0 instructions: 72000000 cycles: 225283606 heartbeat IPC: 0.544913 cumulative IPC: 0.315727 (Simulation time: 0 hr 5 min 59 sec) 
Heartbeat CPU 0 instructions: 73000001 cycles: 226661867 heartbeat IPC: 0.725553 cumulative IPC: 0.318223 (Simulation time: 0 hr 6 min 3 sec) 
Heartbeat CPU 0 instructions: 74000002 cycles: 228165427 heartbeat IPC: 0.665089 cumulative IPC: 0.320513 (Simulation time: 0 hr 6 min 7 sec) 
Heartbeat CPU 0 instructions: 75000000 cycles: 229693221 heartbeat IPC: 0.654537 cumulative IPC: 0.322739 (Simulation time: 0 hr 6 min 12 sec) 
Heartbeat CPU 0 instructions: 76000003 cycles: 235063208 heartbeat IPC: 0.186221 cumulative IPC: 0.319615 (Simulation time: 0 hr 6 min 18 sec) 
Heartbeat CPU 0 instructions: 77000000 cycles: 236651269 heartbeat IPC: 0.629697 cumulative IPC: 0.321699 (Simulation time: 0 hr 6 min 22 sec) 
Heartbeat CPU 0 instructions: 78000000 cycles: 238424089 heartbeat IPC: 0.564073 cumulative IPC: 0.323504 (Simulation time: 0 hr 6 min 27 sec) 
Heartbeat CPU 0 instructions: 79000001 cycles: 239637963 heartbeat IPC: 0.82381 cumulative IPC: 0.326043 (Simulation time: 0 hr 6 min 31 sec) 
Heartbeat CPU 0 instructions: 80000003 cycles: 243190930 heartbeat IPC: 0.281455 cumulative IPC: 0.32539 (Simulation time: 0 hr 6 min 36 sec) 
Heartbeat CPU 0 instructions: 81000002 cycles: 244287719 heartbeat IPC: 0.911752 cumulative IPC: 0.328027 (Simulation time: 0 hr 6 min 40 sec) 
Heartbeat CPU 0 instructions: 82000002 cycles: 245614551 heartbeat IPC: 0.753675 cumulative IPC: 0.330331 (Simulation time: 0 hr 6 min 44 sec) 
Heartbeat CPU 0 instructions: 83000002 cycles: 247075982 heartbeat IPC: 0.684261 cumulative IPC: 0.332428 (Simulation time: 0 hr 6 min 48 sec) 
Heartbeat CPU 0 instructions: 84000001 cycles: 248201576 heartbeat IPC: 0.888419 cumulative IPC: 0.334953 (Simulation time: 0 hr 6 min 52 sec) 
Heartbeat CPU 0 instructions: 85000000 cycles: 252286138 heartbeat IPC: 0.244824 cumulative IPC: 0.333492 (Simulation time: 0 hr 6 min 59 sec) 
Heartbeat CPU 0 instructions: 86000003 cycles: 258517254 heartbeat IPC: 0.160485 cumulative IPC: 0.329315 (Simulation time: 0 hr 7 min 6 sec) 
Heartbeat CPU 0 instructions: 87000002 cycles: 261636280 heartbeat IPC: 0.320613 cumulative IPC: 0.329211 (Simulation time: 0 hr 7 min 12 sec) 
Heartbeat CPU 0 instructions: 88000000 cycles: 262797231 heartbeat IPC: 0.861361 cumulative IPC: 0.331566 (Simulation time: 0 hr 7 min 16 sec) 
Heartbeat CPU 0 instructions: 89000003 cycles: 263965313 heartbeat IPC: 0.856107 cumulative IPC: 0.33389 (Simulation time: 0 hr 7 min 20 sec) 
Heartbeat CPU 0 instructions: 90000001 cycles: 265265762 heartbeat IPC: 0.768964 cumulative IPC: 0.336026 (Simulation time: 0 hr 7 min 24 sec) 
Heartbeat CPU 0 instructions: 91000000 cycles: 268189277 heartbeat IPC: 0.342054 cumulative IPC: 0.336092 (Simulation time: 0 hr 7 min 29 sec) 
Heartbeat CPU 0 instructions: 92000002 cycles: 270201027 heartbeat IPC: 0.497081 cumulative IPC: 0.337293 (Simulation time: 0 hr 7 min 34 sec) 
Heartbeat CPU 0 instructions: 93000000 cycles: 272129660 heartbeat IPC: 0.518501 cumulative IPC: 0.338579 (Simulation time: 0 hr 7 min 38 sec) 
Heartbeat CPU 0 instructions: 94000001 cycles: 274364153 heartbeat IPC: 0.447529 cumulative IPC: 0.339468 (Simulation time: 0 hr 7 min 43 sec) 
Heartbeat CPU 0 instructions: 95000000 cycles: 275635053 heartbeat IPC: 0.786843 cumulative IPC: 0.341533 (Simulation time: 0 hr 7 min 47 sec) 
Heartbeat CPU 0 instructions: 96000001 cycles: 277703394 heartbeat IPC: 0.48348 cumulative IPC: 0.342592 (Simulation time: 0 hr 7 min 51 sec) 
Heartbeat CPU 0 instructions: 97000002 cycles: 279070111 heartbeat IPC: 0.731681 cumulative IPC: 0.3445 (Simulation time: 0 hr 7 min 55 sec) 
Heartbeat CPU 0 instructions: 98000001 cycles: 280389843 heartbeat IPC: 0.757729 cumulative IPC: 0.346448 (Simulation time: 0 hr 7 min 59 sec) 
Heartbeat CPU 0 instructions: 99000000 cycles: 283023730 heartbeat IPC: 0.379667 cumulative IPC: 0.346758 (Simulation time: 0 hr 8 min 4 sec) 
Heartbeat CPU 0 instructions: 100000001 cycles: 285034275 heartbeat IPC: 0.497378 cumulative IPC: 0.347822 (Simulation time: 0 hr 8 min 8 sec) 
Heartbeat CPU 0 instructions: 101000000 cycles: 295190516 heartbeat IPC: 0.0984615 cumulative IPC: 0.339231 (Simulation time: 0 hr 8 min 16 sec) 
Heartbeat CPU 0 instructions: 102000002 cycles: 304088712 heartbeat IPC: 0.112383 cumulative IPC: 0.332584 (Simulation time: 0 hr 8 min 24 sec) 
Heartbeat CPU 0 instructions: 103000000 cycles: 309784752 heartbeat IPC: 0.17556 cumulative IPC: 0.329693 (Simulation time: 0 hr 8 min 31 sec) 
Heartbeat CPU 0 instructions: 104000003 cycles: 311536131 heartbeat IPC: 0.57098 cumulative IPC: 0.331051 (Simulation time: 0 hr 8 min 35 sec) 
Heartbeat CPU 0 instructions: 105000001 cycles: 312986308 heartbeat IPC: 0.68957 cumulative IPC: 0.332714 (Simulation time: 0 hr 8 min 39 sec) 
Heartbeat CPU 0 instructions: 106000000 cycles: 314753209 heartbeat IPC: 0.565962 cumulative IPC: 0.334025 (Simulation time: 0 hr 8 min 44 sec) 
Heartbeat CPU 0 instructions: 107000000 cycles: 319968310 heartbeat IPC: 0.191751 cumulative IPC: 0.331703 (Simulation time: 0 hr 8 min 51 sec) 
Heartbeat CPU 0 instructions: 108000002 cycles: 321391973 heartbeat IPC: 0.702415 cumulative IPC: 0.333348 (Simulation time: 0 hr 8 min 54 sec) 
Heartbeat CPU 0 instructions: 109000001 cycles: 323176174 heartbeat IPC: 0.560474 cumulative IPC: 0.334603 (Simulation time: 0 hr 8 min 59 sec) 
Heartbeat CPU 0 instructions: 110000000 cycles: 326978110 heartbeat IPC: 0.263024 cumulative IPC: 0.33377 (Simulation time: 0 hr 9 min 5 sec) 
Heartbeat CPU 0 instructions: 111000002 cycles: 328249786 heartbeat IPC: 0.786365 cumulative IPC: 0.335525 (Simulation time: 0 hr 9 min 9 sec) 
Heartbeat CPU 0 instructions: 112000001 cycles: 331637281 heartbeat IPC: 0.295203 cumulative IPC: 0.335113 (Simulation time: 0 hr 9 min 14 sec) 
Heartbeat CPU 0 instructions: 113000001 cycles: 333275194 heartbeat IPC: 0.610533 cumulative IPC: 0.336468 (Simulation time: 0 hr 9 min 18 sec) 
Heartbeat CPU 0 instructions: 114000003 cycles: 334500431 heartbeat IPC: 0.81617 cumulative IPC: 0.338227 (Simulation time: 0 hr 9 min 22 sec) 
Heartbeat CPU 0 instructions: 115000003 cycles: 336342935 heartbeat IPC: 0.54274 cumulative IPC: 0.339349 (Simulation time: 0 hr 9 min 26 sec) 
Heartbeat CPU 0 instructions: 116000001 cycles: 338173129 heartbeat IPC: 0.546389 cumulative IPC: 0.340471 (Simulation time: 0 hr 9 min 30 sec) 
Heartbeat CPU 0 instructions: 117000002 cycles: 339502951 heartbeat IPC: 0.751981 cumulative IPC: 0.342085 (Simulation time: 0 hr 9 min 34 sec) 
Heartbeat CPU 0 instructions: 118000000 cycles: 346196986 heartbeat IPC: 0.149386 cumulative IPC: 0.338354 (Simulation time: 0 hr 9 min 41 sec) 
Heartbeat CPU 0 instructions: 119000003 cycles: 354463359 heartbeat IPC: 0.120972 cumulative IPC: 0.333279 (Simulation time: 0 hr 9 min 49 sec) 
Heartbeat CPU 0 instructions: 120000000 cycles: 356677292 heartbeat IPC: 0.451683 cumulative IPC: 0.334015 (Simulation time: 0 hr 9 min 53 sec) 
Heartbeat CPU 0 instructions: 121000000 cycles: 358217707 heartbeat IPC: 0.649176 cumulative IPC: 0.335372 (Simulation time: 0 hr 9 min 57 sec) 
Heartbeat CPU 0 instructions: 122000000 cycles: 361090552 heartbeat IPC: 0.348087 cumulative IPC: 0.335473 (Simulation time: 0 hr 10 min 2 sec) 
Heartbeat CPU 0 instructions: 123000001 cycles: 363691533 heartbeat IPC: 0.384471 cumulative IPC: 0.335824 (Simulation time: 0 hr 10 min 7 sec) 
Heartbeat CPU 0 instructions: 124000003 cycles: 365331247 heartbeat IPC: 0.609864 cumulative IPC: 0.337055 (Simulation time: 0 hr 10 min 11 sec) 
Heartbeat CPU 0 instructions: 125000001 cycles: 367965641 heartbeat IPC: 0.379593 cumulative IPC: 0.33736 (Simulation time: 0 hr 10 min 15 sec) 
Heartbeat CPU 0 instructions: 126000003 cycles: 369563615 heartbeat IPC: 0.625794 cumulative IPC: 0.338608 (Simulation time: 0 hr 10 min 19 sec) 
Heartbeat CPU 0 instructions: 127000001 cycles: 371005464 heartbeat IPC: 0.693552 cumulative IPC: 0.339989 (Simulation time: 0 hr 10 min 23 sec) 
Heartbeat CPU 0 instructions: 128000002 cycles: 377312488 heartbeat IPC: 0.158554 cumulative IPC: 0.336953 (Simulation time: 0 hr 10 min 31 sec) 
Heartbeat CPU 0 instructions: 129000003 cycles: 382411019 heartbeat IPC: 0.196135 cumulative IPC: 0.335074 (Simulation time: 0 hr 10 min 37 sec) 
Heartbeat CPU 0 instructions: 130000000 cycles: 383649090 heartbeat IPC: 0.807706 cumulative IPC: 0.336601 (Simulation time: 0 hr 10 min 41 sec) 
Heartbeat CPU 0 instructions: 131000000 cycles: 385387783 heartbeat IPC: 0.575145 cumulative IPC: 0.337678 (Simulation time: 0 hr 10 min 45 sec) 
Heartbeat CPU 0 instructions: 132000000 cycles: 387273045 heartbeat IPC: 0.53043 cumulative IPC: 0.338617 (Simulation time: 0 hr 10 min 49 sec) 
Heartbeat CPU 0 instructions: 133000001 cycles: 388646612 heartbeat IPC: 0.728032 cumulative IPC: 0.339995 (Simulation time: 0 hr 10 min 53 sec) 
Heartbeat CPU 0 instructions: 134000000 cycles: 390665096 heartbeat IPC: 0.495421 cumulative IPC: 0.340799 (Simulation time: 0 hr 10 min 58 sec) 
Heartbeat CPU 0 instructions: 135000003 cycles: 391977853 heartbeat IPC: 0.761758 cumulative IPC: 0.34221 (Simulation time: 0 hr 11 min 2 sec) 
Heartbeat CPU 0 instructions: 136000000 cycles: 394138645 heartbeat IPC: 0.462792 cumulative IPC: 0.342872 (Simulation time: 0 hr 11 min 6 sec) 
Heartbeat CPU 0 instructions: 137000001 cycles: 395624685 heartbeat IPC: 0.67293 cumulative IPC: 0.344113 (Simulation time: 0 hr 11 min 10 sec) 
Heartbeat CPU 0 instructions: 138000003 cycles: 397962879 heartbeat IPC: 0.427681 cumulative IPC: 0.344605 (Simulation time: 0 hr 11 min 15 sec) 
Heartbeat CPU 0 instructions: 139000000 cycles: 407426642 heartbeat IPC: 0.105666 cumulative IPC: 0.339049 (Simulation time: 0 hr 11 min 23 sec) 
Heartbeat CPU 0 instructions: 140000000 cycles: 417566005 heartbeat IPC: 0.0986255 cumulative IPC: 0.333205 (Simulation time: 0 hr 11 min 32 sec) 
Heartbeat CPU 0 instructions: 141000000 cycles: 427685065 heartbeat IPC: 0.0988234 cumulative IPC: 0.327654 (Simulation time: 0 hr 11 min 40 sec) 
Heartbeat CPU 0 instructions: 142000003 cycles: 437546096 heartbeat IPC: 0.10141 cumulative IPC: 0.322551 (Simulation time: 0 hr 11 min 49 sec) 
Heartbeat CPU 0 instructions: 143000000 cycles: 446322124 heartbeat IPC: 0.113946 cumulative IPC: 0.318445 (Simulation time: 0 hr 11 min 57 sec) 
Heartbeat CPU 0 instructions: 144000002 cycles: 452926308 heartbeat IPC: 0.151419 cumulative IPC: 0.316008 (Simulation time: 0 hr 12 min 5 sec) 
Heartbeat CPU 0 instructions: 145000001 cycles: 458513988 heartbeat IPC: 0.178965 cumulative IPC: 0.314336 (Simulation time: 0 hr 12 min 13 sec) 
Heartbeat CPU 0 instructions: 146000003 cycles: 464756778 heartbeat IPC: 0.160185 cumulative IPC: 0.312264 (Simulation time: 0 hr 12 min 21 sec) 
Heartbeat CPU 0 instructions: 147000001 cycles: 466325080 heartbeat IPC: 0.637631 cumulative IPC: 0.313359 (Simulation time: 0 hr 12 min 25 sec) 
Heartbeat CPU 0 instructions: 148000000 cycles: 467926170 heartbeat IPC: 0.624574 cumulative IPC: 0.314425 (Simulation time: 0 hr 12 min 29 sec) 
Heartbeat CPU 0 instructions: 149000000 cycles: 469469633 heartbeat IPC: 0.647894 cumulative IPC: 0.315522 (Simulation time: 0 hr 12 min 33 sec) 
Heartbeat CPU 0 instructions: 150000001 cycles: 471031805 heartbeat IPC: 0.640135 cumulative IPC: 0.3166 (Simulation time: 0 hr 12 min 38 sec) 
Heartbeat CPU 0 instructions: 151000000 cycles: 472239143 heartbeat IPC: 0.828268 cumulative IPC: 0.317909 (Simulation time: 0 hr 12 min 42 sec) 
Heartbeat CPU 0 instructions: 152000003 cycles: 478719033 heartbeat IPC: 0.154324 cumulative IPC: 0.315693 (Simulation time: 0 hr 12 min 49 sec) 
Heartbeat CPU 0 instructions: 153000003 cycles: 481394121 heartbeat IPC: 0.373819 cumulative IPC: 0.316016 (Simulation time: 0 hr 12 min 55 sec) 
Heartbeat CPU 0 instructions: 154000000 cycles: 482570076 heartbeat IPC: 0.85037 cumulative IPC: 0.317319 (Simulation time: 0 hr 12 min 59 sec) 
Heartbeat CPU 0 instructions: 155000000 cycles: 484865568 heartbeat IPC: 0.435636 cumulative IPC: 0.31788 (Simulation time: 0 hr 13 min 4 sec) 
Heartbeat CPU 0 instructions: 156000001 cycles: 486083238 heartbeat IPC: 0.821241 cumulative IPC: 0.319142 (Simulation time: 0 hr 13 min 8 sec) 
Heartbeat CPU 0 instructions: 157000001 cycles: 487516460 heartbeat IPC: 0.697729 cumulative IPC: 0.320256 (Simulation time: 0 hr 13 min 12 sec) 
Heartbeat CPU 0 instructions: 158000001 cycles: 488661545 heartbeat IPC: 0.873298 cumulative IPC: 0.321553 (Simulation time: 0 hr 13 min 16 sec) 
Heartbeat CPU 0 instructions: 159000003 cycles: 492345974 heartbeat IPC: 0.271413 cumulative IPC: 0.321177 (Simulation time: 0 hr 13 min 22 sec) 
Heartbeat CPU 0 instructions: 160000000 cycles: 493654752 heartbeat IPC: 0.764069 cumulative IPC: 0.322352 (Simulation time: 0 hr 13 min 26 sec) 
Heartbeat CPU 0 instructions: 161000000 cycles: 494867878 heartbeat IPC: 0.824317 cumulative IPC: 0.323584 (Simulation time: 0 hr 13 min 30 sec) 
Heartbeat CPU 0 instructions: 162000001 cycles: 496594878 heartbeat IPC: 0.579039 cumulative IPC: 0.324473 (Simulation time: 0 hr 13 min 35 sec) 
Heartbeat CPU 0 instructions: 163000000 cycles: 497771033 heartbeat IPC: 0.850227 cumulative IPC: 0.325716 (Simulation time: 0 hr 13 min 39 sec) 
Heartbeat CPU 0 instructions: 164000003 cycles: 498951727 heartbeat IPC: 0.846962 cumulative IPC: 0.326951 (Simulation time: 0 hr 13 min 43 sec) 
Heartbeat CPU 0 instructions: 165000000 cycles: 500215361 heartbeat IPC: 0.791366 cumulative IPC: 0.328125 (Simulation time: 0 hr 13 min 47 sec) 
Heartbeat CPU 0 instructions: 166000000 cycles: 503526474 heartbeat IPC: 0.302013 cumulative IPC: 0.327953 (Simulation time: 0 hr 13 min 53 sec) 
Heartbeat CPU 0 instructions: 167000001 cycles: 504618481 heartbeat IPC: 0.915746 cumulative IPC: 0.329226 (Simulation time: 0 hr 13 min 58 sec) 
Heartbeat CPU 0 instructions: 168000002 cycles: 506600697 heartbeat IPC: 0.504486 cumulative IPC: 0.329912 (Simulation time: 0 hr 14 min 2 sec) 
Heartbeat CPU 0 instructions: 169000003 cycles: 507641817 heartbeat IPC: 0.960505 cumulative IPC: 0.331207 (Simulation time: 0 hr 14 min 6 sec) 
Heartbeat CPU 0 instructions: 170000001 cycles: 509232427 heartbeat IPC: 0.628688 cumulative IPC: 0.332137 (Simulation time: 0 hr 14 min 11 sec) 
Heartbeat CPU 0 instructions: 171000000 cycles: 510348715 heartbeat IPC: 0.895825 cumulative IPC: 0.333371 (Simulation time: 0 hr 14 min 15 sec) 
Heartbeat CPU 0 instructions: 172000001 cycles: 511872848 heartbeat IPC: 0.656111 cumulative IPC: 0.334332 (Simulation time: 0 hr 14 min 19 sec) 
Heartbeat CPU 0 instructions: 173000000 cycles: 522428490 heartbeat IPC: 0.094736 cumulative IPC: 0.329488 (Simulation time: 0 hr 14 min 27 sec) 
Heartbeat CPU 0 instructions: 174000001 cycles: 533129437 heartbeat IPC: 0.0934498 cumulative IPC: 0.324746 (Simulation time: 0 hr 14 min 35 sec) 
Heartbeat CPU 0 instructions: 175000003 cycles: 543683910 heartbeat IPC: 0.0947467 cumulative IPC: 0.320278 (Simulation time: 0 hr 14 min 44 sec) 
Heartbeat CPU 0 instructions: 176000000 cycles: 551786182 heartbeat IPC: 0.123422 cumulative IPC: 0.317385 (Simulation time: 0 hr 14 min 52 sec) 
Heartbeat CPU 0 instructions: 177000001 cycles: 557829909 heartbeat IPC: 0.165461 cumulative IPC: 0.315738 (Simulation time: 0 hr 15 min 1 sec) 
Heartbeat CPU 0 instructions: 178000000 cycles: 564149761 heartbeat IPC: 0.158231 cumulative IPC: 0.313972 (Simulation time: 0 hr 15 min 9 sec) 
Heartbeat CPU 0 instructions: 179000001 cycles: 568203325 heartbeat IPC: 0.246697 cumulative IPC: 0.313492 (Simulation time: 0 hr 15 min 15 sec) 
Heartbeat CPU 0 instructions: 180000000 cycles: 569681627 heartbeat IPC: 0.676451 cumulative IPC: 0.314435 (Simulation time: 0 hr 15 min 19 sec) 
Heartbeat CPU 0 instructions: 181000000 cycles: 570772017 heartbeat IPC: 0.917103 cumulative IPC: 0.315587 (Simulation time: 0 hr 15 min 23 sec) 
Heartbeat CPU 0 instructions: 182000001 cycles: 571985511 heartbeat IPC: 0.824068 cumulative IPC: 0.316666 (Simulation time: 0 hr 15 min 27 sec) 
Heartbeat CPU 0 instructions: 183000000 cycles: 575253739 heartbeat IPC: 0.305976 cumulative IPC: 0.316605 (Simulation time: 0 hr 15 min 33 sec) 
Heartbeat CPU 0 instructions: 184000002 cycles: 576351051 heartbeat IPC: 0.91132 cumulative IPC: 0.317738 (Simulation time: 0 hr 15 min 37 sec) 
Heartbeat CPU 0 instructions: 185000001 cycles: 577629487 heartbeat IPC: 0.782205 cumulative IPC: 0.318767 (Simulation time: 0 hr 15 min 41 sec) 
Heartbeat CPU 0 instructions: 186000001 cycles: 579193096 heartbeat IPC: 0.639546 cumulative IPC: 0.319634 (Simulation time: 0 hr 15 min 46 sec) 
Heartbeat CPU 0 instructions: 187000000 cycles: 580282539 heartbeat IPC: 0.917899 cumulative IPC: 0.320758 (Simulation time: 0 hr 15 min 50 sec) 
Heartbeat CPU 0 instructions: 188000000 cycles: 581446720 heartbeat IPC: 0.858973 cumulative IPC: 0.321836 (Simulation time: 0 hr 15 min 54 sec) 
Heartbeat CPU 0 instructions: 189000002 cycles: 585259142 heartbeat IPC: 0.262301 cumulative IPC: 0.321448 (Simulation time: 0 hr 16 min 1 sec) 
Heartbeat CPU 0 instructions: 190000003 cycles: 586310723 heartbeat IPC: 0.95095 cumulative IPC: 0.322578 (Simulation time: 0 hr 16 min 5 sec) 
Heartbeat CPU 0 instructions: 191000000 cycles: 590056077 heartbeat IPC: 0.266997 cumulative IPC: 0.322225 (Simulation time: 0 hr 16 min 11 sec) 
Heartbeat CPU 0 instructions: 192000000 cycles: 591301743 heartbeat IPC: 0.802783 cumulative IPC: 0.323238 (Simulation time: 0 hr 16 min 15 sec) 
Heartbeat CPU 0 instructions: 193000000 cycles: 592541421 heartbeat IPC: 0.806661 cumulative IPC: 0.32425 (Simulation time: 0 hr 16 min 19 sec) 
Heartbeat CPU 0 instructions: 194000000 cycles: 594084615 heartbeat IPC: 0.648007 cumulative IPC: 0.325092 (Simulation time: 0 hr 16 min 24 sec) 
Heartbeat CPU 0 instructions: 195000000 cycles: 595166397 heartbeat IPC: 0.924401 cumulative IPC: 0.326182 (Simulation time: 0 hr 16 min 28 sec) 
Heartbeat CPU 0 instructions: 196000003 cycles: 596604492 heartbeat IPC: 0.695366 cumulative IPC: 0.327072 (Simulation time: 0 hr 16 min 32 sec) 
Heartbeat CPU 0 instructions: 197000000 cycles: 597673213 heartbeat IPC: 0.935695 cumulative IPC: 0.328161 (Simulation time: 0 hr 16 min 36 sec) 
Heartbeat CPU 0 instructions: 198000000 cycles: 601342896 heartbeat IPC: 0.272503 cumulative IPC: 0.327821 (Simulation time: 0 hr 16 min 41 sec) 
Heartbeat CPU 0 instructions: 199000001 cycles: 602922910 heartbeat IPC: 0.632906 cumulative IPC: 0.328621 (Simulation time: 0 hr 16 min 45 sec) 
Heartbeat CPU 0 instructions: 200000000 cycles: 609228092 heartbeat IPC: 0.1586 cumulative IPC: 0.326861 (Simulation time: 0 hr 16 min 52 sec) 
Heartbeat CPU 0 instructions: 201000001 cycles: 619229667 heartbeat IPC: 0.0999844 cumulative IPC: 0.323194 (Simulation time: 0 hr 17 min 0 sec) 
Heartbeat CPU 0 instructions: 202000002 cycles: 628070783 heartbeat IPC: 0.113108 cumulative IPC: 0.320234 (Simulation time: 0 hr 17 min 9 sec) 
Heartbeat CPU 0 instructions: 203000000 cycles: 633734877 heartbeat IPC: 0.17655 cumulative IPC: 0.318949 (Simulation time: 0 hr 17 min 15 sec) 
Heartbeat CPU 0 instructions: 204000001 cycles: 635439739 heartbeat IPC: 0.586558 cumulative IPC: 0.319668 (Simulation time: 0 hr 17 min 20 sec) 
Heartbeat CPU 0 instructions: 205000002 cycles: 636612113 heartbeat IPC: 0.852971 cumulative IPC: 0.320651 (Simulation time: 0 hr 17 min 24 sec) 
Heartbeat CPU 0 instructions: 206000000 cycles: 640604781 heartbeat IPC: 0.250459 cumulative IPC: 0.320213 (Simulation time: 0 hr 17 min 29 sec) 
Heartbeat CPU 0 instructions: 207000002 cycles: 641837431 heartbeat IPC: 0.811262 cumulative IPC: 0.321157 (Simulation time: 0 hr 17 min 33 sec) 
Heartbeat CPU 0 instructions: 208000000 cycles: 643854464 heartbeat IPC: 0.495777 cumulative IPC: 0.321704 (Simulation time: 0 hr 17 min 38 sec) 
Heartbeat CPU 0 instructions: 209000000 cycles: 645463617 heartbeat IPC: 0.621445 cumulative IPC: 0.322452 (Simulation time: 0 hr 17 min 42 sec) 
Heartbeat CPU 0 instructions: 210000002 cycles: 646866376 heartbeat IPC: 0.712882 cumulative IPC: 0.323299 (Simulation time: 0 hr 17 min 46 sec) 
Heartbeat CPU 0 instructions: 211000000 cycles: 648937143 heartbeat IPC: 0.482912 cumulative IPC: 0.323809 (Simulation time: 0 hr 17 min 50 sec) 
Heartbeat CPU 0 instructions: 212000000 cycles: 650192227 heartbeat IPC: 0.796759 cumulative IPC: 0.324722 (Simulation time: 0 hr 17 min 54 sec) 
Heartbeat CPU 0 instructions: 213000000 cycles: 657007261 heartbeat IPC: 0.146734 cumulative IPC: 0.322875 (Simulation time: 0 hr 18 min 1 sec) 
Heartbeat CPU 0 instructions: 214000000 cycles: 666172050 heartbeat IPC: 0.109113 cumulative IPC: 0.319932 (Simulation time: 0 hr 18 min 10 sec) 
Heartbeat CPU 0 instructions: 215000001 cycles: 674258375 heartbeat IPC: 0.123666 cumulative IPC: 0.317577 (Simulation time: 0 hr 18 min 17 sec) 
Heartbeat CPU 0 instructions: 216000002 cycles: 683139728 heartbeat IPC: 0.112596 cumulative IPC: 0.31491 (Simulation time: 0 hr 18 min 25 sec) 
Heartbeat CPU 0 instructions: 217000002 cycles: 685889903 heartbeat IPC: 0.363613 cumulative IPC: 0.315106 (Simulation time: 0 hr 18 min 30 sec) 
Heartbeat CPU 0 instructions: 218000000 cycles: 687581391 heartbeat IPC: 0.591194 cumulative IPC: 0.315785 (Simulation time: 0 hr 18 min 34 sec) 
Heartbeat CPU 0 instructions: 219000002 cycles: 694132643 heartbeat IPC: 0.152643 cumulative IPC: 0.314245 (Simulation time: 0 hr 18 min 40 sec) 
Heartbeat CPU 0 instructions: 220000000 cycles: 695397914 heartbeat IPC: 0.790343 cumulative IPC: 0.315111 (Simulation time: 0 hr 18 min 44 sec) 
Heartbeat CPU 0 instructions: 221000000 cycles: 697385029 heartbeat IPC: 0.503242 cumulative IPC: 0.315648 (Simulation time: 0 hr 18 min 49 sec) 
Heartbeat CPU 0 instructions: 222000000 cycles: 698925501 heartbeat IPC: 0.649152 cumulative IPC: 0.316383 (Simulation time: 0 hr 18 min 53 sec) 
Heartbeat CPU 0 instructions: 223000000 cycles: 701063095 heartbeat IPC: 0.467816 cumulative IPC: 0.316845 (Simulation time: 0 hr 18 min 57 sec) 
Heartbeat CPU 0 instructions: 224000001 cycles: 702434392 heartbeat IPC: 0.729237 cumulative IPC: 0.317651 (Simulation time: 0 hr 19 min 1 sec) 
Heartbeat CPU 0 instructions: 225000003 cycles: 706077655 heartbeat IPC: 0.27448 cumulative IPC: 0.317428 (Simulation time: 0 hr 19 min 6 sec) 
Heartbeat CPU 0 instructions: 226000001 cycles: 713451639 heartbeat IPC: 0.135612 cumulative IPC: 0.315548 (Simulation time: 0 hr 19 min 13 sec) 
Heartbeat CPU 0 instructions: 227000002 cycles: 715094832 heartbeat IPC: 0.608572 cumulative IPC: 0.316221 (Simulation time: 0 hr 19 min 18 sec) 
Heartbeat CPU 0 instructions: 228000003 cycles: 716618174 heartbeat IPC: 0.656452 cumulative IPC: 0.316945 (Simulation time: 0 hr 19 min 22 sec) 
Heartbeat CPU 0 instructions: 229000003 cycles: 718781615 heartbeat IPC: 0.462227 cumulative IPC: 0.317383 (Simulation time: 0 hr 19 min 26 sec) 
Heartbeat CPU 0 instructions: 230000000 cycles: 720281512 heartbeat IPC: 0.66671 cumulative IPC: 0.31811 (Simulation time: 0 hr 19 min 31 sec) 
Heartbeat CPU 0 instructions: 231000000 cycles: 723999738 heartbeat IPC: 0.268945 cumulative IPC: 0.317858 (Simulation time: 0 hr 19 min 36 sec) 
Heartbeat CPU 0 instructions: 232000003 cycles: 728407956 heartbeat IPC: 0.22685 cumulative IPC: 0.317307 (Simulation time: 0 hr 19 min 42 sec) 
Heartbeat CPU 0 instructions: 233000001 cycles: 730030240 heartbeat IPC: 0.616414 cumulative IPC: 0.317972 (Simulation time: 0 hr 19 min 46 sec) 
Heartbeat CPU 0 instructions: 234000000 cycles: 731309688 heartbeat IPC: 0.781586 cumulative IPC: 0.318783 (Simulation time: 0 hr 19 min 50 sec) 
Heartbeat CPU 0 instructions: 235000000 cycles: 733105463 heartbeat IPC: 0.556863 cumulative IPC: 0.319367 (Simulation time: 0 hr 19 min 54 sec) 
Heartbeat CPU 0 instructions: 236000003 cycles: 735614642 heartbeat IPC: 0.398538 cumulative IPC: 0.319637 (Simulation time: 0 hr 19 min 59 sec) 
Heartbeat CPU 0 instructions: 237000000 cycles: 737088984 heartbeat IPC: 0.678267 cumulative IPC: 0.320355 (Simulation time: 0 hr 20 min 3 sec) 
Heartbeat CPU 0 instructions: 238000000 cycles: 738666785 heartbeat IPC: 0.633793 cumulative IPC: 0.321025 (Simulation time: 0 hr 20 min 7 sec) 
Heartbeat CPU 0 instructions: 239000000 cycles: 740261327 heartbeat IPC: 0.627139 cumulative IPC: 0.321684 (Simulation time: 0 hr 20 min 11 sec) 
Heartbeat CPU 0 instructions: 240000003 cycles: 746712174 heartbeat IPC: 0.155019 cumulative IPC: 0.320244 (Simulation time: 0 hr 20 min 19 sec) 
Heartbeat CPU 0 instructions: 241000001 cycles: 749980118 heartbeat IPC: 0.306002 cumulative IPC: 0.320182 (Simulation time: 0 hr 20 min 25 sec) 
Heartbeat CPU 0 instructions: 242000000 cycles: 751632825 heartbeat IPC: 0.605067 cumulative IPC: 0.320808 (Simulation time: 0 hr 20 min 29 sec) 
Heartbeat CPU 0 instructions: 243000000 cycles: 752944692 heartbeat IPC: 0.762272 cumulative IPC: 0.321578 (Simulation time: 0 hr 20 min 33 sec) 
Heartbeat CPU 0 instructions: 244000001 cycles: 754043631 heartbeat IPC: 0.90997 cumulative IPC: 0.322436 (Simulation time: 0 hr 20 min 37 sec) 
Heartbeat CPU 0 instructions: 245000000 cycles: 756133161 heartbeat IPC: 0.478576 cumulative IPC: 0.322868 (Simulation time: 0 hr 20 min 42 sec) 
Heartbeat CPU 0 instructions: 246000000 cycles: 757443473 heartbeat IPC: 0.763177 cumulative IPC: 0.32363 (Simulation time: 0 hr 20 min 46 sec) 
Heartbeat CPU 0 instructions: 247000002 cycles: 758525679 heartbeat IPC: 0.92404 cumulative IPC: 0.324487 (Simulation time: 0 hr 20 min 50 sec) 
Heartbeat CPU 0 instructions: 248000002 cycles: 760416238 heartbeat IPC: 0.528944 cumulative IPC: 0.324995 (Simulation time: 0 hr 20 min 55 sec) 
Heartbeat CPU 0 instructions: 249000002 cycles: 761974232 heartbeat IPC: 0.641851 cumulative IPC: 0.325644 (Simulation time: 0 hr 20 min 59 sec) 
Heartbeat CPU 0 instructions: 250000003 cycles: 763613884 heartbeat IPC: 0.609886 cumulative IPC: 0.326254 (Simulation time: 0 hr 21 min 3 sec) 
Heartbeat CPU 0 instructions: 251000001 cycles: 764798951 heartbeat IPC: 0.843832 cumulative IPC: 0.327057 (Simulation time: 0 hr 21 min 7 sec) 
Heartbeat CPU 0 instructions: 252000002 cycles: 765886189 heartbeat IPC: 0.919763 cumulative IPC: 0.327899 (Simulation time: 0 hr 21 min 11 sec) 
Heartbeat CPU 0 instructions: 253000000 cycles: 773279044 heartbeat IPC: 0.135265 cumulative IPC: 0.326056 (Simulation time: 0 hr 21 min 19 sec) 
Heartbeat CPU 0 instructions: 254000003 cycles: 781836070 heartbeat IPC: 0.116863 cumulative IPC: 0.323765 (Simulation time: 0 hr 21 min 27 sec) 
Heartbeat CPU 0 instructions: 255000001 cycles: 790801629 heartbeat IPC: 0.111538 cumulative IPC: 0.321358 (Simulation time: 0 hr 21 min 35 sec) 
Heartbeat CPU 0 instructions: 256000003 cycles: 799569811 heartbeat IPC: 0.114049 cumulative IPC: 0.319083 (Simulation time: 0 hr 21 min 44 sec) 
Heartbeat CPU 0 instructions: 257000001 cycles: 808168458 heartbeat IPC: 0.116297 cumulative IPC: 0.316925 (Simulation time: 0 hr 21 min 52 sec) 
Heartbeat CPU 0 instructions: 258000001 cycles: 816793664 heartbeat IPC: 0.115939 cumulative IPC: 0.314801 (Simulation time: 0 hr 22 min 0 sec) 
Heartbeat CPU 0 instructions: 259000002 cycles: 825344794 heartbeat IPC: 0.116944 cumulative IPC: 0.31275 (Simulation time: 0 hr 22 min 8 sec) 
Heartbeat CPU 0 instructions: 260000001 cycles: 834010966 heartbeat IPC: 0.115391 cumulative IPC: 0.310699 (Simulation time: 0 hr 22 min 17 sec) 
Heartbeat CPU 0 instructions: 261000001 cycles: 842392869 heartbeat IPC: 0.119305 cumulative IPC: 0.308793 (Simulation time: 0 hr 22 min 25 sec) 
Heartbeat CPU 0 instructions: 262000000 cycles: 851332437 heartbeat IPC: 0.111862 cumulative IPC: 0.306724 (Simulation time: 0 hr 22 min 33 sec) 
Heartbeat CPU 0 instructions: 263000003 cycles: 860227056 heartbeat IPC: 0.112428 cumulative IPC: 0.304714 (Simulation time: 0 hr 22 min 42 sec) 
Heartbeat CPU 0 instructions: 264000000 cycles: 869122764 heartbeat IPC: 0.112413 cumulative IPC: 0.302745 (Simulation time: 0 hr 22 min 50 sec) 
Heartbeat CPU 0 instructions: 265000001 cycles: 878166387 heartbeat IPC: 0.110575 cumulative IPC: 0.300765 (Simulation time: 0 hr 22 min 58 sec) 
Heartbeat CPU 0 instructions: 266000001 cycles: 887884456 heartbeat IPC: 0.102901 cumulative IPC: 0.298599 (Simulation time: 0 hr 23 min 6 sec) 
Heartbeat CPU 0 instructions: 267000000 cycles: 898013734 heartbeat IPC: 0.0987236 cumulative IPC: 0.296343 (Simulation time: 0 hr 23 min 14 sec) 
Heartbeat CPU 0 instructions: 268000001 cycles: 907290480 heartbeat IPC: 0.107797 cumulative IPC: 0.294414 (Simulation time: 0 hr 23 min 22 sec) 
Heartbeat CPU 0 instructions: 269000001 cycles: 917150389 heartbeat IPC: 0.101421 cumulative IPC: 0.292339 (Simulation time: 0 hr 23 min 30 sec) 
Heartbeat CPU 0 instructions: 270000001 cycles: 925850724 heartbeat IPC: 0.114938 cumulative IPC: 0.290671 (Simulation time: 0 hr 23 min 38 sec) 
Heartbeat CPU 0 instructions: 271000001 cycles: 934200920 heartbeat IPC: 0.119758 cumulative IPC: 0.289143 (Simulation time: 0 hr 23 min 46 sec) 
Heartbeat CPU 0 instructions: 272000000 cycles: 942398994 heartbeat IPC: 0.12198 cumulative IPC: 0.287688 (Simulation time: 0 hr 23 min 54 sec) 
Heartbeat CPU 0 instructions: 273000002 cycles: 947561514 heartbeat IPC: 0.193704 cumulative IPC: 0.287176 (Simulation time: 0 hr 24 min 2 sec) 
Heartbeat CPU 0 instructions: 274000000 cycles: 948644512 heartbeat IPC: 0.923361 cumulative IPC: 0.287902 (Simulation time: 0 hr 24 min 6 sec) 
Heartbeat CPU 0 instructions: 275000000 cycles: 949863735 heartbeat IPC: 0.820194 cumulative IPC: 0.288586 (Simulation time: 0 hr 24 min 10 sec) 
Heartbeat CPU 0 instructions: 276000001 cycles: 951861531 heartbeat IPC: 0.500552 cumulative IPC: 0.289031 (Simulation time: 0 hr 24 min 15 sec) 
Heartbeat CPU 0 instructions: 277000001 cycles: 956144173 heartbeat IPC: 0.233501 cumulative IPC: 0.288782 (Simulation time: 0 hr 24 min 22 sec) 
Heartbeat CPU 0 instructions: 278000002 cycles: 957653190 heartbeat IPC: 0.662684 cumulative IPC: 0.289371 (Simulation time: 0 hr 24 min 26 sec) 
Heartbeat CPU 0 instructions: 279000000 cycles: 958956398 heartbeat IPC: 0.767336 cumulative IPC: 0.290021 (Simulation time: 0 hr 24 min 31 sec) 
Heartbeat CPU 0 instructions: 280000001 cycles: 960035016 heartbeat IPC: 0.927113 cumulative IPC: 0.290737 (Simulation time: 0 hr 24 min 35 sec) 
Heartbeat CPU 0 instructions: 281000002 cycles: 961383280 heartbeat IPC: 0.741695 cumulative IPC: 0.29137 (Simulation time: 0 hr 24 min 39 sec) 
Heartbeat CPU 0 instructions: 282000001 cycles: 962645325 heartbeat IPC: 0.792364 cumulative IPC: 0.292027 (Simulation time: 0 hr 24 min 43 sec) 
Heartbeat CPU 0 instructions: 283000001 cycles: 964527484 heartbeat IPC: 0.531305 cumulative IPC: 0.292494 (Simulation time: 0 hr 24 min 48 sec) 
Heartbeat CPU 0 instructions: 284000000 cycles: 965816869 heartbeat IPC: 0.775563 cumulative IPC: 0.293139 (Simulation time: 0 hr 24 min 52 sec) 
Heartbeat CPU 0 instructions: 285000002 cycles: 970642257 heartbeat IPC: 0.207238 cumulative IPC: 0.292712 (Simulation time: 0 hr 24 min 58 sec) 
Heartbeat CPU 0 instructions: 286000000 cycles: 981115837 heartbeat IPC: 0.0954781 cumulative IPC: 0.290606 (Simulation time: 0 hr 25 min 6 sec) 
Heartbeat CPU 0 instructions: 287000001 cycles: 990152329 heartbeat IPC: 0.110663 cumulative IPC: 0.288963 (Simulation time: 0 hr 25 min 14 sec) 
Heartbeat CPU 0 instructions: 288000003 cycles: 992479525 heartbeat IPC: 0.429703 cumulative IPC: 0.289293 (Simulation time: 0 hr 25 min 18 sec) 
Heartbeat CPU 0 instructions: 289000001 cycles: 994392421 heartbeat IPC: 0.522767 cumulative IPC: 0.289742 (Simulation time: 0 hr 25 min 23 sec) 
Heartbeat CPU 0 instructions: 290000001 cycles: 997869210 heartbeat IPC: 0.287622 cumulative IPC: 0.289735 (Simulation time: 0 hr 25 min 28 sec) 
Heartbeat CPU 0 instructions: 291000001 cycles: 999167994 heartbeat IPC: 0.769951 cumulative IPC: 0.290359 (Simulation time: 0 hr 25 min 32 sec) 
Heartbeat CPU 0 instructions: 292000002 cycles: 1000349604 heartbeat IPC: 0.846304 cumulative IPC: 0.291016 (Simulation time: 0 hr 25 min 36 sec) 
Heartbeat CPU 0 instructions: 293000002 cycles: 1002007365 heartbeat IPC: 0.603223 cumulative IPC: 0.291533 (Simulation time: 0 hr 25 min 40 sec) 
Heartbeat CPU 0 instructions: 294000002 cycles: 1003753457 heartbeat IPC: 0.572708 cumulative IPC: 0.292022 (Simulation time: 0 hr 25 min 45 sec) 
Heartbeat CPU 0 instructions: 295000001 cycles: 1010984945 heartbeat IPC: 0.138284 cumulative IPC: 0.290922 (Simulation time: 0 hr 25 min 52 sec) 
Heartbeat CPU 0 instructions: 296000003 cycles: 1020842690 heartbeat IPC: 0.101443 cumulative IPC: 0.289092 (Simulation time: 0 hr 26 min 1 sec) 
Heartbeat CPU 0 instructions: 297000000 cycles: 1029351477 heartbeat IPC: 0.117525 cumulative IPC: 0.287673 (Simulation time: 0 hr 26 min 8 sec) 
Heartbeat CPU 0 instructions: 298000000 cycles: 1034019666 heartbeat IPC: 0.214216 cumulative IPC: 0.287341 (Simulation time: 0 hr 26 min 15 sec) 
Heartbeat CPU 0 instructions: 299000001 cycles: 1035298041 heartbeat IPC: 0.782244 cumulative IPC: 0.287953 (Simulation time: 0 hr 26 min 19 sec) 
Heartbeat CPU 0 instructions: 300000002 cycles: 1036968177 heartbeat IPC: 0.598754 cumulative IPC: 0.288453 (Simulation time: 0 hr 26 min 23 sec) 
Heartbeat CPU 0 instructions: 301000002 cycles: 1038416626 heartbeat IPC: 0.690394 cumulative IPC: 0.289014 (Simulation time: 0 hr 26 min 27 sec) 
Heartbeat CPU 0 instructions: 302000000 cycles: 1040524027 heartbeat IPC: 0.474517 cumulative IPC: 0.28939 (Simulation time: 0 hr 26 min 32 sec) 
Heartbeat CPU 0 instructions: 303000003 cycles: 1041982399 heartbeat IPC: 0.685698 cumulative IPC: 0.289945 (Simulation time: 0 hr 26 min 36 sec) 
Heartbeat CPU 0 instructions: 304000001 cycles: 1043183509 heartbeat IPC: 0.832562 cumulative IPC: 0.29057 (Simulation time: 0 hr 26 min 40 sec) 
Heartbeat CPU 0 instructions: 305000001 cycles: 1049359286 heartbeat IPC: 0.161923 cumulative IPC: 0.289813 (Simulation time: 0 hr 26 min 47 sec) 
Heartbeat CPU 0 instructions: 306000000 cycles: 1052212777 heartbeat IPC: 0.350448 cumulative IPC: 0.289977 (Simulation time: 0 hr 26 min 52 sec) 
Heartbeat CPU 0 instructions: 307000002 cycles: 1053799635 heartbeat IPC: 0.630177 cumulative IPC: 0.29049 (Simulation time: 0 hr 26 min 56 sec) 
Heartbeat CPU 0 instructions: 308000000 cycles: 1055493539 heartbeat IPC: 0.590351 cumulative IPC: 0.290971 (Simulation time: 0 hr 27 min 1 sec) 
Heartbeat CPU 0 instructions: 309000001 cycles: 1056869664 heartbeat IPC: 0.726679 cumulative IPC: 0.291539 (Simulation time: 0 hr 27 min 5 sec) 
Heartbeat CPU 0 instructions: 310000003 cycles: 1061206095 heartbeat IPC: 0.230605 cumulative IPC: 0.291289 (Simulation time: 0 hr 27 min 11 sec) 
Heartbeat CPU 0 instructions: 311000000 cycles: 1062518437 heartbeat IPC: 0.761994 cumulative IPC: 0.291871 (Simulation time: 0 hr 27 min 15 sec) 
Heartbeat CPU 0 instructions: 312000001 cycles: 1065033348 heartbeat IPC: 0.397629 cumulative IPC: 0.292121 (Simulation time: 0 hr 27 min 20 sec) 
Heartbeat CPU 0 instructions: 313000002 cycles: 1067012552 heartbeat IPC: 0.505254 cumulative IPC: 0.292516 (Simulation time: 0 hr 27 min 24 sec) 
Heartbeat CPU 0 instructions: 314000001 cycles: 1068577227 heartbeat IPC: 0.63911 cumulative IPC: 0.293024 (Simulation time: 0 hr 27 min 29 sec) 
Heartbeat CPU 0 instructions: 315000000 cycles: 1074376475 heartbeat IPC: 0.172436 cumulative IPC: 0.292373 (Simulation time: 0 hr 27 min 35 sec) 
Heartbeat CPU 0 instructions: 316000001 cycles: 1078273676 heartbeat IPC: 0.256595 cumulative IPC: 0.292244 (Simulation time: 0 hr 27 min 40 sec) 
Heartbeat CPU 0 instructions: 317000001 cycles: 1079908591 heartbeat IPC: 0.611653 cumulative IPC: 0.292727 (Simulation time: 0 hr 27 min 45 sec) 
Heartbeat CPU 0 instructions: 318000002 cycles: 1081790459 heartbeat IPC: 0.531387 cumulative IPC: 0.293143 (Simulation time: 0 hr 27 min 49 sec) 
Heartbeat CPU 0 instructions: 319000000 cycles: 1083210741 heartbeat IPC: 0.704084 cumulative IPC: 0.293682 (Simulation time: 0 hr 27 min 53 sec) 
Heartbeat CPU 0 instructions: 320000002 cycles: 1086797169 heartbeat IPC: 0.27883 cumulative IPC: 0.293633 (Simulation time: 0 hr 27 min 59 sec) 
Heartbeat CPU 0 instructions: 321000001 cycles: 1088554588 heartbeat IPC: 0.569016 cumulative IPC: 0.294077 (Simulation time: 0 hr 28 min 3 sec) 
Heartbeat CPU 0 instructions: 322000001 cycles: 1090557055 heartbeat IPC: 0.499384 cumulative IPC: 0.294455 (Simulation time: 0 hr 28 min 7 sec) 
Heartbeat CPU 0 instructions: 323000001 cycles: 1092156297 heartbeat IPC: 0.625296 cumulative IPC: 0.294939 (Simulation time: 0 hr 28 min 11 sec) 
Heartbeat CPU 0 instructions: 324000003 cycles: 1093500725 heartbeat IPC: 0.743812 cumulative IPC: 0.295491 (Simulation time: 0 hr 28 min 16 sec) 
Heartbeat CPU 0 instructions: 325000000 cycles: 1099245114 heartbeat IPC: 0.174082 cumulative IPC: 0.294857 (Simulation time: 0 hr 28 min 22 sec) 
Heartbeat CPU 0 instructions: 326000002 cycles: 1108226730 heartbeat IPC: 0.111339 cumulative IPC: 0.293369 (Simulation time: 0 hr 28 min 31 sec) 
Heartbeat CPU 0 instructions: 327000002 cycles: 1117599422 heartbeat IPC: 0.106693 cumulative IPC: 0.291803 (Simulation time: 0 hr 28 min 39 sec) 
Heartbeat CPU 0 instructions: 328000000 cycles: 1124277572 heartbeat IPC: 0.149742 cumulative IPC: 0.290958 (Simulation time: 0 hr 28 min 47 sec) 
Heartbeat CPU 0 instructions: 329000001 cycles: 1130460835 heartbeat IPC: 0.161727 cumulative IPC: 0.290251 (Simulation time: 0 hr 28 min 55 sec) 
Heartbeat CPU 0 instructions: 330000000 cycles: 1133371424 heartbeat IPC: 0.343573 cumulative IPC: 0.290388 (Simulation time: 0 hr 29 min 1 sec) 
Heartbeat CPU 0 instructions: 331000000 cycles: 1134618218 heartbeat IPC: 0.802057 cumulative IPC: 0.290951 (Simulation time: 0 hr 29 min 5 sec) 
Heartbeat CPU 0 instructions: 332000003 cycles: 1138214950 heartbeat IPC: 0.278031 cumulative IPC: 0.29091 (Simulation time: 0 hr 29 min 11 sec) 
Heartbeat CPU 0 instructions: 333000001 cycles: 1139273562 heartbeat IPC: 0.944631 cumulative IPC: 0.291518 (Simulation time: 0 hr 29 min 15 sec) 
Heartbeat CPU 0 instructions: 334000000 cycles: 1140582418 heartbeat IPC: 0.764025 cumulative IPC: 0.29206 (Simulation time: 0 hr 29 min 19 sec) 
Heartbeat CPU 0 instructions: 335000000 cycles: 1141674300 heartbeat IPC: 0.91585 cumulative IPC: 0.292657 (Simulation time: 0 hr 29 min 23 sec) 
Heartbeat CPU 0 instructions: 336000000 cycles: 1143557573 heartbeat IPC: 0.53099 cumulative IPC: 0.293049 (Simulation time: 0 hr 29 min 28 sec) 
Heartbeat CPU 0 instructions: 337000000 cycles: 1145063085 heartbeat IPC: 0.664226 cumulative IPC: 0.293538 (Simulation time: 0 hr 29 min 32 sec) 
Heartbeat CPU 0 instructions: 338000001 cycles: 1146247432 heartbeat IPC: 0.844348 cumulative IPC: 0.294107 (Simulation time: 0 hr 29 min 36 sec) 
Heartbeat CPU 0 instructions: 339000000 cycles: 1150286732 heartbeat IPC: 0.247567 cumulative IPC: 0.293943 (Simulation time: 0 hr 29 min 43 sec) 
Heartbeat CPU 0 instructions: 340000001 cycles: 1154820230 heartbeat IPC: 0.22058 cumulative IPC: 0.293655 (Simulation time: 0 hr 29 min 49 sec) 
Heartbeat CPU 0 instructions: 341000000 cycles: 1156012104 heartbeat IPC: 0.839014 cumulative IPC: 0.294218 (Simulation time: 0 hr 29 min 54 sec) 
Heartbeat CPU 0 instructions: 342000001 cycles: 1157504954 heartbeat IPC: 0.66986 cumulative IPC: 0.294702 (Simulation time: 0 hr 29 min 58 sec) 
Heartbeat CPU 0 instructions: 343000001 cycles: 1158775361 heartbeat IPC: 0.787149 cumulative IPC: 0.295243 (Simulation time: 0 hr 30 min 2 sec) 
Heartbeat CPU 0 instructions: 344000000 cycles: 1159923951 heartbeat IPC: 0.870632 cumulative IPC: 0.295813 (Simulation time: 0 hr 30 min 7 sec) 
Heartbeat CPU 0 instructions: 345000001 cycles: 1162105064 heartbeat IPC: 0.458482 cumulative IPC: 0.296118 (Simulation time: 0 hr 30 min 11 sec) 
Heartbeat CPU 0 instructions: 346000001 cycles: 1165421971 heartbeat IPC: 0.301486 cumulative IPC: 0.296133 (Simulation time: 0 hr 30 min 17 sec) 
Heartbeat CPU 0 instructions: 347000000 cycles: 1166621066 heartbeat IPC: 0.833961 cumulative IPC: 0.296686 (Simulation time: 0 hr 30 min 21 sec) 
Heartbeat CPU 0 instructions: 348000000 cycles: 1167723156 heartbeat IPC: 0.907367 cumulative IPC: 0.297263 (Simulation time: 0 hr 30 min 26 sec) 
Heartbeat CPU 0 instructions: 349000000 cycles: 1169116321 heartbeat IPC: 0.71779 cumulative IPC: 0.297764 (Simulation time: 0 hr 30 min 30 sec) 
Heartbeat CPU 0 instructions: 350000001 cycles: 1170209692 heartbeat IPC: 0.914604 cumulative IPC: 0.298341 (Simulation time: 0 hr 30 min 34 sec) 
Heartbeat CPU 0 instructions: 351000000 cycles: 1171720618 heartbeat IPC: 0.661845 cumulative IPC: 0.298809 (Simulation time: 0 hr 30 min 39 sec) 
Heartbeat CPU 0 instructions: 352000000 cycles: 1172822020 heartbeat IPC: 0.907934 cumulative IPC: 0.299382 (Simulation time: 0 hr 30 min 43 sec) 
Heartbeat CPU 0 instructions: 353000000 cycles: 1180813476 heartbeat IPC: 0.125134 cumulative IPC: 0.298202 (Simulation time: 0 hr 30 min 50 sec) 
Heartbeat CPU 0 instructions: 354000002 cycles: 1191129859 heartbeat IPC: 0.0969334 cumulative IPC: 0.296458 (Simulation time: 0 hr 30 min 58 sec) 
Heartbeat CPU 0 instructions: 355000002 cycles: 1200113791 heartbeat IPC: 0.11131 cumulative IPC: 0.295072 (Simulation time: 0 hr 31 min 6 sec) 
Heartbeat CPU 0 instructions: 356000000 cycles: 1205412644 heartbeat IPC: 0.18872 cumulative IPC: 0.294604 (Simulation time: 0 hr 31 min 13 sec) 
Heartbeat CPU 0 instructions: 357000000 cycles: 1206840842 heartbeat IPC: 0.700183 cumulative IPC: 0.295084 (Simulation time: 0 hr 31 min 17 sec) 
Heartbeat CPU 0 instructions: 358000000 cycles: 1208040761 heartbeat IPC: 0.83339 cumulative IPC: 0.295619 (Simulation time: 0 hr 31 min 21 sec) 
Heartbeat CPU 0 instructions: 359000002 cycles: 1209120220 heartbeat IPC: 0.926392 cumulative IPC: 0.296182 (Simulation time: 0 hr 31 min 25 sec) 
Heartbeat CPU 0 instructions: 360000000 cycles: 1211954293 heartbeat IPC: 0.352848 cumulative IPC: 0.296315 (Simulation time: 0 hr 31 min 31 sec) 
Heartbeat CPU 0 instructions: 361000003 cycles: 1213031819 heartbeat IPC: 0.928055 cumulative IPC: 0.296876 (Simulation time: 0 hr 31 min 35 sec) 
Heartbeat CPU 0 instructions: 362000003 cycles: 1214336147 heartbeat IPC: 0.766678 cumulative IPC: 0.297381 (Simulation time: 0 hr 31 min 39 sec) 
Heartbeat CPU 0 instructions: 363000000 cycles: 1215685699 heartbeat IPC: 0.740984 cumulative IPC: 0.297874 (Simulation time: 0 hr 31 min 43 sec) 
Heartbeat CPU 0 instructions: 364000001 cycles: 1216786999 heartbeat IPC: 0.908019 cumulative IPC: 0.298426 (Simulation time: 0 hr 31 min 47 sec) 
Heartbeat CPU 0 instructions: 365000003 cycles: 1224188632 heartbeat IPC: 0.135106 cumulative IPC: 0.297438 (Simulation time: 0 hr 31 min 55 sec) 
Heartbeat CPU 0 instructions: 366000000 cycles: 1226190669 heartbeat IPC: 0.49949 cumulative IPC: 0.297768 (Simulation time: 0 hr 31 min 59 sec) 
Heartbeat CPU 0 instructions: 367000000 cycles: 1227526903 heartbeat IPC: 0.748372 cumulative IPC: 0.298259 (Simulation time: 0 hr 32 min 3 sec) 
Heartbeat CPU 0 instructions: 368000003 cycles: 1229018310 heartbeat IPC: 0.67051 cumulative IPC: 0.298711 (Simulation time: 0 hr 32 min 7 sec) 
Heartbeat CPU 0 instructions: 369000002 cycles: 1232705119 heartbeat IPC: 0.271237 cumulative IPC: 0.298629 (Simulation time: 0 hr 32 min 13 sec) 
Heartbeat CPU 0 instructions: 370000003 cycles: 1237548004 heartbeat IPC: 0.206489 cumulative IPC: 0.298268 (Simulation time: 0 hr 32 min 19 sec) 
Heartbeat CPU 0 instructions: 371000003 cycles: 1239100189 heartbeat IPC: 0.644253 cumulative IPC: 0.298702 (Simulation time: 0 hr 32 min 23 sec) 
Heartbeat CPU 0 instructions: 372000002 cycles: 1240470669 heartbeat IPC: 0.729671 cumulative IPC: 0.299178 (Simulation time: 0 hr 32 min 28 sec) 
Heartbeat CPU 0 instructions: 373000000 cycles: 1242853950 heartbeat IPC: 0.419589 cumulative IPC: 0.299409 (Simulation time: 0 hr 32 min 32 sec) 
Heartbeat CPU 0 instructions: 374000000 cycles: 1245526982 heartbeat IPC: 0.374107 cumulative IPC: 0.299569 (Simulation time: 0 hr 32 min 38 sec) 
Heartbeat CPU 0 instructions: 375000000 cycles: 1247391161 heartbeat IPC: 0.536429 cumulative IPC: 0.299923 (Simulation time: 0 hr 32 min 42 sec) 
Heartbeat CPU 0 instructions: 376000000 cycles: 1248792171 heartbeat IPC: 0.713771 cumulative IPC: 0.300388 (Simulation time: 0 hr 32 min 46 sec) 
Heartbeat CPU 0 instructions: 377000000 cycles: 1250809658 heartbeat IPC: 0.495666 cumulative IPC: 0.300703 (Simulation time: 0 hr 32 min 51 sec) 
Heartbeat CPU 0 instructions: 378000000 cycles: 1252161833 heartbeat IPC: 0.739549 cumulative IPC: 0.301177 (Simulation time: 0 hr 32 min 55 sec) 
Heartbeat CPU 0 instructions: 379000002 cycles: 1255008406 heartbeat IPC: 0.3513 cumulative IPC: 0.301291 (Simulation time: 0 hr 33 min 0 sec) 
Heartbeat CPU 0 instructions: 380000001 cycles: 1258330258 heartbeat IPC: 0.301037 cumulative IPC: 0.30129 (Simulation time: 0 hr 33 min 5 sec) 
Heartbeat CPU 0 instructions: 381000000 cycles: 1259623332 heartbeat IPC: 0.77335 cumulative IPC: 0.301775 (Simulation time: 0 hr 33 min 9 sec) 
Heartbeat CPU 0 instructions: 382000000 cycles: 1262601510 heartbeat IPC: 0.335776 cumulative IPC: 0.301855 (Simulation time: 0 hr 33 min 14 sec) 
Heartbeat CPU 0 instructions: 383000002 cycles: 1264007769 heartbeat IPC: 0.711108 cumulative IPC: 0.30231 (Simulation time: 0 hr 33 min 18 sec) 
Heartbeat CPU 0 instructions: 384000003 cycles: 1266488770 heartbeat IPC: 0.403064 cumulative IPC: 0.302508 (Simulation time: 0 hr 33 min 22 sec) 
Heartbeat CPU 0 instructions: 385000000 cycles: 1267932751 heartbeat IPC: 0.692528 cumulative IPC: 0.302952 (Simulation time: 0 hr 33 min 26 sec) 
Heartbeat CPU 0 instructions: 386000002 cycles: 1273102475 heartbeat IPC: 0.193434 cumulative IPC: 0.302507 (Simulation time: 0 hr 33 min 32 sec) 
Heartbeat CPU 0 instructions: 387000002 cycles: 1282410453 heartbeat IPC: 0.107435 cumulative IPC: 0.301091 (Simulation time: 0 hr 33 min 40 sec) 
Heartbeat CPU 0 instructions: 388000002 cycles: 1291721417 heartbeat IPC: 0.1074 cumulative IPC: 0.299694 (Simulation time: 0 hr 33 min 48 sec) 
Heartbeat CPU 0 instructions: 389000003 cycles: 1300304996 heartbeat IPC: 0.116502 cumulative IPC: 0.298485 (Simulation time: 0 hr 33 min 57 sec) 
Heartbeat CPU 0 instructions: 390000000 cycles: 1309507756 heartbeat IPC: 0.108663 cumulative IPC: 0.29715 (Simulation time: 0 hr 34 min 5 sec) 
Heartbeat CPU 0 instructions: 391000001 cycles: 1318783321 heartbeat IPC: 0.10781 cumulative IPC: 0.295818 (Simulation time: 0 hr 34 min 13 sec) 
Heartbeat CPU 0 instructions: 392000000 cycles: 1327672943 heartbeat IPC: 0.112491 cumulative IPC: 0.29459 (Simulation time: 0 hr 34 min 21 sec) 
Heartbeat CPU 0 instructions: 393000003 cycles: 1334462098 heartbeat IPC: 0.147294 cumulative IPC: 0.293841 (Simulation time: 0 hr 34 min 30 sec) 
Heartbeat CPU 0 instructions: 394000000 cycles: 1341211016 heartbeat IPC: 0.148171 cumulative IPC: 0.293107 (Simulation time: 0 hr 34 min 39 sec) 
Heartbeat CPU 0 instructions: 395000001 cycles: 1347728476 heartbeat IPC: 0.153434 cumulative IPC: 0.292432 (Simulation time: 0 hr 34 min 46 sec) 
Heartbeat CPU 0 instructions: 396000000 cycles: 1355107878 heartbeat IPC: 0.135512 cumulative IPC: 0.291577 (Simulation time: 0 hr 34 min 54 sec) 
Heartbeat CPU 0 instructions: 397000000 cycles: 1359312386 heartbeat IPC: 0.23784 cumulative IPC: 0.291411 (Simulation time: 0 hr 34 min 59 sec) 
Heartbeat CPU 0 instructions: 398000001 cycles: 1360683853 heartbeat IPC: 0.729147 cumulative IPC: 0.291852 (Simulation time: 0 hr 35 min 3 sec) 
Heartbeat CPU 0 instructions: 399000002 cycles: 1362263252 heartbeat IPC: 0.633153 cumulative IPC: 0.292248 (Simulation time: 0 hr 35 min 7 sec) 
Heartbeat CPU 0 instructions: 400000000 cycles: 1364880509 heartbeat IPC: 0.382079 cumulative IPC: 0.29242 (Simulation time: 0 hr 35 min 12 sec) 
Heartbeat CPU 0 instructions: 401000001 cycles: 1366315735 heartbeat IPC: 0.696755 cumulative IPC: 0.292845 (Simulation time: 0 hr 35 min 16 sec) 
Heartbeat CPU 0 instructions: 402000000 cycles: 1369145600 heartbeat IPC: 0.353373 cumulative IPC: 0.29297 (Simulation time: 0 hr 35 min 21 sec) 
Heartbeat CPU 0 instructions: 403000002 cycles: 1370907834 heartbeat IPC: 0.567463 cumulative IPC: 0.293323 (Simulation time: 0 hr 35 min 25 sec) 
Heartbeat CPU 0 instructions: 404000000 cycles: 1372338321 heartbeat IPC: 0.699061 cumulative IPC: 0.293746 (Simulation time: 0 hr 35 min 29 sec) 
Heartbeat CPU 0 instructions: 405000000 cycles: 1376796863 heartbeat IPC: 0.224289 cumulative IPC: 0.293521 (Simulation time: 0 hr 35 min 36 sec) 
Heartbeat CPU 0 instructions: 406000000 cycles: 1382341182 heartbeat IPC: 0.180365 cumulative IPC: 0.293067 (Simulation time: 0 hr 35 min 44 sec) 
Heartbeat CPU 0 instructions: 407000000 cycles: 1383708060 heartbeat IPC: 0.731594 cumulative IPC: 0.293501 (Simulation time: 0 hr 35 min 48 sec) 
Heartbeat CPU 0 instructions: 408000000 cycles: 1385188164 heartbeat IPC: 0.675628 cumulative IPC: 0.293909 (Simulation time: 0 hr 35 min 52 sec) 
Heartbeat CPU 0 instructions: 409000003 cycles: 1386314680 heartbeat IPC: 0.887695 cumulative IPC: 0.294392 (Simulation time: 0 hr 35 min 56 sec) 
Heartbeat CPU 0 instructions: 410000001 cycles: 1387909781 heartbeat IPC: 0.626918 cumulative IPC: 0.294774 (Simulation time: 0 hr 36 min 1 sec) 
Heartbeat CPU 0 instructions: 411000002 cycles: 1389114768 heartbeat IPC: 0.829885 cumulative IPC: 0.295238 (Simulation time: 0 hr 36 min 5 sec) 
Heartbeat CPU 0 instructions: 412000000 cycles: 1390219739 heartbeat IPC: 0.904999 cumulative IPC: 0.295723 (Simulation time: 0 hr 36 min 9 sec) 
Heartbeat CPU 0 instructions: 413000003 cycles: 1394285809 heartbeat IPC: 0.245938 cumulative IPC: 0.295578 (Simulation time: 0 hr 36 min 16 sec) 
Heartbeat CPU 0 instructions: 414000001 cycles: 1395520042 heartbeat IPC: 0.810218 cumulative IPC: 0.296033 (Simulation time: 0 hr 36 min 20 sec) 
Heartbeat CPU 0 instructions: 415000001 cycles: 1396656852 heartbeat IPC: 0.879654 cumulative IPC: 0.296508 (Simulation time: 0 hr 36 min 24 sec) 
Heartbeat CPU 0 instructions: 416000000 cycles: 1397945044 heartbeat IPC: 0.776281 cumulative IPC: 0.29695 (Simulation time: 0 hr 36 min 28 sec) 
Heartbeat CPU 0 instructions: 417000003 cycles: 1399604173 heartbeat IPC: 0.602728 cumulative IPC: 0.297313 (Simulation time: 0 hr 36 min 33 sec) 
Heartbeat CPU 0 instructions: 418000000 cycles: 1400746028 heartbeat IPC: 0.875765 cumulative IPC: 0.297785 (Simulation time: 0 hr 36 min 37 sec) 
Heartbeat CPU 0 instructions: 419000001 cycles: 1401960100 heartbeat IPC: 0.823675 cumulative IPC: 0.29824 (Simulation time: 0 hr 36 min 41 sec) 
Heartbeat CPU 0 instructions: 420000002 cycles: 1404761736 heartbeat IPC: 0.356935 cumulative IPC: 0.298357 (Simulation time: 0 hr 36 min 47 sec) 
Heartbeat CPU 0 instructions: 421000003 cycles: 1407842166 heartbeat IPC: 0.32463 cumulative IPC: 0.298415 (Simulation time: 0 hr 36 min 53 sec) 
Heartbeat CPU 0 instructions: 422000002 cycles: 1408962414 heartbeat IPC: 0.892659 cumulative IPC: 0.298887 (Simulation time: 0 hr 36 min 58 sec) 
Heartbeat CPU 0 instructions: 423000000 cycles: 1410161297 heartbeat IPC: 0.834108 cumulative IPC: 0.299343 (Simulation time: 0 hr 37 min 2 sec) 
Heartbeat CPU 0 instructions: 424000003 cycles: 1412335416 heartbeat IPC: 0.459958 cumulative IPC: 0.29959 (Simulation time: 0 hr 37 min 7 sec) 
Heartbeat CPU 0 instructions: 425000002 cycles: 1413763977 heartbeat IPC: 0.700004 cumulative IPC: 0.299995 (Simulation time: 0 hr 37 min 12 sec) 
Heartbeat CPU 0 instructions: 426000001 cycles: 1414911296 heartbeat IPC: 0.871596 cumulative IPC: 0.300458 (Simulation time: 0 hr 37 min 16 sec) 
Heartbeat CPU 0 instructions: 427000000 cycles: 1416341781 heartbeat IPC: 0.699063 cumulative IPC: 0.300861 (Simulation time: 0 hr 37 min 20 sec) 
Heartbeat CPU 0 instructions: 428000000 cycles: 1417469915 heartbeat IPC: 0.88642 cumulative IPC: 0.301327 (Simulation time: 0 hr 37 min 24 sec) 
Heartbeat CPU 0 instructions: 429000000 cycles: 1421243570 heartbeat IPC: 0.264995 cumulative IPC: 0.301231 (Simulation time: 0 hr 37 min 30 sec) 
Heartbeat CPU 0 instructions: 430000001 cycles: 1430134520 heartbeat IPC: 0.112474 cumulative IPC: 0.300057 (Simulation time: 0 hr 37 min 38 sec) 
Heartbeat CPU 0 instructions: 431000001 cycles: 1439056437 heartbeat IPC: 0.112084 cumulative IPC: 0.298891 (Simulation time: 0 hr 37 min 47 sec) 
Heartbeat CPU 0 instructions: 432000003 cycles: 1447779424 heartbeat IPC: 0.11464 cumulative IPC: 0.297781 (Simulation time: 0 hr 37 min 55 sec) 
Heartbeat CPU 0 instructions: 433000002 cycles: 1456000705 heartbeat IPC: 0.121635 cumulative IPC: 0.296786 (Simulation time: 0 hr 38 min 3 sec) 
Heartbeat CPU 0 instructions: 434000001 cycles: 1462658724 heartbeat IPC: 0.150195 cumulative IPC: 0.296118 (Simulation time: 0 hr 38 min 11 sec) 
Heartbeat CPU 0 instructions: 435000003 cycles: 1469536987 heartbeat IPC: 0.145386 cumulative IPC: 0.295413 (Simulation time: 0 hr 38 min 19 sec) 
Heartbeat CPU 0 instructions: 436000001 cycles: 1476535178 heartbeat IPC: 0.142894 cumulative IPC: 0.29469 (Simulation time: 0 hr 38 min 28 sec) 
Heartbeat CPU 0 instructions: 437000001 cycles: 1482722631 heartbeat IPC: 0.161617 cumulative IPC: 0.294134 (Simulation time: 0 hr 38 min 36 sec) 
Heartbeat CPU 0 instructions: 438000000 cycles: 1488578984 heartbeat IPC: 0.170755 cumulative IPC: 0.293649 (Simulation time: 0 hr 38 min 43 sec) 
Heartbeat CPU 0 instructions: 439000001 cycles: 1490959975 heartbeat IPC: 0.419994 cumulative IPC: 0.29385 (Simulation time: 0 hr 38 min 48 sec) 
Heartbeat CPU 0 instructions: 440000000 cycles: 1492052390 heartbeat IPC: 0.915402 cumulative IPC: 0.294306 (Simulation time: 0 hr 38 min 52 sec) 
Heartbeat CPU 0 instructions: 441000003 cycles: 1493550436 heartbeat IPC: 0.667538 cumulative IPC: 0.29468 (Simulation time: 0 hr 38 min 57 sec) 
Heartbeat CPU 0 instructions: 442000003 cycles: 1494693127 heartbeat IPC: 0.875127 cumulative IPC: 0.295124 (Simulation time: 0 hr 39 min 1 sec) 
Heartbeat CPU 0 instructions: 443000000 cycles: 1496063901 heartbeat IPC: 0.729513 cumulative IPC: 0.295522 (Simulation time: 0 hr 39 min 5 sec) 
Heartbeat CPU 0 instructions: 444000000 cycles: 1497128994 heartbeat IPC: 0.938885 cumulative IPC: 0.29598 (Simulation time: 0 hr 39 min 9 sec) 
Heartbeat CPU 0 instructions: 445000002 cycles: 1499692225 heartbeat IPC: 0.390133 cumulative IPC: 0.296141 (Simulation time: 0 hr 39 min 15 sec) 
Heartbeat CPU 0 instructions: 446000003 cycles: 1501048493 heartbeat IPC: 0.737318 cumulative IPC: 0.29654 (Simulation time: 0 hr 39 min 19 sec) 
Heartbeat CPU 0 instructions: 447000003 cycles: 1502267669 heartbeat IPC: 0.820226 cumulative IPC: 0.296965 (Simulation time: 0 hr 39 min 23 sec) 
Heartbeat CPU 0 instructions: 448000001 cycles: 1503365272 heartbeat IPC: 0.911074 cumulative IPC: 0.297413 (Simulation time: 0 hr 39 min 27 sec) 
Heartbeat CPU 0 instructions: 449000000 cycles: 1506057476 heartbeat IPC: 0.371442 cumulative IPC: 0.297546 (Simulation time: 0 hr 39 min 33 sec) 
Heartbeat CPU 0 instructions: 450000003 cycles: 1507792393 heartbeat IPC: 0.576398 cumulative IPC: 0.297866 (Simulation time: 0 hr 39 min 38 sec) 

Warmup complete CPU 0 instructions: 450000003 cycles: 1507792393 (Simulation time: 0 hr 39 min 38 sec) 

Heartbeat CPU 0 instructions: 451000000 cycles: 1508908553 heartbeat IPC: 0.895926 cumulative IPC: 0.895926 (Simulation time: 0 hr 39 min 42 sec) 
Heartbeat CPU 0 instructions: 452000000 cycles: 1510719395 heartbeat IPC: 0.552229 cumulative IPC: 0.683292 (Simulation time: 0 hr 39 min 47 sec) 
Heartbeat CPU 0 instructions: 453000000 cycles: 1511889420 heartbeat IPC: 0.854683 cumulative IPC: 0.732238 (Simulation time: 0 hr 39 min 51 sec) 
Heartbeat CPU 0 instructions: 454000000 cycles: 1513120029 heartbeat IPC: 0.812606 cumulative IPC: 0.750802 (Simulation time: 0 hr 39 min 55 sec) 
Heartbeat CPU 0 instructions: 455000001 cycles: 1514222641 heartbeat IPC: 0.906938 cumulative IPC: 0.777575 (Simulation time: 0 hr 39 min 59 sec) 
Heartbeat CPU 0 instructions: 456000000 cycles: 1519587166 heartbeat IPC: 0.18641 cumulative IPC: 0.5087 (Simulation time: 0 hr 40 min 6 sec) 
Heartbeat CPU 0 instructions: 457000002 cycles: 1526425907 heartbeat IPC: 0.146226 cumulative IPC: 0.375667 (Simulation time: 0 hr 40 min 14 sec) 
Heartbeat CPU 0 instructions: 458000000 cycles: 1532130490 heartbeat IPC: 0.175297 cumulative IPC: 0.328703 (Simulation time: 0 hr 40 min 22 sec) 
Heartbeat CPU 0 instructions: 459000000 cycles: 1534100432 heartbeat IPC: 0.507629 cumulative IPC: 0.342101 (Simulation time: 0 hr 40 min 27 sec) 
Heartbeat CPU 0 instructions: 460000001 cycles: 1535306590 heartbeat IPC: 0.82908 cumulative IPC: 0.363449 (Simulation time: 0 hr 40 min 31 sec) 
Heartbeat CPU 0 instructions: 461000000 cycles: 1536563549 heartbeat IPC: 0.79557 cumulative IPC: 0.382327 (Simulation time: 0 hr 40 min 35 sec) 
Heartbeat CPU 0 instructions: 462000000 cycles: 1538801371 heartbeat IPC: 0.446863 cumulative IPC: 0.386985 (Simulation time: 0 hr 40 min 40 sec) 
Heartbeat CPU 0 instructions: 463000002 cycles: 1540040373 heartbeat IPC: 0.807103 cumulative IPC: 0.403126 (Simulation time: 0 hr 40 min 45 sec) 
Heartbeat CPU 0 instructions: 464000003 cycles: 1541123241 heartbeat IPC: 0.923474 cumulative IPC: 0.420031 (Simulation time: 0 hr 40 min 49 sec) 
Heartbeat CPU 0 instructions: 465000003 cycles: 1542460444 heartbeat IPC: 0.74783 cumulative IPC: 0.432675 (Simulation time: 0 hr 40 min 53 sec) 
Heartbeat CPU 0 instructions: 466000000 cycles: 1543669341 heartbeat IPC: 0.827198 cumulative IPC: 0.445969 (Simulation time: 0 hr 40 min 57 sec) 
Heartbeat CPU 0 instructions: 467000003 cycles: 1546114156 heartbeat IPC: 0.40903 cumulative IPC: 0.443612 (Simulation time: 0 hr 41 min 2 sec) 
Heartbeat CPU 0 instructions: 468000001 cycles: 1547601309 heartbeat IPC: 0.672424 cumulative IPC: 0.45216 (Simulation time: 0 hr 41 min 7 sec) 
Heartbeat CPU 0 instructions: 469000001 cycles: 1548796247 heartbeat IPC: 0.836864 cumulative IPC: 0.463371 (Simulation time: 0 hr 41 min 11 sec) 
Heartbeat CPU 0 instructions: 470000001 cycles: 1552775540 heartbeat IPC: 0.251301 cumulative IPC: 0.444611 (Simulation time: 0 hr 41 min 17 sec) 
Heartbeat CPU 0 instructions: 471000003 cycles: 1556280656 heartbeat IPC: 0.285298 cumulative IPC: 0.433095 (Simulation time: 0 hr 41 min 23 sec) 
Heartbeat CPU 0 instructions: 472000003 cycles: 1557672963 heartbeat IPC: 0.718232 cumulative IPC: 0.441054 (Simulation time: 0 hr 41 min 27 sec) 
Heartbeat CPU 0 instructions: 473000000 cycles: 1558943972 heartbeat IPC: 0.786774 cumulative IPC: 0.449644 (Simulation time: 0 hr 41 min 32 sec) 
Heartbeat CPU 0 instructions: 474000000 cycles: 1560028761 heartbeat IPC: 0.921838 cumulative IPC: 0.45945 (Simulation time: 0 hr 41 min 36 sec) 
Heartbeat CPU 0 instructions: 475000002 cycles: 1565344823 heartbeat IPC: 0.18811 cumulative IPC: 0.434386 (Simulation time: 0 hr 41 min 43 sec) 
Heartbeat CPU 0 instructions: 476000001 cycles: 1566905457 heartbeat IPC: 0.640765 cumulative IPC: 0.439835 (Simulation time: 0 hr 41 min 47 sec) 
Heartbeat CPU 0 instructions: 477000000 cycles: 1568150235 heartbeat IPC: 0.803355 cumulative IPC: 0.447332 (Simulation time: 0 hr 41 min 51 sec) 
Heartbeat CPU 0 instructions: 478000003 cycles: 1569388674 heartbeat IPC: 0.807471 cumulative IPC: 0.454573 (Simulation time: 0 hr 41 min 55 sec) 
Heartbeat CPU 0 instructions: 479000002 cycles: 1570960446 heartbeat IPC: 0.636224 cumulative IPC: 0.459093 (Simulation time: 0 hr 42 min 0 sec) 
Heartbeat CPU 0 instructions: 480000000 cycles: 1573292198 heartbeat IPC: 0.428861 cumulative IPC: 0.458017 (Simulation time: 0 hr 42 min 4 sec) 
Heartbeat CPU 0 instructions: 481000000 cycles: 1574693376 heartbeat IPC: 0.713685 cumulative IPC: 0.463371 (Simulation time: 0 hr 42 min 8 sec) 
Heartbeat CPU 0 instructions: 482000001 cycles: 1576194516 heartbeat IPC: 0.666161 cumulative IPC: 0.467822 (Simulation time: 0 hr 42 min 13 sec) 
Heartbeat CPU 0 instructions: 483000000 cycles: 1577339064 heartbeat IPC: 0.873706 cumulative IPC: 0.474501 (Simulation time: 0 hr 42 min 17 sec) 
Heartbeat CPU 0 instructions: 484000000 cycles: 1583450308 heartbeat IPC: 0.163633 cumulative IPC: 0.449391 (Simulation time: 0 hr 42 min 24 sec) 
Heartbeat CPU 0 instructions: 485000001 cycles: 1591924821 heartbeat IPC: 0.118001 cumulative IPC: 0.416011 (Simulation time: 0 hr 42 min 32 sec) 
Heartbeat CPU 0 instructions: 486000000 cycles: 1599908483 heartbeat IPC: 0.125256 cumulative IPC: 0.390811 (Simulation time: 0 hr 42 min 41 sec) 
Heartbeat CPU 0 instructions: 487000000 cycles: 1608332540 heartbeat IPC: 0.118708 cumulative IPC: 0.368012 (Simulation time: 0 hr 42 min 49 sec) 
Heartbeat CPU 0 instructions: 488000001 cycles: 1616462086 heartbeat IPC: 0.123008 cumulative IPC: 0.349683 (Simulation time: 0 hr 42 min 57 sec) 
Heartbeat CPU 0 instructions: 489000000 cycles: 1625032690 heartbeat IPC: 0.116678 cumulative IPC: 0.33265 (Simulation time: 0 hr 43 min 5 sec) 
Heartbeat CPU 0 instructions: 490000002 cycles: 1627549907 heartbeat IPC: 0.397265 cumulative IPC: 0.334008 (Simulation time: 0 hr 43 min 10 sec) 
Heartbeat CPU 0 instructions: 491000000 cycles: 1628770189 heartbeat IPC: 0.819481 cumulative IPC: 0.338905 (Simulation time: 0 hr 43 min 14 sec) 
Heartbeat CPU 0 instructions: 492000000 cycles: 1630808430 heartbeat IPC: 0.490619 cumulative IPC: 0.341419 (Simulation time: 0 hr 43 min 18 sec) 
Heartbeat CPU 0 instructions: 493000001 cycles: 1632691857 heartbeat IPC: 0.530948 cumulative IPC: 0.344277 (Simulation time: 0 hr 43 min 23 sec) 
Heartbeat CPU 0 instructions: 494000002 cycles: 1634225924 heartbeat IPC: 0.651863 cumulative IPC: 0.348009 (Simulation time: 0 hr 43 min 27 sec) 
Heartbeat CPU 0 instructions: 495000000 cycles: 1636450136 heartbeat IPC: 0.449597 cumulative IPC: 0.349765 (Simulation time: 0 hr 43 min 32 sec) 
Heartbeat CPU 0 instructions: 496000000 cycles: 1639283473 heartbeat IPC: 0.352941 cumulative IPC: 0.349834 (Simulation time: 0 hr 43 min 37 sec) 
Heartbeat CPU 0 instructions: 497000000 cycles: 1645555606 heartbeat IPC: 0.159435 cumulative IPC: 0.341165 (Simulation time: 0 hr 43 min 44 sec) 
Heartbeat CPU 0 instructions: 498000000 cycles: 1647994887 heartbeat IPC: 0.409957 cumulative IPC: 0.342362 (Simulation time: 0 hr 43 min 49 sec) 
Heartbeat CPU 0 instructions: 499000001 cycles: 1649248591 heartbeat IPC: 0.797637 cumulative IPC: 0.346397 (Simulation time: 0 hr 43 min 53 sec) 
Heartbeat CPU 0 instructions: 500000003 cycles: 1650459018 heartbeat IPC: 0.826156 cumulative IPC: 0.350467 (Simulation time: 0 hr 43 min 57 sec) 
Heartbeat CPU 0 instructions: 501000000 cycles: 1651937529 heartbeat IPC: 0.676354 cumulative IPC: 0.35381 (Simulation time: 0 hr 44 min 1 sec) 
Heartbeat CPU 0 instructions: 502000002 cycles: 1654000542 heartbeat IPC: 0.484729 cumulative IPC: 0.355657 (Simulation time: 0 hr 44 min 6 sec) 
Heartbeat CPU 0 instructions: 503000002 cycles: 1656263035 heartbeat IPC: 0.44199 cumulative IPC: 0.356973 (Simulation time: 0 hr 44 min 11 sec) 
Heartbeat CPU 0 instructions: 504000001 cycles: 1658343764 heartbeat IPC: 0.4806 cumulative IPC: 0.358682 (Simulation time: 0 hr 44 min 15 sec) 
Heartbeat CPU 0 instructions: 505000002 cycles: 1659690716 heartbeat IPC: 0.742418 cumulative IPC: 0.362084 (Simulation time: 0 hr 44 min 20 sec) 
Heartbeat CPU 0 instructions: 506000000 cycles: 1660833131 heartbeat IPC: 0.875337 cumulative IPC: 0.365916 (Simulation time: 0 hr 44 min 24 sec) 
Heartbeat CPU 0 instructions: 507000002 cycles: 1667883372 heartbeat IPC: 0.141839 cumulative IPC: 0.356048 (Simulation time: 0 hr 44 min 32 sec) 
Heartbeat CPU 0 instructions: 508000000 cycles: 1672826029 heartbeat IPC: 0.20232 cumulative IPC: 0.351443 (Simulation time: 0 hr 44 min 38 sec) 
Heartbeat CPU 0 instructions: 509000001 cycles: 1674047360 heartbeat IPC: 0.81878 cumulative IPC: 0.354877 (Simulation time: 0 hr 44 min 43 sec) 
Heartbeat CPU 0 instructions: 510000000 cycles: 1675299005 heartbeat IPC: 0.798948 cumulative IPC: 0.358195 (Simulation time: 0 hr 44 min 47 sec) 
Heartbeat CPU 0 instructions: 511000000 cycles: 1677451277 heartbeat IPC: 0.464625 cumulative IPC: 0.359545 (Simulation time: 0 hr 44 min 51 sec) 
Heartbeat CPU 0 instructions: 512000003 cycles: 1678667582 heartbeat IPC: 0.822165 cumulative IPC: 0.362838 (Simulation time: 0 hr 44 min 55 sec) 
Heartbeat CPU 0 instructions: 513000003 cycles: 1679913203 heartbeat IPC: 0.802812 cumulative IPC: 0.366022 (Simulation time: 0 hr 44 min 59 sec) 
Heartbeat CPU 0 instructions: 514000000 cycles: 1681512887 heartbeat IPC: 0.625122 cumulative IPC: 0.368408 (Simulation time: 0 hr 45 min 4 sec) 
Heartbeat CPU 0 instructions: 515000000 cycles: 1684015219 heartbeat IPC: 0.399627 cumulative IPC: 0.368851 (Simulation time: 0 hr 45 min 8 sec) 
Heartbeat CPU 0 instructions: 516000000 cycles: 1686877400 heartbeat IPC: 0.349384 cumulative IPC: 0.36854 (Simulation time: 0 hr 45 min 14 sec) 
Heartbeat CPU 0 instructions: 517000000 cycles: 1688277677 heartbeat IPC: 0.714144 cumulative IPC: 0.371221 (Simulation time: 0 hr 45 min 18 sec) 
Heartbeat CPU 0 instructions: 518000000 cycles: 1689912764 heartbeat IPC: 0.611588 cumulative IPC: 0.373379 (Simulation time: 0 hr 45 min 22 sec) 
Heartbeat CPU 0 instructions: 519000001 cycles: 1691751102 heartbeat IPC: 0.54397 cumulative IPC: 0.375084 (Simulation time: 0 hr 45 min 26 sec) 
Heartbeat CPU 0 instructions: 520000000 cycles: 1692938496 heartbeat IPC: 0.84218 cumulative IPC: 0.37808 (Simulation time: 0 hr 45 min 30 sec) 
Heartbeat CPU 0 instructions: 521000002 cycles: 1694293402 heartbeat IPC: 0.73806 cumulative IPC: 0.380695 (Simulation time: 0 hr 45 min 34 sec) 
Heartbeat CPU 0 instructions: 522000002 cycles: 1697152824 heartbeat IPC: 0.349721 cumulative IPC: 0.380227 (Simulation time: 0 hr 45 min 40 sec) 
Heartbeat CPU 0 instructions: 523000000 cycles: 1701807422 heartbeat IPC: 0.214841 cumulative IPC: 0.37626 (Simulation time: 0 hr 45 min 46 sec) 
Heartbeat CPU 0 instructions: 524000001 cycles: 1703044370 heartbeat IPC: 0.808442 cumulative IPC: 0.378997 (Simulation time: 0 hr 45 min 50 sec) 
Heartbeat CPU 0 instructions: 525000003 cycles: 1704232659 heartbeat IPC: 0.841548 cumulative IPC: 0.381795 (Simulation time: 0 hr 45 min 54 sec) 
Heartbeat CPU 0 instructions: 526000001 cycles: 1709080054 heartbeat IPC: 0.206296 cumulative IPC: 0.377569 (Simulation time: 0 hr 46 min 0 sec) 
Heartbeat CPU 0 instructions: 527000001 cycles: 1710201433 heartbeat IPC: 0.891759 cumulative IPC: 0.380418 (Simulation time: 0 hr 46 min 4 sec) 
Heartbeat CPU 0 instructions: 528000000 cycles: 1711553608 heartbeat IPC: 0.739549 cumulative IPC: 0.382801 (Simulation time: 0 hr 46 min 8 sec) 
Heartbeat CPU 0 instructions: 529000000 cycles: 1714438511 heartbeat IPC: 0.346632 cumulative IPC: 0.382296 (Simulation time: 0 hr 46 min 13 sec) 
Heartbeat CPU 0 instructions: 530000001 cycles: 1715518715 heartbeat IPC: 0.925752 cumulative IPC: 0.385122 (Simulation time: 0 hr 46 min 17 sec) 
Heartbeat CPU 0 instructions: 531000002 cycles: 1718074053 heartbeat IPC: 0.391338 cumulative IPC: 0.385198 (Simulation time: 0 hr 46 min 22 sec) 
Heartbeat CPU 0 instructions: 532000003 cycles: 1719637994 heartbeat IPC: 0.639411 cumulative IPC: 0.387074 (Simulation time: 0 hr 46 min 26 sec) 
Heartbeat CPU 0 instructions: 533000002 cycles: 1721296809 heartbeat IPC: 0.602839 cumulative IPC: 0.388751 (Simulation time: 0 hr 46 min 30 sec) 
Heartbeat CPU 0 instructions: 534000002 cycles: 1728007028 heartbeat IPC: 0.149026 cumulative IPC: 0.381446 (Simulation time: 0 hr 46 min 38 sec) 
Heartbeat CPU 0 instructions: 535000000 cycles: 1735317326 heartbeat IPC: 0.136793 cumulative IPC: 0.373585 (Simulation time: 0 hr 46 min 45 sec) 
Heartbeat CPU 0 instructions: 536000001 cycles: 1742159931 heartbeat IPC: 0.146143 cumulative IPC: 0.366945 (Simulation time: 0 hr 46 min 53 sec) 
Heartbeat CPU 0 instructions: 537000000 cycles: 1749574775 heartbeat IPC: 0.134864 cumulative IPC: 0.359828 (Simulation time: 0 hr 47 min 1 sec) 
Heartbeat CPU 0 instructions: 538000002 cycles: 1756580483 heartbeat IPC: 0.142741 cumulative IPC: 0.353715 (Simulation time: 0 hr 47 min 9 sec) 
Heartbeat CPU 0 instructions: 539000000 cycles: 1763136193 heartbeat IPC: 0.152538 cumulative IPC: 0.34855 (Simulation time: 0 hr 47 min 16 sec) 
Heartbeat CPU 0 instructions: 540000000 cycles: 1770241347 heartbeat IPC: 0.140743 cumulative IPC: 0.342924 (Simulation time: 0 hr 47 min 24 sec) 
Heartbeat CPU 0 instructions: 541000001 cycles: 1777634836 heartbeat IPC: 0.135254 cumulative IPC: 0.337234 (Simulation time: 0 hr 47 min 32 sec) 
Heartbeat CPU 0 instructions: 542000001 cycles: 1785093748 heartbeat IPC: 0.134068 cumulative IPC: 0.331769 (Simulation time: 0 hr 47 min 40 sec) 
Heartbeat CPU 0 instructions: 543000000 cycles: 1792523500 heartbeat IPC: 0.134594 cumulative IPC: 0.326624 (Simulation time: 0 hr 47 min 48 sec) 
Heartbeat CPU 0 instructions: 544000002 cycles: 1799374519 heartbeat IPC: 0.145964 cumulative IPC: 0.322379 (Simulation time: 0 hr 47 min 56 sec) 
Heartbeat CPU 0 instructions: 545000001 cycles: 1806695217 heartbeat IPC: 0.136599 cumulative IPC: 0.317829 (Simulation time: 0 hr 48 min 4 sec) 
[...]
Heartbeat CPU 0 instructions: 834000001 cycles: 3309027508 heartbeat IPC: 0.722687 cumulative IPC: 0.213187 (Simulation time: 1 hr 20 min 7 sec) 
Heartbeat CPU 0 instructions: 835000001 cycles: 3310136946 heartbeat IPC: 0.901357 cumulative IPC: 0.213611 (Simulation time: 1 hr 20 min 11 sec) 
Heartbeat CPU 0 instructions: 836000000 cycles: 3318758845 heartbeat IPC: 0.115984 cumulative IPC: 0.213146 (Simulation time: 1 hr 20 min 19 sec) 
Heartbeat CPU 0 instructions: 837000001 cycles: 3326966645 heartbeat IPC: 0.121835 cumulative IPC: 0.212734 (Simulation time: 1 hr 20 min 28 sec) 
Heartbeat CPU 0 instructions: 838000003 cycles: 3335669697 heartbeat IPC: 0.114902 cumulative IPC: 0.212268 (Simulation time: 1 hr 20 min 36 sec) 
Heartbeat CPU 0 instructions: 839000000 cycles: 3343711011 heartbeat IPC: 0.124357 cumulative IPC: 0.211883 (Simulation time: 1 hr 20 min 45 sec) 
Heartbeat CPU 0 instructions: 840000001 cycles: 3350916719 heartbeat IPC: 0.138779 cumulative IPC: 0.211597 (Simulation time: 1 hr 20 min 53 sec) 
Heartbeat CPU 0 instructions: 841000002 cycles: 3358428804 heartbeat IPC: 0.133119 cumulative IPC: 0.211279 (Simulation time: 1 hr 21 min 2 sec) 
Heartbeat CPU 0 instructions: 842000002 cycles: 3365911033 heartbeat IPC: 0.13365 cumulative IPC: 0.210966 (Simulation time: 1 hr 21 min 10 sec) 
Heartbeat CPU 0 instructions: 843000001 cycles: 3371888766 heartbeat IPC: 0.167287 cumulative IPC: 0.210826 (Simulation time: 1 hr 21 min 18 sec) 
Heartbeat CPU 0 instructions: 844000000 cycles: 3377714559 heartbeat IPC: 0.17165 cumulative IPC: 0.210704 (Simulation time: 1 hr 21 min 27 sec) 
Heartbeat CPU 0 instructions: 845000002 cycles: 3379902614 heartbeat IPC: 0.457028 cumulative IPC: 0.210992 (Simulation time: 1 hr 21 min 32 sec) 
Heartbeat CPU 0 instructions: 846000001 cycles: 3381048630 heartbeat IPC: 0.872587 cumulative IPC: 0.211397 (Simulation time: 1 hr 21 min 36 sec) 
Heartbeat CPU 0 instructions: 847000000 cycles: 3382417206 heartbeat IPC: 0.730686 cumulative IPC: 0.211776 (Simulation time: 1 hr 21 min 40 sec) 
Heartbeat CPU 0 instructions: 848000000 cycles: 3383659289 heartbeat IPC: 0.805099 cumulative IPC: 0.212169 (Simulation time: 1 hr 21 min 45 sec) 
Heartbeat CPU 0 instructions: 849000001 cycles: 3389780282 heartbeat IPC: 0.163372 cumulative IPC: 0.21201 (Simulation time: 1 hr 21 min 53 sec) 
Heartbeat CPU 0 instructions: 850000001 cycles: 3394277150 heartbeat IPC: 0.222377 cumulative IPC: 0.212035 (Simulation time: 1 hr 22 min 0 sec) 
Heartbeat CPU 0 instructions: 851000001 cycles: 3395442935 heartbeat IPC: 0.857791 cumulative IPC: 0.212433 (Simulation time: 1 hr 22 min 4 sec) 
Heartbeat CPU 0 instructions: 852000002 cycles: 3396766004 heartbeat IPC: 0.755819 cumulative IPC: 0.212814 (Simulation time: 1 hr 22 min 8 sec) 
Heartbeat CPU 0 instructions: 853000001 cycles: 3398138702 heartbeat IPC: 0.728492 cumulative IPC: 0.213188 (Simulation time: 1 hr 22 min 13 sec) 
Heartbeat CPU 0 instructions: 854000001 cycles: 3399281418 heartbeat IPC: 0.875108 cumulative IPC: 0.213588 (Simulation time: 1 hr 22 min 17 sec) 
Heartbeat CPU 0 instructions: 855000001 cycles: 3404215330 heartbeat IPC: 0.202679 cumulative IPC: 0.21356 (Simulation time: 1 hr 22 min 24 sec) 
Heartbeat CPU 0 instructions: 856000000 cycles: 3410391783 heartbeat IPC: 0.161905 cumulative IPC: 0.213392 (Simulation time: 1 hr 22 min 32 sec) 
Heartbeat CPU 0 instructions: 857000000 cycles: 3412586087 heartbeat IPC: 0.455725 cumulative IPC: 0.213671 (Simulation time: 1 hr 22 min 37 sec) 
Heartbeat CPU 0 instructions: 858000000 cycles: 3414298703 heartbeat IPC: 0.583902 cumulative IPC: 0.214004 (Simulation time: 1 hr 22 min 42 sec) 
Heartbeat CPU 0 instructions: 859000002 cycles: 3416115450 heartbeat IPC: 0.550435 cumulative IPC: 0.214324 (Simulation time: 1 hr 22 min 46 sec) 
Heartbeat CPU 0 instructions: 860000002 cycles: 3417341531 heartbeat IPC: 0.815607 cumulative IPC: 0.21471 (Simulation time: 1 hr 22 min 51 sec) 
Heartbeat CPU 0 instructions: 861000001 cycles: 3418701555 heartbeat IPC: 0.73528 cumulative IPC: 0.215081 (Simulation time: 1 hr 22 min 55 sec) 
Heartbeat CPU 0 instructions: 862000000 cycles: 3419788031 heartbeat IPC: 0.920406 cumulative IPC: 0.215482 (Simulation time: 1 hr 22 min 59 sec) 
Heartbeat CPU 0 instructions: 863000002 cycles: 3422489902 heartbeat IPC: 0.370115 cumulative IPC: 0.2157 (Simulation time: 1 hr 23 min 5 sec) 
Heartbeat CPU 0 instructions: 864000001 cycles: 3424188964 heartbeat IPC: 0.588559 cumulative IPC: 0.21603 (Simulation time: 1 hr 23 min 10 sec) 
Heartbeat CPU 0 instructions: 865000000 cycles: 3425337027 heartbeat IPC: 0.871031 cumulative IPC: 0.216423 (Simulation time: 1 hr 23 min 14 sec) 
Heartbeat CPU 0 instructions: 866000000 cycles: 3426616463 heartbeat IPC: 0.781594 cumulative IPC: 0.216799 (Simulation time: 1 hr 23 min 18 sec) 
Heartbeat CPU 0 instructions: 867000001 cycles: 3429010321 heartbeat IPC: 0.417736 cumulative IPC: 0.21705 (Simulation time: 1 hr 23 min 23 sec) 
Heartbeat CPU 0 instructions: 868000000 cycles: 3430386955 heartbeat IPC: 0.726409 cumulative IPC: 0.217415 (Simulation time: 1 hr 23 min 27 sec) 
Heartbeat CPU 0 instructions: 869000000 cycles: 3432031076 heartbeat IPC: 0.608228 cumulative IPC: 0.217748 (Simulation time: 1 hr 23 min 32 sec) 
Heartbeat CPU 0 instructions: 870000002 cycles: 3433119145 heartbeat IPC: 0.919061 cumulative IPC: 0.218145 (Simulation time: 1 hr 23 min 36 sec) 
Heartbeat CPU 0 instructions: 871000001 cycles: 3435200067 heartbeat IPC: 0.480556 cumulative IPC: 0.218428 (Simulation time: 1 hr 23 min 41 sec) 
Heartbeat CPU 0 instructions: 872000000 cycles: 3442988407 heartbeat IPC: 0.128397 cumulative IPC: 0.218066 (Simulation time: 1 hr 23 min 49 sec) 
Heartbeat CPU 0 instructions: 873000000 cycles: 3449641722 heartbeat IPC: 0.150301 cumulative IPC: 0.217834 (Simulation time: 1 hr 23 min 57 sec) 
Heartbeat CPU 0 instructions: 874000003 cycles: 3452482265 heartbeat IPC: 0.352046 cumulative IPC: 0.21803 (Simulation time: 1 hr 24 min 2 sec) 
Heartbeat CPU 0 instructions: 875000003 cycles: 3453812643 heartbeat IPC: 0.751666 cumulative IPC: 0.218394 (Simulation time: 1 hr 24 min 6 sec) 
Heartbeat CPU 0 instructions: 876000000 cycles: 3454927027 heartbeat IPC: 0.897354 cumulative IPC: 0.218783 (Simulation time: 1 hr 24 min 10 sec) 
Heartbeat CPU 0 instructions: 877000002 cycles: 3456531198 heartbeat IPC: 0.623376 cumulative IPC: 0.219116 (Simulation time: 1 hr 24 min 15 sec) 
Heartbeat CPU 0 instructions: 878000003 cycles: 3457719425 heartbeat IPC: 0.841591 cumulative IPC: 0.219495 (Simulation time: 1 hr 24 min 19 sec) 
Heartbeat CPU 0 instructions: 879000002 cycles: 3458769811 heartbeat IPC: 0.95203 cumulative IPC: 0.21989 (Simulation time: 1 hr 24 min 23 sec) 
Heartbeat CPU 0 instructions: 880000000 cycles: 3461475921 heartbeat IPC: 0.369533 cumulative IPC: 0.220097 (Simulation time: 1 hr 24 min 28 sec) 
Heartbeat CPU 0 instructions: 881000001 cycles: 3462670225 heartbeat IPC: 0.837309 cumulative IPC: 0.220474 (Simulation time: 1 hr 24 min 32 sec) 
Heartbeat CPU 0 instructions: 882000003 cycles: 3464423923 heartbeat IPC: 0.570225 cumulative IPC: 0.220788 (Simulation time: 1 hr 24 min 37 sec) 
Heartbeat CPU 0 instructions: 883000000 cycles: 3467603693 heartbeat IPC: 0.314487 cumulative IPC: 0.22094 (Simulation time: 1 hr 24 min 42 sec) 
Heartbeat CPU 0 instructions: 884000000 cycles: 3474641076 heartbeat IPC: 0.142098 cumulative IPC: 0.220658 (Simulation time: 1 hr 24 min 50 sec) 
Heartbeat CPU 0 instructions: 885000002 cycles: 3476742466 heartbeat IPC: 0.475876 cumulative IPC: 0.22093 (Simulation time: 1 hr 24 min 54 sec) 
Heartbeat CPU 0 instructions: 886000001 cycles: 3478301739 heartbeat IPC: 0.641324 cumulative IPC: 0.221263 (Simulation time: 1 hr 24 min 58 sec) 
Heartbeat CPU 0 instructions: 887000000 cycles: 3479480634 heartbeat IPC: 0.848251 cumulative IPC: 0.221637 (Simulation time: 1 hr 25 min 3 sec) 
Heartbeat CPU 0 instructions: 888000003 cycles: 3481322683 heartbeat IPC: 0.542875 cumulative IPC: 0.221937 (Simulation time: 1 hr 25 min 7 sec) 
Heartbeat CPU 0 instructions: 889000000 cycles: 3482824804 heartbeat IPC: 0.665723 cumulative IPC: 0.222275 (Simulation time: 1 hr 25 min 12 sec) 
Heartbeat CPU 0 instructions: 890000000 cycles: 3484120973 heartbeat IPC: 0.771504 cumulative IPC: 0.222635 (Simulation time: 1 hr 25 min 16 sec) 
Heartbeat CPU 0 instructions: 891000000 cycles: 3487165492 heartbeat IPC: 0.328459 cumulative IPC: 0.222798 (Simulation time: 1 hr 25 min 22 sec) 
Heartbeat CPU 0 instructions: 892000001 cycles: 3489412791 heartbeat IPC: 0.444979 cumulative IPC: 0.22305 (Simulation time: 1 hr 25 min 26 sec) 
Heartbeat CPU 0 instructions: 893000000 cycles: 3491142869 heartbeat IPC: 0.578008 cumulative IPC: 0.223359 (Simulation time: 1 hr 25 min 31 sec) 
Heartbeat CPU 0 instructions: 894000000 cycles: 3492445170 heartbeat IPC: 0.767872 cumulative IPC: 0.223717 (Simulation time: 1 hr 25 min 35 sec) 
Heartbeat CPU 0 instructions: 895000001 cycles: 3493900883 heartbeat IPC: 0.686949 cumulative IPC: 0.224056 (Simulation time: 1 hr 25 min 39 sec) 
Heartbeat CPU 0 instructions: 896000000 cycles: 3497865256 heartbeat IPC: 0.252246 cumulative IPC: 0.224112 (Simulation time: 1 hr 25 min 45 sec) 
Heartbeat CPU 0 instructions: 897000002 cycles: 3506792639 heartbeat IPC: 0.112015 cumulative IPC: 0.223612 (Simulation time: 1 hr 25 min 53 sec) 
Heartbeat CPU 0 instructions: 898000000 cycles: 3515576939 heartbeat IPC: 0.113839 cumulative IPC: 0.223132 (Simulation time: 1 hr 26 min 1 sec) 
Heartbeat CPU 0 instructions: 899000000 cycles: 3522224112 heartbeat IPC: 0.15044 cumulative IPC: 0.222892 (Simulation time: 1 hr 26 min 8 sec) 
Heartbeat CPU 0 instructions: 900000001 cycles: 3524727215 heartbeat IPC: 0.399505 cumulative IPC: 0.223111 (Simulation time: 1 hr 26 min 13 sec) 
Heartbeat CPU 0 instructions: 901000000 cycles: 3526395019 heartbeat IPC: 0.59959 cumulative IPC: 0.223422 (Simulation time: 1 hr 26 min 17 sec) 
Heartbeat CPU 0 instructions: 902000000 cycles: 3527795596 heartbeat IPC: 0.713991 cumulative IPC: 0.223762 (Simulation time: 1 hr 26 min 22 sec) 
Heartbeat CPU 0 instructions: 903000000 cycles: 3529320162 heartbeat IPC: 0.655924 cumulative IPC: 0.224088 (Simulation time: 1 hr 26 min 26 sec) 
Heartbeat CPU 0 instructions: 904000001 cycles: 3530514114 heartbeat IPC: 0.837555 cumulative IPC: 0.22445 (Simulation time: 1 hr 26 min 30 sec) 
Heartbeat CPU 0 instructions: 905000001 cycles: 3532345510 heartbeat IPC: 0.546032 cumulative IPC: 0.224741 (Simulation time: 1 hr 26 min 35 sec) 
Heartbeat CPU 0 instructions: 906000001 cycles: 3534822396 heartbeat IPC: 0.403733 cumulative IPC: 0.22496 (Simulation time: 1 hr 26 min 40 sec) 
Heartbeat CPU 0 instructions: 907000000 cycles: 3538778549 heartbeat IPC: 0.252771 cumulative IPC: 0.225014 (Simulation time: 1 hr 26 min 45 sec) 
Heartbeat CPU 0 instructions: 908000000 cycles: 3540390882 heartbeat IPC: 0.620219 cumulative IPC: 0.225327 (Simulation time: 1 hr 26 min 50 sec) 
Heartbeat CPU 0 instructions: 909000000 cycles: 3542342907 heartbeat IPC: 0.512289 cumulative IPC: 0.225603 (Simulation time: 1 hr 26 min 54 sec) 
Heartbeat CPU 0 instructions: 910000002 cycles: 3544166291 heartbeat IPC: 0.548432 cumulative IPC: 0.225892 (Simulation time: 1 hr 26 min 59 sec) 
Heartbeat CPU 0 instructions: 911000000 cycles: 3545673491 heartbeat IPC: 0.663481 cumulative IPC: 0.226215 (Simulation time: 1 hr 27 min 3 sec) 
Heartbeat CPU 0 instructions: 912000002 cycles: 3547745463 heartbeat IPC: 0.482633 cumulative IPC: 0.226476 (Simulation time: 1 hr 27 min 8 sec) 
Heartbeat CPU 0 instructions: 913000000 cycles: 3556345955 heartbeat IPC: 0.116272 cumulative IPC: 0.226013 (Simulation time: 1 hr 27 min 16 sec) 
Heartbeat CPU 0 instructions: 914000000 cycles: 3562244275 heartbeat IPC: 0.16954 cumulative IPC: 0.225851 (Simulation time: 1 hr 27 min 23 sec) 
Heartbeat CPU 0 instructions: 915000003 cycles: 3563582742 heartbeat IPC: 0.747126 cumulative IPC: 0.22619 (Simulation time: 1 hr 27 min 27 sec) 
Heartbeat CPU 0 instructions: 916000000 cycles: 3565116372 heartbeat IPC: 0.652046 cumulative IPC: 0.226508 (Simulation time: 1 hr 27 min 31 sec) 
Heartbeat CPU 0 instructions: 917000003 cycles: 3566341821 heartbeat IPC: 0.81603 cumulative IPC: 0.226859 (Simulation time: 1 hr 27 min 35 sec) 
Heartbeat CPU 0 instructions: 918000002 cycles: 3569585504 heartbeat IPC: 0.308291 cumulative IPC: 0.226987 (Simulation time: 1 hr 27 min 41 sec) 
Heartbeat CPU 0 instructions: 919000002 cycles: 3571241667 heartbeat IPC: 0.603805 cumulative IPC: 0.227289 (Simulation time: 1 hr 27 min 45 sec) 
Heartbeat CPU 0 instructions: 920000001 cycles: 3572745319 heartbeat IPC: 0.665047 cumulative IPC: 0.227608 (Simulation time: 1 hr 27 min 49 sec) 
Heartbeat CPU 0 instructions: 921000001 cycles: 3574578496 heartbeat IPC: 0.545501 cumulative IPC: 0.22789 (Simulation time: 1 hr 27 min 54 sec) 
Heartbeat CPU 0 instructions: 922000003 cycles: 3575997352 heartbeat IPC: 0.704795 cumulative IPC: 0.228217 (Simulation time: 1 hr 27 min 58 sec) 
Heartbeat CPU 0 instructions: 923000000 cycles: 3581496129 heartbeat IPC: 0.181858 cumulative IPC: 0.228094 (Simulation time: 1 hr 28 min 5 sec) 
Heartbeat CPU 0 instructions: 924000000 cycles: 3584070675 heartbeat IPC: 0.388418 cumulative IPC: 0.228293 (Simulation time: 1 hr 28 min 10 sec) 
Heartbeat CPU 0 instructions: 925000002 cycles: 3585887644 heartbeat IPC: 0.550368 cumulative IPC: 0.228575 (Simulation time: 1 hr 28 min 15 sec) 
Heartbeat CPU 0 instructions: 926000002 cycles: 3587205783 heartbeat IPC: 0.758645 cumulative IPC: 0.228911 (Simulation time: 1 hr 28 min 19 sec) 
Heartbeat CPU 0 instructions: 927000002 cycles: 3589132252 heartbeat IPC: 0.519084 cumulative IPC: 0.229179 (Simulation time: 1 hr 28 min 23 sec) 
Heartbeat CPU 0 instructions: 928000002 cycles: 3590421597 heartbeat IPC: 0.775588 cumulative IPC: 0.229518 (Simulation time: 1 hr 28 min 28 sec) 
Heartbeat CPU 0 instructions: 929000002 cycles: 3592746839 heartbeat IPC: 0.430063 cumulative IPC: 0.229741 (Simulation time: 1 hr 28 min 32 sec) 
Heartbeat CPU 0 instructions: 930000001 cycles: 3594506567 heartbeat IPC: 0.568269 cumulative IPC: 0.230027 (Simulation time: 1 hr 28 min 37 sec) 
Heartbeat CPU 0 instructions: 931000003 cycles: 3596449237 heartbeat IPC: 0.514757 cumulative IPC: 0.230292 (Simulation time: 1 hr 28 min 41 sec) 
Heartbeat CPU 0 instructions: 932000000 cycles: 3603965968 heartbeat IPC: 0.133036 cumulative IPC: 0.229943 (Simulation time: 1 hr 28 min 49 sec) 
Heartbeat CPU 0 instructions: 933000001 cycles: 3611065438 heartbeat IPC: 0.140856 cumulative IPC: 0.229642 (Simulation time: 1 hr 28 min 58 sec) 
Heartbeat CPU 0 instructions: 934000003 cycles: 3618604258 heartbeat IPC: 0.132647 cumulative IPC: 0.229296 (Simulation time: 1 hr 29 min 6 sec) 
Heartbeat CPU 0 instructions: 935000000 cycles: 3625926379 heartbeat IPC: 0.136572 cumulative IPC: 0.228975 (Simulation time: 1 hr 29 min 15 sec) 
Heartbeat CPU 0 instructions: 936000001 cycles: 3633372461 heartbeat IPC: 0.134299 cumulative IPC: 0.228643 (Simulation time: 1 hr 29 min 23 sec) 
Heartbeat CPU 0 instructions: 937000000 cycles: 3640666096 heartbeat IPC: 0.137106 cumulative IPC: 0.22833 (Simulation time: 1 hr 29 min 32 sec) 
Heartbeat CPU 0 instructions: 938000003 cycles: 3647999343 heartbeat IPC: 0.136366 cumulative IPC: 0.228015 (Simulation time: 1 hr 29 min 41 sec) 
Heartbeat CPU 0 instructions: 939000000 cycles: 3655390524 heartbeat IPC: 0.135296 cumulative IPC: 0.227696 (Simulation time: 1 hr 29 min 50 sec) 
Heartbeat CPU 0 instructions: 940000002 cycles: 3662948675 heartbeat IPC: 0.132308 cumulative IPC: 0.227362 (Simulation time: 1 hr 29 min 58 sec) 
Heartbeat CPU 0 instructions: 941000001 cycles: 3670429069 heartbeat IPC: 0.133683 cumulative IPC: 0.227038 (Simulation time: 1 hr 30 min 7 sec) 
Heartbeat CPU 0 instructions: 942000000 cycles: 3677831099 heartbeat IPC: 0.135098 cumulative IPC: 0.226724 (Simulation time: 1 hr 30 min 15 sec) 
Heartbeat CPU 0 instructions: 943000002 cycles: 3685008004 heartbeat IPC: 0.139336 cumulative IPC: 0.226436 (Simulation time: 1 hr 30 min 23 sec) 
Heartbeat CPU 0 instructions: 944000003 cycles: 3692989735 heartbeat IPC: 0.125286 cumulative IPC: 0.226067 (Simulation time: 1 hr 30 min 31 sec) 
Heartbeat CPU 0 instructions: 945000002 cycles: 3701631310 heartbeat IPC: 0.11572 cumulative IPC: 0.225632 (Simulation time: 1 hr 30 min 40 sec) 
Heartbeat CPU 0 instructions: 946000000 cycles: 3710344062 heartbeat IPC: 0.114774 cumulative IPC: 0.225193 (Simulation time: 1 hr 30 min 49 sec) 
Heartbeat CPU 0 instructions: 947000002 cycles: 3718684014 heartbeat IPC: 0.119905 cumulative IPC: 0.224796 (Simulation time: 1 hr 30 min 58 sec) 
Heartbeat CPU 0 instructions: 948000000 cycles: 3726558418 heartbeat IPC: 0.126993 cumulative IPC: 0.224449 (Simulation time: 1 hr 31 min 6 sec) 
Heartbeat CPU 0 instructions: 949000000 cycles: 3734271207 heartbeat IPC: 0.129655 cumulative IPC: 0.224121 (Simulation time: 1 hr 31 min 15 sec) 
Heartbeat CPU 0 instructions: 950000000 cycles: 3742157653 heartbeat IPC: 0.1268 cumulative IPC: 0.223777 (Simulation time: 1 hr 31 min 23 sec) 
Finished CPU 0 instructions: 500000001 cycles: 2234365261 cumulative IPC: 0.223777 (Simulation time: 1 hr 31 min 23 sec) 

ChampSim completed all CPUs

Region of Interest Statistics

CPU 0 cumulative IPC: 0.223777 instructions: 500000001 cycles: 2234365261
L1D TOTAL     ACCESS:  192644967  HIT:  172764972  MISS:   19879995
L1D LOAD      ACCESS:  143004452  HIT:  123208224  MISS:   19796228
L1D RFO       ACCESS:   49640515  HIT:   49556748  MISS:      83767
L1D PREFETCH  ACCESS:          0  HIT:          0  MISS:          0
L1D WRITEBACK ACCESS:          0  HIT:          0  MISS:          0
L1D PREFETCH  REQUESTED:          0  ISSUED:          0  USEFUL:          0  USELESS:          0
L1D AVERAGE MISS LATENCY: 166.14 cycles
L1I TOTAL     ACCESS:   91844167  HIT:   91844167  MISS:          0
L1I LOAD      ACCESS:   91844167  HIT:   91844167  MISS:          0
L1I RFO       ACCESS:          0  HIT:          0  MISS:          0
L1I PREFETCH  ACCESS:          0  HIT:          0  MISS:          0
L1I WRITEBACK ACCESS:          0  HIT:          0  MISS:          0
L1I PREFETCH  REQUESTED:          0  ISSUED:          0  USEFUL:          0  USELESS:          0
L1I AVERAGE MISS LATENCY: -nan cycles
L2C TOTAL     ACCESS:   21504481  HIT:    5958649  MISS:   15545832
L2C LOAD      ACCESS:   19796190  HIT:    4263399  MISS:   15532791
L2C RFO       ACCESS:      83765  HIT:      71804  MISS:      11961
L2C PREFETCH  ACCESS:          0  HIT:          0  MISS:          0
L2C WRITEBACK ACCESS:    1624526  HIT:    1623446  MISS:       1080
L2C PREFETCH  REQUESTED:          0  ISSUED:          0  USEFUL:          0  USELESS:          0
L2C AVERAGE MISS LATENCY: 184.63 cycles
LLC TOTAL     ACCESS:   16845587  HIT:    3819777  MISS:   13025810
LLC LOAD      ACCESS:   15532789  HIT:    2511014  MISS:   13021775
LLC RFO       ACCESS:      11961  HIT:       8179  MISS:       3782
LLC PREFETCH  ACCESS:          0  HIT:          0  MISS:          0
LLC WRITEBACK ACCESS:    1300837  HIT:    1300584  MISS:        253
LLC PREFETCH  REQUESTED:          0  ISSUED:          0  USEFUL:          0  USELESS:          0
LLC AVERAGE MISS LATENCY: 179.558 cycles
Major fault: 0 Minor fault: 323437

DRAM Statistics
 CHANNEL 0
 RQ ROW_BUFFER_HIT:     532900  ROW_BUFFER_MISS:   12492649
 DBUS_CONGESTED:    3445541
 WQ ROW_BUFFER_HIT:     650097  ROW_BUFFER_MISS:     486749  FULL:          0

 AVG_CONGESTED_CYCLE: 5

CPU 0 Branch Prediction Accuracy: 94.5058% MPKI: 14.7688 Average ROB Occupancy at Mispredict: 36.6686

Branch types
NOT_BRANCH: 365597306 73.1195%
BRANCH_DIRECT_JUMP: 12607990 2.5216%
BRANCH_INDIRECT: 0 0%
BRANCH_CONDITIONAL: 87164518 17.4329%
BRANCH_DIRECT_CALL: 16970373 3.39407%
BRANCH_INDIRECT_CALL: 344640 0.068928%
BRANCH_RETURN: 17315016 3.463%
BRANCH_OTHER: 0 0%

