
*** ChampSim Multicore Out-of-Order Simulator ***

Warmup Instructions: 1000000
Prefetch Warmup Instructions: 450000000
Simulation Instructions: 500000000
Stat Printing Period: 1000000
Number of CPUs: 1
LLC sets: 2048
LLC ways: 16
Off-chip DRAM Size: 4096 MB Channels: 1 Width: 64-bit Data Rate: 3200 MT/s

CPU 0 runs /scratch/cluster/cmolder/ML-DPC/ChampSimTraces/spec17/605.mcf-s4.trace.xz
Read seed: 223
Heartbeat CPU 0 instructions: 1000002 cycles: 415485 heartbeat IPC: 2.40683 cumulative IPC: 2.40683 (Simulation time: 0 hr 0 min 6 sec) 

Warmup complete CPU 0 instructions: 1000002 cycles: 415485 (Simulation time: 0 hr 0 min 6 sec) 

Heartbeat CPU 0 instructions: 2000000 cycles: 4578078 heartbeat IPC: 0.240234 cumulative IPC: 0.240234 (Simulation time: 0 hr 0 min 16 sec) 
Heartbeat CPU 0 instructions: 3000000 cycles: 6705641 heartbeat IPC: 0.470021 cumulative IPC: 0.317957 (Simulation time: 0 hr 0 min 23 sec) 
Heartbeat CPU 0 instructions: 4000000 cycles: 9495549 heartbeat IPC: 0.358435 cumulative IPC: 0.330394 (Simulation time: 0 hr 0 min 29 sec) 
Heartbeat CPU 0 instructions: 5000000 cycles: 13683497 heartbeat IPC: 0.23878 cumulative IPC: 0.301477 (Simulation time: 0 hr 0 min 40 sec) 
Heartbeat CPU 0 instructions: 6000001 cycles: 15716779 heartbeat IPC: 0.491816 cumulative IPC: 0.32677 (Simulation time: 0 hr 0 min 47 sec) 
Heartbeat CPU 0 instructions: 7000002 cycles: 19270004 heartbeat IPC: 0.281435 cumulative IPC: 0.318226 (Simulation time: 0 hr 0 min 56 sec) 
Heartbeat CPU 0 instructions: 8000000 cycles: 22229246 heartbeat IPC: 0.337924 cumulative IPC: 0.320898 (Simulation time: 0 hr 1 min 4 sec) 
Heartbeat CPU 0 instructions: 9000001 cycles: 24811990 heartbeat IPC: 0.387185 cumulative IPC: 0.327916 (Simulation time: 0 hr 1 min 9 sec) 
Heartbeat CPU 0 instructions: 10000001 cycles: 28519154 heartbeat IPC: 0.269748 cumulative IPC: 0.320243 (Simulation time: 0 hr 1 min 15 sec) 
Heartbeat CPU 0 instructions: 11000000 cycles: 30876082 heartbeat IPC: 0.424281 cumulative IPC: 0.328293 (Simulation time: 0 hr 1 min 19 sec) 
Heartbeat CPU 0 instructions: 12000002 cycles: 37471814 heartbeat IPC: 0.151614 cumulative IPC: 0.296845 (Simulation time: 0 hr 1 min 27 sec) 
Heartbeat CPU 0 instructions: 13000001 cycles: 39630852 heartbeat IPC: 0.463169 cumulative IPC: 0.306002 (Simulation time: 0 hr 1 min 31 sec) 
Heartbeat CPU 0 instructions: 14000002 cycles: 44214161 heartbeat IPC: 0.218183 cumulative IPC: 0.296813 (Simulation time: 0 hr 1 min 37 sec) 
Heartbeat CPU 0 instructions: 15000000 cycles: 49118862 heartbeat IPC: 0.203886 cumulative IPC: 0.287454 (Simulation time: 0 hr 1 min 44 sec) 
Heartbeat CPU 0 instructions: 16000000 cycles: 51703176 heartbeat IPC: 0.38695 cumulative IPC: 0.292468 (Simulation time: 0 hr 1 min 48 sec) 
Heartbeat CPU 0 instructions: 17000001 cycles: 57363480 heartbeat IPC: 0.176669 cumulative IPC: 0.280958 (Simulation time: 0 hr 1 min 55 sec) 
Heartbeat CPU 0 instructions: 18000002 cycles: 64549645 heartbeat IPC: 0.139156 cumulative IPC: 0.265069 (Simulation time: 0 hr 2 min 4 sec) 
Heartbeat CPU 0 instructions: 19000000 cycles: 71125694 heartbeat IPC: 0.152067 cumulative IPC: 0.25456 (Simulation time: 0 hr 2 min 12 sec) 
Heartbeat CPU 0 instructions: 20000000 cycles: 73074569 heartbeat IPC: 0.513117 cumulative IPC: 0.261495 (Simulation time: 0 hr 2 min 16 sec) 
Heartbeat CPU 0 instructions: 21000000 cycles: 75945788 heartbeat IPC: 0.348284 cumulative IPC: 0.264794 (Simulation time: 0 hr 2 min 21 sec) 
Heartbeat CPU 0 instructions: 22000000 cycles: 81473958 heartbeat IPC: 0.180892 cumulative IPC: 0.259072 (Simulation time: 0 hr 2 min 28 sec) 
Heartbeat CPU 0 instructions: 23000000 cycles: 88144857 heartbeat IPC: 0.149905 cumulative IPC: 0.250771 (Simulation time: 0 hr 2 min 36 sec) 
Heartbeat CPU 0 instructions: 24000002 cycles: 95021563 heartbeat IPC: 0.145419 cumulative IPC: 0.243113 (Simulation time: 0 hr 2 min 45 sec) 
Heartbeat CPU 0 instructions: 25000000 cycles: 102028046 heartbeat IPC: 0.142725 cumulative IPC: 0.236191 (Simulation time: 0 hr 2 min 53 sec) 
Heartbeat CPU 0 instructions: 26000002 cycles: 108919232 heartbeat IPC: 0.145113 cumulative IPC: 0.230407 (Simulation time: 0 hr 3 min 2 sec) 
Heartbeat CPU 0 instructions: 27000000 cycles: 115812306 heartbeat IPC: 0.145073 cumulative IPC: 0.225309 (Simulation time: 0 hr 3 min 11 sec) 
Heartbeat CPU 0 instructions: 28000001 cycles: 118267552 heartbeat IPC: 0.407292 cumulative IPC: 0.229101 (Simulation time: 0 hr 3 min 15 sec) 
Heartbeat CPU 0 instructions: 29000001 cycles: 120120940 heartbeat IPC: 0.539552 cumulative IPC: 0.233907 (Simulation time: 0 hr 3 min 19 sec) 
Heartbeat CPU 0 instructions: 30000002 cycles: 123969753 heartbeat IPC: 0.259821 cumulative IPC: 0.234715 (Simulation time: 0 hr 3 min 25 sec) 
Heartbeat CPU 0 instructions: 31000003 cycles: 126605054 heartbeat IPC: 0.379464 cumulative IPC: 0.237738 (Simulation time: 0 hr 3 min 29 sec) 
Heartbeat CPU 0 instructions: 32000000 cycles: 128777006 heartbeat IPC: 0.460414 cumulative IPC: 0.241505 (Simulation time: 0 hr 3 min 34 sec) 
Heartbeat CPU 0 instructions: 33000000 cycles: 133384083 heartbeat IPC: 0.217057 cumulative IPC: 0.240658 (Simulation time: 0 hr 3 min 40 sec) 
Heartbeat CPU 0 instructions: 34000000 cycles: 136227125 heartbeat IPC: 0.351736 cumulative IPC: 0.242984 (Simulation time: 0 hr 3 min 45 sec) 
Heartbeat CPU 0 instructions: 35000001 cycles: 138855244 heartbeat IPC: 0.380501 cumulative IPC: 0.245594 (Simulation time: 0 hr 3 min 49 sec) 
Heartbeat CPU 0 instructions: 36000000 cycles: 143317234 heartbeat IPC: 0.224115 cumulative IPC: 0.244924 (Simulation time: 0 hr 3 min 55 sec) 
Heartbeat CPU 0 instructions: 37000001 cycles: 145118146 heartbeat IPC: 0.555275 cumulative IPC: 0.248786 (Simulation time: 0 hr 3 min 59 sec) 
Heartbeat CPU 0 instructions: 38000000 cycles: 148598799 heartbeat IPC: 0.287302 cumulative IPC: 0.249691 (Simulation time: 0 hr 4 min 5 sec) 
Heartbeat CPU 0 instructions: 39000000 cycles: 153628209 heartbeat IPC: 0.19883 cumulative IPC: 0.248021 (Simulation time: 0 hr 4 min 11 sec) 
Heartbeat CPU 0 instructions: 40000000 cycles: 156106564 heartbeat IPC: 0.403493 cumulative IPC: 0.250496 (Simulation time: 0 hr 4 min 16 sec) 
Heartbeat CPU 0 instructions: 41000002 cycles: 158879750 heartbeat IPC: 0.360597 cumulative IPC: 0.252423 (Simulation time: 0 hr 4 min 21 sec) 
Heartbeat CPU 0 instructions: 42000003 cycles: 163290699 heartbeat IPC: 0.226709 cumulative IPC: 0.251726 (Simulation time: 0 hr 4 min 27 sec) 
Heartbeat CPU 0 instructions: 43000000 cycles: 165110674 heartbeat IPC: 0.549456 cumulative IPC: 0.255017 (Simulation time: 0 hr 4 min 31 sec) 
Heartbeat CPU 0 instructions: 44000000 cycles: 169167694 heartbeat IPC: 0.246486 cumulative IPC: 0.254811 (Simulation time: 0 hr 4 min 37 sec) 
Heartbeat CPU 0 instructions: 45000002 cycles: 170936939 heartbeat IPC: 0.565214 cumulative IPC: 0.258032 (Simulation time: 0 hr 4 min 41 sec) 
Heartbeat CPU 0 instructions: 46000002 cycles: 174934521 heartbeat IPC: 0.250151 cumulative IPC: 0.257852 (Simulation time: 0 hr 4 min 46 sec) 
Heartbeat CPU 0 instructions: 47000000 cycles: 177637211 heartbeat IPC: 0.370001 cumulative IPC: 0.259562 (Simulation time: 0 hr 4 min 51 sec) 
Heartbeat CPU 0 instructions: 48000003 cycles: 179496990 heartbeat IPC: 0.5377 cumulative IPC: 0.26245 (Simulation time: 0 hr 4 min 55 sec) 
Heartbeat CPU 0 instructions: 49000001 cycles: 183750741 heartbeat IPC: 0.235086 cumulative IPC: 0.261815 (Simulation time: 0 hr 5 min 1 sec) 
Heartbeat CPU 0 instructions: 50000003 cycles: 190468898 heartbeat IPC: 0.148851 cumulative IPC: 0.257822 (Simulation time: 0 hr 5 min 10 sec) 
Heartbeat CPU 0 instructions: 51000002 cycles: 192564128 heartbeat IPC: 0.477274 cumulative IPC: 0.260215 (Simulation time: 0 hr 5 min 14 sec) 
Heartbeat CPU 0 instructions: 52000001 cycles: 194447919 heartbeat IPC: 0.530844 cumulative IPC: 0.262843 (Simulation time: 0 hr 5 min 18 sec) 
Heartbeat CPU 0 instructions: 53000000 cycles: 198566570 heartbeat IPC: 0.242798 cumulative IPC: 0.262426 (Simulation time: 0 hr 5 min 24 sec) 
Heartbeat CPU 0 instructions: 54000000 cycles: 200349308 heartbeat IPC: 0.560935 cumulative IPC: 0.265088 (Simulation time: 0 hr 5 min 28 sec) 
Heartbeat CPU 0 instructions: 55000000 cycles: 202280622 heartbeat IPC: 0.517782 cumulative IPC: 0.267505 (Simulation time: 0 hr 5 min 32 sec) 
Heartbeat CPU 0 instructions: 56000001 cycles: 208236883 heartbeat IPC: 0.167891 cumulative IPC: 0.26465 (Simulation time: 0 hr 5 min 40 sec) 
Heartbeat CPU 0 instructions: 57000000 cycles: 213285201 heartbeat IPC: 0.198086 cumulative IPC: 0.263072 (Simulation time: 0 hr 5 min 47 sec) 
Heartbeat CPU 0 instructions: 58000000 cycles: 215191184 heartbeat IPC: 0.524664 cumulative IPC: 0.265393 (Simulation time: 0 hr 5 min 51 sec) 
Heartbeat CPU 0 instructions: 59000000 cycles: 219861438 heartbeat IPC: 0.214121 cumulative IPC: 0.264302 (Simulation time: 0 hr 5 min 58 sec) 
Heartbeat CPU 0 instructions: 60000001 cycles: 224631131 heartbeat IPC: 0.209657 cumulative IPC: 0.26314 (Simulation time: 0 hr 6 min 4 sec) 
Heartbeat CPU 0 instructions: 61000002 cycles: 226870287 heartbeat IPC: 0.446597 cumulative IPC: 0.264954 (Simulation time: 0 hr 6 min 8 sec) 
Heartbeat CPU 0 instructions: 62000000 cycles: 231209919 heartbeat IPC: 0.230434 cumulative IPC: 0.264304 (Simulation time: 0 hr 6 min 14 sec) 
Heartbeat CPU 0 instructions: 63000003 cycles: 233300215 heartbeat IPC: 0.478403 cumulative IPC: 0.266226 (Simulation time: 0 hr 6 min 18 sec) 
Heartbeat CPU 0 instructions: 64000001 cycles: 237640086 heartbeat IPC: 0.230421 cumulative IPC: 0.265571 (Simulation time: 0 hr 6 min 24 sec) 
Heartbeat CPU 0 instructions: 65000001 cycles: 239864360 heartbeat IPC: 0.449585 cumulative IPC: 0.26728 (Simulation time: 0 hr 6 min 29 sec) 
Heartbeat CPU 0 instructions: 66000000 cycles: 243983021 heartbeat IPC: 0.242797 cumulative IPC: 0.266866 (Simulation time: 0 hr 6 min 35 sec) 
Heartbeat CPU 0 instructions: 67000000 cycles: 245878573 heartbeat IPC: 0.527551 cumulative IPC: 0.26888 (Simulation time: 0 hr 6 min 39 sec) 
Heartbeat CPU 0 instructions: 68000000 cycles: 251211946 heartbeat IPC: 0.187499 cumulative IPC: 0.267149 (Simulation time: 0 hr 6 min 46 sec) 
Heartbeat CPU 0 instructions: 69000000 cycles: 254259362 heartbeat IPC: 0.328147 cumulative IPC: 0.267881 (Simulation time: 0 hr 6 min 51 sec) 
Heartbeat CPU 0 instructions: 70000002 cycles: 256194719 heartbeat IPC: 0.516702 cumulative IPC: 0.269764 (Simulation time: 0 hr 6 min 55 sec) 
Heartbeat CPU 0 instructions: 71000000 cycles: 259890369 heartbeat IPC: 0.270588 cumulative IPC: 0.269776 (Simulation time: 0 hr 7 min 1 sec) 
Heartbeat CPU 0 instructions: 72000000 cycles: 262986522 heartbeat IPC: 0.322981 cumulative IPC: 0.270403 (Simulation time: 0 hr 7 min 6 sec) 
Heartbeat CPU 0 instructions: 73000000 cycles: 266309616 heartbeat IPC: 0.300924 cumulative IPC: 0.270784 (Simulation time: 0 hr 7 min 11 sec) 
Heartbeat CPU 0 instructions: 74000002 cycles: 273047379 heartbeat IPC: 0.148418 cumulative IPC: 0.26776 (Simulation time: 0 hr 7 min 19 sec) 
Heartbeat CPU 0 instructions: 75000001 cycles: 276611454 heartbeat IPC: 0.280577 cumulative IPC: 0.267926 (Simulation time: 0 hr 7 min 25 sec) 
Heartbeat CPU 0 instructions: 76000000 cycles: 279863937 heartbeat IPC: 0.307457 cumulative IPC: 0.268386 (Simulation time: 0 hr 7 min 29 sec) 
Heartbeat CPU 0 instructions: 77000000 cycles: 285635510 heartbeat IPC: 0.173263 cumulative IPC: 0.266461 (Simulation time: 0 hr 7 min 37 sec) 
Heartbeat CPU 0 instructions: 78000003 cycles: 287625087 heartbeat IPC: 0.502621 cumulative IPC: 0.268097 (Simulation time: 0 hr 7 min 41 sec) 
Heartbeat CPU 0 instructions: 79000003 cycles: 292446671 heartbeat IPC: 0.207401 cumulative IPC: 0.267095 (Simulation time: 0 hr 7 min 47 sec) 
Heartbeat CPU 0 instructions: 80000002 cycles: 298807385 heartbeat IPC: 0.157215 cumulative IPC: 0.264753 (Simulation time: 0 hr 7 min 55 sec) 
Heartbeat CPU 0 instructions: 81000000 cycles: 300644072 heartbeat IPC: 0.544457 cumulative IPC: 0.266464 (Simulation time: 0 hr 7 min 59 sec) 
Heartbeat CPU 0 instructions: 82000000 cycles: 302466179 heartbeat IPC: 0.548815 cumulative IPC: 0.268167 (Simulation time: 0 hr 8 min 3 sec) 
Heartbeat CPU 0 instructions: 83000001 cycles: 308064757 heartbeat IPC: 0.178617 cumulative IPC: 0.266537 (Simulation time: 0 hr 8 min 10 sec) 
Heartbeat CPU 0 instructions: 84000002 cycles: 310305995 heartbeat IPC: 0.446182 cumulative IPC: 0.267837 (Simulation time: 0 hr 8 min 14 sec) 
Heartbeat CPU 0 instructions: 85000000 cycles: 313602261 heartbeat IPC: 0.303373 cumulative IPC: 0.268211 (Simulation time: 0 hr 8 min 19 sec) 
Heartbeat CPU 0 instructions: 86000000 cycles: 316276690 heartbeat IPC: 0.373912 cumulative IPC: 0.269106 (Simulation time: 0 hr 8 min 24 sec) 
Heartbeat CPU 0 instructions: 87000000 cycles: 319276626 heartbeat IPC: 0.33334 cumulative IPC: 0.26971 (Simulation time: 0 hr 8 min 29 sec) 
Heartbeat CPU 0 instructions: 88000000 cycles: 325388185 heartbeat IPC: 0.163624 cumulative IPC: 0.267715 (Simulation time: 0 hr 8 min 37 sec) 
Heartbeat CPU 0 instructions: 89000000 cycles: 327588183 heartbeat IPC: 0.454546 cumulative IPC: 0.268971 (Simulation time: 0 hr 8 min 41 sec) 
Heartbeat CPU 0 instructions: 90000000 cycles: 329590577 heartbeat IPC: 0.499402 cumulative IPC: 0.270373 (Simulation time: 0 hr 8 min 45 sec) 
Heartbeat CPU 0 instructions: 91000000 cycles: 333545750 heartbeat IPC: 0.252833 cumulative IPC: 0.270165 (Simulation time: 0 hr 8 min 51 sec) 
Heartbeat CPU 0 instructions: 92000002 cycles: 335367624 heartbeat IPC: 0.548886 cumulative IPC: 0.271681 (Simulation time: 0 hr 8 min 55 sec) 
Heartbeat CPU 0 instructions: 93000000 cycles: 340784841 heartbeat IPC: 0.184596 cumulative IPC: 0.270295 (Simulation time: 0 hr 9 min 2 sec) 
Heartbeat CPU 0 instructions: 94000001 cycles: 346466743 heartbeat IPC: 0.175998 cumulative IPC: 0.268746 (Simulation time: 0 hr 9 min 9 sec) 
Heartbeat CPU 0 instructions: 95000001 cycles: 348489254 heartbeat IPC: 0.494435 cumulative IPC: 0.270058 (Simulation time: 0 hr 9 min 13 sec) 
Heartbeat CPU 0 instructions: 96000003 cycles: 353432603 heartbeat IPC: 0.202292 cumulative IPC: 0.269109 (Simulation time: 0 hr 9 min 20 sec) 
Heartbeat CPU 0 instructions: 97000000 cycles: 359888413 heartbeat IPC: 0.154899 cumulative IPC: 0.267058 (Simulation time: 0 hr 9 min 28 sec) 
Heartbeat CPU 0 instructions: 98000003 cycles: 362145114 heartbeat IPC: 0.443126 cumulative IPC: 0.268156 (Simulation time: 0 hr 9 min 32 sec) 
Heartbeat CPU 0 instructions: 99000000 cycles: 364572402 heartbeat IPC: 0.411981 cumulative IPC: 0.269115 (Simulation time: 0 hr 9 min 37 sec) 
Heartbeat CPU 0 instructions: 100000002 cycles: 368911152 heartbeat IPC: 0.230482 cumulative IPC: 0.26866 (Simulation time: 0 hr 9 min 43 sec) 
Heartbeat CPU 0 instructions: 101000003 cycles: 371615580 heartbeat IPC: 0.369764 cumulative IPC: 0.269396 (Simulation time: 0 hr 9 min 47 sec) 
Heartbeat CPU 0 instructions: 102000000 cycles: 374040428 heartbeat IPC: 0.412396 cumulative IPC: 0.270325 (Simulation time: 0 hr 9 min 51 sec) 
Heartbeat CPU 0 instructions: 103000000 cycles: 378478699 heartbeat IPC: 0.225313 cumulative IPC: 0.269796 (Simulation time: 0 hr 9 min 58 sec) 
Heartbeat CPU 0 instructions: 104000001 cycles: 380453561 heartbeat IPC: 0.506365 cumulative IPC: 0.271025 (Simulation time: 0 hr 10 min 2 sec) 
Heartbeat CPU 0 instructions: 105000000 cycles: 384684833 heartbeat IPC: 0.236335 cumulative IPC: 0.270644 (Simulation time: 0 hr 10 min 8 sec) 
Heartbeat CPU 0 instructions: 106000000 cycles: 386523141 heartbeat IPC: 0.543979 cumulative IPC: 0.271945 (Simulation time: 0 hr 10 min 12 sec) 
Heartbeat CPU 0 instructions: 107000003 cycles: 388316049 heartbeat IPC: 0.557755 cumulative IPC: 0.273266 (Simulation time: 0 hr 10 min 16 sec) 
Heartbeat CPU 0 instructions: 108000002 cycles: 392336013 heartbeat IPC: 0.248758 cumulative IPC: 0.273015 (Simulation time: 0 hr 10 min 22 sec) 
Heartbeat CPU 0 instructions: 109000003 cycles: 396520270 heartbeat IPC: 0.238991 cumulative IPC: 0.272655 (Simulation time: 0 hr 10 min 29 sec) 
Heartbeat CPU 0 instructions: 110000000 cycles: 398775750 heartbeat IPC: 0.443363 cumulative IPC: 0.273622 (Simulation time: 0 hr 10 min 33 sec) 
Heartbeat CPU 0 instructions: 111000001 cycles: 404147832 heartbeat IPC: 0.186148 cumulative IPC: 0.272458 (Simulation time: 0 hr 10 min 40 sec) 
Heartbeat CPU 0 instructions: 112000002 cycles: 407490493 heartbeat IPC: 0.299163 cumulative IPC: 0.272677 (Simulation time: 0 hr 10 min 46 sec) 
Heartbeat CPU 0 instructions: 113000002 cycles: 409452378 heartbeat IPC: 0.509714 cumulative IPC: 0.273814 (Simulation time: 0 hr 10 min 50 sec) 
Heartbeat CPU 0 instructions: 114000000 cycles: 413534731 heartbeat IPC: 0.244956 cumulative IPC: 0.273529 (Simulation time: 0 hr 10 min 56 sec) 
Heartbeat CPU 0 instructions: 115000001 cycles: 415427804 heartbeat IPC: 0.528242 cumulative IPC: 0.274691 (Simulation time: 0 hr 11 min 0 sec) 
Heartbeat CPU 0 instructions: 116000003 cycles: 420306569 heartbeat IPC: 0.20497 cumulative IPC: 0.273881 (Simulation time: 0 hr 11 min 7 sec) 
Heartbeat CPU 0 instructions: 117000000 cycles: 422336517 heartbeat IPC: 0.492622 cumulative IPC: 0.274933 (Simulation time: 0 hr 11 min 11 sec) 
Heartbeat CPU 0 instructions: 118000002 cycles: 426830148 heartbeat IPC: 0.222538 cumulative IPC: 0.274381 (Simulation time: 0 hr 11 min 18 sec) 
Heartbeat CPU 0 instructions: 119000000 cycles: 431910528 heartbeat IPC: 0.196835 cumulative IPC: 0.273468 (Simulation time: 0 hr 11 min 24 sec) 
Heartbeat CPU 0 instructions: 120000002 cycles: 434147291 heartbeat IPC: 0.447076 cumulative IPC: 0.274363 (Simulation time: 0 hr 11 min 29 sec) 
Heartbeat CPU 0 instructions: 121000000 cycles: 437203694 heartbeat IPC: 0.327181 cumulative IPC: 0.274733 (Simulation time: 0 hr 11 min 34 sec) 
Heartbeat CPU 0 instructions: 122000001 cycles: 442969090 heartbeat IPC: 0.173449 cumulative IPC: 0.273413 (Simulation time: 0 hr 11 min 42 sec) 
Heartbeat CPU 0 instructions: 123000000 cycles: 444694308 heartbeat IPC: 0.579636 cumulative IPC: 0.274602 (Simulation time: 0 hr 11 min 46 sec) 
Heartbeat CPU 0 instructions: 124000000 cycles: 446494585 heartbeat IPC: 0.55547 cumulative IPC: 0.275736 (Simulation time: 0 hr 11 min 50 sec) 
Heartbeat CPU 0 instructions: 125000002 cycles: 452469314 heartbeat IPC: 0.167372 cumulative IPC: 0.274304 (Simulation time: 0 hr 11 min 58 sec) 
Heartbeat CPU 0 instructions: 126000001 cycles: 457095606 heartbeat IPC: 0.216156 cumulative IPC: 0.273715 (Simulation time: 0 hr 12 min 4 sec) 
Heartbeat CPU 0 instructions: 127000001 cycles: 459208556 heartbeat IPC: 0.473272 cumulative IPC: 0.274634 (Simulation time: 0 hr 12 min 9 sec) 
Heartbeat CPU 0 instructions: 128000001 cycles: 462102276 heartbeat IPC: 0.345576 cumulative IPC: 0.275078 (Simulation time: 0 hr 12 min 14 sec) 
Heartbeat CPU 0 instructions: 129000003 cycles: 468349056 heartbeat IPC: 0.160083 cumulative IPC: 0.273543 (Simulation time: 0 hr 12 min 22 sec) 
Heartbeat CPU 0 instructions: 130000003 cycles: 471477859 heartbeat IPC: 0.319611 cumulative IPC: 0.273849 (Simulation time: 0 hr 12 min 27 sec) 
Heartbeat CPU 0 instructions: 131000000 cycles: 474383774 heartbeat IPC: 0.344125 cumulative IPC: 0.27428 (Simulation time: 0 hr 12 min 32 sec) 
Heartbeat CPU 0 instructions: 132000000 cycles: 478712540 heartbeat IPC: 0.231013 cumulative IPC: 0.273888 (Simulation time: 0 hr 12 min 38 sec) 
Heartbeat CPU 0 instructions: 133000001 cycles: 480687798 heartbeat IPC: 0.506263 cumulative IPC: 0.274844 (Simulation time: 0 hr 12 min 42 sec) 
Heartbeat CPU 0 instructions: 134000003 cycles: 486601297 heartbeat IPC: 0.169105 cumulative IPC: 0.273558 (Simulation time: 0 hr 12 min 50 sec) 
Heartbeat CPU 0 instructions: 135000000 cycles: 491761546 heartbeat IPC: 0.193789 cumulative IPC: 0.27272 (Simulation time: 0 hr 12 min 57 sec) 
Heartbeat CPU 0 instructions: 136000003 cycles: 493527730 heartbeat IPC: 0.566194 cumulative IPC: 0.273771 (Simulation time: 0 hr 13 min 0 sec) 
Heartbeat CPU 0 instructions: 137000000 cycles: 497427759 heartbeat IPC: 0.256408 cumulative IPC: 0.273635 (Simulation time: 0 hr 13 min 6 sec) 
Heartbeat CPU 0 instructions: 138000001 cycles: 504146634 heartbeat IPC: 0.148835 cumulative IPC: 0.27197 (Simulation time: 0 hr 13 min 15 sec) 
Heartbeat CPU 0 instructions: 139000001 cycles: 507182146 heartbeat IPC: 0.329434 cumulative IPC: 0.272315 (Simulation time: 0 hr 13 min 20 sec) 
Heartbeat CPU 0 instructions: 140000003 cycles: 510007521 heartbeat IPC: 0.353936 cumulative IPC: 0.272767 (Simulation time: 0 hr 13 min 25 sec) 
Heartbeat CPU 0 instructions: 141000000 cycles: 513319863 heartbeat IPC: 0.3019 cumulative IPC: 0.272955 (Simulation time: 0 hr 13 min 30 sec) 
Heartbeat CPU 0 instructions: 142000003 cycles: 515418961 heartbeat IPC: 0.476397 cumulative IPC: 0.273785 (Simulation time: 0 hr 13 min 34 sec) 
Heartbeat CPU 0 instructions: 143000000 cycles: 521667604 heartbeat IPC: 0.160034 cumulative IPC: 0.272421 (Simulation time: 0 hr 13 min 42 sec) 
Heartbeat CPU 0 instructions: 144000001 cycles: 526215059 heartbeat IPC: 0.219903 cumulative IPC: 0.271967 (Simulation time: 0 hr 13 min 49 sec) 
Heartbeat CPU 0 instructions: 145000001 cycles: 528119421 heartbeat IPC: 0.52511 cumulative IPC: 0.27288 (Simulation time: 0 hr 13 min 53 sec) 
Heartbeat CPU 0 instructions: 146000000 cycles: 533520477 heartbeat IPC: 0.185149 cumulative IPC: 0.271991 (Simulation time: 0 hr 14 min 1 sec) 
Heartbeat CPU 0 instructions: 147000000 cycles: 536284769 heartbeat IPC: 0.361756 cumulative IPC: 0.272455 (Simulation time: 0 hr 14 min 10 sec) 
Heartbeat CPU 0 instructions: 148000002 cycles: 539185488 heartbeat IPC: 0.344743 cumulative IPC: 0.272844 (Simulation time: 0 hr 14 min 16 sec) 
Heartbeat CPU 0 instructions: 149000003 cycles: 545737270 heartbeat IPC: 0.15263 cumulative IPC: 0.271399 (Simulation time: 0 hr 14 min 24 sec) 
Heartbeat CPU 0 instructions: 150000001 cycles: 548096104 heartbeat IPC: 0.423937 cumulative IPC: 0.272056 (Simulation time: 0 hr 14 min 28 sec) 
Heartbeat CPU 0 instructions: 151000001 cycles: 550331782 heartbeat IPC: 0.447292 cumulative IPC: 0.272769 (Simulation time: 0 hr 14 min 33 sec) 
Heartbeat CPU 0 instructions: 152000002 cycles: 554984181 heartbeat IPC: 0.214943 cumulative IPC: 0.272284 (Simulation time: 0 hr 14 min 40 sec) 
Heartbeat CPU 0 instructions: 153000002 cycles: 559363045 heartbeat IPC: 0.22837 cumulative IPC: 0.27194 (Simulation time: 0 hr 14 min 46 sec) 
Heartbeat CPU 0 instructions: 154000000 cycles: 561389987 heartbeat IPC: 0.493353 cumulative IPC: 0.27274 (Simulation time: 0 hr 14 min 50 sec) 
Heartbeat CPU 0 instructions: 155000003 cycles: 567036928 heartbeat IPC: 0.177088 cumulative IPC: 0.271786 (Simulation time: 0 hr 14 min 57 sec) 
Heartbeat CPU 0 instructions: 156000001 cycles: 570075261 heartbeat IPC: 0.329127 cumulative IPC: 0.272092 (Simulation time: 0 hr 15 min 2 sec) 
Heartbeat CPU 0 instructions: 157000000 cycles: 573304627 heartbeat IPC: 0.309658 cumulative IPC: 0.272304 (Simulation time: 0 hr 15 min 7 sec) 
Heartbeat CPU 0 instructions: 158000002 cycles: 576242659 heartbeat IPC: 0.340365 cumulative IPC: 0.272651 (Simulation time: 0 hr 15 min 13 sec) 
Heartbeat CPU 0 instructions: 159000000 cycles: 579372699 heartbeat IPC: 0.319484 cumulative IPC: 0.272904 (Simulation time: 0 hr 15 min 18 sec) 
Heartbeat CPU 0 instructions: 160000002 cycles: 583132412 heartbeat IPC: 0.265978 cumulative IPC: 0.27286 (Simulation time: 0 hr 15 min 24 sec) 
Heartbeat CPU 0 instructions: 161000002 cycles: 588624583 heartbeat IPC: 0.182077 cumulative IPC: 0.272012 (Simulation time: 0 hr 15 min 31 sec) 
Heartbeat CPU 0 instructions: 162000001 cycles: 590441171 heartbeat IPC: 0.550482 cumulative IPC: 0.272869 (Simulation time: 0 hr 15 min 35 sec) 
Heartbeat CPU 0 instructions: 163000000 cycles: 594234463 heartbeat IPC: 0.263623 cumulative IPC: 0.27281 (Simulation time: 0 hr 15 min 41 sec) 
Heartbeat CPU 0 instructions: 164000000 cycles: 597243368 heartbeat IPC: 0.332347 cumulative IPC: 0.273111 (Simulation time: 0 hr 15 min 46 sec) 
Heartbeat CPU 0 instructions: 165000000 cycles: 600253315 heartbeat IPC: 0.332232 cumulative IPC: 0.273407 (Simulation time: 0 hr 15 min 51 sec) 
Heartbeat CPU 0 instructions: 166000002 cycles: 603693961 heartbeat IPC: 0.290644 cumulative IPC: 0.273506 (Simulation time: 0 hr 15 min 56 sec) 
Heartbeat CPU 0 instructions: 167000000 cycles: 605960016 heartbeat IPC: 0.441295 cumulative IPC: 0.274133 (Simulation time: 0 hr 16 min 1 sec) 
Heartbeat CPU 0 instructions: 168000000 cycles: 610226028 heartbeat IPC: 0.234411 cumulative IPC: 0.273856 (Simulation time: 0 hr 16 min 7 sec) 
Heartbeat CPU 0 instructions: 169000003 cycles: 612853374 heartbeat IPC: 0.380613 cumulative IPC: 0.274314 (Simulation time: 0 hr 16 min 12 sec) 
Heartbeat CPU 0 instructions: 170000001 cycles: 615630654 heartbeat IPC: 0.360064 cumulative IPC: 0.274701 (Simulation time: 0 hr 16 min 16 sec) 
Heartbeat CPU 0 instructions: 171000000 cycles: 619513927 heartbeat IPC: 0.257514 cumulative IPC: 0.274593 (Simulation time: 0 hr 16 min 22 sec) 
Heartbeat CPU 0 instructions: 172000000 cycles: 621743255 heartbeat IPC: 0.448566 cumulative IPC: 0.275217 (Simulation time: 0 hr 16 min 26 sec) 
Heartbeat CPU 0 instructions: 173000002 cycles: 625663609 heartbeat IPC: 0.25508 cumulative IPC: 0.275091 (Simulation time: 0 hr 16 min 32 sec) 
Heartbeat CPU 0 instructions: 174000001 cycles: 627736341 heartbeat IPC: 0.482455 cumulative IPC: 0.275776 (Simulation time: 0 hr 16 min 36 sec) 
Heartbeat CPU 0 instructions: 175000002 cycles: 631700119 heartbeat IPC: 0.252285 cumulative IPC: 0.275628 (Simulation time: 0 hr 16 min 42 sec) 
Heartbeat CPU 0 instructions: 176000000 cycles: 633620230 heartbeat IPC: 0.520802 cumulative IPC: 0.276372 (Simulation time: 0 hr 16 min 46 sec) 
Heartbeat CPU 0 instructions: 177000003 cycles: 637683805 heartbeat IPC: 0.246089 cumulative IPC: 0.276179 (Simulation time: 0 hr 16 min 52 sec) 
Heartbeat CPU 0 instructions: 178000001 cycles: 639599550 heartbeat IPC: 0.521989 cumulative IPC: 0.276916 (Simulation time: 0 hr 16 min 57 sec) 
Heartbeat CPU 0 instructions: 179000000 cycles: 643666302 heartbeat IPC: 0.245896 cumulative IPC: 0.276719 (Simulation time: 0 hr 17 min 3 sec) 
Heartbeat CPU 0 instructions: 180000000 cycles: 645525406 heartbeat IPC: 0.537894 cumulative IPC: 0.277472 (Simulation time: 0 hr 17 min 7 sec) 
Heartbeat CPU 0 instructions: 181000002 cycles: 648985320 heartbeat IPC: 0.289025 cumulative IPC: 0.277534 (Simulation time: 0 hr 17 min 12 sec) 
Heartbeat CPU 0 instructions: 182000003 cycles: 655542117 heartbeat IPC: 0.152514 cumulative IPC: 0.276282 (Simulation time: 0 hr 17 min 20 sec) 
Heartbeat CPU 0 instructions: 183000003 cycles: 662193819 heartbeat IPC: 0.150337 cumulative IPC: 0.275017 (Simulation time: 0 hr 17 min 29 sec) 
Heartbeat CPU 0 instructions: 184000000 cycles: 665538280 heartbeat IPC: 0.299001 cumulative IPC: 0.275137 (Simulation time: 0 hr 17 min 34 sec) 
Heartbeat CPU 0 instructions: 185000001 cycles: 667691680 heartbeat IPC: 0.464382 cumulative IPC: 0.275748 (Simulation time: 0 hr 17 min 38 sec) 
Heartbeat CPU 0 instructions: 186000000 cycles: 672192064 heartbeat IPC: 0.222203 cumulative IPC: 0.275389 (Simulation time: 0 hr 17 min 44 sec) 
Heartbeat CPU 0 instructions: 187000000 cycles: 674726400 heartbeat IPC: 0.394581 cumulative IPC: 0.275837 (Simulation time: 0 hr 17 min 49 sec) 
Heartbeat CPU 0 instructions: 188000000 cycles: 676916067 heartbeat IPC: 0.45669 cumulative IPC: 0.276423 (Simulation time: 0 hr 17 min 53 sec) 
Heartbeat CPU 0 instructions: 189000003 cycles: 683467851 heartbeat IPC: 0.152631 cumulative IPC: 0.275235 (Simulation time: 0 hr 18 min 1 sec) 
Heartbeat CPU 0 instructions: 190000000 cycles: 690189565 heartbeat IPC: 0.148771 cumulative IPC: 0.274003 (Simulation time: 0 hr 18 min 12 sec) 
Heartbeat CPU 0 instructions: 191000002 cycles: 692368165 heartbeat IPC: 0.459011 cumulative IPC: 0.274585 (Simulation time: 0 hr 18 min 17 sec) 
Heartbeat CPU 0 instructions: 192000001 cycles: 695507686 heartbeat IPC: 0.31852 cumulative IPC: 0.274784 (Simulation time: 0 hr 18 min 22 sec) 
Heartbeat CPU 0 instructions: 193000000 cycles: 698272862 heartbeat IPC: 0.36164 cumulative IPC: 0.275128 (Simulation time: 0 hr 18 min 26 sec) 
Heartbeat CPU 0 instructions: 194000003 cycles: 701406735 heartbeat IPC: 0.319095 cumulative IPC: 0.275324 (Simulation time: 0 hr 18 min 31 sec) 
Heartbeat CPU 0 instructions: 195000001 cycles: 707706401 heartbeat IPC: 0.158738 cumulative IPC: 0.274286 (Simulation time: 0 hr 18 min 39 sec) 
Heartbeat CPU 0 instructions: 196000000 cycles: 709602992 heartbeat IPC: 0.527261 cumulative IPC: 0.274963 (Simulation time: 0 hr 18 min 43 sec) 
Heartbeat CPU 0 instructions: 197000001 cycles: 711475281 heartbeat IPC: 0.534106 cumulative IPC: 0.275645 (Simulation time: 0 hr 18 min 47 sec) 
Heartbeat CPU 0 instructions: 198000000 cycles: 717119045 heartbeat IPC: 0.177187 cumulative IPC: 0.27487 (Simulation time: 0 hr 18 min 57 sec) 
Heartbeat CPU 0 instructions: 199000003 cycles: 722716784 heartbeat IPC: 0.178644 cumulative IPC: 0.274124 (Simulation time: 0 hr 19 min 4 sec) 
Heartbeat CPU 0 instructions: 200000001 cycles: 724760338 heartbeat IPC: 0.489343 cumulative IPC: 0.274731 (Simulation time: 0 hr 19 min 8 sec) 
Heartbeat CPU 0 instructions: 201000001 cycles: 729598724 heartbeat IPC: 0.20668 cumulative IPC: 0.274279 (Simulation time: 0 hr 19 min 18 sec) 
Heartbeat CPU 0 instructions: 202000002 cycles: 733662666 heartbeat IPC: 0.246067 cumulative IPC: 0.274123 (Simulation time: 0 hr 19 min 29 sec) 
Heartbeat CPU 0 instructions: 203000000 cycles: 736195685 heartbeat IPC: 0.394785 cumulative IPC: 0.274539 (Simulation time: 0 hr 19 min 36 sec) 
Heartbeat CPU 0 instructions: 204000003 cycles: 739125352 heartbeat IPC: 0.341337 cumulative IPC: 0.274803 (Simulation time: 0 hr 19 min 41 sec) 
Heartbeat CPU 0 instructions: 205000000 cycles: 742573566 heartbeat IPC: 0.290004 cumulative IPC: 0.274874 (Simulation time: 0 hr 19 min 47 sec) 
Heartbeat CPU 0 instructions: 206000003 cycles: 744748873 heartbeat IPC: 0.459707 cumulative IPC: 0.275414 (Simulation time: 0 hr 19 min 51 sec) 
Heartbeat CPU 0 instructions: 207000000 cycles: 747778798 heartbeat IPC: 0.33004 cumulative IPC: 0.275636 (Simulation time: 0 hr 19 min 56 sec) 
Heartbeat CPU 0 instructions: 208000000 cycles: 751073112 heartbeat IPC: 0.303553 cumulative IPC: 0.275758 (Simulation time: 0 hr 20 min 1 sec) 
Heartbeat CPU 0 instructions: 209000000 cycles: 753496144 heartbeat IPC: 0.412706 cumulative IPC: 0.276199 (Simulation time: 0 hr 20 min 6 sec) 
Heartbeat CPU 0 instructions: 210000001 cycles: 757929661 heartbeat IPC: 0.225555 cumulative IPC: 0.275902 (Simulation time: 0 hr 20 min 12 sec) 
Heartbeat CPU 0 instructions: 211000001 cycles: 760444459 heartbeat IPC: 0.397646 cumulative IPC: 0.276305 (Simulation time: 0 hr 20 min 17 sec) 
Heartbeat CPU 0 instructions: 212000000 cycles: 765236344 heartbeat IPC: 0.208686 cumulative IPC: 0.275882 (Simulation time: 0 hr 20 min 23 sec) 
Heartbeat CPU 0 instructions: 213000001 cycles: 772272179 heartbeat IPC: 0.14213 cumulative IPC: 0.274662 (Simulation time: 0 hr 20 min 36 sec) 
Heartbeat CPU 0 instructions: 214000002 cycles: 778409855 heartbeat IPC: 0.162928 cumulative IPC: 0.273781 (Simulation time: 0 hr 20 min 45 sec) 
Heartbeat CPU 0 instructions: 215000002 cycles: 780370016 heartbeat IPC: 0.510162 cumulative IPC: 0.274375 (Simulation time: 0 hr 20 min 50 sec) 
Heartbeat CPU 0 instructions: 216000002 cycles: 784112733 heartbeat IPC: 0.267186 cumulative IPC: 0.274341 (Simulation time: 0 hr 20 min 55 sec) 
Heartbeat CPU 0 instructions: 217000001 cycles: 787046038 heartbeat IPC: 0.340912 cumulative IPC: 0.274589 (Simulation time: 0 hr 21 min 0 sec) 
Heartbeat CPU 0 instructions: 218000002 cycles: 789247732 heartbeat IPC: 0.454196 cumulative IPC: 0.27509 (Simulation time: 0 hr 21 min 5 sec) 
Heartbeat CPU 0 instructions: 219000001 cycles: 793137536 heartbeat IPC: 0.257082 cumulative IPC: 0.275002 (Simulation time: 0 hr 21 min 11 sec) 
Heartbeat CPU 0 instructions: 220000000 cycles: 794987059 heartbeat IPC: 0.540679 cumulative IPC: 0.27562 (Simulation time: 0 hr 21 min 15 sec) 
Heartbeat CPU 0 instructions: 221000001 cycles: 800140109 heartbeat IPC: 0.19406 cumulative IPC: 0.275095 (Simulation time: 0 hr 21 min 24 sec) 
Heartbeat CPU 0 instructions: 222000001 cycles: 803485386 heartbeat IPC: 0.298929 cumulative IPC: 0.275194 (Simulation time: 0 hr 21 min 34 sec) 
Heartbeat CPU 0 instructions: 223000000 cycles: 805325103 heartbeat IPC: 0.543561 cumulative IPC: 0.275807 (Simulation time: 0 hr 21 min 41 sec) 
Heartbeat CPU 0 instructions: 224000000 cycles: 809030666 heartbeat IPC: 0.269865 cumulative IPC: 0.27578 (Simulation time: 0 hr 21 min 47 sec) 
Heartbeat CPU 0 instructions: 225000001 cycles: 813854767 heartbeat IPC: 0.207293 cumulative IPC: 0.275374 (Simulation time: 0 hr 21 min 55 sec) 
Heartbeat CPU 0 instructions: 226000000 cycles: 815725267 heartbeat IPC: 0.534616 cumulative IPC: 0.275969 (Simulation time: 0 hr 22 min 2 sec) 
Heartbeat CPU 0 instructions: 227000003 cycles: 819748112 heartbeat IPC: 0.248581 cumulative IPC: 0.275834 (Simulation time: 0 hr 22 min 12 sec) 
Heartbeat CPU 0 instructions: 228000002 cycles: 822247302 heartbeat IPC: 0.400129 cumulative IPC: 0.276212 (Simulation time: 0 hr 22 min 21 sec) 
Heartbeat CPU 0 instructions: 229000003 cycles: 824905055 heartbeat IPC: 0.376258 cumulative IPC: 0.276535 (Simulation time: 0 hr 22 min 26 sec) 
Heartbeat CPU 0 instructions: 230000002 cycles: 830910935 heartbeat IPC: 0.166503 cumulative IPC: 0.275739 (Simulation time: 0 hr 22 min 35 sec) 
Heartbeat CPU 0 instructions: 231000000 cycles: 837540971 heartbeat IPC: 0.150828 cumulative IPC: 0.27475 (Simulation time: 0 hr 22 min 44 sec) 
Heartbeat CPU 0 instructions: 232000000 cycles: 840127399 heartbeat IPC: 0.386634 cumulative IPC: 0.275094 (Simulation time: 0 hr 22 min 48 sec) 
Heartbeat CPU 0 instructions: 233000002 cycles: 842674122 heartbeat IPC: 0.392662 cumulative IPC: 0.27545 (Simulation time: 0 hr 22 min 53 sec) 
Heartbeat CPU 0 instructions: 234000001 cycles: 847557561 heartbeat IPC: 0.204774 cumulative IPC: 0.275042 (Simulation time: 0 hr 23 min 0 sec) 
Heartbeat CPU 0 instructions: 235000000 cycles: 850314433 heartbeat IPC: 0.36273 cumulative IPC: 0.275327 (Simulation time: 0 hr 23 min 4 sec) 
Heartbeat CPU 0 instructions: 236000000 cycles: 854278050 heartbeat IPC: 0.252295 cumulative IPC: 0.27522 (Simulation time: 0 hr 23 min 11 sec) 
Heartbeat CPU 0 instructions: 237000001 cycles: 859064352 heartbeat IPC: 0.20893 cumulative IPC: 0.27485 (Simulation time: 0 hr 23 min 18 sec) 
Heartbeat CPU 0 instructions: 238000003 cycles: 860606676 heartbeat IPC: 0.648373 cumulative IPC: 0.27552 (Simulation time: 0 hr 23 min 25 sec) 
Heartbeat CPU 0 instructions: 239000001 cycles: 862151707 heartbeat IPC: 0.647235 cumulative IPC: 0.276187 (Simulation time: 0 hr 23 min 33 sec) 
Heartbeat CPU 0 instructions: 240000002 cycles: 863697928 heartbeat IPC: 0.646739 cumulative IPC: 0.27685 (Simulation time: 0 hr 23 min 40 sec) 
Heartbeat CPU 0 instructions: 241000002 cycles: 865249827 heartbeat IPC: 0.644372 cumulative IPC: 0.27751 (Simulation time: 0 hr 23 min 45 sec) 
Heartbeat CPU 0 instructions: 242000000 cycles: 866790414 heartbeat IPC: 0.649102 cumulative IPC: 0.278171 (Simulation time: 0 hr 23 min 53 sec) 
Heartbeat CPU 0 instructions: 243000003 cycles: 868333047 heartbeat IPC: 0.648244 cumulative IPC: 0.278828 (Simulation time: 0 hr 24 min 1 sec) 
Heartbeat CPU 0 instructions: 244000000 cycles: 869881436 heartbeat IPC: 0.645831 cumulative IPC: 0.279482 (Simulation time: 0 hr 24 min 8 sec) 
Heartbeat CPU 0 instructions: 245000001 cycles: 871426687 heartbeat IPC: 0.647145 cumulative IPC: 0.280134 (Simulation time: 0 hr 24 min 16 sec) 
Heartbeat CPU 0 instructions: 246000000 cycles: 872990768 heartbeat IPC: 0.639352 cumulative IPC: 0.280778 (Simulation time: 0 hr 24 min 24 sec) 
Heartbeat CPU 0 instructions: 247000001 cycles: 874586736 heartbeat IPC: 0.62658 cumulative IPC: 0.281409 (Simulation time: 0 hr 24 min 32 sec) 
Heartbeat CPU 0 instructions: 248000001 cycles: 876126117 heartbeat IPC: 0.649612 cumulative IPC: 0.282057 (Simulation time: 0 hr 24 min 39 sec) 
Heartbeat CPU 0 instructions: 249000000 cycles: 877744920 heartbeat IPC: 0.61774 cumulative IPC: 0.282676 (Simulation time: 0 hr 24 min 43 sec) 
Heartbeat CPU 0 instructions: 250000001 cycles: 879307102 heartbeat IPC: 0.640131 cumulative IPC: 0.283311 (Simulation time: 0 hr 24 min 47 sec) 
Heartbeat CPU 0 instructions: 251000000 cycles: 880939804 heartbeat IPC: 0.612481 cumulative IPC: 0.283922 (Simulation time: 0 hr 24 min 52 sec) 
Heartbeat CPU 0 instructions: 252000002 cycles: 882498008 heartbeat IPC: 0.641766 cumulative IPC: 0.284554 (Simulation time: 0 hr 24 min 56 sec) 
Heartbeat CPU 0 instructions: 253000000 cycles: 884062444 heartbeat IPC: 0.639207 cumulative IPC: 0.285182 (Simulation time: 0 hr 25 min 0 sec) 
Heartbeat CPU 0 instructions: 254000000 cycles: 885636141 heartbeat IPC: 0.635446 cumulative IPC: 0.285804 (Simulation time: 0 hr 25 min 5 sec) 
Heartbeat CPU 0 instructions: 255000003 cycles: 887193742 heartbeat IPC: 0.642015 cumulative IPC: 0.28643 (Simulation time: 0 hr 25 min 9 sec) 
Heartbeat CPU 0 instructions: 256000003 cycles: 889058787 heartbeat IPC: 0.53618 cumulative IPC: 0.286954 (Simulation time: 0 hr 25 min 13 sec) 
Heartbeat CPU 0 instructions: 257000001 cycles: 890637110 heartbeat IPC: 0.633583 cumulative IPC: 0.287569 (Simulation time: 0 hr 25 min 18 sec) 
Heartbeat CPU 0 instructions: 258000001 cycles: 892230520 heartbeat IPC: 0.627585 cumulative IPC: 0.288176 (Simulation time: 0 hr 25 min 22 sec) 
Heartbeat CPU 0 instructions: 259000000 cycles: 893846393 heartbeat IPC: 0.61886 cumulative IPC: 0.288774 (Simulation time: 0 hr 25 min 26 sec) 
Heartbeat CPU 0 instructions: 260000001 cycles: 895705233 heartbeat IPC: 0.53797 cumulative IPC: 0.289292 (Simulation time: 0 hr 25 min 30 sec) 
Heartbeat CPU 0 instructions: 261000002 cycles: 897333169 heartbeat IPC: 0.614275 cumulative IPC: 0.289882 (Simulation time: 0 hr 25 min 35 sec) 
Heartbeat CPU 0 instructions: 262000002 cycles: 898977826 heartbeat IPC: 0.60803 cumulative IPC: 0.290464 (Simulation time: 0 hr 25 min 39 sec) 
Heartbeat CPU 0 instructions: 263000000 cycles: 900660103 heartbeat IPC: 0.594431 cumulative IPC: 0.291032 (Simulation time: 0 hr 25 min 43 sec) 
Heartbeat CPU 0 instructions: 264000000 cycles: 903228778 heartbeat IPC: 0.389306 cumulative IPC: 0.291312 (Simulation time: 0 hr 25 min 47 sec) 
Heartbeat CPU 0 instructions: 265000001 cycles: 905631530 heartbeat IPC: 0.41619 cumulative IPC: 0.291643 (Simulation time: 0 hr 25 min 50 sec) 
Heartbeat CPU 0 instructions: 266000001 cycles: 908215385 heartbeat IPC: 0.387019 cumulative IPC: 0.291915 (Simulation time: 0 hr 25 min 54 sec) 
Heartbeat CPU 0 instructions: 267000003 cycles: 910509753 heartbeat IPC: 0.435851 cumulative IPC: 0.292277 (Simulation time: 0 hr 25 min 58 sec) 
Heartbeat CPU 0 instructions: 268000001 cycles: 912961037 heartbeat IPC: 0.407949 cumulative IPC: 0.292588 (Simulation time: 0 hr 26 min 2 sec) 
Heartbeat CPU 0 instructions: 269000002 cycles: 915306226 heartbeat IPC: 0.426405 cumulative IPC: 0.292931 (Simulation time: 0 hr 26 min 5 sec) 
Heartbeat CPU 0 instructions: 270000001 cycles: 917412376 heartbeat IPC: 0.4748 cumulative IPC: 0.293349 (Simulation time: 0 hr 26 min 9 sec) 
Heartbeat CPU 0 instructions: 271000001 cycles: 919752313 heartbeat IPC: 0.427362 cumulative IPC: 0.29369 (Simulation time: 0 hr 26 min 13 sec) 
Heartbeat CPU 0 instructions: 272000002 cycles: 922023582 heartbeat IPC: 0.440283 cumulative IPC: 0.294051 (Simulation time: 0 hr 26 min 17 sec) 
Heartbeat CPU 0 instructions: 273000001 cycles: 924355035 heartbeat IPC: 0.428917 cumulative IPC: 0.294392 (Simulation time: 0 hr 26 min 21 sec) 
Heartbeat CPU 0 instructions: 274000000 cycles: 927173792 heartbeat IPC: 0.354766 cumulative IPC: 0.294575 (Simulation time: 0 hr 26 min 24 sec) 
Heartbeat CPU 0 instructions: 275000000 cycles: 929411239 heartbeat IPC: 0.446938 cumulative IPC: 0.294942 (Simulation time: 0 hr 26 min 28 sec) 
Heartbeat CPU 0 instructions: 276000000 cycles: 932274095 heartbeat IPC: 0.349302 cumulative IPC: 0.295109 (Simulation time: 0 hr 26 min 32 sec) 
Heartbeat CPU 0 instructions: 277000000 cycles: 934725083 heartbeat IPC: 0.407999 cumulative IPC: 0.295405 (Simulation time: 0 hr 26 min 36 sec) 
Heartbeat CPU 0 instructions: 278000000 cycles: 936923904 heartbeat IPC: 0.454789 cumulative IPC: 0.295779 (Simulation time: 0 hr 26 min 39 sec) 
Heartbeat CPU 0 instructions: 279000002 cycles: 939558072 heartbeat IPC: 0.379627 cumulative IPC: 0.296015 (Simulation time: 0 hr 26 min 43 sec) 
Heartbeat CPU 0 instructions: 280000000 cycles: 941850375 heartbeat IPC: 0.436242 cumulative IPC: 0.296356 (Simulation time: 0 hr 26 min 47 sec) 
Heartbeat CPU 0 instructions: 281000000 cycles: 944231497 heartbeat IPC: 0.41997 cumulative IPC: 0.296668 (Simulation time: 0 hr 26 min 51 sec) 
Heartbeat CPU 0 instructions: 282000001 cycles: 946768339 heartbeat IPC: 0.394191 cumulative IPC: 0.296929 (Simulation time: 0 hr 26 min 55 sec) 
Heartbeat CPU 0 instructions: 283000001 cycles: 949010047 heartbeat IPC: 0.446088 cumulative IPC: 0.297282 (Simulation time: 0 hr 26 min 59 sec) 
Heartbeat CPU 0 instructions: 284000001 cycles: 951936715 heartbeat IPC: 0.341686 cumulative IPC: 0.297418 (Simulation time: 0 hr 27 min 2 sec) 
Heartbeat CPU 0 instructions: 285000001 cycles: 954214178 heartbeat IPC: 0.439085 cumulative IPC: 0.297757 (Simulation time: 0 hr 27 min 6 sec) 
Heartbeat CPU 0 instructions: 286000000 cycles: 956769279 heartbeat IPC: 0.391374 cumulative IPC: 0.298007 (Simulation time: 0 hr 27 min 10 sec) 
Heartbeat CPU 0 instructions: 287000000 cycles: 958967951 heartbeat IPC: 0.45482 cumulative IPC: 0.298367 (Simulation time: 0 hr 27 min 16 sec) 
Heartbeat CPU 0 instructions: 288000000 cycles: 963087864 heartbeat IPC: 0.242724 cumulative IPC: 0.298128 (Simulation time: 0 hr 27 min 27 sec) 
Heartbeat CPU 0 instructions: 289000002 cycles: 966144239 heartbeat IPC: 0.327186 cumulative IPC: 0.29822 (Simulation time: 0 hr 27 min 35 sec) 
Heartbeat CPU 0 instructions: 290000001 cycles: 968632269 heartbeat IPC: 0.401924 cumulative IPC: 0.298487 (Simulation time: 0 hr 27 min 43 sec) 
Heartbeat CPU 0 instructions: 291000001 cycles: 972700044 heartbeat IPC: 0.245835 cumulative IPC: 0.298267 (Simulation time: 0 hr 27 min 54 sec) 
Heartbeat CPU 0 instructions: 292000001 cycles: 977944178 heartbeat IPC: 0.190689 cumulative IPC: 0.297689 (Simulation time: 0 hr 28 min 6 sec) 
Heartbeat CPU 0 instructions: 293000000 cycles: 980190368 heartbeat IPC: 0.445198 cumulative IPC: 0.298028 (Simulation time: 0 hr 28 min 13 sec) 
Heartbeat CPU 0 instructions: 294000000 cycles: 984435941 heartbeat IPC: 0.235539 cumulative IPC: 0.297758 (Simulation time: 0 hr 28 min 23 sec) 
Heartbeat CPU 0 instructions: 295000003 cycles: 986325392 heartbeat IPC: 0.529256 cumulative IPC: 0.298202 (Simulation time: 0 hr 28 min 30 sec) 
Heartbeat CPU 0 instructions: 296000002 cycles: 990520151 heartbeat IPC: 0.238392 cumulative IPC: 0.297948 (Simulation time: 0 hr 28 min 41 sec) 
Heartbeat CPU 0 instructions: 297000000 cycles: 995143164 heartbeat IPC: 0.216309 cumulative IPC: 0.297569 (Simulation time: 0 hr 28 min 52 sec) 
Heartbeat CPU 0 instructions: 298000000 cycles: 997366559 heartbeat IPC: 0.449763 cumulative IPC: 0.297908 (Simulation time: 0 hr 28 min 59 sec) 
Heartbeat CPU 0 instructions: 299000001 cycles: 1001469498 heartbeat IPC: 0.243728 cumulative IPC: 0.297686 (Simulation time: 0 hr 29 min 10 sec) 
Heartbeat CPU 0 instructions: 300000002 cycles: 1003383000 heartbeat IPC: 0.522603 cumulative IPC: 0.298115 (Simulation time: 0 hr 29 min 16 sec) 
Heartbeat CPU 0 instructions: 301000003 cycles: 1007555173 heartbeat IPC: 0.239683 cumulative IPC: 0.297873 (Simulation time: 0 hr 29 min 24 sec) 
Heartbeat CPU 0 instructions: 302000002 cycles: 1009546068 heartbeat IPC: 0.502286 cumulative IPC: 0.298277 (Simulation time: 0 hr 29 min 31 sec) 
Heartbeat CPU 0 instructions: 303000002 cycles: 1013373239 heartbeat IPC: 0.26129 cumulative IPC: 0.298137 (Simulation time: 0 hr 29 min 42 sec) 
Heartbeat CPU 0 instructions: 304000002 cycles: 1020295704 heartbeat IPC: 0.144457 cumulative IPC: 0.297094 (Simulation time: 0 hr 29 min 57 sec) 
Heartbeat CPU 0 instructions: 305000000 cycles: 1022311586 heartbeat IPC: 0.49606 cumulative IPC: 0.297486 (Simulation time: 0 hr 30 min 4 sec) 
Heartbeat CPU 0 instructions: 306000000 cycles: 1025488270 heartbeat IPC: 0.314794 cumulative IPC: 0.29754 (Simulation time: 0 hr 30 min 13 sec) 
Heartbeat CPU 0 instructions: 307000002 cycles: 1031874120 heartbeat IPC: 0.156597 cumulative IPC: 0.296667 (Simulation time: 0 hr 30 min 27 sec) 
Heartbeat CPU 0 instructions: 308000000 cycles: 1037536551 heartbeat IPC: 0.176602 cumulative IPC: 0.296012 (Simulation time: 0 hr 30 min 40 sec) 
Heartbeat CPU 0 instructions: 309000001 cycles: 1039822571 heartbeat IPC: 0.437442 cumulative IPC: 0.296323 (Simulation time: 0 hr 30 min 48 sec) 
Heartbeat CPU 0 instructions: 310000002 cycles: 1043969256 heartbeat IPC: 0.241157 cumulative IPC: 0.296104 (Simulation time: 0 hr 30 min 59 sec) 
Heartbeat CPU 0 instructions: 311000002 cycles: 1046083835 heartbeat IPC: 0.472907 cumulative IPC: 0.296461 (Simulation time: 0 hr 31 min 7 sec) 
Heartbeat CPU 0 instructions: 312000002 cycles: 1048154715 heartbeat IPC: 0.482886 cumulative IPC: 0.29683 (Simulation time: 0 hr 31 min 15 sec) 
Heartbeat CPU 0 instructions: 313000002 cycles: 1052552515 heartbeat IPC: 0.227386 cumulative IPC: 0.296539 (Simulation time: 0 hr 31 min 26 sec) 
Heartbeat CPU 0 instructions: 314000001 cycles: 1059349030 heartbeat IPC: 0.147134 cumulative IPC: 0.29558 (Simulation time: 0 hr 31 min 41 sec) 
Heartbeat CPU 0 instructions: 315000000 cycles: 1066062531 heartbeat IPC: 0.148953 cumulative IPC: 0.294657 (Simulation time: 0 hr 31 min 57 sec) 
Heartbeat CPU 0 instructions: 316000000 cycles: 1071611675 heartbeat IPC: 0.180208 cumulative IPC: 0.294064 (Simulation time: 0 hr 32 min 10 sec) 
Heartbeat CPU 0 instructions: 317000002 cycles: 1073800017 heartbeat IPC: 0.456968 cumulative IPC: 0.294396 (Simulation time: 0 hr 32 min 18 sec) 
Heartbeat CPU 0 instructions: 318000000 cycles: 1078778425 heartbeat IPC: 0.200867 cumulative IPC: 0.293964 (Simulation time: 0 hr 32 min 30 sec) 
Heartbeat CPU 0 instructions: 319000000 cycles: 1085621338 heartbeat IPC: 0.146137 cumulative IPC: 0.293032 (Simulation time: 0 hr 32 min 47 sec) 
Heartbeat CPU 0 instructions: 320000002 cycles: 1089759260 heartbeat IPC: 0.241668 cumulative IPC: 0.292837 (Simulation time: 0 hr 32 min 59 sec) 
Heartbeat CPU 0 instructions: 321000002 cycles: 1091942677 heartbeat IPC: 0.457998 cumulative IPC: 0.293167 (Simulation time: 0 hr 33 min 6 sec) 
Heartbeat CPU 0 instructions: 322000000 cycles: 1098278137 heartbeat IPC: 0.157841 cumulative IPC: 0.292386 (Simulation time: 0 hr 33 min 22 sec) 
Heartbeat CPU 0 instructions: 323000000 cycles: 1100307771 heartbeat IPC: 0.4927 cumulative IPC: 0.292756 (Simulation time: 0 hr 33 min 30 sec) 
Heartbeat CPU 0 instructions: 324000000 cycles: 1103264898 heartbeat IPC: 0.338166 cumulative IPC: 0.292878 (Simulation time: 0 hr 33 min 39 sec) 
Heartbeat CPU 0 instructions: 325000001 cycles: 1106629710 heartbeat IPC: 0.297194 cumulative IPC: 0.292891 (Simulation time: 0 hr 33 min 49 sec) 
Heartbeat CPU 0 instructions: 326000000 cycles: 1109473300 heartbeat IPC: 0.351668 cumulative IPC: 0.293042 (Simulation time: 0 hr 33 min 59 sec) 
Heartbeat CPU 0 instructions: 327000002 cycles: 1115932952 heartbeat IPC: 0.154807 cumulative IPC: 0.292241 (Simulation time: 0 hr 34 min 15 sec) 
Heartbeat CPU 0 instructions: 328000001 cycles: 1120049942 heartbeat IPC: 0.242896 cumulative IPC: 0.29206 (Simulation time: 0 hr 34 min 27 sec) 
Heartbeat CPU 0 instructions: 329000002 cycles: 1122676183 heartbeat IPC: 0.380773 cumulative IPC: 0.292267 (Simulation time: 0 hr 34 min 36 sec) 
Heartbeat CPU 0 instructions: 330000000 cycles: 1127727800 heartbeat IPC: 0.197956 cumulative IPC: 0.291845 (Simulation time: 0 hr 34 min 49 sec) 
Heartbeat CPU 0 instructions: 331000001 cycles: 1130068697 heartbeat IPC: 0.427187 cumulative IPC: 0.292125 (Simulation time: 0 hr 34 min 57 sec) 
Heartbeat CPU 0 instructions: 332000001 cycles: 1132274847 heartbeat IPC: 0.453278 cumulative IPC: 0.292439 (Simulation time: 0 hr 35 min 5 sec) 
Heartbeat CPU 0 instructions: 333000001 cycles: 1136623163 heartbeat IPC: 0.229974 cumulative IPC: 0.2922 (Simulation time: 0 hr 35 min 18 sec) 
Heartbeat CPU 0 instructions: 334000000 cycles: 1138604349 heartbeat IPC: 0.504748 cumulative IPC: 0.29257 (Simulation time: 0 hr 35 min 26 sec) 
Heartbeat CPU 0 instructions: 335000000 cycles: 1140517633 heartbeat IPC: 0.522662 cumulative IPC: 0.292956 (Simulation time: 0 hr 35 min 34 sec) 
Heartbeat CPU 0 instructions: 336000002 cycles: 1144645021 heartbeat IPC: 0.242284 cumulative IPC: 0.292773 (Simulation time: 0 hr 35 min 46 sec) 
Heartbeat CPU 0 instructions: 337000000 cycles: 1147173757 heartbeat IPC: 0.395454 cumulative IPC: 0.293 (Simulation time: 0 hr 35 min 55 sec) 
Heartbeat CPU 0 instructions: 338000003 cycles: 1151940898 heartbeat IPC: 0.20977 cumulative IPC: 0.292655 (Simulation time: 0 hr 36 min 7 sec) 
Heartbeat CPU 0 instructions: 339000000 cycles: 1154431543 heartbeat IPC: 0.401501 cumulative IPC: 0.29289 (Simulation time: 0 hr 36 min 16 sec) 
Heartbeat CPU 0 instructions: 340000000 cycles: 1156868215 heartbeat IPC: 0.410396 cumulative IPC: 0.293138 (Simulation time: 0 hr 36 min 24 sec) 
Heartbeat CPU 0 instructions: 341000000 cycles: 1163408345 heartbeat IPC: 0.152902 cumulative IPC: 0.292349 (Simulation time: 0 hr 36 min 41 sec) 
Heartbeat CPU 0 instructions: 342000001 cycles: 1170384425 heartbeat IPC: 0.143347 cumulative IPC: 0.291461 (Simulation time: 0 hr 36 min 58 sec) 
Heartbeat CPU 0 instructions: 343000000 cycles: 1176823506 heartbeat IPC: 0.155302 cumulative IPC: 0.290715 (Simulation time: 0 hr 37 min 14 sec) 
Heartbeat CPU 0 instructions: 344000000 cycles: 1183526252 heartbeat IPC: 0.149193 cumulative IPC: 0.289914 (Simulation time: 0 hr 37 min 31 sec) 
Heartbeat CPU 0 instructions: 345000000 cycles: 1185600764 heartbeat IPC: 0.482041 cumulative IPC: 0.29025 (Simulation time: 0 hr 37 min 40 sec) 
Heartbeat CPU 0 instructions: 346000000 cycles: 1187370169 heartbeat IPC: 0.565162 cumulative IPC: 0.29066 (Simulation time: 0 hr 37 min 48 sec) 
Heartbeat CPU 0 instructions: 347000002 cycles: 1191008429 heartbeat IPC: 0.274857 cumulative IPC: 0.290612 (Simulation time: 0 hr 37 min 59 sec) 
Heartbeat CPU 0 instructions: 348000001 cycles: 1196224550 heartbeat IPC: 0.191713 cumulative IPC: 0.29018 (Simulation time: 0 hr 38 min 13 sec) 
Heartbeat CPU 0 instructions: 349000002 cycles: 1198274128 heartbeat IPC: 0.487906 cumulative IPC: 0.290518 (Simulation time: 0 hr 38 min 21 sec) 
Heartbeat CPU 0 instructions: 350000000 cycles: 1203000591 heartbeat IPC: 0.211574 cumulative IPC: 0.290208 (Simulation time: 0 hr 38 min 34 sec) 
Heartbeat CPU 0 instructions: 351000002 cycles: 1209914604 heartbeat IPC: 0.144634 cumulative IPC: 0.289376 (Simulation time: 0 hr 38 min 51 sec) 
Heartbeat CPU 0 instructions: 352000000 cycles: 1216672455 heartbeat IPC: 0.147976 cumulative IPC: 0.28859 (Simulation time: 0 hr 39 min 8 sec) 
Heartbeat CPU 0 instructions: 353000002 cycles: 1219272324 heartbeat IPC: 0.384636 cumulative IPC: 0.288795 (Simulation time: 0 hr 39 min 18 sec) 
Heartbeat CPU 0 instructions: 354000002 cycles: 1221632191 heartbeat IPC: 0.423753 cumulative IPC: 0.289056 (Simulation time: 0 hr 39 min 27 sec) 
Heartbeat CPU 0 instructions: 355000000 cycles: 1225363276 heartbeat IPC: 0.268018 cumulative IPC: 0.288992 (Simulation time: 0 hr 39 min 38 sec) 
Heartbeat CPU 0 instructions: 356000000 cycles: 1227666637 heartbeat IPC: 0.434148 cumulative IPC: 0.289264 (Simulation time: 0 hr 39 min 47 sec) 
Heartbeat CPU 0 instructions: 357000000 cycles: 1229797092 heartbeat IPC: 0.469383 cumulative IPC: 0.289576 (Simulation time: 0 hr 39 min 55 sec) 
Heartbeat CPU 0 instructions: 358000001 cycles: 1236314425 heartbeat IPC: 0.153437 cumulative IPC: 0.288859 (Simulation time: 0 hr 40 min 11 sec) 
Heartbeat CPU 0 instructions: 359000001 cycles: 1242975254 heartbeat IPC: 0.150131 cumulative IPC: 0.288115 (Simulation time: 0 hr 40 min 28 sec) 
Heartbeat CPU 0 instructions: 360000000 cycles: 1247580747 heartbeat IPC: 0.217132 cumulative IPC: 0.287853 (Simulation time: 0 hr 40 min 40 sec) 
Heartbeat CPU 0 instructions: 361000000 cycles: 1249553117 heartbeat IPC: 0.507004 cumulative IPC: 0.288199 (Simulation time: 0 hr 40 min 48 sec) 
Heartbeat CPU 0 instructions: 362000001 cycles: 1253761664 heartbeat IPC: 0.237612 cumulative IPC: 0.288029 (Simulation time: 0 hr 41 min 0 sec) 
Heartbeat CPU 0 instructions: 363000000 cycles: 1255770273 heartbeat IPC: 0.497856 cumulative IPC: 0.288365 (Simulation time: 0 hr 41 min 8 sec) 
Heartbeat CPU 0 instructions: 364000003 cycles: 1259881456 heartbeat IPC: 0.24324 cumulative IPC: 0.288217 (Simulation time: 0 hr 41 min 20 sec) 
Heartbeat CPU 0 instructions: 365000002 cycles: 1266557855 heartbeat IPC: 0.149781 cumulative IPC: 0.287487 (Simulation time: 0 hr 41 min 36 sec) 
Heartbeat CPU 0 instructions: 366000001 cycles: 1269040325 heartbeat IPC: 0.402824 cumulative IPC: 0.287713 (Simulation time: 0 hr 41 min 45 sec) 
Heartbeat CPU 0 instructions: 367000001 cycles: 1271479684 heartbeat IPC: 0.409944 cumulative IPC: 0.287948 (Simulation time: 0 hr 41 min 53 sec) 
Heartbeat CPU 0 instructions: 368000000 cycles: 1277997254 heartbeat IPC: 0.153431 cumulative IPC: 0.287261 (Simulation time: 0 hr 42 min 10 sec) 
Heartbeat CPU 0 instructions: 369000000 cycles: 1280294475 heartbeat IPC: 0.435309 cumulative IPC: 0.287527 (Simulation time: 0 hr 42 min 17 sec) 
Heartbeat CPU 0 instructions: 370000003 cycles: 1283984558 heartbeat IPC: 0.270997 cumulative IPC: 0.28748 (Simulation time: 0 hr 42 min 28 sec) 
Heartbeat CPU 0 instructions: 371000003 cycles: 1286254405 heartbeat IPC: 0.440558 cumulative IPC: 0.28775 (Simulation time: 0 hr 42 min 36 sec) 
Heartbeat CPU 0 instructions: 372000003 cycles: 1288384011 heartbeat IPC: 0.46957 cumulative IPC: 0.288051 (Simulation time: 0 hr 42 min 44 sec) 
Heartbeat CPU 0 instructions: 373000000 cycles: 1292984792 heartbeat IPC: 0.217354 cumulative IPC: 0.287799 (Simulation time: 0 hr 42 min 57 sec) 
Heartbeat CPU 0 instructions: 374000000 cycles: 1295071981 heartbeat IPC: 0.479113 cumulative IPC: 0.288107 (Simulation time: 0 hr 43 min 5 sec) 
Heartbeat CPU 0 instructions: 375000003 cycles: 1298332160 heartbeat IPC: 0.306733 cumulative IPC: 0.288154 (Simulation time: 0 hr 43 min 15 sec) 
Heartbeat CPU 0 instructions: 376000000 cycles: 1305113251 heartbeat IPC: 0.147468 cumulative IPC: 0.287423 (Simulation time: 0 hr 43 min 32 sec) 
Heartbeat CPU 0 instructions: 377000000 cycles: 1308453616 heartbeat IPC: 0.299368 cumulative IPC: 0.287453 (Simulation time: 0 hr 43 min 43 sec) 
Heartbeat CPU 0 instructions: 378000001 cycles: 1310277703 heartbeat IPC: 0.54822 cumulative IPC: 0.287817 (Simulation time: 0 hr 43 min 51 sec) 
Heartbeat CPU 0 instructions: 379000001 cycles: 1312872696 heartbeat IPC: 0.385357 cumulative IPC: 0.288009 (Simulation time: 0 hr 44 min 0 sec) 
Heartbeat CPU 0 instructions: 380000001 cycles: 1319047259 heartbeat IPC: 0.161955 cumulative IPC: 0.287419 (Simulation time: 0 hr 44 min 15 sec) 
Heartbeat CPU 0 instructions: 381000001 cycles: 1322987557 heartbeat IPC: 0.253788 cumulative IPC: 0.287319 (Simulation time: 0 hr 44 min 26 sec) 
Heartbeat CPU 0 instructions: 382000000 cycles: 1324944275 heartbeat IPC: 0.511059 cumulative IPC: 0.287649 (Simulation time: 0 hr 44 min 34 sec) 
Heartbeat CPU 0 instructions: 383000001 cycles: 1330738487 heartbeat IPC: 0.172586 cumulative IPC: 0.287148 (Simulation time: 0 hr 44 min 49 sec) 
Heartbeat CPU 0 instructions: 384000002 cycles: 1333460352 heartbeat IPC: 0.367396 cumulative IPC: 0.287312 (Simulation time: 0 hr 44 min 58 sec) 
Heartbeat CPU 0 instructions: 385000000 cycles: 1336044089 heartbeat IPC: 0.387036 cumulative IPC: 0.287505 (Simulation time: 0 hr 45 min 6 sec) 
Heartbeat CPU 0 instructions: 386000001 cycles: 1339698178 heartbeat IPC: 0.273666 cumulative IPC: 0.287467 (Simulation time: 0 hr 45 min 17 sec) 
Heartbeat CPU 0 instructions: 387000000 cycles: 1341621468 heartbeat IPC: 0.519942 cumulative IPC: 0.287801 (Simulation time: 0 hr 45 min 25 sec) 
Heartbeat CPU 0 instructions: 388000000 cycles: 1346453105 heartbeat IPC: 0.206969 cumulative IPC: 0.287511 (Simulation time: 0 hr 45 min 38 sec) 
Heartbeat CPU 0 instructions: 389000000 cycles: 1353230841 heartbeat IPC: 0.147542 cumulative IPC: 0.286809 (Simulation time: 0 hr 45 min 54 sec) 
Heartbeat CPU 0 instructions: 390000003 cycles: 1357320144 heartbeat IPC: 0.244541 cumulative IPC: 0.286682 (Simulation time: 0 hr 46 min 6 sec) 
Heartbeat CPU 0 instructions: 391000000 cycles: 1359329768 heartbeat IPC: 0.497604 cumulative IPC: 0.286994 (Simulation time: 0 hr 46 min 14 sec) 
Heartbeat CPU 0 instructions: 392000000 cycles: 1362261941 heartbeat IPC: 0.341044 cumulative IPC: 0.28711 (Simulation time: 0 hr 46 min 23 sec) 
Heartbeat CPU 0 instructions: 393000002 cycles: 1365864426 heartbeat IPC: 0.277587 cumulative IPC: 0.287085 (Simulation time: 0 hr 46 min 34 sec) 
Heartbeat CPU 0 instructions: 394000001 cycles: 1367966677 heartbeat IPC: 0.47568 cumulative IPC: 0.287375 (Simulation time: 0 hr 46 min 42 sec) 
Heartbeat CPU 0 instructions: 395000003 cycles: 1373197024 heartbeat IPC: 0.191192 cumulative IPC: 0.287009 (Simulation time: 0 hr 46 min 56 sec) 
Heartbeat CPU 0 instructions: 396000000 cycles: 1377338632 heartbeat IPC: 0.241451 cumulative IPC: 0.286871 (Simulation time: 0 hr 47 min 7 sec) 
Heartbeat CPU 0 instructions: 397000001 cycles: 1379399804 heartbeat IPC: 0.485161 cumulative IPC: 0.287168 (Simulation time: 0 hr 47 min 15 sec) 
Heartbeat CPU 0 instructions: 398000003 cycles: 1384526807 heartbeat IPC: 0.195046 cumulative IPC: 0.286827 (Simulation time: 0 hr 47 min 28 sec) 
Heartbeat CPU 0 instructions: 399000002 cycles: 1391205407 heartbeat IPC: 0.149732 cumulative IPC: 0.286168 (Simulation time: 0 hr 47 min 44 sec) 
Heartbeat CPU 0 instructions: 400000002 cycles: 1397746392 heartbeat IPC: 0.152882 cumulative IPC: 0.285544 (Simulation time: 0 hr 48 min 0 sec) 
Heartbeat CPU 0 instructions: 401000002 cycles: 1399631515 heartbeat IPC: 0.530469 cumulative IPC: 0.285874 (Simulation time: 0 hr 48 min 7 sec) 
Heartbeat CPU 0 instructions: 402000001 cycles: 1402160912 heartbeat IPC: 0.395351 cumulative IPC: 0.286072 (Simulation time: 0 hr 48 min 16 sec) 
Heartbeat CPU 0 instructions: 403000000 cycles: 1405585900 heartbeat IPC: 0.291972 cumulative IPC: 0.286086 (Simulation time: 0 hr 48 min 26 sec) 
Heartbeat CPU 0 instructions: 404000001 cycles: 1407398822 heartbeat IPC: 0.551596 cumulative IPC: 0.286428 (Simulation time: 0 hr 48 min 33 sec) 
Heartbeat CPU 0 instructions: 405000000 cycles: 1411407223 heartbeat IPC: 0.249476 cumulative IPC: 0.286323 (Simulation time: 0 hr 48 min 44 sec) 
Heartbeat CPU 0 instructions: 406000000 cycles: 1413173648 heartbeat IPC: 0.566115 cumulative IPC: 0.286673 (Simulation time: 0 hr 48 min 51 sec) 
Heartbeat CPU 0 instructions: 407000000 cycles: 1416969559 heartbeat IPC: 0.263441 cumulative IPC: 0.286611 (Simulation time: 0 hr 49 min 2 sec) 
Heartbeat CPU 0 instructions: 408000001 cycles: 1419119698 heartbeat IPC: 0.465087 cumulative IPC: 0.286882 (Simulation time: 0 hr 49 min 10 sec) 
Heartbeat CPU 0 instructions: 409000000 cycles: 1422831362 heartbeat IPC: 0.269421 cumulative IPC: 0.286836 (Simulation time: 0 hr 49 min 20 sec) 
Heartbeat CPU 0 instructions: 410000000 cycles: 1428336062 heartbeat IPC: 0.181663 cumulative IPC: 0.286431 (Simulation time: 0 hr 49 min 35 sec) 
Heartbeat CPU 0 instructions: 411000001 cycles: 1430366374 heartbeat IPC: 0.492536 cumulative IPC: 0.286723 (Simulation time: 0 hr 49 min 44 sec) 
Heartbeat CPU 0 instructions: 412000001 cycles: 1432473469 heartbeat IPC: 0.474587 cumulative IPC: 0.287 (Simulation time: 0 hr 49 min 52 sec) 
Heartbeat CPU 0 instructions: 413000002 cycles: 1436897951 heartbeat IPC: 0.226015 cumulative IPC: 0.286812 (Simulation time: 0 hr 50 min 4 sec) 
Heartbeat CPU 0 instructions: 414000002 cycles: 1438879615 heartbeat IPC: 0.504626 cumulative IPC: 0.287112 (Simulation time: 0 hr 50 min 12 sec) 
Heartbeat CPU 0 instructions: 415000003 cycles: 1443203589 heartbeat IPC: 0.231269 cumulative IPC: 0.286944 (Simulation time: 0 hr 50 min 24 sec) 
Heartbeat CPU 0 instructions: 416000001 cycles: 1445144850 heartbeat IPC: 0.515128 cumulative IPC: 0.287251 (Simulation time: 0 hr 50 min 33 sec) 
Heartbeat CPU 0 instructions: 417000001 cycles: 1447988794 heartbeat IPC: 0.351624 cumulative IPC: 0.287378 (Simulation time: 0 hr 50 min 42 sec) 
Heartbeat CPU 0 instructions: 418000000 cycles: 1453814142 heartbeat IPC: 0.171663 cumulative IPC: 0.286914 (Simulation time: 0 hr 50 min 57 sec) 
Heartbeat CPU 0 instructions: 419000003 cycles: 1455580263 heartbeat IPC: 0.566214 cumulative IPC: 0.287253 (Simulation time: 0 hr 51 min 5 sec) 
Heartbeat CPU 0 instructions: 420000002 cycles: 1459361026 heartbeat IPC: 0.264497 cumulative IPC: 0.287194 (Simulation time: 0 hr 51 min 16 sec) 
Heartbeat CPU 0 instructions: 421000001 cycles: 1466045810 heartbeat IPC: 0.149593 cumulative IPC: 0.286566 (Simulation time: 0 hr 51 min 33 sec) 
Heartbeat CPU 0 instructions: 422000003 cycles: 1468373088 heartbeat IPC: 0.429687 cumulative IPC: 0.286793 (Simulation time: 0 hr 51 min 41 sec) 
Heartbeat CPU 0 instructions: 423000000 cycles: 1470911972 heartbeat IPC: 0.393873 cumulative IPC: 0.286978 (Simulation time: 0 hr 51 min 51 sec) 
Heartbeat CPU 0 instructions: 424000001 cycles: 1475176933 heartbeat IPC: 0.234469 cumulative IPC: 0.286826 (Simulation time: 0 hr 52 min 3 sec) 
Heartbeat CPU 0 instructions: 425000001 cycles: 1477021990 heartbeat IPC: 0.541989 cumulative IPC: 0.287145 (Simulation time: 0 hr 52 min 10 sec) 
Heartbeat CPU 0 instructions: 426000000 cycles: 1479853628 heartbeat IPC: 0.353152 cumulative IPC: 0.287271 (Simulation time: 0 hr 52 min 20 sec) 
Heartbeat CPU 0 instructions: 427000001 cycles: 1486229844 heartbeat IPC: 0.156833 cumulative IPC: 0.286711 (Simulation time: 0 hr 52 min 36 sec) 
Heartbeat CPU 0 instructions: 428000003 cycles: 1493107596 heartbeat IPC: 0.145397 cumulative IPC: 0.28606 (Simulation time: 0 hr 52 min 52 sec) 
Heartbeat CPU 0 instructions: 429000000 cycles: 1497481822 heartbeat IPC: 0.228611 cumulative IPC: 0.285892 (Simulation time: 0 hr 53 min 4 sec) 
Heartbeat CPU 0 instructions: 430000003 cycles: 1499467991 heartbeat IPC: 0.503483 cumulative IPC: 0.286181 (Simulation time: 0 hr 53 min 12 sec) 
Heartbeat CPU 0 instructions: 431000000 cycles: 1503603576 heartbeat IPC: 0.241803 cumulative IPC: 0.286059 (Simulation time: 0 hr 53 min 24 sec) 
Heartbeat CPU 0 instructions: 432000000 cycles: 1505437936 heartbeat IPC: 0.545149 cumulative IPC: 0.286374 (Simulation time: 0 hr 53 min 32 sec) 
Heartbeat CPU 0 instructions: 433000002 cycles: 1508777428 heartbeat IPC: 0.299447 cumulative IPC: 0.286403 (Simulation time: 0 hr 53 min 42 sec) 
Heartbeat CPU 0 instructions: 434000000 cycles: 1511316677 heartbeat IPC: 0.393816 cumulative IPC: 0.286584 (Simulation time: 0 hr 53 min 51 sec) 
Heartbeat CPU 0 instructions: 435000001 cycles: 1513589654 heartbeat IPC: 0.439952 cumulative IPC: 0.286814 (Simulation time: 0 hr 53 min 59 sec) 
Heartbeat CPU 0 instructions: 436000002 cycles: 1520041291 heartbeat IPC: 0.155 cumulative IPC: 0.286255 (Simulation time: 0 hr 54 min 15 sec) 
Heartbeat CPU 0 instructions: 437000003 cycles: 1524392358 heartbeat IPC: 0.229829 cumulative IPC: 0.286094 (Simulation time: 0 hr 54 min 28 sec) 
Heartbeat CPU 0 instructions: 438000002 cycles: 1526135617 heartbeat IPC: 0.573638 cumulative IPC: 0.286422 (Simulation time: 0 hr 54 min 35 sec) 
Heartbeat CPU 0 instructions: 439000001 cycles: 1530364961 heartbeat IPC: 0.236443 cumulative IPC: 0.286284 (Simulation time: 0 hr 54 min 46 sec) 
Heartbeat CPU 0 instructions: 440000000 cycles: 1537046520 heartbeat IPC: 0.149666 cumulative IPC: 0.28569 (Simulation time: 0 hr 55 min 2 sec) 
Heartbeat CPU 0 instructions: 441000000 cycles: 1541834050 heartbeat IPC: 0.208876 cumulative IPC: 0.285451 (Simulation time: 0 hr 55 min 15 sec) 
Heartbeat CPU 0 instructions: 442000002 cycles: 1543867824 heartbeat IPC: 0.491698 cumulative IPC: 0.285723 (Simulation time: 0 hr 55 min 23 sec) 
Heartbeat CPU 0 instructions: 443000001 cycles: 1547772257 heartbeat IPC: 0.256119 cumulative IPC: 0.285648 (Simulation time: 0 hr 55 min 35 sec) 
Heartbeat CPU 0 instructions: 444000001 cycles: 1552735004 heartbeat IPC: 0.201501 cumulative IPC: 0.285379 (Simulation time: 0 hr 55 min 48 sec) 
Heartbeat CPU 0 instructions: 445000001 cycles: 1554632327 heartbeat IPC: 0.527058 cumulative IPC: 0.285674 (Simulation time: 0 hr 55 min 56 sec) 
Heartbeat CPU 0 instructions: 446000001 cycles: 1558889338 heartbeat IPC: 0.234907 cumulative IPC: 0.285536 (Simulation time: 0 hr 56 min 9 sec) 
Heartbeat CPU 0 instructions: 447000000 cycles: 1563496211 heartbeat IPC: 0.217067 cumulative IPC: 0.285334 (Simulation time: 0 hr 56 min 22 sec) 
Heartbeat CPU 0 instructions: 448000000 cycles: 1565744536 heartbeat IPC: 0.444776 cumulative IPC: 0.285563 (Simulation time: 0 hr 56 min 31 sec) 
Heartbeat CPU 0 instructions: 449000000 cycles: 1567842834 heartbeat IPC: 0.476577 cumulative IPC: 0.285819 (Simulation time: 0 hr 56 min 39 sec) 
Heartbeat CPU 0 instructions: 450000000 cycles: 1572315822 heartbeat IPC: 0.223564 cumulative IPC: 0.285642 (Simulation time: 0 hr 56 min 51 sec) 

Warmup complete CPU 0 instructions: 450000004 cycles: 1572315823 (Simulation time: 0 hr 56 min 51 sec) 

Heartbeat CPU 0 instructions: 451000000 cycles: 1573725625 heartbeat IPC: 0.709319 cumulative IPC: 0.709317 (Simulation time: 0 hr 56 min 59 sec) 
Heartbeat CPU 0 instructions: 452000003 cycles: 1576018452 heartbeat IPC: 0.436144 cumulative IPC: 0.540156 (Simulation time: 0 hr 57 min 8 sec) 
Heartbeat CPU 0 instructions: 453000003 cycles: 1577459691 heartbeat IPC: 0.693847 cumulative IPC: 0.583219 (Simulation time: 0 hr 57 min 16 sec) 
Heartbeat CPU 0 instructions: 454000003 cycles: 1579423311 heartbeat IPC: 0.509264 cumulative IPC: 0.562787 (Simulation time: 0 hr 57 min 24 sec) 
Heartbeat CPU 0 instructions: 455000001 cycles: 1581859050 heartbeat IPC: 0.410552 cumulative IPC: 0.523932 (Simulation time: 0 hr 57 min 34 sec) 
Heartbeat CPU 0 instructions: 456000003 cycles: 1583422091 heartbeat IPC: 0.63978 cumulative IPC: 0.540235 (Simulation time: 0 hr 57 min 42 sec) 
Heartbeat CPU 0 instructions: 457000000 cycles: 1585156840 heartbeat IPC: 0.576451 cumulative IPC: 0.545128 (Simulation time: 0 hr 57 min 50 sec) 
Heartbeat CPU 0 instructions: 458000001 cycles: 1587779204 heartbeat IPC: 0.381336 cumulative IPC: 0.517351 (Simulation time: 0 hr 58 min 0 sec) 
Heartbeat CPU 0 instructions: 459000000 cycles: 1589528831 heartbeat IPC: 0.57155 cumulative IPC: 0.52286 (Simulation time: 0 hr 58 min 8 sec) 
Heartbeat CPU 0 instructions: 460000001 cycles: 1590983182 heartbeat IPC: 0.687593 cumulative IPC: 0.535694 (Simulation time: 0 hr 58 min 16 sec) 
Heartbeat CPU 0 instructions: 461000002 cycles: 1593457356 heartbeat IPC: 0.404176 cumulative IPC: 0.520303 (Simulation time: 0 hr 58 min 26 sec) 
Heartbeat CPU 0 instructions: 462000000 cycles: 1595112673 heartbeat IPC: 0.604113 cumulative IPC: 0.526388 (Simulation time: 0 hr 58 min 34 sec) 
Heartbeat CPU 0 instructions: 463000001 cycles: 1596941516 heartbeat IPC: 0.546794 cumulative IPC: 0.527904 (Simulation time: 0 hr 58 min 42 sec) 
Heartbeat CPU 0 instructions: 464000002 cycles: 1599357132 heartbeat IPC: 0.413974 cumulative IPC: 0.517726 (Simulation time: 0 hr 58 min 52 sec) 
Heartbeat CPU 0 instructions: 465000001 cycles: 1600863574 heartbeat IPC: 0.663815 cumulative IPC: 0.525435 (Simulation time: 0 hr 58 min 59 sec) 
Heartbeat CPU 0 instructions: 466000002 cycles: 1603378023 heartbeat IPC: 0.397702 cumulative IPC: 0.515095 (Simulation time: 0 hr 59 min 9 sec) 
Heartbeat CPU 0 instructions: 467000003 cycles: 1605255485 heartbeat IPC: 0.532634 cumulative IPC: 0.516095 (Simulation time: 0 hr 59 min 18 sec) 
Heartbeat CPU 0 instructions: 468000002 cycles: 1606873092 heartbeat IPC: 0.618196 cumulative IPC: 0.520874 (Simulation time: 0 hr 59 min 25 sec) 
Heartbeat CPU 0 instructions: 469000000 cycles: 1610218444 heartbeat IPC: 0.298922 cumulative IPC: 0.501284 (Simulation time: 0 hr 59 min 37 sec) 
Heartbeat CPU 0 instructions: 470000000 cycles: 1611860331 heartbeat IPC: 0.609055 cumulative IPC: 0.505759 (Simulation time: 0 hr 59 min 44 sec) 
Heartbeat CPU 0 instructions: 471000002 cycles: 1613837245 heartbeat IPC: 0.50584 cumulative IPC: 0.505763 (Simulation time: 0 hr 59 min 52 sec) 
Heartbeat CPU 0 instructions: 472000001 cycles: 1616976528 heartbeat IPC: 0.318544 cumulative IPC: 0.492603 (Simulation time: 1 hr 0 min 3 sec) 
Heartbeat CPU 0 instructions: 473000000 cycles: 1620388640 heartbeat IPC: 0.293073 cumulative IPC: 0.478441 (Simulation time: 1 hr 0 min 16 sec) 
Heartbeat CPU 0 instructions: 474000000 cycles: 1623766945 heartbeat IPC: 0.296006 cumulative IPC: 0.466462 (Simulation time: 1 hr 0 min 29 sec) 
Heartbeat CPU 0 instructions: 475000001 cycles: 1627033213 heartbeat IPC: 0.30616 cumulative IPC: 0.456893 (Simulation time: 1 hr 0 min 42 sec) 
Heartbeat CPU 0 instructions: 476000000 cycles: 1629715405 heartbeat IPC: 0.372829 cumulative IPC: 0.452965 (Simulation time: 1 hr 0 min 53 sec) 
Heartbeat CPU 0 instructions: 477000000 cycles: 1631354482 heartbeat IPC: 0.610099 cumulative IPC: 0.457327 (Simulation time: 1 hr 1 min 1 sec) 
Heartbeat CPU 0 instructions: 478000002 cycles: 1633708067 heartbeat IPC: 0.424885 cumulative IPC: 0.456084 (Simulation time: 1 hr 1 min 11 sec) 
Heartbeat CPU 0 instructions: 479000001 cycles: 1635108835 heartbeat IPC: 0.713893 cumulative IPC: 0.461835 (Simulation time: 1 hr 1 min 18 sec) 
Heartbeat CPU 0 instructions: 480000000 cycles: 1636912976 heartbeat IPC: 0.55428 cumulative IPC: 0.464417 (Simulation time: 1 hr 1 min 27 sec) 
Heartbeat CPU 0 instructions: 481000002 cycles: 1638881521 heartbeat IPC: 0.50799 cumulative IPC: 0.465705 (Simulation time: 1 hr 1 min 36 sec) 
Heartbeat CPU 0 instructions: 482000002 cycles: 1640503503 heartbeat IPC: 0.61653 cumulative IPC: 0.469293 (Simulation time: 1 hr 1 min 43 sec) 
Heartbeat CPU 0 instructions: 483000001 cycles: 1643486402 heartbeat IPC: 0.335244 cumulative IPC: 0.463675 (Simulation time: 1 hr 1 min 54 sec) 
Heartbeat CPU 0 instructions: 484000000 cycles: 1645597519 heartbeat IPC: 0.473682 cumulative IPC: 0.463963 (Simulation time: 1 hr 2 min 3 sec) 
Heartbeat CPU 0 instructions: 485000003 cycles: 1647056759 heartbeat IPC: 0.68529 cumulative IPC: 0.468284 (Simulation time: 1 hr 2 min 10 sec) 
Heartbeat CPU 0 instructions: 486000000 cycles: 1649178372 heartbeat IPC: 0.471338 cumulative IPC: 0.468369 (Simulation time: 1 hr 2 min 19 sec) 
Heartbeat CPU 0 instructions: 487000000 cycles: 1652511278 heartbeat IPC: 0.300038 cumulative IPC: 0.461373 (Simulation time: 1 hr 2 min 32 sec) 
Heartbeat CPU 0 instructions: 488000000 cycles: 1655261733 heartbeat IPC: 0.363576 cumulative IPC: 0.45813 (Simulation time: 1 hr 2 min 43 sec) 
Heartbeat CPU 0 instructions: 489000001 cycles: 1656858713 heartbeat IPC: 0.626183 cumulative IPC: 0.461304 (Simulation time: 1 hr 2 min 50 sec) 
Heartbeat CPU 0 instructions: 490000002 cycles: 1659730306 heartbeat IPC: 0.348239 cumulative IPC: 0.45759 (Simulation time: 1 hr 3 min 1 sec) 
Heartbeat CPU 0 instructions: 491000001 cycles: 1661643008 heartbeat IPC: 0.52282 cumulative IPC: 0.458987 (Simulation time: 1 hr 3 min 8 sec) 
Heartbeat CPU 0 instructions: 492000003 cycles: 1664230266 heartbeat IPC: 0.38651 cumulative IPC: 0.456947 (Simulation time: 1 hr 3 min 18 sec) 
Heartbeat CPU 0 instructions: 493000001 cycles: 1666853906 heartbeat IPC: 0.381149 cumulative IPC: 0.454843 (Simulation time: 1 hr 3 min 28 sec) 
Heartbeat CPU 0 instructions: 494000001 cycles: 1668335935 heartbeat IPC: 0.674751 cumulative IPC: 0.458237 (Simulation time: 1 hr 3 min 36 sec) 
Heartbeat CPU 0 instructions: 495000000 cycles: 1669779633 heartbeat IPC: 0.692665 cumulative IPC: 0.46171 (Simulation time: 1 hr 3 min 44 sec) 
Heartbeat CPU 0 instructions: 496000000 cycles: 1672516778 heartbeat IPC: 0.365344 cumulative IPC: 0.459077 (Simulation time: 1 hr 3 min 54 sec) 
Heartbeat CPU 0 instructions: 497000001 cycles: 1674484249 heartbeat IPC: 0.508267 cumulative IPC: 0.460025 (Simulation time: 1 hr 4 min 2 sec) 
Heartbeat CPU 0 instructions: 498000000 cycles: 1676718598 heartbeat IPC: 0.447557 cumulative IPC: 0.459758 (Simulation time: 1 hr 4 min 11 sec) 
Heartbeat CPU 0 instructions: 499000003 cycles: 1680275110 heartbeat IPC: 0.281175 cumulative IPC: 0.453875 (Simulation time: 1 hr 4 min 24 sec) 
Heartbeat CPU 0 instructions: 500000000 cycles: 1683204315 heartbeat IPC: 0.341389 cumulative IPC: 0.450903 (Simulation time: 1 hr 4 min 34 sec) 
Heartbeat CPU 0 instructions: 501000002 cycles: 1685161299 heartbeat IPC: 0.510991 cumulative IPC: 0.451945 (Simulation time: 1 hr 4 min 42 sec) 
Heartbeat CPU 0 instructions: 502000000 cycles: 1687613003 heartbeat IPC: 0.407879 cumulative IPC: 0.451008 (Simulation time: 1 hr 4 min 52 sec) 
Heartbeat CPU 0 instructions: 503000003 cycles: 1689383817 heartbeat IPC: 0.564714 cumulative IPC: 0.452728 (Simulation time: 1 hr 5 min 0 sec) 
Heartbeat CPU 0 instructions: 504000003 cycles: 1691865901 heartbeat IPC: 0.402887 cumulative IPC: 0.451694 (Simulation time: 1 hr 5 min 10 sec) 
Heartbeat CPU 0 instructions: 505000001 cycles: 1694905607 heartbeat IPC: 0.328979 cumulative IPC: 0.448651 (Simulation time: 1 hr 5 min 21 sec) 
Heartbeat CPU 0 instructions: 506000000 cycles: 1696420055 heartbeat IPC: 0.660306 cumulative IPC: 0.451234 (Simulation time: 1 hr 5 min 28 sec) 
Heartbeat CPU 0 instructions: 507000002 cycles: 1698857968 heartbeat IPC: 0.410188 cumulative IPC: 0.450443 (Simulation time: 1 hr 5 min 38 sec) 
Heartbeat CPU 0 instructions: 508000000 cycles: 1702184608 heartbeat IPC: 0.300603 cumulative IPC: 0.446605 (Simulation time: 1 hr 5 min 51 sec) 
Heartbeat CPU 0 instructions: 509000000 cycles: 1703845581 heartbeat IPC: 0.602057 cumulative IPC: 0.448568 (Simulation time: 1 hr 5 min 58 sec) 
Heartbeat CPU 0 instructions: 510000003 cycles: 1705832371 heartbeat IPC: 0.503326 cumulative IPC: 0.449382 (Simulation time: 1 hr 6 min 7 sec) 
Heartbeat CPU 0 instructions: 511000003 cycles: 1708977159 heartbeat IPC: 0.317986 cumulative IPC: 0.446359 (Simulation time: 1 hr 6 min 19 sec) 
Heartbeat CPU 0 instructions: 512000003 cycles: 1712377041 heartbeat IPC: 0.294128 cumulative IPC: 0.442664 (Simulation time: 1 hr 6 min 32 sec) 
Heartbeat CPU 0 instructions: 513000002 cycles: 1715783734 heartbeat IPC: 0.29354 cumulative IPC: 0.439123 (Simulation time: 1 hr 6 min 45 sec) 
Heartbeat CPU 0 instructions: 514000000 cycles: 1719128916 heartbeat IPC: 0.298937 cumulative IPC: 0.435928 (Simulation time: 1 hr 6 min 57 sec) 
Heartbeat CPU 0 instructions: 515000000 cycles: 1720897976 heartbeat IPC: 0.565272 cumulative IPC: 0.437468 (Simulation time: 1 hr 7 min 5 sec) 
Heartbeat CPU 0 instructions: 516000001 cycles: 1722413716 heartbeat IPC: 0.659744 cumulative IPC: 0.439713 (Simulation time: 1 hr 7 min 13 sec) 
Heartbeat CPU 0 instructions: 517000000 cycles: 1724775010 heartbeat IPC: 0.423496 cumulative IPC: 0.439462 (Simulation time: 1 hr 7 min 22 sec) 
Heartbeat CPU 0 instructions: 518000001 cycles: 1726309491 heartbeat IPC: 0.651687 cumulative IPC: 0.441577 (Simulation time: 1 hr 7 min 30 sec) 
Heartbeat CPU 0 instructions: 519000000 cycles: 1727814651 heartbeat IPC: 0.664381 cumulative IPC: 0.443733 (Simulation time: 1 hr 7 min 38 sec) 
Heartbeat CPU 0 instructions: 520000003 cycles: 1730479750 heartbeat IPC: 0.375222 cumulative IPC: 0.442579 (Simulation time: 1 hr 7 min 49 sec) 
Heartbeat CPU 0 instructions: 521000001 cycles: 1732701052 heartbeat IPC: 0.450186 cumulative IPC: 0.442684 (Simulation time: 1 hr 7 min 59 sec) 
Heartbeat CPU 0 instructions: 522000000 cycles: 1734149483 heartbeat IPC: 0.690402 cumulative IPC: 0.444901 (Simulation time: 1 hr 8 min 6 sec) 
Heartbeat CPU 0 instructions: 523000003 cycles: 1736689160 heartbeat IPC: 0.393752 cumulative IPC: 0.444111 (Simulation time: 1 hr 8 min 17 sec) 
Heartbeat CPU 0 instructions: 524000003 cycles: 1739112802 heartbeat IPC: 0.412602 cumulative IPC: 0.443653 (Simulation time: 1 hr 8 min 27 sec) 
Heartbeat CPU 0 instructions: 525000002 cycles: 1740551569 heartbeat IPC: 0.695039 cumulative IPC: 0.445803 (Simulation time: 1 hr 8 min 35 sec) 
Heartbeat CPU 0 instructions: 526000002 cycles: 1742978166 heartbeat IPC: 0.4121 cumulative IPC: 0.445324 (Simulation time: 1 hr 8 min 45 sec) 
Heartbeat CPU 0 instructions: 527000000 cycles: 1744414900 heartbeat IPC: 0.696022 cumulative IPC: 0.447417 (Simulation time: 1 hr 8 min 52 sec) 
Heartbeat CPU 0 instructions: 528000000 cycles: 1745704644 heartbeat IPC: 0.775348 cumulative IPC: 0.449856 (Simulation time: 1 hr 9 min 0 sec) 
Heartbeat CPU 0 instructions: 529000001 cycles: 1747959519 heartbeat IPC: 0.443484 cumulative IPC: 0.449774 (Simulation time: 1 hr 9 min 10 sec) 
Heartbeat CPU 0 instructions: 530000000 cycles: 1750758596 heartbeat IPC: 0.35726 cumulative IPC: 0.448323 (Simulation time: 1 hr 9 min 21 sec) 
Heartbeat CPU 0 instructions: 531000001 cycles: 1752590732 heartbeat IPC: 0.545812 cumulative IPC: 0.449314 (Simulation time: 1 hr 9 min 29 sec) 
Heartbeat CPU 0 instructions: 532000003 cycles: 1754411056 heartbeat IPC: 0.549354 cumulative IPC: 0.450314 (Simulation time: 1 hr 9 min 37 sec) 
Heartbeat CPU 0 instructions: 533000002 cycles: 1756983754 heartbeat IPC: 0.388697 cumulative IPC: 0.449455 (Simulation time: 1 hr 9 min 48 sec) 
Heartbeat CPU 0 instructions: 534000001 cycles: 1758354073 heartbeat IPC: 0.729756 cumulative IPC: 0.45152 (Simulation time: 1 hr 9 min 55 sec) 
Heartbeat CPU 0 instructions: 535000002 cycles: 1760322163 heartbeat IPC: 0.508107 cumulative IPC: 0.452112 (Simulation time: 1 hr 10 min 4 sec) 
Heartbeat CPU 0 instructions: 536000003 cycles: 1761914928 heartbeat IPC: 0.62784 cumulative IPC: 0.453589 (Simulation time: 1 hr 10 min 12 sec) 
Heartbeat CPU 0 instructions: 537000000 cycles: 1763320037 heartbeat IPC: 0.711686 cumulative IPC: 0.455487 (Simulation time: 1 hr 10 min 20 sec) 
Heartbeat CPU 0 instructions: 538000000 cycles: 1765486084 heartbeat IPC: 0.46167 cumulative IPC: 0.455557 (Simulation time: 1 hr 10 min 29 sec) 
Heartbeat CPU 0 instructions: 539000000 cycles: 1767089495 heartbeat IPC: 0.62367 cumulative IPC: 0.456941 (Simulation time: 1 hr 10 min 37 sec) 
Heartbeat CPU 0 instructions: 540000000 cycles: 1769444099 heartbeat IPC: 0.4247 cumulative IPC: 0.456555 (Simulation time: 1 hr 10 min 46 sec) 
Heartbeat CPU 0 instructions: 541000001 cycles: 1772878025 heartbeat IPC: 0.291212 cumulative IPC: 0.453725 (Simulation time: 1 hr 11 min 0 sec) 
Heartbeat CPU 0 instructions: 542000002 cycles: 1776398278 heartbeat IPC: 0.284071 cumulative IPC: 0.450798 (Simulation time: 1 hr 11 min 13 sec) 
Heartbeat CPU 0 instructions: 543000003 cycles: 1778571477 heartbeat IPC: 0.460152 cumulative IPC: 0.450897 (Simulation time: 1 hr 11 min 22 sec) 
Heartbeat CPU 0 instructions: 544000000 cycles: 1780011643 heartbeat IPC: 0.694362 cumulative IPC: 0.452585 (Simulation time: 1 hr 11 min 30 sec) 
Heartbeat CPU 0 instructions: 545000002 cycles: 1782206138 heartbeat IPC: 0.455687 cumulative IPC: 0.452617 (Simulation time: 1 hr 11 min 39 sec) 
[...]
Heartbeat CPU 0 instructions: 834000001 cycles: 2395596982 heartbeat IPC: 0.334486 cumulative IPC: 0.466426 (Simulation time: 1 hr 54 min 50 sec) 
Heartbeat CPU 0 instructions: 835000001 cycles: 2397282660 heartbeat IPC: 0.593233 cumulative IPC: 0.466685 (Simulation time: 1 hr 54 min 58 sec) 
Heartbeat CPU 0 instructions: 836000000 cycles: 2399102724 heartbeat IPC: 0.549431 cumulative IPC: 0.466868 (Simulation time: 1 hr 55 min 6 sec) 
Heartbeat CPU 0 instructions: 837000003 cycles: 2401236207 heartbeat IPC: 0.468719 cumulative IPC: 0.466872 (Simulation time: 1 hr 55 min 15 sec) 
Heartbeat CPU 0 instructions: 838000000 cycles: 2403409935 heartbeat IPC: 0.460038 cumulative IPC: 0.466854 (Simulation time: 1 hr 55 min 25 sec) 
Heartbeat CPU 0 instructions: 839000003 cycles: 2405166875 heartbeat IPC: 0.569173 cumulative IPC: 0.46707 (Simulation time: 1 hr 55 min 33 sec) 
Heartbeat CPU 0 instructions: 840000000 cycles: 2407935630 heartbeat IPC: 0.361172 cumulative IPC: 0.466719 (Simulation time: 1 hr 55 min 43 sec) 
Heartbeat CPU 0 instructions: 841000002 cycles: 2410538722 heartbeat IPC: 0.384159 cumulative IPC: 0.466463 (Simulation time: 1 hr 55 min 53 sec) 
Heartbeat CPU 0 instructions: 842000000 cycles: 2411979019 heartbeat IPC: 0.6943 cumulative IPC: 0.466854 (Simulation time: 1 hr 56 min 1 sec) 
Heartbeat CPU 0 instructions: 843000000 cycles: 2413363169 heartbeat IPC: 0.722465 cumulative IPC: 0.467275 (Simulation time: 1 hr 56 min 9 sec) 
Heartbeat CPU 0 instructions: 844000003 cycles: 2415775921 heartbeat IPC: 0.414466 cumulative IPC: 0.467123 (Simulation time: 1 hr 56 min 18 sec) 
Heartbeat CPU 0 instructions: 845000002 cycles: 2419129241 heartbeat IPC: 0.298212 cumulative IPC: 0.466455 (Simulation time: 1 hr 56 min 30 sec) 
Heartbeat CPU 0 instructions: 846000000 cycles: 2421091607 heartbeat IPC: 0.509588 cumulative IPC: 0.466554 (Simulation time: 1 hr 56 min 38 sec) 
Heartbeat CPU 0 instructions: 847000000 cycles: 2422782495 heartbeat IPC: 0.591405 cumulative IPC: 0.466803 (Simulation time: 1 hr 56 min 46 sec) 
Heartbeat CPU 0 instructions: 848000000 cycles: 2425447291 heartbeat IPC: 0.375263 cumulative IPC: 0.466517 (Simulation time: 1 hr 56 min 56 sec) 
Heartbeat CPU 0 instructions: 849000002 cycles: 2428219848 heartbeat IPC: 0.360679 cumulative IPC: 0.466174 (Simulation time: 1 hr 57 min 5 sec) 
Heartbeat CPU 0 instructions: 850000000 cycles: 2429917826 heartbeat IPC: 0.588935 cumulative IPC: 0.466417 (Simulation time: 1 hr 57 min 13 sec) 
Heartbeat CPU 0 instructions: 851000000 cycles: 2431553089 heartbeat IPC: 0.611522 cumulative IPC: 0.466693 (Simulation time: 1 hr 57 min 21 sec) 
Heartbeat CPU 0 instructions: 852000001 cycles: 2434246350 heartbeat IPC: 0.371297 cumulative IPC: 0.466395 (Simulation time: 1 hr 57 min 31 sec) 
Heartbeat CPU 0 instructions: 853000000 cycles: 2437031890 heartbeat IPC: 0.358996 cumulative IPC: 0.466049 (Simulation time: 1 hr 57 min 41 sec) 
Heartbeat CPU 0 instructions: 854000002 cycles: 2439062615 heartbeat IPC: 0.492436 cumulative IPC: 0.466111 (Simulation time: 1 hr 57 min 49 sec) 
Heartbeat CPU 0 instructions: 855000003 cycles: 2440678637 heartbeat IPC: 0.618804 cumulative IPC: 0.466395 (Simulation time: 1 hr 57 min 57 sec) 
Heartbeat CPU 0 instructions: 856000003 cycles: 2443253557 heartbeat IPC: 0.388362 cumulative IPC: 0.466164 (Simulation time: 1 hr 58 min 8 sec) 
Heartbeat CPU 0 instructions: 857000000 cycles: 2445644873 heartbeat IPC: 0.418179 cumulative IPC: 0.466033 (Simulation time: 1 hr 58 min 18 sec) 
Heartbeat CPU 0 instructions: 858000000 cycles: 2446981648 heartbeat IPC: 0.748069 cumulative IPC: 0.466464 (Simulation time: 1 hr 58 min 24 sec) 
Heartbeat CPU 0 instructions: 859000002 cycles: 2449187861 heartbeat IPC: 0.453266 cumulative IPC: 0.466431 (Simulation time: 1 hr 58 min 33 sec) 
Heartbeat CPU 0 instructions: 860000002 cycles: 2451123272 heartbeat IPC: 0.516686 cumulative IPC: 0.466541 (Simulation time: 1 hr 58 min 41 sec) 
Heartbeat CPU 0 instructions: 861000003 cycles: 2452904328 heartbeat IPC: 0.561465 cumulative IPC: 0.466733 (Simulation time: 1 hr 58 min 48 sec) 
Heartbeat CPU 0 instructions: 862000002 cycles: 2455856616 heartbeat IPC: 0.33872 cumulative IPC: 0.466306 (Simulation time: 1 hr 58 min 59 sec) 
Heartbeat CPU 0 instructions: 863000002 cycles: 2457897804 heartbeat IPC: 0.489911 cumulative IPC: 0.46636 (Simulation time: 1 hr 59 min 7 sec) 
Heartbeat CPU 0 instructions: 864000000 cycles: 2459189922 heartbeat IPC: 0.773922 cumulative IPC: 0.466808 (Simulation time: 1 hr 59 min 14 sec) 
Heartbeat CPU 0 instructions: 865000001 cycles: 2460508881 heartbeat IPC: 0.758174 cumulative IPC: 0.467241 (Simulation time: 1 hr 59 min 21 sec) 
Heartbeat CPU 0 instructions: 866000000 cycles: 2462760501 heartbeat IPC: 0.444124 cumulative IPC: 0.467182 (Simulation time: 1 hr 59 min 30 sec) 
Heartbeat CPU 0 instructions: 867000000 cycles: 2464013812 heartbeat IPC: 0.797887 cumulative IPC: 0.467647 (Simulation time: 1 hr 59 min 37 sec) 
Heartbeat CPU 0 instructions: 868000000 cycles: 2465597824 heartbeat IPC: 0.631308 cumulative IPC: 0.467937 (Simulation time: 1 hr 59 min 44 sec) 
Heartbeat CPU 0 instructions: 869000000 cycles: 2468141016 heartbeat IPC: 0.393207 cumulative IPC: 0.467725 (Simulation time: 1 hr 59 min 54 sec) 
Heartbeat CPU 0 instructions: 870000000 cycles: 2469584055 heartbeat IPC: 0.692982 cumulative IPC: 0.468087 (Simulation time: 2 hr 0 min 1 sec) 
Heartbeat CPU 0 instructions: 871000001 cycles: 2471094335 heartbeat IPC: 0.66213 cumulative IPC: 0.468414 (Simulation time: 2 hr 0 min 8 sec) 
Heartbeat CPU 0 instructions: 872000002 cycles: 2473225196 heartbeat IPC: 0.469294 cumulative IPC: 0.468416 (Simulation time: 2 hr 0 min 17 sec) 
Heartbeat CPU 0 instructions: 873000000 cycles: 2474900319 heartbeat IPC: 0.59697 cumulative IPC: 0.468654 (Simulation time: 2 hr 0 min 24 sec) 
Heartbeat CPU 0 instructions: 874000001 cycles: 2477567389 heartbeat IPC: 0.374944 cumulative IPC: 0.468378 (Simulation time: 2 hr 0 min 34 sec) 
Heartbeat CPU 0 instructions: 875000001 cycles: 2481003274 heartbeat IPC: 0.291046 cumulative IPC: 0.467708 (Simulation time: 2 hr 0 min 47 sec) 
Heartbeat CPU 0 instructions: 876000001 cycles: 2484260392 heartbeat IPC: 0.30702 cumulative IPC: 0.467134 (Simulation time: 2 hr 0 min 59 sec) 
Heartbeat CPU 0 instructions: 877000002 cycles: 2485724772 heartbeat IPC: 0.682884 cumulative IPC: 0.46748 (Simulation time: 2 hr 1 min 6 sec) 
Heartbeat CPU 0 instructions: 878000002 cycles: 2487543650 heartbeat IPC: 0.549789 cumulative IPC: 0.467643 (Simulation time: 2 hr 1 min 14 sec) 
Heartbeat CPU 0 instructions: 879000001 cycles: 2490750669 heartbeat IPC: 0.311816 cumulative IPC: 0.467099 (Simulation time: 2 hr 1 min 26 sec) 
Heartbeat CPU 0 instructions: 880000000 cycles: 2493169475 heartbeat IPC: 0.413427 cumulative IPC: 0.466958 (Simulation time: 2 hr 1 min 35 sec) 
Heartbeat CPU 0 instructions: 881000001 cycles: 2494977906 heartbeat IPC: 0.552966 cumulative IPC: 0.467127 (Simulation time: 2 hr 1 min 43 sec) 
Heartbeat CPU 0 instructions: 882000000 cycles: 2497618430 heartbeat IPC: 0.378712 cumulative IPC: 0.466874 (Simulation time: 2 hr 1 min 52 sec) 
Heartbeat CPU 0 instructions: 883000002 cycles: 2499083640 heartbeat IPC: 0.682497 cumulative IPC: 0.467215 (Simulation time: 2 hr 1 min 59 sec) 
Heartbeat CPU 0 instructions: 884000001 cycles: 2500570055 heartbeat IPC: 0.672759 cumulative IPC: 0.467544 (Simulation time: 2 hr 2 min 6 sec) 
Heartbeat CPU 0 instructions: 885000002 cycles: 2503777571 heartbeat IPC: 0.311768 cumulative IPC: 0.467008 (Simulation time: 2 hr 2 min 18 sec) 
Heartbeat CPU 0 instructions: 886000001 cycles: 2505703877 heartbeat IPC: 0.519128 cumulative IPC: 0.467115 (Simulation time: 2 hr 2 min 26 sec) 
Heartbeat CPU 0 instructions: 887000000 cycles: 2507527085 heartbeat IPC: 0.548483 cumulative IPC: 0.467274 (Simulation time: 2 hr 2 min 34 sec) 
Heartbeat CPU 0 instructions: 888000001 cycles: 2510071837 heartbeat IPC: 0.392966 cumulative IPC: 0.467072 (Simulation time: 2 hr 2 min 45 sec) 
Heartbeat CPU 0 instructions: 889000000 cycles: 2511497260 heartbeat IPC: 0.701545 cumulative IPC: 0.467428 (Simulation time: 2 hr 2 min 52 sec) 
Heartbeat CPU 0 instructions: 890000003 cycles: 2512823108 heartbeat IPC: 0.754237 cumulative IPC: 0.467833 (Simulation time: 2 hr 3 min 0 sec) 
Heartbeat CPU 0 instructions: 891000000 cycles: 2514626135 heartbeat IPC: 0.554621 cumulative IPC: 0.467999 (Simulation time: 2 hr 3 min 9 sec) 
Heartbeat CPU 0 instructions: 892000003 cycles: 2517733606 heartbeat IPC: 0.321806 cumulative IPC: 0.467518 (Simulation time: 2 hr 3 min 21 sec) 
Heartbeat CPU 0 instructions: 893000001 cycles: 2521043828 heartbeat IPC: 0.302094 cumulative IPC: 0.466941 (Simulation time: 2 hr 3 min 34 sec) 
Heartbeat CPU 0 instructions: 894000000 cycles: 2522456102 heartbeat IPC: 0.708077 cumulative IPC: 0.467299 (Simulation time: 2 hr 3 min 41 sec) 
Heartbeat CPU 0 instructions: 895000002 cycles: 2524116091 heartbeat IPC: 0.602415 cumulative IPC: 0.467535 (Simulation time: 2 hr 3 min 49 sec) 
Heartbeat CPU 0 instructions: 896000000 cycles: 2526328814 heartbeat IPC: 0.451931 cumulative IPC: 0.467499 (Simulation time: 2 hr 3 min 58 sec) 
Heartbeat CPU 0 instructions: 897000001 cycles: 2527754421 heartbeat IPC: 0.701456 cumulative IPC: 0.467848 (Simulation time: 2 hr 4 min 5 sec) 
Heartbeat CPU 0 instructions: 898000000 cycles: 2530111287 heartbeat IPC: 0.424292 cumulative IPC: 0.467741 (Simulation time: 2 hr 4 min 14 sec) 
Heartbeat CPU 0 instructions: 899000002 cycles: 2531916597 heartbeat IPC: 0.553923 cumulative IPC: 0.467903 (Simulation time: 2 hr 4 min 21 sec) 
Heartbeat CPU 0 instructions: 900000001 cycles: 2533393175 heartbeat IPC: 0.677241 cumulative IPC: 0.468225 (Simulation time: 2 hr 4 min 28 sec) 
Heartbeat CPU 0 instructions: 901000000 cycles: 2535811949 heartbeat IPC: 0.413432 cumulative IPC: 0.468087 (Simulation time: 2 hr 4 min 38 sec) 
Heartbeat CPU 0 instructions: 902000000 cycles: 2537211176 heartbeat IPC: 0.71468 cumulative IPC: 0.468445 (Simulation time: 2 hr 4 min 44 sec) 
Heartbeat CPU 0 instructions: 903000001 cycles: 2538494662 heartbeat IPC: 0.779129 cumulative IPC: 0.468857 (Simulation time: 2 hr 4 min 51 sec) 
Heartbeat CPU 0 instructions: 904000003 cycles: 2541561510 heartbeat IPC: 0.326068 cumulative IPC: 0.468405 (Simulation time: 2 hr 5 min 2 sec) 
Heartbeat CPU 0 instructions: 905000001 cycles: 2543927837 heartbeat IPC: 0.422595 cumulative IPC: 0.468294 (Simulation time: 2 hr 5 min 11 sec) 
Heartbeat CPU 0 instructions: 906000000 cycles: 2545530347 heartbeat IPC: 0.62402 cumulative IPC: 0.46855 (Simulation time: 2 hr 5 min 18 sec) 
Heartbeat CPU 0 instructions: 907000002 cycles: 2548289585 heartbeat IPC: 0.36242 cumulative IPC: 0.46825 (Simulation time: 2 hr 5 min 28 sec) 
Heartbeat CPU 0 instructions: 908000002 cycles: 2550624901 heartbeat IPC: 0.428208 cumulative IPC: 0.468155 (Simulation time: 2 hr 5 min 36 sec) 
Heartbeat CPU 0 instructions: 909000001 cycles: 2552449952 heartbeat IPC: 0.547929 cumulative IPC: 0.468303 (Simulation time: 2 hr 5 min 44 sec) 
Heartbeat CPU 0 instructions: 910000001 cycles: 2554434956 heartbeat IPC: 0.503777 cumulative IPC: 0.468375 (Simulation time: 2 hr 5 min 53 sec) 
Heartbeat CPU 0 instructions: 911000002 cycles: 2557805845 heartbeat IPC: 0.296658 cumulative IPC: 0.467788 (Simulation time: 2 hr 6 min 5 sec) 
Heartbeat CPU 0 instructions: 912000002 cycles: 2560307501 heartbeat IPC: 0.399735 cumulative IPC: 0.467615 (Simulation time: 2 hr 6 min 14 sec) 
Heartbeat CPU 0 instructions: 913000000 cycles: 2561540890 heartbeat IPC: 0.810773 cumulative IPC: 0.468043 (Simulation time: 2 hr 6 min 22 sec) 
Heartbeat CPU 0 instructions: 914000000 cycles: 2563473373 heartbeat IPC: 0.517469 cumulative IPC: 0.468139 (Simulation time: 2 hr 6 min 30 sec) 
Heartbeat CPU 0 instructions: 915000001 cycles: 2566410578 heartbeat IPC: 0.34046 cumulative IPC: 0.467762 (Simulation time: 2 hr 6 min 41 sec) 
Heartbeat CPU 0 instructions: 916000002 cycles: 2567956554 heartbeat IPC: 0.646841 cumulative IPC: 0.46804 (Simulation time: 2 hr 6 min 48 sec) 
Heartbeat CPU 0 instructions: 917000000 cycles: 2569353104 heartbeat IPC: 0.716049 cumulative IPC: 0.468388 (Simulation time: 2 hr 6 min 56 sec) 
Heartbeat CPU 0 instructions: 918000003 cycles: 2571257126 heartbeat IPC: 0.525206 cumulative IPC: 0.468496 (Simulation time: 2 hr 7 min 4 sec) 
Heartbeat CPU 0 instructions: 919000001 cycles: 2574438101 heartbeat IPC: 0.314368 cumulative IPC: 0.468007 (Simulation time: 2 hr 7 min 16 sec) 
Heartbeat CPU 0 instructions: 920000000 cycles: 2576811345 heartbeat IPC: 0.421364 cumulative IPC: 0.467897 (Simulation time: 2 hr 7 min 25 sec) 
Heartbeat CPU 0 instructions: 921000001 cycles: 2578242556 heartbeat IPC: 0.69871 cumulative IPC: 0.468225 (Simulation time: 2 hr 7 min 32 sec) 
Heartbeat CPU 0 instructions: 922000002 cycles: 2580661860 heartbeat IPC: 0.413342 cumulative IPC: 0.468093 (Simulation time: 2 hr 7 min 41 sec) 
Heartbeat CPU 0 instructions: 923000001 cycles: 2583064994 heartbeat IPC: 0.416123 cumulative IPC: 0.46797 (Simulation time: 2 hr 7 min 51 sec) 
Heartbeat CPU 0 instructions: 924000000 cycles: 2584407910 heartbeat IPC: 0.744647 cumulative IPC: 0.468337 (Simulation time: 2 hr 7 min 58 sec) 
Heartbeat CPU 0 instructions: 925000000 cycles: 2585685109 heartbeat IPC: 0.782963 cumulative IPC: 0.468733 (Simulation time: 2 hr 8 min 5 sec) 
Heartbeat CPU 0 instructions: 926000002 cycles: 2587859087 heartbeat IPC: 0.459987 cumulative IPC: 0.468715 (Simulation time: 2 hr 8 min 15 sec) 
Heartbeat CPU 0 instructions: 927000001 cycles: 2591067094 heartbeat IPC: 0.31172 cumulative IPC: 0.46822 (Simulation time: 2 hr 8 min 27 sec) 
Heartbeat CPU 0 instructions: 928000000 cycles: 2594386286 heartbeat IPC: 0.301278 cumulative IPC: 0.467678 (Simulation time: 2 hr 8 min 40 sec) 
Heartbeat CPU 0 instructions: 929000000 cycles: 2597438187 heartbeat IPC: 0.327665 cumulative IPC: 0.467261 (Simulation time: 2 hr 8 min 51 sec) 
Heartbeat CPU 0 instructions: 930000001 cycles: 2598714381 heartbeat IPC: 0.783581 cumulative IPC: 0.467655 (Simulation time: 2 hr 8 min 59 sec) 
Heartbeat CPU 0 instructions: 931000002 cycles: 2600560708 heartbeat IPC: 0.541616 cumulative IPC: 0.467787 (Simulation time: 2 hr 9 min 6 sec) 
Heartbeat CPU 0 instructions: 932000002 cycles: 2603128619 heartbeat IPC: 0.389422 cumulative IPC: 0.467592 (Simulation time: 2 hr 9 min 16 sec) 
Heartbeat CPU 0 instructions: 933000003 cycles: 2604470783 heartbeat IPC: 0.745066 cumulative IPC: 0.467953 (Simulation time: 2 hr 9 min 24 sec) 
Heartbeat CPU 0 instructions: 934000001 cycles: 2606607542 heartbeat IPC: 0.467998 cumulative IPC: 0.467953 (Simulation time: 2 hr 9 min 33 sec) 
Heartbeat CPU 0 instructions: 935000000 cycles: 2608305233 heartbeat IPC: 0.589035 cumulative IPC: 0.468152 (Simulation time: 2 hr 9 min 42 sec) 
Heartbeat CPU 0 instructions: 936000002 cycles: 2609661824 heartbeat IPC: 0.737143 cumulative IPC: 0.468503 (Simulation time: 2 hr 9 min 50 sec) 
Heartbeat CPU 0 instructions: 937000002 cycles: 2611301938 heartbeat IPC: 0.609714 cumulative IPC: 0.468726 (Simulation time: 2 hr 9 min 58 sec) 
Heartbeat CPU 0 instructions: 938000003 cycles: 2614426005 heartbeat IPC: 0.320096 cumulative IPC: 0.468281 (Simulation time: 2 hr 10 min 9 sec) 
Heartbeat CPU 0 instructions: 939000000 cycles: 2616407709 heartbeat IPC: 0.504615 cumulative IPC: 0.46835 (Simulation time: 2 hr 10 min 18 sec) 
Heartbeat CPU 0 instructions: 940000000 cycles: 2617815600 heartbeat IPC: 0.710282 cumulative IPC: 0.468675 (Simulation time: 2 hr 10 min 25 sec) 
Heartbeat CPU 0 instructions: 941000001 cycles: 2620136925 heartbeat IPC: 0.430789 cumulative IPC: 0.468591 (Simulation time: 2 hr 10 min 35 sec) 
Heartbeat CPU 0 instructions: 942000001 cycles: 2621420889 heartbeat IPC: 0.778838 cumulative IPC: 0.468971 (Simulation time: 2 hr 10 min 42 sec) 
Heartbeat CPU 0 instructions: 943000000 cycles: 2622984828 heartbeat IPC: 0.63941 cumulative IPC: 0.469225 (Simulation time: 2 hr 10 min 50 sec) 
Heartbeat CPU 0 instructions: 944000002 cycles: 2626218036 heartbeat IPC: 0.309291 cumulative IPC: 0.468734 (Simulation time: 2 hr 11 min 2 sec) 
Heartbeat CPU 0 instructions: 945000000 cycles: 2627838117 heartbeat IPC: 0.617252 cumulative IPC: 0.468962 (Simulation time: 2 hr 11 min 10 sec) 
Heartbeat CPU 0 instructions: 946000000 cycles: 2629233209 heartbeat IPC: 0.716799 cumulative IPC: 0.469289 (Simulation time: 2 hr 11 min 17 sec) 
Heartbeat CPU 0 instructions: 947000000 cycles: 2631517175 heartbeat IPC: 0.437835 cumulative IPC: 0.469221 (Simulation time: 2 hr 11 min 27 sec) 
Heartbeat CPU 0 instructions: 948000000 cycles: 2632994655 heartbeat IPC: 0.676828 cumulative IPC: 0.469511 (Simulation time: 2 hr 11 min 34 sec) 
Heartbeat CPU 0 instructions: 949000000 cycles: 2634668052 heartbeat IPC: 0.597587 cumulative IPC: 0.469712 (Simulation time: 2 hr 11 min 41 sec) 
Heartbeat CPU 0 instructions: 950000002 cycles: 2638203731 heartbeat IPC: 0.282832 cumulative IPC: 0.469092 (Simulation time: 2 hr 11 min 53 sec) 
Finished CPU 0 instructions: 500000000 cycles: 1065887909 cumulative IPC: 0.469092 (Simulation time: 2 hr 11 min 53 sec) 

ChampSim completed all CPUs

Region of Interest Statistics

CPU 0 cumulative IPC: 0.469092 instructions: 500000000 cycles: 1065887909
L1D TOTAL     ACCESS:  224233155  HIT:  200871827  MISS:   23361328
L1D LOAD      ACCESS:  104172947  HIT:   82017136  MISS:   22155811
L1D RFO       ACCESS:  120060208  HIT:  118854691  MISS:    1205517
L1D PREFETCH  ACCESS:          0  HIT:          0  MISS:          0
L1D WRITEBACK ACCESS:          0  HIT:          0  MISS:          0
L1D PREFETCH  REQUESTED:          0  ISSUED:          0  USEFUL:          0  USELESS:          0
L1D AVERAGE MISS LATENCY: 100.754 cycles
L1I TOTAL     ACCESS:  105472649  HIT:  105472649  MISS:          0
L1I LOAD      ACCESS:  105472649  HIT:  105472649  MISS:          0
L1I RFO       ACCESS:          0  HIT:          0  MISS:          0
L1I PREFETCH  ACCESS:          0  HIT:          0  MISS:          0
L1I WRITEBACK ACCESS:          0  HIT:          0  MISS:          0
L1I PREFETCH  REQUESTED:          0  ISSUED:          0  USEFUL:          0  USELESS:          0
L1I AVERAGE MISS LATENCY: -nan cycles
L2C TOTAL     ACCESS:   25917313  HIT:    2889210  MISS:   23028103
L2C LOAD      ACCESS:   22155726  HIT:     321259  MISS:   21834467
L2C RFO       ACCESS:    1205467  HIT:      23871  MISS:    1181596
L2C PREFETCH  ACCESS:          0  HIT:          0  MISS:          0
L2C WRITEBACK ACCESS:    2556120  HIT:    2544080  MISS:      12040
L2C PREFETCH  REQUESTED:          0  ISSUED:          0  USEFUL:          0  USELESS:          0
L2C AVERAGE MISS LATENCY: 84.9698 cycles
LLC TOTAL     ACCESS:   47048425  HIT:   23715092  MISS:   23333333
LLC LOAD      ACCESS:   21834468  HIT:   12865260  MISS:    8969208
LLC RFO       ACCESS:    1181596  HIT:      23702  MISS:    1157894
LLC PREFETCH  ACCESS:   21722297  HIT:    8523394  MISS:   13198903
LLC WRITEBACK ACCESS:    2310064  HIT:    2302736  MISS:       7328
LLC PREFETCH  REQUESTED:   61989117  ISSUED:   41136084  USEFUL:   12868382  USELESS:     330488
LLC AVERAGE MISS LATENCY: 142.066 cycles
Major fault: 0 Minor fault: 182489
performance stats:
mapping cache size: 7114817
divergence: 8343426

DRAM Statistics
 CHANNEL 0
 RQ ROW_BUFFER_HIT:   13254717  ROW_BUFFER_MISS:   10071047
 DBUS_CONGESTED:   17798044
 WQ ROW_BUFFER_HIT:     530198  ROW_BUFFER_MISS:    1764315  FULL:          0

 AVG_CONGESTED_CYCLE: 5

CPU 0 Branch Prediction Accuracy: 99.0348% MPKI: 1.08674 Average ROB Occupancy at Mispredict: 240.486

Branch types
NOT_BRANCH: 443705056 88.741%
BRANCH_DIRECT_JUMP: 5296938 1.05939%
BRANCH_INDIRECT: 0 0%
BRANCH_CONDITIONAL: 50996817 10.1994%
BRANCH_DIRECT_CALL: 594 0.0001188%
BRANCH_INDIRECT_CALL: 0 0%
BRANCH_RETURN: 594 0.0001188%
BRANCH_OTHER: 0 0%

