
*** ChampSim Multicore Out-of-Order Simulator ***

Warmup Instructions: 1000000
Prefetch Warmup Instructions: 450000000
Simulation Instructions: 500000000
Stat Printing Period: 1000000
Number of CPUs: 1
LLC sets: 2048
LLC ways: 16
Off-chip DRAM Size: 4096 MB Channels: 1 Width: 64-bit Data Rate: 3200 MT/s

CPU 0 runs /scratch/cluster/cmolder/ML-DPC/ChampSimTraces/spec17/605.mcf-s5.trace.xz
Read seed: 226
Heartbeat CPU 0 instructions: 1000001 cycles: 418000 heartbeat IPC: 2.39235 cumulative IPC: 2.39235 (Simulation time: 0 hr 0 min 5 sec) 

Warmup complete CPU 0 instructions: 1000001 cycles: 418000 (Simulation time: 0 hr 0 min 5 sec) 

Heartbeat CPU 0 instructions: 2000003 cycles: 2323190 heartbeat IPC: 0.524883 cumulative IPC: 0.524883 (Simulation time: 0 hr 0 min 11 sec) 
Heartbeat CPU 0 instructions: 3000001 cycles: 4716861 heartbeat IPC: 0.417768 cumulative IPC: 0.46524 (Simulation time: 0 hr 0 min 18 sec) 
Heartbeat CPU 0 instructions: 4000001 cycles: 7045944 heartbeat IPC: 0.429354 cumulative IPC: 0.452629 (Simulation time: 0 hr 0 min 24 sec) 
Heartbeat CPU 0 instructions: 5000001 cycles: 9674561 heartbeat IPC: 0.380428 cumulative IPC: 0.432126 (Simulation time: 0 hr 0 min 32 sec) 
Heartbeat CPU 0 instructions: 6000000 cycles: 12522593 heartbeat IPC: 0.351119 cumulative IPC: 0.413066 (Simulation time: 0 hr 0 min 40 sec) 
Heartbeat CPU 0 instructions: 7000002 cycles: 16810389 heartbeat IPC: 0.233221 cumulative IPC: 0.366024 (Simulation time: 0 hr 0 min 49 sec) 
Heartbeat CPU 0 instructions: 8000001 cycles: 19679831 heartbeat IPC: 0.348499 cumulative IPC: 0.363413 (Simulation time: 0 hr 0 min 57 sec) 
Heartbeat CPU 0 instructions: 9000000 cycles: 21711198 heartbeat IPC: 0.492279 cumulative IPC: 0.375707 (Simulation time: 0 hr 1 min 4 sec) 
Heartbeat CPU 0 instructions: 10000000 cycles: 23937669 heartbeat IPC: 0.449141 cumulative IPC: 0.382658 (Simulation time: 0 hr 1 min 12 sec) 
Heartbeat CPU 0 instructions: 11000000 cycles: 26668791 heartbeat IPC: 0.36615 cumulative IPC: 0.380941 (Simulation time: 0 hr 1 min 19 sec) 
Heartbeat CPU 0 instructions: 12000000 cycles: 28889096 heartbeat IPC: 0.450389 cumulative IPC: 0.386357 (Simulation time: 0 hr 1 min 27 sec) 
Heartbeat CPU 0 instructions: 13000000 cycles: 30821067 heartbeat IPC: 0.517606 cumulative IPC: 0.394697 (Simulation time: 0 hr 1 min 32 sec) 
Heartbeat CPU 0 instructions: 14000001 cycles: 32914019 heartbeat IPC: 0.477795 cumulative IPC: 0.400049 (Simulation time: 0 hr 1 min 39 sec) 
Heartbeat CPU 0 instructions: 15000001 cycles: 39067139 heartbeat IPC: 0.162519 cumulative IPC: 0.362233 (Simulation time: 0 hr 1 min 49 sec) 
Heartbeat CPU 0 instructions: 16000000 cycles: 43506955 heartbeat IPC: 0.225234 cumulative IPC: 0.348117 (Simulation time: 0 hr 1 min 58 sec) 
Heartbeat CPU 0 instructions: 17000003 cycles: 46590460 heartbeat IPC: 0.324307 cumulative IPC: 0.346527 (Simulation time: 0 hr 2 min 4 sec) 
Heartbeat CPU 0 instructions: 18000001 cycles: 49545931 heartbeat IPC: 0.338355 cumulative IPC: 0.346035 (Simulation time: 0 hr 2 min 10 sec) 
Heartbeat CPU 0 instructions: 19000001 cycles: 51900999 heartbeat IPC: 0.424616 cumulative IPC: 0.34963 (Simulation time: 0 hr 2 min 17 sec) 
Heartbeat CPU 0 instructions: 20000000 cycles: 54670815 heartbeat IPC: 0.361034 cumulative IPC: 0.350212 (Simulation time: 0 hr 2 min 25 sec) 
Heartbeat CPU 0 instructions: 21000000 cycles: 56970614 heartbeat IPC: 0.434821 cumulative IPC: 0.353653 (Simulation time: 0 hr 2 min 33 sec) 
Heartbeat CPU 0 instructions: 22000000 cycles: 58873081 heartbeat IPC: 0.525633 cumulative IPC: 0.35925 (Simulation time: 0 hr 2 min 40 sec) 
Heartbeat CPU 0 instructions: 23000000 cycles: 64348820 heartbeat IPC: 0.182624 cumulative IPC: 0.344122 (Simulation time: 0 hr 2 min 50 sec) 
Heartbeat CPU 0 instructions: 24000002 cycles: 69021724 heartbeat IPC: 0.214 cumulative IPC: 0.335259 (Simulation time: 0 hr 3 min 0 sec) 
Heartbeat CPU 0 instructions: 25000000 cycles: 70748942 heartbeat IPC: 0.578965 cumulative IPC: 0.341244 (Simulation time: 0 hr 3 min 6 sec) 
Heartbeat CPU 0 instructions: 26000000 cycles: 72434046 heartbeat IPC: 0.593435 cumulative IPC: 0.347145 (Simulation time: 0 hr 3 min 12 sec) 
Heartbeat CPU 0 instructions: 27000000 cycles: 74325091 heartbeat IPC: 0.528808 cumulative IPC: 0.351793 (Simulation time: 0 hr 3 min 17 sec) 
Heartbeat CPU 0 instructions: 28000001 cycles: 76336336 heartbeat IPC: 0.497205 cumulative IPC: 0.355645 (Simulation time: 0 hr 3 min 24 sec) 
Heartbeat CPU 0 instructions: 29000002 cycles: 78382687 heartbeat IPC: 0.488675 cumulative IPC: 0.359137 (Simulation time: 0 hr 3 min 30 sec) 
Heartbeat CPU 0 instructions: 30000000 cycles: 82659109 heartbeat IPC: 0.23384 cumulative IPC: 0.352622 (Simulation time: 0 hr 3 min 39 sec) 
Heartbeat CPU 0 instructions: 31000000 cycles: 84535543 heartbeat IPC: 0.532926 cumulative IPC: 0.356644 (Simulation time: 0 hr 3 min 45 sec) 
Heartbeat CPU 0 instructions: 32000001 cycles: 86967620 heartbeat IPC: 0.411172 cumulative IPC: 0.358176 (Simulation time: 0 hr 3 min 52 sec) 
Heartbeat CPU 0 instructions: 33000000 cycles: 89409303 heartbeat IPC: 0.409553 cumulative IPC: 0.359586 (Simulation time: 0 hr 3 min 59 sec) 
Heartbeat CPU 0 instructions: 34000000 cycles: 91561836 heartbeat IPC: 0.464569 cumulative IPC: 0.362065 (Simulation time: 0 hr 4 min 5 sec) 
Heartbeat CPU 0 instructions: 35000000 cycles: 94054651 heartbeat IPC: 0.401153 cumulative IPC: 0.363106 (Simulation time: 0 hr 4 min 11 sec) 
Heartbeat CPU 0 instructions: 36000000 cycles: 96703497 heartbeat IPC: 0.377523 cumulative IPC: 0.363502 (Simulation time: 0 hr 4 min 17 sec) 
Heartbeat CPU 0 instructions: 37000000 cycles: 101678880 heartbeat IPC: 0.20099 cumulative IPC: 0.355517 (Simulation time: 0 hr 4 min 28 sec) 
Heartbeat CPU 0 instructions: 38000001 cycles: 104061858 heartbeat IPC: 0.419643 cumulative IPC: 0.356992 (Simulation time: 0 hr 4 min 35 sec) 
Heartbeat CPU 0 instructions: 39000000 cycles: 105886513 heartbeat IPC: 0.548048 cumulative IPC: 0.360297 (Simulation time: 0 hr 4 min 43 sec) 
Heartbeat CPU 0 instructions: 40000001 cycles: 108469996 heartbeat IPC: 0.387075 cumulative IPC: 0.360937 (Simulation time: 0 hr 4 min 50 sec) 
Heartbeat CPU 0 instructions: 41000003 cycles: 110488803 heartbeat IPC: 0.495343 cumulative IPC: 0.363402 (Simulation time: 0 hr 4 min 57 sec) 
Heartbeat CPU 0 instructions: 42000000 cycles: 112492024 heartbeat IPC: 0.499195 cumulative IPC: 0.36583 (Simulation time: 0 hr 5 min 4 sec) 
Heartbeat CPU 0 instructions: 43000000 cycles: 114433933 heartbeat IPC: 0.514957 cumulative IPC: 0.36837 (Simulation time: 0 hr 5 min 11 sec) 
Heartbeat CPU 0 instructions: 44000000 cycles: 117602749 heartbeat IPC: 0.315575 cumulative IPC: 0.366942 (Simulation time: 0 hr 5 min 17 sec) 
Heartbeat CPU 0 instructions: 45000002 cycles: 124253847 heartbeat IPC: 0.150351 cumulative IPC: 0.355309 (Simulation time: 0 hr 5 min 30 sec) 
Heartbeat CPU 0 instructions: 46000001 cycles: 127300419 heartbeat IPC: 0.328237 cumulative IPC: 0.354659 (Simulation time: 0 hr 5 min 36 sec) 
Heartbeat CPU 0 instructions: 47000003 cycles: 129804903 heartbeat IPC: 0.399285 cumulative IPC: 0.355523 (Simulation time: 0 hr 5 min 43 sec) 
Heartbeat CPU 0 instructions: 48000000 cycles: 132748538 heartbeat IPC: 0.339715 cumulative IPC: 0.355171 (Simulation time: 0 hr 5 min 50 sec) 
Heartbeat CPU 0 instructions: 49000000 cycles: 135369051 heartbeat IPC: 0.381605 cumulative IPC: 0.355685 (Simulation time: 0 hr 5 min 56 sec) 
Heartbeat CPU 0 instructions: 50000000 cycles: 137392379 heartbeat IPC: 0.494235 cumulative IPC: 0.357731 (Simulation time: 0 hr 6 min 2 sec) 
Heartbeat CPU 0 instructions: 51000003 cycles: 139995280 heartbeat IPC: 0.384188 cumulative IPC: 0.358225 (Simulation time: 0 hr 6 min 8 sec) 
Heartbeat CPU 0 instructions: 52000001 cycles: 142850961 heartbeat IPC: 0.350178 cumulative IPC: 0.358063 (Simulation time: 0 hr 6 min 16 sec) 
Heartbeat CPU 0 instructions: 53000000 cycles: 146736376 heartbeat IPC: 0.257372 cumulative IPC: 0.355389 (Simulation time: 0 hr 6 min 24 sec) 
Heartbeat CPU 0 instructions: 54000002 cycles: 148527180 heartbeat IPC: 0.55841 cumulative IPC: 0.357844 (Simulation time: 0 hr 6 min 31 sec) 
Heartbeat CPU 0 instructions: 55000000 cycles: 150497042 heartbeat IPC: 0.507649 cumulative IPC: 0.35981 (Simulation time: 0 hr 6 min 37 sec) 
Heartbeat CPU 0 instructions: 56000003 cycles: 152491586 heartbeat IPC: 0.501369 cumulative IPC: 0.361667 (Simulation time: 0 hr 6 min 45 sec) 
Heartbeat CPU 0 instructions: 57000000 cycles: 154436841 heartbeat IPC: 0.51407 cumulative IPC: 0.363592 (Simulation time: 0 hr 6 min 51 sec) 
Heartbeat CPU 0 instructions: 58000001 cycles: 156316024 heartbeat IPC: 0.532147 cumulative IPC: 0.365624 (Simulation time: 0 hr 6 min 58 sec) 
Heartbeat CPU 0 instructions: 59000001 cycles: 158926426 heartbeat IPC: 0.383083 cumulative IPC: 0.365911 (Simulation time: 0 hr 7 min 5 sec) 
Heartbeat CPU 0 instructions: 60000003 cycles: 164693577 heartbeat IPC: 0.173396 cumulative IPC: 0.359153 (Simulation time: 0 hr 7 min 17 sec) 
Heartbeat CPU 0 instructions: 61000000 cycles: 171611090 heartbeat IPC: 0.14456 cumulative IPC: 0.350481 (Simulation time: 0 hr 7 min 30 sec) 
Heartbeat CPU 0 instructions: 62000000 cycles: 176706226 heartbeat IPC: 0.196266 cumulative IPC: 0.346024 (Simulation time: 0 hr 7 min 39 sec) 
Heartbeat CPU 0 instructions: 63000001 cycles: 178980372 heartbeat IPC: 0.439726 cumulative IPC: 0.347218 (Simulation time: 0 hr 7 min 46 sec) 
Heartbeat CPU 0 instructions: 64000001 cycles: 180769866 heartbeat IPC: 0.558817 cumulative IPC: 0.349317 (Simulation time: 0 hr 7 min 54 sec) 
Heartbeat CPU 0 instructions: 65000001 cycles: 183228120 heartbeat IPC: 0.406793 cumulative IPC: 0.35009 (Simulation time: 0 hr 8 min 2 sec) 
Heartbeat CPU 0 instructions: 66000000 cycles: 186042425 heartbeat IPC: 0.355327 cumulative IPC: 0.350169 (Simulation time: 0 hr 8 min 9 sec) 
Heartbeat CPU 0 instructions: 67000001 cycles: 188938059 heartbeat IPC: 0.345348 cumulative IPC: 0.350095 (Simulation time: 0 hr 8 min 15 sec) 
Heartbeat CPU 0 instructions: 68000000 cycles: 191001792 heartbeat IPC: 0.484558 cumulative IPC: 0.351551 (Simulation time: 0 hr 8 min 22 sec) 
Heartbeat CPU 0 instructions: 69000002 cycles: 196117527 heartbeat IPC: 0.195476 cumulative IPC: 0.347471 (Simulation time: 0 hr 8 min 31 sec) 
Heartbeat CPU 0 instructions: 70000002 cycles: 201376724 heartbeat IPC: 0.190143 cumulative IPC: 0.343354 (Simulation time: 0 hr 8 min 43 sec) 
Heartbeat CPU 0 instructions: 71000003 cycles: 204567672 heartbeat IPC: 0.313387 cumulative IPC: 0.342886 (Simulation time: 0 hr 8 min 49 sec) 
Heartbeat CPU 0 instructions: 72000003 cycles: 207308015 heartbeat IPC: 0.364918 cumulative IPC: 0.343178 (Simulation time: 0 hr 8 min 56 sec) 
Heartbeat CPU 0 instructions: 73000000 cycles: 210694688 heartbeat IPC: 0.295274 cumulative IPC: 0.342406 (Simulation time: 0 hr 9 min 4 sec) 
Heartbeat CPU 0 instructions: 74000001 cycles: 213473190 heartbeat IPC: 0.359907 cumulative IPC: 0.342634 (Simulation time: 0 hr 9 min 13 sec) 
Heartbeat CPU 0 instructions: 75000000 cycles: 216878024 heartbeat IPC: 0.2937 cumulative IPC: 0.341864 (Simulation time: 0 hr 9 min 19 sec) 
Heartbeat CPU 0 instructions: 76000003 cycles: 220345455 heartbeat IPC: 0.288399 cumulative IPC: 0.341022 (Simulation time: 0 hr 9 min 28 sec) 
Heartbeat CPU 0 instructions: 77000000 cycles: 225660347 heartbeat IPC: 0.18815 cumulative IPC: 0.337414 (Simulation time: 0 hr 9 min 41 sec) 
Heartbeat CPU 0 instructions: 78000000 cycles: 231684773 heartbeat IPC: 0.165991 cumulative IPC: 0.332949 (Simulation time: 0 hr 9 min 54 sec) 
Heartbeat CPU 0 instructions: 79000002 cycles: 233625760 heartbeat IPC: 0.515203 cumulative IPC: 0.334466 (Simulation time: 0 hr 10 min 0 sec) 
Heartbeat CPU 0 instructions: 80000000 cycles: 235494479 heartbeat IPC: 0.535125 cumulative IPC: 0.336061 (Simulation time: 0 hr 10 min 6 sec) 
Heartbeat CPU 0 instructions: 81000002 cycles: 237497507 heartbeat IPC: 0.499245 cumulative IPC: 0.33744 (Simulation time: 0 hr 10 min 13 sec) 
Heartbeat CPU 0 instructions: 82000001 cycles: 239375942 heartbeat IPC: 0.532358 cumulative IPC: 0.338972 (Simulation time: 0 hr 10 min 19 sec) 
Heartbeat CPU 0 instructions: 83000002 cycles: 241265617 heartbeat IPC: 0.529192 cumulative IPC: 0.340464 (Simulation time: 0 hr 10 min 25 sec) 
Heartbeat CPU 0 instructions: 84000001 cycles: 246223651 heartbeat IPC: 0.201693 cumulative IPC: 0.337665 (Simulation time: 0 hr 10 min 35 sec) 
Heartbeat CPU 0 instructions: 85000001 cycles: 252714081 heartbeat IPC: 0.154073 cumulative IPC: 0.332942 (Simulation time: 0 hr 10 min 48 sec) 
Heartbeat CPU 0 instructions: 86000001 cycles: 257069711 heartbeat IPC: 0.229588 cumulative IPC: 0.331188 (Simulation time: 0 hr 10 min 58 sec) 
Heartbeat CPU 0 instructions: 87000001 cycles: 259817148 heartbeat IPC: 0.363976 cumulative IPC: 0.331535 (Simulation time: 0 hr 11 min 5 sec) 
Heartbeat CPU 0 instructions: 88000000 cycles: 262020622 heartbeat IPC: 0.453828 cumulative IPC: 0.332565 (Simulation time: 0 hr 11 min 12 sec) 
Heartbeat CPU 0 instructions: 89000000 cycles: 264950335 heartbeat IPC: 0.34133 cumulative IPC: 0.332663 (Simulation time: 0 hr 11 min 19 sec) 
Heartbeat CPU 0 instructions: 90000001 cycles: 267171773 heartbeat IPC: 0.450159 cumulative IPC: 0.333641 (Simulation time: 0 hr 11 min 26 sec) 
Heartbeat CPU 0 instructions: 91000002 cycles: 269378760 heartbeat IPC: 0.453107 cumulative IPC: 0.334621 (Simulation time: 0 hr 11 min 35 sec) 
Heartbeat CPU 0 instructions: 92000000 cycles: 271976231 heartbeat IPC: 0.384989 cumulative IPC: 0.335103 (Simulation time: 0 hr 11 min 43 sec) 
Heartbeat CPU 0 instructions: 93000001 cycles: 277265420 heartbeat IPC: 0.189065 cumulative IPC: 0.332313 (Simulation time: 0 hr 11 min 55 sec) 
Heartbeat CPU 0 instructions: 94000003 cycles: 282444635 heartbeat IPC: 0.19308 cumulative IPC: 0.329756 (Simulation time: 0 hr 12 min 3 sec) 
Heartbeat CPU 0 instructions: 95000000 cycles: 284916139 heartbeat IPC: 0.404611 cumulative IPC: 0.330406 (Simulation time: 0 hr 12 min 8 sec) 
Heartbeat CPU 0 instructions: 96000002 cycles: 287093655 heartbeat IPC: 0.45924 cumulative IPC: 0.331385 (Simulation time: 0 hr 12 min 15 sec) 
Heartbeat CPU 0 instructions: 97000003 cycles: 289038746 heartbeat IPC: 0.514115 cumulative IPC: 0.332616 (Simulation time: 0 hr 12 min 22 sec) 
Heartbeat CPU 0 instructions: 98000000 cycles: 290829799 heartbeat IPC: 0.558329 cumulative IPC: 0.334008 (Simulation time: 0 hr 12 min 29 sec) 
Heartbeat CPU 0 instructions: 99000000 cycles: 292522988 heartbeat IPC: 0.590602 cumulative IPC: 0.335496 (Simulation time: 0 hr 12 min 35 sec) 
Heartbeat CPU 0 instructions: 100000000 cycles: 294205128 heartbeat IPC: 0.594481 cumulative IPC: 0.336979 (Simulation time: 0 hr 12 min 41 sec) 
Heartbeat CPU 0 instructions: 101000002 cycles: 298601462 heartbeat IPC: 0.227463 cumulative IPC: 0.335364 (Simulation time: 0 hr 12 min 48 sec) 
Heartbeat CPU 0 instructions: 102000001 cycles: 303975263 heartbeat IPC: 0.186088 cumulative IPC: 0.332721 (Simulation time: 0 hr 13 min 0 sec) 
Heartbeat CPU 0 instructions: 103000001 cycles: 305889069 heartbeat IPC: 0.522519 cumulative IPC: 0.33391 (Simulation time: 0 hr 13 min 6 sec) 
Heartbeat CPU 0 instructions: 104000002 cycles: 308014158 heartbeat IPC: 0.470569 cumulative IPC: 0.334855 (Simulation time: 0 hr 13 min 14 sec) 
Heartbeat CPU 0 instructions: 105000001 cycles: 310269340 heartbeat IPC: 0.443423 cumulative IPC: 0.335645 (Simulation time: 0 hr 13 min 21 sec) 
Heartbeat CPU 0 instructions: 106000001 cycles: 312342891 heartbeat IPC: 0.482264 cumulative IPC: 0.336619 (Simulation time: 0 hr 13 min 28 sec) 
Heartbeat CPU 0 instructions: 107000002 cycles: 314387309 heartbeat IPC: 0.489137 cumulative IPC: 0.337613 (Simulation time: 0 hr 13 min 35 sec) 
Heartbeat CPU 0 instructions: 108000001 cycles: 316192165 heartbeat IPC: 0.55406 cumulative IPC: 0.33885 (Simulation time: 0 hr 13 min 42 sec) 
Heartbeat CPU 0 instructions: 109000001 cycles: 320390749 heartbeat IPC: 0.238176 cumulative IPC: 0.337529 (Simulation time: 0 hr 13 min 53 sec) 
Heartbeat CPU 0 instructions: 110000000 cycles: 322628875 heartbeat IPC: 0.446802 cumulative IPC: 0.338288 (Simulation time: 0 hr 14 min 0 sec) 
Heartbeat CPU 0 instructions: 111000001 cycles: 324355298 heartbeat IPC: 0.579233 cumulative IPC: 0.339572 (Simulation time: 0 hr 14 min 6 sec) 
Heartbeat CPU 0 instructions: 112000000 cycles: 326319603 heartbeat IPC: 0.509085 cumulative IPC: 0.340594 (Simulation time: 0 hr 14 min 11 sec) 
Heartbeat CPU 0 instructions: 113000000 cycles: 328775503 heartbeat IPC: 0.407183 cumulative IPC: 0.341092 (Simulation time: 0 hr 14 min 19 sec) 
Heartbeat CPU 0 instructions: 114000003 cycles: 330784305 heartbeat IPC: 0.497811 cumulative IPC: 0.342045 (Simulation time: 0 hr 14 min 25 sec) 
Heartbeat CPU 0 instructions: 115000002 cycles: 332666842 heartbeat IPC: 0.531198 cumulative IPC: 0.343116 (Simulation time: 0 hr 14 min 30 sec) 
Heartbeat CPU 0 instructions: 116000000 cycles: 335542144 heartbeat IPC: 0.347789 cumulative IPC: 0.343156 (Simulation time: 0 hr 14 min 38 sec) 
Heartbeat CPU 0 instructions: 117000001 cycles: 338827633 heartbeat IPC: 0.304369 cumulative IPC: 0.34278 (Simulation time: 0 hr 14 min 44 sec) 
Heartbeat CPU 0 instructions: 118000001 cycles: 340665600 heartbeat IPC: 0.544079 cumulative IPC: 0.343867 (Simulation time: 0 hr 14 min 49 sec) 
Heartbeat CPU 0 instructions: 119000002 cycles: 342735021 heartbeat IPC: 0.483227 cumulative IPC: 0.34471 (Simulation time: 0 hr 14 min 53 sec) 
Heartbeat CPU 0 instructions: 120000001 cycles: 345008534 heartbeat IPC: 0.439847 cumulative IPC: 0.345337 (Simulation time: 0 hr 15 min 0 sec) 
Heartbeat CPU 0 instructions: 121000000 cycles: 347197153 heartbeat IPC: 0.456909 cumulative IPC: 0.346042 (Simulation time: 0 hr 15 min 7 sec) 
Heartbeat CPU 0 instructions: 122000000 cycles: 349567518 heartbeat IPC: 0.421876 cumulative IPC: 0.346556 (Simulation time: 0 hr 15 min 14 sec) 
Heartbeat CPU 0 instructions: 123000002 cycles: 351982153 heartbeat IPC: 0.414142 cumulative IPC: 0.347021 (Simulation time: 0 hr 15 min 20 sec) 
Heartbeat CPU 0 instructions: 124000003 cycles: 356224089 heartbeat IPC: 0.235742 cumulative IPC: 0.345694 (Simulation time: 0 hr 15 min 27 sec) 
Heartbeat CPU 0 instructions: 125000002 cycles: 358462457 heartbeat IPC: 0.446754 cumulative IPC: 0.346326 (Simulation time: 0 hr 15 min 35 sec) 
Heartbeat CPU 0 instructions: 126000001 cycles: 360491537 heartbeat IPC: 0.492834 cumulative IPC: 0.347151 (Simulation time: 0 hr 15 min 42 sec) 
Heartbeat CPU 0 instructions: 127000003 cycles: 362400266 heartbeat IPC: 0.52391 cumulative IPC: 0.348083 (Simulation time: 0 hr 15 min 49 sec) 
Heartbeat CPU 0 instructions: 128000001 cycles: 364253928 heartbeat IPC: 0.539472 cumulative IPC: 0.349058 (Simulation time: 0 hr 15 min 57 sec) 
Heartbeat CPU 0 instructions: 129000001 cycles: 366060145 heartbeat IPC: 0.553643 cumulative IPC: 0.350069 (Simulation time: 0 hr 16 min 4 sec) 
Heartbeat CPU 0 instructions: 130000001 cycles: 368571116 heartbeat IPC: 0.398252 cumulative IPC: 0.350398 (Simulation time: 0 hr 16 min 11 sec) 
Heartbeat CPU 0 instructions: 131000003 cycles: 372749004 heartbeat IPC: 0.239356 cumulative IPC: 0.349152 (Simulation time: 0 hr 16 min 22 sec) 
Heartbeat CPU 0 instructions: 132000000 cycles: 378991213 heartbeat IPC: 0.160199 cumulative IPC: 0.346036 (Simulation time: 0 hr 16 min 31 sec) 
Heartbeat CPU 0 instructions: 133000002 cycles: 381111836 heartbeat IPC: 0.47156 cumulative IPC: 0.346735 (Simulation time: 0 hr 16 min 36 sec) 
Heartbeat CPU 0 instructions: 134000000 cycles: 383121718 heartbeat IPC: 0.497541 cumulative IPC: 0.347527 (Simulation time: 0 hr 16 min 43 sec) 
Heartbeat CPU 0 instructions: 135000002 cycles: 384774828 heartbeat IPC: 0.604922 cumulative IPC: 0.348634 (Simulation time: 0 hr 16 min 50 sec) 
Heartbeat CPU 0 instructions: 136000002 cycles: 386474153 heartbeat IPC: 0.588469 cumulative IPC: 0.34969 (Simulation time: 0 hr 16 min 57 sec) 
Heartbeat CPU 0 instructions: 137000002 cycles: 388483330 heartbeat IPC: 0.497716 cumulative IPC: 0.350456 (Simulation time: 0 hr 17 min 3 sec) 
Heartbeat CPU 0 instructions: 138000001 cycles: 390477628 heartbeat IPC: 0.501429 cumulative IPC: 0.351228 (Simulation time: 0 hr 17 min 8 sec) 
Heartbeat CPU 0 instructions: 139000001 cycles: 393535914 heartbeat IPC: 0.326981 cumulative IPC: 0.35104 (Simulation time: 0 hr 17 min 13 sec) 
Heartbeat CPU 0 instructions: 140000000 cycles: 396722769 heartbeat IPC: 0.313789 cumulative IPC: 0.35074 (Simulation time: 0 hr 17 min 20 sec) 
Heartbeat CPU 0 instructions: 141000000 cycles: 398570080 heartbeat IPC: 0.541327 cumulative IPC: 0.351624 (Simulation time: 0 hr 17 min 24 sec) 
Heartbeat CPU 0 instructions: 142000000 cycles: 400341130 heartbeat IPC: 0.564637 cumulative IPC: 0.352568 (Simulation time: 0 hr 17 min 30 sec) 
Heartbeat CPU 0 instructions: 143000000 cycles: 402764189 heartbeat IPC: 0.412701 cumulative IPC: 0.35293 (Simulation time: 0 hr 17 min 37 sec) 
Heartbeat CPU 0 instructions: 144000001 cycles: 404782705 heartbeat IPC: 0.495414 cumulative IPC: 0.353641 (Simulation time: 0 hr 17 min 45 sec) 
Heartbeat CPU 0 instructions: 145000002 cycles: 407457619 heartbeat IPC: 0.373844 cumulative IPC: 0.353774 (Simulation time: 0 hr 17 min 53 sec) 
Heartbeat CPU 0 instructions: 146000002 cycles: 409656638 heartbeat IPC: 0.454748 cumulative IPC: 0.354317 (Simulation time: 0 hr 17 min 58 sec) 
Heartbeat CPU 0 instructions: 147000000 cycles: 413809431 heartbeat IPC: 0.240801 cumulative IPC: 0.353176 (Simulation time: 0 hr 18 min 9 sec) 
Heartbeat CPU 0 instructions: 148000003 cycles: 415642760 heartbeat IPC: 0.545457 cumulative IPC: 0.354025 (Simulation time: 0 hr 18 min 14 sec) 
Heartbeat CPU 0 instructions: 149000003 cycles: 417411372 heartbeat IPC: 0.565415 cumulative IPC: 0.354922 (Simulation time: 0 hr 18 min 20 sec) 
Heartbeat CPU 0 instructions: 150000002 cycles: 419644060 heartbeat IPC: 0.44789 cumulative IPC: 0.355417 (Simulation time: 0 hr 18 min 25 sec) 
Heartbeat CPU 0 instructions: 151000002 cycles: 421747003 heartbeat IPC: 0.475524 cumulative IPC: 0.356016 (Simulation time: 0 hr 18 min 33 sec) 
Heartbeat CPU 0 instructions: 152000000 cycles: 423867566 heartbeat IPC: 0.471572 cumulative IPC: 0.356595 (Simulation time: 0 hr 18 min 40 sec) 
Heartbeat CPU 0 instructions: 153000002 cycles: 426244548 heartbeat IPC: 0.420702 cumulative IPC: 0.356953 (Simulation time: 0 hr 18 min 47 sec) 
Heartbeat CPU 0 instructions: 154000000 cycles: 431081138 heartbeat IPC: 0.206757 cumulative IPC: 0.355266 (Simulation time: 0 hr 18 min 56 sec) 
Heartbeat CPU 0 instructions: 155000001 cycles: 433515908 heartbeat IPC: 0.410717 cumulative IPC: 0.355578 (Simulation time: 0 hr 19 min 2 sec) 
Heartbeat CPU 0 instructions: 156000001 cycles: 435411900 heartbeat IPC: 0.527428 cumulative IPC: 0.356327 (Simulation time: 0 hr 19 min 7 sec) 
Heartbeat CPU 0 instructions: 157000001 cycles: 438268854 heartbeat IPC: 0.350023 cumulative IPC: 0.356286 (Simulation time: 0 hr 19 min 14 sec) 
Heartbeat CPU 0 instructions: 158000001 cycles: 440418638 heartbeat IPC: 0.465163 cumulative IPC: 0.356818 (Simulation time: 0 hr 19 min 21 sec) 
Heartbeat CPU 0 instructions: 159000003 cycles: 442772896 heartbeat IPC: 0.424763 cumulative IPC: 0.357179 (Simulation time: 0 hr 19 min 29 sec) 
Heartbeat CPU 0 instructions: 160000001 cycles: 445259893 heartbeat IPC: 0.402091 cumulative IPC: 0.35743 (Simulation time: 0 hr 19 min 36 sec) 
Heartbeat CPU 0 instructions: 161000003 cycles: 449167990 heartbeat IPC: 0.25588 cumulative IPC: 0.356546 (Simulation time: 0 hr 19 min 42 sec) 
Heartbeat CPU 0 instructions: 162000000 cycles: 456010639 heartbeat IPC: 0.146142 cumulative IPC: 0.353386 (Simulation time: 0 hr 19 min 55 sec) 
Heartbeat CPU 0 instructions: 163000001 cycles: 458670785 heartbeat IPC: 0.37592 cumulative IPC: 0.353517 (Simulation time: 0 hr 20 min 2 sec) 
Heartbeat CPU 0 instructions: 164000002 cycles: 460566993 heartbeat IPC: 0.527369 cumulative IPC: 0.354233 (Simulation time: 0 hr 20 min 9 sec) 
Heartbeat CPU 0 instructions: 165000000 cycles: 462411055 heartbeat IPC: 0.54228 cumulative IPC: 0.354984 (Simulation time: 0 hr 20 min 15 sec) 
Heartbeat CPU 0 instructions: 166000001 cycles: 464759224 heartbeat IPC: 0.425864 cumulative IPC: 0.355342 (Simulation time: 0 hr 20 min 22 sec) 
Heartbeat CPU 0 instructions: 167000002 cycles: 466720135 heartbeat IPC: 0.509968 cumulative IPC: 0.355992 (Simulation time: 0 hr 20 min 29 sec) 
Heartbeat CPU 0 instructions: 168000001 cycles: 468763517 heartbeat IPC: 0.489384 cumulative IPC: 0.356574 (Simulation time: 0 hr 20 min 37 sec) 
Heartbeat CPU 0 instructions: 169000000 cycles: 471260557 heartbeat IPC: 0.400474 cumulative IPC: 0.356807 (Simulation time: 0 hr 20 min 44 sec) 
Heartbeat CPU 0 instructions: 170000001 cycles: 475104803 heartbeat IPC: 0.260129 cumulative IPC: 0.356024 (Simulation time: 0 hr 20 min 52 sec) 
Heartbeat CPU 0 instructions: 171000002 cycles: 477158404 heartbeat IPC: 0.48695 cumulative IPC: 0.356588 (Simulation time: 0 hr 20 min 59 sec) 
Heartbeat CPU 0 instructions: 172000003 cycles: 479035653 heartbeat IPC: 0.532695 cumulative IPC: 0.357279 (Simulation time: 0 hr 21 min 6 sec) 
Heartbeat CPU 0 instructions: 173000000 cycles: 480919985 heartbeat IPC: 0.53069 cumulative IPC: 0.357959 (Simulation time: 0 hr 21 min 13 sec) 
Heartbeat CPU 0 instructions: 174000003 cycles: 483460309 heartbeat IPC: 0.393652 cumulative IPC: 0.358147 (Simulation time: 0 hr 21 min 21 sec) 
Heartbeat CPU 0 instructions: 175000000 cycles: 485816814 heartbeat IPC: 0.424356 cumulative IPC: 0.358468 (Simulation time: 0 hr 21 min 28 sec) 
Heartbeat CPU 0 instructions: 176000000 cycles: 490672283 heartbeat IPC: 0.205953 cumulative IPC: 0.356958 (Simulation time: 0 hr 21 min 40 sec) 
Heartbeat CPU 0 instructions: 177000000 cycles: 496198454 heartbeat IPC: 0.180957 cumulative IPC: 0.354996 (Simulation time: 0 hr 21 min 50 sec) 
Heartbeat CPU 0 instructions: 178000001 cycles: 498344206 heartbeat IPC: 0.466038 cumulative IPC: 0.355474 (Simulation time: 0 hr 21 min 56 sec) 
Heartbeat CPU 0 instructions: 179000002 cycles: 500182721 heartbeat IPC: 0.543918 cumulative IPC: 0.356168 (Simulation time: 0 hr 22 min 1 sec) 
Heartbeat CPU 0 instructions: 180000001 cycles: 502064409 heartbeat IPC: 0.531437 cumulative IPC: 0.356825 (Simulation time: 0 hr 22 min 7 sec) 
Heartbeat CPU 0 instructions: 181000000 cycles: 503970193 heartbeat IPC: 0.524718 cumulative IPC: 0.35746 (Simulation time: 0 hr 22 min 13 sec) 
Heartbeat CPU 0 instructions: 182000001 cycles: 505930773 heartbeat IPC: 0.510054 cumulative IPC: 0.358052 (Simulation time: 0 hr 22 min 20 sec) 
Heartbeat CPU 0 instructions: 183000003 cycles: 509628351 heartbeat IPC: 0.270448 cumulative IPC: 0.357416 (Simulation time: 0 hr 22 min 29 sec) 
Heartbeat CPU 0 instructions: 184000000 cycles: 516369788 heartbeat IPC: 0.148336 cumulative IPC: 0.354684 (Simulation time: 0 hr 22 min 44 sec) 
Heartbeat CPU 0 instructions: 185000000 cycles: 518682363 heartbeat IPC: 0.432418 cumulative IPC: 0.355031 (Simulation time: 0 hr 22 min 51 sec) 
Heartbeat CPU 0 instructions: 186000003 cycles: 520576735 heartbeat IPC: 0.527881 cumulative IPC: 0.355661 (Simulation time: 0 hr 22 min 57 sec) 
Heartbeat CPU 0 instructions: 187000000 cycles: 522661468 heartbeat IPC: 0.479676 cumulative IPC: 0.356156 (Simulation time: 0 hr 23 min 3 sec) 
Heartbeat CPU 0 instructions: 188000000 cycles: 525036156 heartbeat IPC: 0.421108 cumulative IPC: 0.35645 (Simulation time: 0 hr 23 min 10 sec) 
Heartbeat CPU 0 instructions: 189000000 cycles: 527259308 heartbeat IPC: 0.449812 cumulative IPC: 0.356844 (Simulation time: 0 hr 23 min 18 sec) 
Heartbeat CPU 0 instructions: 190000001 cycles: 529255249 heartbeat IPC: 0.501017 cumulative IPC: 0.357388 (Simulation time: 0 hr 23 min 24 sec) 
Heartbeat CPU 0 instructions: 191000000 cycles: 534581134 heartbeat IPC: 0.187762 cumulative IPC: 0.355697 (Simulation time: 0 hr 23 min 34 sec) 
Heartbeat CPU 0 instructions: 192000001 cycles: 541281050 heartbeat IPC: 0.149256 cumulative IPC: 0.353139 (Simulation time: 0 hr 23 min 48 sec) 
Heartbeat CPU 0 instructions: 193000001 cycles: 548268559 heartbeat IPC: 0.143113 cumulative IPC: 0.350461 (Simulation time: 0 hr 24 min 2 sec) 
Heartbeat CPU 0 instructions: 194000000 cycles: 551526409 heartbeat IPC: 0.306951 cumulative IPC: 0.350203 (Simulation time: 0 hr 24 min 11 sec) 
Heartbeat CPU 0 instructions: 195000000 cycles: 553260079 heartbeat IPC: 0.576811 cumulative IPC: 0.350914 (Simulation time: 0 hr 24 min 17 sec) 
Heartbeat CPU 0 instructions: 196000001 cycles: 554955813 heartbeat IPC: 0.589716 cumulative IPC: 0.351644 (Simulation time: 0 hr 24 min 21 sec) 
Heartbeat CPU 0 instructions: 197000002 cycles: 556740790 heartbeat IPC: 0.560232 cumulative IPC: 0.352313 (Simulation time: 0 hr 24 min 27 sec) 
Heartbeat CPU 0 instructions: 198000000 cycles: 558573642 heartbeat IPC: 0.545597 cumulative IPC: 0.352948 (Simulation time: 0 hr 24 min 31 sec) 
Heartbeat CPU 0 instructions: 199000000 cycles: 560605094 heartbeat IPC: 0.492259 cumulative IPC: 0.353453 (Simulation time: 0 hr 24 min 37 sec) 
Heartbeat CPU 0 instructions: 200000001 cycles: 566532890 heartbeat IPC: 0.168697 cumulative IPC: 0.351519 (Simulation time: 0 hr 24 min 50 sec) 
Heartbeat CPU 0 instructions: 201000000 cycles: 570849975 heartbeat IPC: 0.231638 cumulative IPC: 0.350611 (Simulation time: 0 hr 24 min 58 sec) 
Heartbeat CPU 0 instructions: 202000000 cycles: 573566818 heartbeat IPC: 0.368074 cumulative IPC: 0.350694 (Simulation time: 0 hr 25 min 5 sec) 
Heartbeat CPU 0 instructions: 203000000 cycles: 575506247 heartbeat IPC: 0.515616 cumulative IPC: 0.35125 (Simulation time: 0 hr 25 min 11 sec) 
Heartbeat CPU 0 instructions: 204000000 cycles: 577975496 heartbeat IPC: 0.404981 cumulative IPC: 0.35148 (Simulation time: 0 hr 25 min 16 sec) 
Heartbeat CPU 0 instructions: 205000000 cycles: 580785985 heartbeat IPC: 0.35581 cumulative IPC: 0.351501 (Simulation time: 0 hr 25 min 23 sec) 
Heartbeat CPU 0 instructions: 206000002 cycles: 583702641 heartbeat IPC: 0.342859 cumulative IPC: 0.351458 (Simulation time: 0 hr 25 min 31 sec) 
Heartbeat CPU 0 instructions: 207000001 cycles: 586787817 heartbeat IPC: 0.32413 cumulative IPC: 0.351314 (Simulation time: 0 hr 25 min 40 sec) 
Heartbeat CPU 0 instructions: 208000001 cycles: 592776699 heartbeat IPC: 0.166976 cumulative IPC: 0.34945 (Simulation time: 0 hr 25 min 54 sec) 
Heartbeat CPU 0 instructions: 209000000 cycles: 599826406 heartbeat IPC: 0.14185 cumulative IPC: 0.347009 (Simulation time: 0 hr 26 min 6 sec) 
Heartbeat CPU 0 instructions: 210000000 cycles: 603343007 heartbeat IPC: 0.284366 cumulative IPC: 0.346643 (Simulation time: 0 hr 26 min 13 sec) 
Heartbeat CPU 0 instructions: 211000003 cycles: 605509221 heartbeat IPC: 0.461636 cumulative IPC: 0.347055 (Simulation time: 0 hr 26 min 19 sec) 
Heartbeat CPU 0 instructions: 212000001 cycles: 607411817 heartbeat IPC: 0.525597 cumulative IPC: 0.347615 (Simulation time: 0 hr 26 min 24 sec) 
Heartbeat CPU 0 instructions: 213000000 cycles: 609297299 heartbeat IPC: 0.530368 cumulative IPC: 0.348181 (Simulation time: 0 hr 26 min 29 sec) 
Heartbeat CPU 0 instructions: 214000000 cycles: 611137718 heartbeat IPC: 0.543355 cumulative IPC: 0.348769 (Simulation time: 0 hr 26 min 35 sec) 
Heartbeat CPU 0 instructions: 215000000 cycles: 613113823 heartbeat IPC: 0.506046 cumulative IPC: 0.349276 (Simulation time: 0 hr 26 min 43 sec) 
Heartbeat CPU 0 instructions: 216000001 cycles: 615366002 heartbeat IPC: 0.444015 cumulative IPC: 0.349623 (Simulation time: 0 hr 26 min 50 sec) 
Heartbeat CPU 0 instructions: 217000003 cycles: 621288461 heartbeat IPC: 0.168849 cumulative IPC: 0.347899 (Simulation time: 0 hr 27 min 2 sec) 
Heartbeat CPU 0 instructions: 218000001 cycles: 625187653 heartbeat IPC: 0.256463 cumulative IPC: 0.347328 (Simulation time: 0 hr 27 min 12 sec) 
Heartbeat CPU 0 instructions: 219000000 cycles: 626947848 heartbeat IPC: 0.568118 cumulative IPC: 0.347948 (Simulation time: 0 hr 27 min 19 sec) 
Heartbeat CPU 0 instructions: 220000000 cycles: 628930192 heartbeat IPC: 0.504453 cumulative IPC: 0.348442 (Simulation time: 0 hr 27 min 27 sec) 
Heartbeat CPU 0 instructions: 221000000 cycles: 631571508 heartbeat IPC: 0.378599 cumulative IPC: 0.348568 (Simulation time: 0 hr 27 min 34 sec) 
Heartbeat CPU 0 instructions: 222000001 cycles: 633576882 heartbeat IPC: 0.498661 cumulative IPC: 0.349044 (Simulation time: 0 hr 27 min 40 sec) 
Heartbeat CPU 0 instructions: 223000000 cycles: 635692740 heartbeat IPC: 0.472621 cumulative IPC: 0.349455 (Simulation time: 0 hr 27 min 48 sec) 
Heartbeat CPU 0 instructions: 224000000 cycles: 637813159 heartbeat IPC: 0.471605 cumulative IPC: 0.349861 (Simulation time: 0 hr 27 min 53 sec) 
Heartbeat CPU 0 instructions: 225000001 cycles: 642104480 heartbeat IPC: 0.233029 cumulative IPC: 0.34908 (Simulation time: 0 hr 28 min 4 sec) 
Heartbeat CPU 0 instructions: 226000002 cycles: 644704811 heartbeat IPC: 0.384567 cumulative IPC: 0.349223 (Simulation time: 0 hr 28 min 11 sec) 
Heartbeat CPU 0 instructions: 227000002 cycles: 646826036 heartbeat IPC: 0.471426 cumulative IPC: 0.349624 (Simulation time: 0 hr 28 min 17 sec) 
Heartbeat CPU 0 instructions: 228000000 cycles: 649198772 heartbeat IPC: 0.421454 cumulative IPC: 0.349887 (Simulation time: 0 hr 28 min 25 sec) 
Heartbeat CPU 0 instructions: 229000000 cycles: 651776905 heartbeat IPC: 0.387878 cumulative IPC: 0.350037 (Simulation time: 0 hr 28 min 32 sec) 
Heartbeat CPU 0 instructions: 230000000 cycles: 654303713 heartbeat IPC: 0.395756 cumulative IPC: 0.350214 (Simulation time: 0 hr 28 min 37 sec) 
Heartbeat CPU 0 instructions: 231000000 cycles: 656889274 heartbeat IPC: 0.386763 cumulative IPC: 0.350358 (Simulation time: 0 hr 28 min 45 sec) 
Heartbeat CPU 0 instructions: 232000000 cycles: 660938168 heartbeat IPC: 0.246981 cumulative IPC: 0.349724 (Simulation time: 0 hr 28 min 52 sec) 
Heartbeat CPU 0 instructions: 233000003 cycles: 663138219 heartbeat IPC: 0.454536 cumulative IPC: 0.350072 (Simulation time: 0 hr 28 min 58 sec) 
Heartbeat CPU 0 instructions: 234000000 cycles: 665415425 heartbeat IPC: 0.439133 cumulative IPC: 0.350377 (Simulation time: 0 hr 29 min 5 sec) 
Heartbeat CPU 0 instructions: 235000000 cycles: 667930273 heartbeat IPC: 0.397638 cumulative IPC: 0.350555 (Simulation time: 0 hr 29 min 12 sec) 
Heartbeat CPU 0 instructions: 236000001 cycles: 670846291 heartbeat IPC: 0.342934 cumulative IPC: 0.350522 (Simulation time: 0 hr 29 min 20 sec) 
Heartbeat CPU 0 instructions: 237000001 cycles: 672667611 heartbeat IPC: 0.549052 cumulative IPC: 0.35106 (Simulation time: 0 hr 29 min 28 sec) 
Heartbeat CPU 0 instructions: 238000000 cycles: 675072218 heartbeat IPC: 0.415868 cumulative IPC: 0.351291 (Simulation time: 0 hr 29 min 36 sec) 
Heartbeat CPU 0 instructions: 239000001 cycles: 679725673 heartbeat IPC: 0.214894 cumulative IPC: 0.350357 (Simulation time: 0 hr 29 min 48 sec) 
Heartbeat CPU 0 instructions: 240000000 cycles: 681558068 heartbeat IPC: 0.545733 cumulative IPC: 0.350882 (Simulation time: 0 hr 29 min 53 sec) 
Heartbeat CPU 0 instructions: 241000001 cycles: 683232486 heartbeat IPC: 0.597223 cumulative IPC: 0.351486 (Simulation time: 0 hr 29 min 58 sec) 
Heartbeat CPU 0 instructions: 242000000 cycles: 685149957 heartbeat IPC: 0.52152 cumulative IPC: 0.351963 (Simulation time: 0 hr 30 min 3 sec) 
Heartbeat CPU 0 instructions: 243000000 cycles: 687814983 heartbeat IPC: 0.375231 cumulative IPC: 0.352053 (Simulation time: 0 hr 30 min 8 sec) 
Heartbeat CPU 0 instructions: 244000001 cycles: 690626713 heartbeat IPC: 0.355653 cumulative IPC: 0.352067 (Simulation time: 0 hr 30 min 17 sec) 
Heartbeat CPU 0 instructions: 245000001 cycles: 692954746 heartbeat IPC: 0.429547 cumulative IPC: 0.352328 (Simulation time: 0 hr 30 min 23 sec) 
Heartbeat CPU 0 instructions: 246000002 cycles: 698394830 heartbeat IPC: 0.183821 cumulative IPC: 0.351015 (Simulation time: 0 hr 30 min 34 sec) 
Heartbeat CPU 0 instructions: 247000001 cycles: 705053654 heartbeat IPC: 0.150177 cumulative IPC: 0.349117 (Simulation time: 0 hr 30 min 43 sec) 
Heartbeat CPU 0 instructions: 248000001 cycles: 709226901 heartbeat IPC: 0.239622 cumulative IPC: 0.348472 (Simulation time: 0 hr 30 min 52 sec) 
Heartbeat CPU 0 instructions: 249000000 cycles: 711135488 heartbeat IPC: 0.523947 cumulative IPC: 0.348943 (Simulation time: 0 hr 30 min 59 sec) 
Heartbeat CPU 0 instructions: 250000001 cycles: 713645054 heartbeat IPC: 0.398476 cumulative IPC: 0.349117 (Simulation time: 0 hr 31 min 7 sec) 
Heartbeat CPU 0 instructions: 251000000 cycles: 715848380 heartbeat IPC: 0.453859 cumulative IPC: 0.34944 (Simulation time: 0 hr 31 min 14 sec) 
Heartbeat CPU 0 instructions: 252000002 cycles: 717890829 heartbeat IPC: 0.489609 cumulative IPC: 0.349839 (Simulation time: 0 hr 31 min 20 sec) 
Heartbeat CPU 0 instructions: 253000000 cycles: 719751140 heartbeat IPC: 0.537543 cumulative IPC: 0.350324 (Simulation time: 0 hr 31 min 26 sec) 
Heartbeat CPU 0 instructions: 254000001 cycles: 722344558 heartbeat IPC: 0.385592 cumulative IPC: 0.350451 (Simulation time: 0 hr 31 min 34 sec) 
Heartbeat CPU 0 instructions: 255000001 cycles: 725734540 heartbeat IPC: 0.294987 cumulative IPC: 0.350192 (Simulation time: 0 hr 31 min 41 sec) 
Heartbeat CPU 0 instructions: 256000000 cycles: 727477320 heartbeat IPC: 0.573795 cumulative IPC: 0.350728 (Simulation time: 0 hr 31 min 47 sec) 
Heartbeat CPU 0 instructions: 257000001 cycles: 729353540 heartbeat IPC: 0.532987 cumulative IPC: 0.351197 (Simulation time: 0 hr 31 min 51 sec) 
Heartbeat CPU 0 instructions: 258000001 cycles: 731660522 heartbeat IPC: 0.433467 cumulative IPC: 0.351457 (Simulation time: 0 hr 31 min 56 sec) 
Heartbeat CPU 0 instructions: 259000002 cycles: 733563484 heartbeat IPC: 0.525497 cumulative IPC: 0.351908 (Simulation time: 0 hr 32 min 1 sec) 
Heartbeat CPU 0 instructions: 260000001 cycles: 735847506 heartbeat IPC: 0.437824 cumulative IPC: 0.352175 (Simulation time: 0 hr 32 min 7 sec) 
Heartbeat CPU 0 instructions: 261000000 cycles: 738727694 heartbeat IPC: 0.347199 cumulative IPC: 0.352156 (Simulation time: 0 hr 32 min 15 sec) 
Heartbeat CPU 0 instructions: 262000002 cycles: 742772011 heartbeat IPC: 0.247261 cumulative IPC: 0.351584 (Simulation time: 0 hr 32 min 23 sec) 
Heartbeat CPU 0 instructions: 263000002 cycles: 745422504 heartbeat IPC: 0.377288 cumulative IPC: 0.351676 (Simulation time: 0 hr 32 min 29 sec) 
Heartbeat CPU 0 instructions: 264000000 cycles: 748198147 heartbeat IPC: 0.360276 cumulative IPC: 0.351708 (Simulation time: 0 hr 32 min 37 sec) 
Heartbeat CPU 0 instructions: 265000003 cycles: 751574231 heartbeat IPC: 0.296202 cumulative IPC: 0.351458 (Simulation time: 0 hr 32 min 46 sec) 
Heartbeat CPU 0 instructions: 266000002 cycles: 753632310 heartbeat IPC: 0.48589 cumulative IPC: 0.351826 (Simulation time: 0 hr 32 min 54 sec) 
Heartbeat CPU 0 instructions: 267000000 cycles: 755698062 heartbeat IPC: 0.484084 cumulative IPC: 0.352187 (Simulation time: 0 hr 33 min 2 sec) 
Heartbeat CPU 0 instructions: 268000003 cycles: 758459303 heartbeat IPC: 0.362157 cumulative IPC: 0.352224 (Simulation time: 0 hr 33 min 7 sec) 
Heartbeat CPU 0 instructions: 269000000 cycles: 763520786 heartbeat IPC: 0.19757 cumulative IPC: 0.351198 (Simulation time: 0 hr 33 min 15 sec) 
Heartbeat CPU 0 instructions: 270000002 cycles: 766284696 heartbeat IPC: 0.361807 cumulative IPC: 0.351236 (Simulation time: 0 hr 33 min 22 sec) 
Heartbeat CPU 0 instructions: 271000000 cycles: 768716421 heartbeat IPC: 0.41123 cumulative IPC: 0.351426 (Simulation time: 0 hr 33 min 30 sec) 
Heartbeat CPU 0 instructions: 272000001 cycles: 770994372 heartbeat IPC: 0.438991 cumulative IPC: 0.351685 (Simulation time: 0 hr 33 min 38 sec) 
Heartbeat CPU 0 instructions: 273000000 cycles: 772940638 heartbeat IPC: 0.513804 cumulative IPC: 0.352093 (Simulation time: 0 hr 33 min 45 sec) 
Heartbeat CPU 0 instructions: 274000002 cycles: 775085571 heartbeat IPC: 0.466216 cumulative IPC: 0.352409 (Simulation time: 0 hr 33 min 52 sec) 
Heartbeat CPU 0 instructions: 275000000 cycles: 777275721 heartbeat IPC: 0.456589 cumulative IPC: 0.352703 (Simulation time: 0 hr 33 min 59 sec) 
Heartbeat CPU 0 instructions: 276000003 cycles: 783080441 heartbeat IPC: 0.172274 cumulative IPC: 0.351365 (Simulation time: 0 hr 34 min 11 sec) 
Heartbeat CPU 0 instructions: 277000001 cycles: 787819171 heartbeat IPC: 0.211027 cumulative IPC: 0.35052 (Simulation time: 0 hr 34 min 19 sec) 
Heartbeat CPU 0 instructions: 278000000 cycles: 789869669 heartbeat IPC: 0.487686 cumulative IPC: 0.350876 (Simulation time: 0 hr 34 min 25 sec) 
Heartbeat CPU 0 instructions: 279000001 cycles: 791672466 heartbeat IPC: 0.554694 cumulative IPC: 0.351341 (Simulation time: 0 hr 34 min 32 sec) 
Heartbeat CPU 0 instructions: 280000002 cycles: 794129455 heartbeat IPC: 0.407003 cumulative IPC: 0.351513 (Simulation time: 0 hr 34 min 37 sec) 
Heartbeat CPU 0 instructions: 281000002 cycles: 797318486 heartbeat IPC: 0.313575 cumulative IPC: 0.351361 (Simulation time: 0 hr 34 min 46 sec) 
Heartbeat CPU 0 instructions: 282000000 cycles: 800412564 heartbeat IPC: 0.323197 cumulative IPC: 0.351252 (Simulation time: 0 hr 34 min 51 sec) 
Heartbeat CPU 0 instructions: 283000003 cycles: 803002892 heartbeat IPC: 0.386053 cumulative IPC: 0.351365 (Simulation time: 0 hr 34 min 56 sec) 
Heartbeat CPU 0 instructions: 284000000 cycles: 808707203 heartbeat IPC: 0.175305 cumulative IPC: 0.350122 (Simulation time: 0 hr 35 min 4 sec) 
Heartbeat CPU 0 instructions: 285000002 cycles: 815553985 heartbeat IPC: 0.146054 cumulative IPC: 0.348408 (Simulation time: 0 hr 35 min 16 sec) 
Heartbeat CPU 0 instructions: 286000000 cycles: 818918550 heartbeat IPC: 0.297215 cumulative IPC: 0.348198 (Simulation time: 0 hr 35 min 23 sec) 
Heartbeat CPU 0 instructions: 287000002 cycles: 820642154 heartbeat IPC: 0.580181 cumulative IPC: 0.348685 (Simulation time: 0 hr 35 min 30 sec) 
Heartbeat CPU 0 instructions: 288000002 cycles: 822795018 heartbeat IPC: 0.464498 cumulative IPC: 0.348988 (Simulation time: 0 hr 35 min 37 sec) 
Heartbeat CPU 0 instructions: 289000000 cycles: 825021094 heartbeat IPC: 0.44922 cumulative IPC: 0.349259 (Simulation time: 0 hr 35 min 45 sec) 
Heartbeat CPU 0 instructions: 290000001 cycles: 826946848 heartbeat IPC: 0.519278 cumulative IPC: 0.349655 (Simulation time: 0 hr 35 min 51 sec) 
Heartbeat CPU 0 instructions: 291000001 cycles: 828833087 heartbeat IPC: 0.530156 cumulative IPC: 0.350066 (Simulation time: 0 hr 35 min 58 sec) 
Heartbeat CPU 0 instructions: 292000000 cycles: 831866069 heartbeat IPC: 0.329708 cumulative IPC: 0.349992 (Simulation time: 0 hr 36 min 7 sec) 
Heartbeat CPU 0 instructions: 293000000 cycles: 838745695 heartbeat IPC: 0.145357 cumulative IPC: 0.348312 (Simulation time: 0 hr 36 min 21 sec) 
Heartbeat CPU 0 instructions: 294000000 cycles: 841574736 heartbeat IPC: 0.353477 cumulative IPC: 0.34833 (Simulation time: 0 hr 36 min 26 sec) 
Heartbeat CPU 0 instructions: 295000000 cycles: 844013252 heartbeat IPC: 0.410085 cumulative IPC: 0.348508 (Simulation time: 0 hr 36 min 32 sec) 
Heartbeat CPU 0 instructions: 296000000 cycles: 846494171 heartbeat IPC: 0.403076 cumulative IPC: 0.348668 (Simulation time: 0 hr 36 min 37 sec) 
Heartbeat CPU 0 instructions: 297000000 cycles: 848406071 heartbeat IPC: 0.52304 cumulative IPC: 0.349062 (Simulation time: 0 hr 36 min 43 sec) 
Heartbeat CPU 0 instructions: 298000001 cycles: 850256174 heartbeat IPC: 0.540511 cumulative IPC: 0.349478 (Simulation time: 0 hr 36 min 49 sec) 
Heartbeat CPU 0 instructions: 299000001 cycles: 852260996 heartbeat IPC: 0.498797 cumulative IPC: 0.34983 (Simulation time: 0 hr 36 min 57 sec) 
Heartbeat CPU 0 instructions: 300000000 cycles: 855544689 heartbeat IPC: 0.304535 cumulative IPC: 0.349656 (Simulation time: 0 hr 37 min 4 sec) 
Heartbeat CPU 0 instructions: 301000002 cycles: 862083585 heartbeat IPC: 0.152931 cumulative IPC: 0.348163 (Simulation time: 0 hr 37 min 14 sec) 
Heartbeat CPU 0 instructions: 302000000 cycles: 864286217 heartbeat IPC: 0.454001 cumulative IPC: 0.348433 (Simulation time: 0 hr 37 min 20 sec) 
Heartbeat CPU 0 instructions: 303000000 cycles: 866422490 heartbeat IPC: 0.468105 cumulative IPC: 0.348728 (Simulation time: 0 hr 37 min 25 sec) 
Heartbeat CPU 0 instructions: 304000000 cycles: 868323559 heartbeat IPC: 0.52602 cumulative IPC: 0.349116 (Simulation time: 0 hr 37 min 31 sec) 
Heartbeat CPU 0 instructions: 305000000 cycles: 870191396 heartbeat IPC: 0.535379 cumulative IPC: 0.349516 (Simulation time: 0 hr 37 min 38 sec) 
Heartbeat CPU 0 instructions: 306000001 cycles: 872263970 heartbeat IPC: 0.482492 cumulative IPC: 0.349832 (Simulation time: 0 hr 37 min 43 sec) 
Heartbeat CPU 0 instructions: 307000001 cycles: 874710603 heartbeat IPC: 0.408725 cumulative IPC: 0.349997 (Simulation time: 0 hr 37 min 48 sec) 
Heartbeat CPU 0 instructions: 308000000 cycles: 878429490 heartbeat IPC: 0.268897 cumulative IPC: 0.349654 (Simulation time: 0 hr 37 min 55 sec) 
Heartbeat CPU 0 instructions: 309000000 cycles: 881534929 heartbeat IPC: 0.322016 cumulative IPC: 0.349556 (Simulation time: 0 hr 38 min 2 sec) 
Heartbeat CPU 0 instructions: 310000000 cycles: 883912662 heartbeat IPC: 0.420569 cumulative IPC: 0.349747 (Simulation time: 0 hr 38 min 8 sec) 
Heartbeat CPU 0 instructions: 311000001 cycles: 885985855 heartbeat IPC: 0.482348 cumulative IPC: 0.350058 (Simulation time: 0 hr 38 min 15 sec) 
Heartbeat CPU 0 instructions: 312000001 cycles: 888137677 heartbeat IPC: 0.464722 cumulative IPC: 0.350336 (Simulation time: 0 hr 38 min 23 sec) 
Heartbeat CPU 0 instructions: 313000000 cycles: 890128702 heartbeat IPC: 0.502253 cumulative IPC: 0.350676 (Simulation time: 0 hr 38 min 30 sec) 
Heartbeat CPU 0 instructions: 314000001 cycles: 892742761 heartbeat IPC: 0.382547 cumulative IPC: 0.350769 (Simulation time: 0 hr 38 min 37 sec) 
Heartbeat CPU 0 instructions: 315000003 cycles: 897341746 heartbeat IPC: 0.21744 cumulative IPC: 0.350085 (Simulation time: 0 hr 38 min 45 sec) 
Heartbeat CPU 0 instructions: 316000002 cycles: 903977393 heartbeat IPC: 0.150701 cumulative IPC: 0.348621 (Simulation time: 0 hr 38 min 56 sec) 
Heartbeat CPU 0 instructions: 317000001 cycles: 910233333 heartbeat IPC: 0.159848 cumulative IPC: 0.347323 (Simulation time: 0 hr 39 min 6 sec) 
Heartbeat CPU 0 instructions: 318000002 cycles: 913405692 heartbeat IPC: 0.315223 cumulative IPC: 0.347212 (Simulation time: 0 hr 39 min 12 sec) 
Heartbeat CPU 0 instructions: 319000000 cycles: 915463737 heartbeat IPC: 0.485897 cumulative IPC: 0.347524 (Simulation time: 0 hr 39 min 19 sec) 
Heartbeat CPU 0 instructions: 320000003 cycles: 918026609 heartbeat IPC: 0.390188 cumulative IPC: 0.347643 (Simulation time: 0 hr 39 min 27 sec) 
Heartbeat CPU 0 instructions: 321000002 cycles: 920688600 heartbeat IPC: 0.375658 cumulative IPC: 0.347724 (Simulation time: 0 hr 39 min 36 sec) 
Heartbeat CPU 0 instructions: 322000000 cycles: 922926881 heartbeat IPC: 0.446771 cumulative IPC: 0.347964 (Simulation time: 0 hr 39 min 42 sec) 
Heartbeat CPU 0 instructions: 323000000 cycles: 925057521 heartbeat IPC: 0.469343 cumulative IPC: 0.348244 (Simulation time: 0 hr 39 min 48 sec) 
Heartbeat CPU 0 instructions: 324000001 cycles: 929852507 heartbeat IPC: 0.208551 cumulative IPC: 0.347523 (Simulation time: 0 hr 39 min 57 sec) 
Heartbeat CPU 0 instructions: 325000001 cycles: 932181100 heartbeat IPC: 0.429444 cumulative IPC: 0.347728 (Simulation time: 0 hr 40 min 4 sec) 
Heartbeat CPU 0 instructions: 326000000 cycles: 934229013 heartbeat IPC: 0.488302 cumulative IPC: 0.348036 (Simulation time: 0 hr 40 min 10 sec) 
Heartbeat CPU 0 instructions: 327000002 cycles: 936212380 heartbeat IPC: 0.504194 cumulative IPC: 0.348367 (Simulation time: 0 hr 40 min 16 sec) 
Heartbeat CPU 0 instructions: 328000003 cycles: 938243965 heartbeat IPC: 0.492227 cumulative IPC: 0.348679 (Simulation time: 0 hr 40 min 21 sec) 
Heartbeat CPU 0 instructions: 329000003 cycles: 940567756 heartbeat IPC: 0.430331 cumulative IPC: 0.348881 (Simulation time: 0 hr 40 min 25 sec) 
Heartbeat CPU 0 instructions: 330000000 cycles: 942397085 heartbeat IPC: 0.546647 cumulative IPC: 0.349265 (Simulation time: 0 hr 40 min 31 sec) 
Heartbeat CPU 0 instructions: 331000001 cycles: 946189170 heartbeat IPC: 0.263707 cumulative IPC: 0.348922 (Simulation time: 0 hr 40 min 38 sec) 
Heartbeat CPU 0 instructions: 332000001 cycles: 952700565 heartbeat IPC: 0.153577 cumulative IPC: 0.347586 (Simulation time: 0 hr 40 min 50 sec) 
Heartbeat CPU 0 instructions: 333000002 cycles: 958157009 heartbeat IPC: 0.18327 cumulative IPC: 0.34665 (Simulation time: 0 hr 41 min 2 sec) 
Heartbeat CPU 0 instructions: 334000003 cycles: 960000362 heartbeat IPC: 0.54249 cumulative IPC: 0.347026 (Simulation time: 0 hr 41 min 6 sec) 
Heartbeat CPU 0 instructions: 335000001 cycles: 962721875 heartbeat IPC: 0.367442 cumulative IPC: 0.347084 (Simulation time: 0 hr 41 min 12 sec) 
Heartbeat CPU 0 instructions: 336000001 cycles: 964842554 heartbeat IPC: 0.471547 cumulative IPC: 0.347357 (Simulation time: 0 hr 41 min 20 sec) 
Heartbeat CPU 0 instructions: 337000001 cycles: 967130373 heartbeat IPC: 0.437098 cumulative IPC: 0.34757 (Simulation time: 0 hr 41 min 28 sec) 
Heartbeat CPU 0 instructions: 338000002 cycles: 969780512 heartbeat IPC: 0.377339 cumulative IPC: 0.347651 (Simulation time: 0 hr 41 min 35 sec) 
Heartbeat CPU 0 instructions: 339000001 cycles: 971921893 heartbeat IPC: 0.466988 cumulative IPC: 0.347914 (Simulation time: 0 hr 41 min 42 sec) 
Heartbeat CPU 0 instructions: 340000000 cycles: 977461445 heartbeat IPC: 0.18052 cumulative IPC: 0.346965 (Simulation time: 0 hr 41 min 52 sec) 
Heartbeat CPU 0 instructions: 341000000 cycles: 984538337 heartbeat IPC: 0.141305 cumulative IPC: 0.345486 (Simulation time: 0 hr 42 min 2 sec) 
Heartbeat CPU 0 instructions: 342000000 cycles: 987802136 heartbeat IPC: 0.306391 cumulative IPC: 0.345357 (Simulation time: 0 hr 42 min 8 sec) 
Heartbeat CPU 0 instructions: 343000000 cycles: 990799762 heartbeat IPC: 0.333597 cumulative IPC: 0.345321 (Simulation time: 0 hr 42 min 16 sec) 
Heartbeat CPU 0 instructions: 344000003 cycles: 993294275 heartbeat IPC: 0.400881 cumulative IPC: 0.345461 (Simulation time: 0 hr 42 min 24 sec) 
Heartbeat CPU 0 instructions: 345000000 cycles: 995469910 heartbeat IPC: 0.459635 cumulative IPC: 0.345711 (Simulation time: 0 hr 42 min 32 sec) 
Heartbeat CPU 0 instructions: 346000001 cycles: 998174076 heartbeat IPC: 0.3698 cumulative IPC: 0.345776 (Simulation time: 0 hr 42 min 41 sec) 
Heartbeat CPU 0 instructions: 347000000 cycles: 1000092897 heartbeat IPC: 0.521153 cumulative IPC: 0.346113 (Simulation time: 0 hr 42 min 49 sec) 
Heartbeat CPU 0 instructions: 348000002 cycles: 1003124173 heartbeat IPC: 0.329895 cumulative IPC: 0.346063 (Simulation time: 0 hr 42 min 55 sec) 
Heartbeat CPU 0 instructions: 349000002 cycles: 1006346141 heartbeat IPC: 0.310369 cumulative IPC: 0.345949 (Simulation time: 0 hr 43 min 3 sec) 
Heartbeat CPU 0 instructions: 350000003 cycles: 1008451149 heartbeat IPC: 0.475058 cumulative IPC: 0.346219 (Simulation time: 0 hr 43 min 8 sec) 
Heartbeat CPU 0 instructions: 351000001 cycles: 1010361758 heartbeat IPC: 0.523392 cumulative IPC: 0.346554 (Simulation time: 0 hr 43 min 13 sec) 
Heartbeat CPU 0 instructions: 352000000 cycles: 1013252888 heartbeat IPC: 0.345885 cumulative IPC: 0.346552 (Simulation time: 0 hr 43 min 18 sec) 
Heartbeat CPU 0 instructions: 353000001 cycles: 1015555580 heartbeat IPC: 0.434275 cumulative IPC: 0.346751 (Simulation time: 0 hr 43 min 22 sec) 
Heartbeat CPU 0 instructions: 354000002 cycles: 1018250626 heartbeat IPC: 0.371052 cumulative IPC: 0.346815 (Simulation time: 0 hr 43 min 28 sec) 
Heartbeat CPU 0 instructions: 355000001 cycles: 1024655730 heartbeat IPC: 0.156125 cumulative IPC: 0.345623 (Simulation time: 0 hr 43 min 39 sec) 
Heartbeat CPU 0 instructions: 356000003 cycles: 1031472382 heartbeat IPC: 0.1467 cumulative IPC: 0.344308 (Simulation time: 0 hr 43 min 50 sec) 
Heartbeat CPU 0 instructions: 357000001 cycles: 1033966240 heartbeat IPC: 0.400984 cumulative IPC: 0.344444 (Simulation time: 0 hr 43 min 55 sec) 
Heartbeat CPU 0 instructions: 358000000 cycles: 1035899930 heartbeat IPC: 0.517145 cumulative IPC: 0.344767 (Simulation time: 0 hr 44 min 1 sec) 
Heartbeat CPU 0 instructions: 359000001 cycles: 1037850287 heartbeat IPC: 0.512727 cumulative IPC: 0.345083 (Simulation time: 0 hr 44 min 6 sec) 
Heartbeat CPU 0 instructions: 360000000 cycles: 1039983218 heartbeat IPC: 0.468838 cumulative IPC: 0.345337 (Simulation time: 0 hr 44 min 12 sec) 
Heartbeat CPU 0 instructions: 361000001 cycles: 1041837415 heartbeat IPC: 0.539318 cumulative IPC: 0.345682 (Simulation time: 0 hr 44 min 18 sec) 
Heartbeat CPU 0 instructions: 362000003 cycles: 1043979683 heartbeat IPC: 0.466796 cumulative IPC: 0.345931 (Simulation time: 0 hr 44 min 26 sec) 
Heartbeat CPU 0 instructions: 363000000 cycles: 1047850836 heartbeat IPC: 0.25832 cumulative IPC: 0.345607 (Simulation time: 0 hr 44 min 36 sec) 
Heartbeat CPU 0 instructions: 364000001 cycles: 1050402761 heartbeat IPC: 0.391861 cumulative IPC: 0.345719 (Simulation time: 0 hr 44 min 44 sec) 
Heartbeat CPU 0 instructions: 365000000 cycles: 1052427729 heartbeat IPC: 0.493834 cumulative IPC: 0.346004 (Simulation time: 0 hr 44 min 49 sec) 
Heartbeat CPU 0 instructions: 366000001 cycles: 1054144065 heartbeat IPC: 0.582637 cumulative IPC: 0.34639 (Simulation time: 0 hr 44 min 54 sec) 
Heartbeat CPU 0 instructions: 367000001 cycles: 1057295848 heartbeat IPC: 0.317281 cumulative IPC: 0.346303 (Simulation time: 0 hr 45 min 0 sec) 
Heartbeat CPU 0 instructions: 368000002 cycles: 1059816879 heartbeat IPC: 0.396664 cumulative IPC: 0.346423 (Simulation time: 0 hr 45 min 8 sec) 
Heartbeat CPU 0 instructions: 369000002 cycles: 1062689322 heartbeat IPC: 0.348136 cumulative IPC: 0.346428 (Simulation time: 0 hr 45 min 14 sec) 
Heartbeat CPU 0 instructions: 370000000 cycles: 1066118783 heartbeat IPC: 0.29159 cumulative IPC: 0.346251 (Simulation time: 0 hr 45 min 24 sec) 
Heartbeat CPU 0 instructions: 371000003 cycles: 1071562889 heartbeat IPC: 0.183685 cumulative IPC: 0.345425 (Simulation time: 0 hr 45 min 37 sec) 
Heartbeat CPU 0 instructions: 372000000 cycles: 1073427107 heartbeat IPC: 0.536416 cumulative IPC: 0.345757 (Simulation time: 0 hr 45 min 42 sec) 
Heartbeat CPU 0 instructions: 373000002 cycles: 1075742410 heartbeat IPC: 0.43191 cumulative IPC: 0.345942 (Simulation time: 0 hr 45 min 50 sec) 
Heartbeat CPU 0 instructions: 374000000 cycles: 1078132445 heartbeat IPC: 0.418403 cumulative IPC: 0.346103 (Simulation time: 0 hr 45 min 58 sec) 
Heartbeat CPU 0 instructions: 375000001 cycles: 1079926796 heartbeat IPC: 0.557305 cumulative IPC: 0.346454 (Simulation time: 0 hr 46 min 2 sec) 
Heartbeat CPU 0 instructions: 376000001 cycles: 1082051645 heartbeat IPC: 0.470622 cumulative IPC: 0.346698 (Simulation time: 0 hr 46 min 7 sec) 
Heartbeat CPU 0 instructions: 377000000 cycles: 1083778012 heartbeat IPC: 0.579251 cumulative IPC: 0.347068 (Simulation time: 0 hr 46 min 12 sec) 
Heartbeat CPU 0 instructions: 378000001 cycles: 1088211282 heartbeat IPC: 0.225567 cumulative IPC: 0.346573 (Simulation time: 0 hr 46 min 20 sec) 
Heartbeat CPU 0 instructions: 379000002 cycles: 1093741315 heartbeat IPC: 0.180831 cumulative IPC: 0.345735 (Simulation time: 0 hr 46 min 28 sec) 
Heartbeat CPU 0 instructions: 380000000 cycles: 1095574790 heartbeat IPC: 0.545411 cumulative IPC: 0.346069 (Simulation time: 0 hr 46 min 33 sec) 
Heartbeat CPU 0 instructions: 381000000 cycles: 1097278686 heartbeat IPC: 0.58689 cumulative IPC: 0.346443 (Simulation time: 0 hr 46 min 38 sec) 
Heartbeat CPU 0 instructions: 382000001 cycles: 1099471953 heartbeat IPC: 0.455941 cumulative IPC: 0.346662 (Simulation time: 0 hr 46 min 43 sec) 
Heartbeat CPU 0 instructions: 383000001 cycles: 1102079431 heartbeat IPC: 0.383512 cumulative IPC: 0.346749 (Simulation time: 0 hr 46 min 49 sec) 
Heartbeat CPU 0 instructions: 384000000 cycles: 1104770067 heartbeat IPC: 0.371659 cumulative IPC: 0.34681 (Simulation time: 0 hr 46 min 54 sec) 
Heartbeat CPU 0 instructions: 385000000 cycles: 1108657572 heartbeat IPC: 0.257234 cumulative IPC: 0.346495 (Simulation time: 0 hr 47 min 1 sec) 
Heartbeat CPU 0 instructions: 386000000 cycles: 1112330751 heartbeat IPC: 0.272244 cumulative IPC: 0.34625 (Simulation time: 0 hr 47 min 8 sec) 
Heartbeat CPU 0 instructions: 387000003 cycles: 1114333580 heartbeat IPC: 0.499295 cumulative IPC: 0.346525 (Simulation time: 0 hr 47 min 13 sec) 
Heartbeat CPU 0 instructions: 388000003 cycles: 1116369763 heartbeat IPC: 0.491115 cumulative IPC: 0.346789 (Simulation time: 0 hr 47 min 19 sec) 
Heartbeat CPU 0 instructions: 389000002 cycles: 1119121460 heartbeat IPC: 0.363412 cumulative IPC: 0.34683 (Simulation time: 0 hr 47 min 28 sec) 
Heartbeat CPU 0 instructions: 390000003 cycles: 1122227033 heartbeat IPC: 0.322002 cumulative IPC: 0.346761 (Simulation time: 0 hr 47 min 36 sec) 
Heartbeat CPU 0 instructions: 391000000 cycles: 1124608412 heartbeat IPC: 0.419923 cumulative IPC: 0.346916 (Simulation time: 0 hr 47 min 44 sec) 
Heartbeat CPU 0 instructions: 392000000 cycles: 1127321844 heartbeat IPC: 0.368537 cumulative IPC: 0.346968 (Simulation time: 0 hr 47 min 52 sec) 
Heartbeat CPU 0 instructions: 393000002 cycles: 1131277212 heartbeat IPC: 0.252821 cumulative IPC: 0.346639 (Simulation time: 0 hr 48 min 2 sec) 
Heartbeat CPU 0 instructions: 394000003 cycles: 1133813860 heartbeat IPC: 0.394221 cumulative IPC: 0.346746 (Simulation time: 0 hr 48 min 10 sec) 
Heartbeat CPU 0 instructions: 395000000 cycles: 1136372356 heartbeat IPC: 0.390853 cumulative IPC: 0.346845 (Simulation time: 0 hr 48 min 18 sec) 
Heartbeat CPU 0 instructions: 396000000 cycles: 1138509355 heartbeat IPC: 0.467946 cumulative IPC: 0.347072 (Simulation time: 0 hr 48 min 26 sec) 
Heartbeat CPU 0 instructions: 397000000 cycles: 1140911144 heartbeat IPC: 0.416356 cumulative IPC: 0.347218 (Simulation time: 0 hr 48 min 33 sec) 
Heartbeat CPU 0 instructions: 398000001 cycles: 1143039918 heartbeat IPC: 0.469754 cumulative IPC: 0.347447 (Simulation time: 0 hr 48 min 41 sec) 
Heartbeat CPU 0 instructions: 399000002 cycles: 1145796666 heartbeat IPC: 0.362747 cumulative IPC: 0.347483 (Simulation time: 0 hr 48 min 47 sec) 
Heartbeat CPU 0 instructions: 400000001 cycles: 1151735941 heartbeat IPC: 0.168371 cumulative IPC: 0.346559 (Simulation time: 0 hr 48 min 56 sec) 
Heartbeat CPU 0 instructions: 401000003 cycles: 1156263543 heartbeat IPC: 0.220868 cumulative IPC: 0.346067 (Simulation time: 0 hr 49 min 3 sec) 
Heartbeat CPU 0 instructions: 402000000 cycles: 1158829001 heartbeat IPC: 0.389793 cumulative IPC: 0.346164 (Simulation time: 0 hr 49 min 11 sec) 
Heartbeat CPU 0 instructions: 403000001 cycles: 1161038053 heartbeat IPC: 0.452683 cumulative IPC: 0.346367 (Simulation time: 0 hr 49 min 17 sec) 
Heartbeat CPU 0 instructions: 404000000 cycles: 1162891297 heartbeat IPC: 0.539594 cumulative IPC: 0.346675 (Simulation time: 0 hr 49 min 22 sec) 
Heartbeat CPU 0 instructions: 405000000 cycles: 1164677602 heartbeat IPC: 0.559815 cumulative IPC: 0.347002 (Simulation time: 0 hr 49 min 28 sec) 
Heartbeat CPU 0 instructions: 406000001 cycles: 1166431318 heartbeat IPC: 0.570218 cumulative IPC: 0.347337 (Simulation time: 0 hr 49 min 35 sec) 
Heartbeat CPU 0 instructions: 407000000 cycles: 1168453436 heartbeat IPC: 0.49453 cumulative IPC: 0.347592 (Simulation time: 0 hr 49 min 42 sec) 
Heartbeat CPU 0 instructions: 408000000 cycles: 1172534641 heartbeat IPC: 0.245026 cumulative IPC: 0.347235 (Simulation time: 0 hr 49 min 52 sec) 
Heartbeat CPU 0 instructions: 409000000 cycles: 1174788195 heartbeat IPC: 0.443744 cumulative IPC: 0.34742 (Simulation time: 0 hr 49 min 59 sec) 
Heartbeat CPU 0 instructions: 410000001 cycles: 1176734391 heartbeat IPC: 0.513823 cumulative IPC: 0.347696 (Simulation time: 0 hr 50 min 7 sec) 
Heartbeat CPU 0 instructions: 411000002 cycles: 1179013527 heartbeat IPC: 0.438763 cumulative IPC: 0.347872 (Simulation time: 0 hr 50 min 15 sec) 
Heartbeat CPU 0 instructions: 412000003 cycles: 1180956281 heartbeat IPC: 0.514734 cumulative IPC: 0.348146 (Simulation time: 0 hr 50 min 22 sec) 
Heartbeat CPU 0 instructions: 413000000 cycles: 1183052715 heartbeat IPC: 0.476999 cumulative IPC: 0.348375 (Simulation time: 0 hr 50 min 28 sec) 
Heartbeat CPU 0 instructions: 414000002 cycles: 1185528279 heartbeat IPC: 0.403949 cumulative IPC: 0.348491 (Simulation time: 0 hr 50 min 35 sec) 
Heartbeat CPU 0 instructions: 415000000 cycles: 1190161759 heartbeat IPC: 0.21582 cumulative IPC: 0.347974 (Simulation time: 0 hr 50 min 43 sec) 
Heartbeat CPU 0 instructions: 416000000 cycles: 1192044551 heartbeat IPC: 0.531126 cumulative IPC: 0.348263 (Simulation time: 0 hr 50 min 50 sec) 
Heartbeat CPU 0 instructions: 417000002 cycles: 1193770880 heartbeat IPC: 0.579265 cumulative IPC: 0.348598 (Simulation time: 0 hr 50 min 57 sec) 
Heartbeat CPU 0 instructions: 418000000 cycles: 1195666076 heartbeat IPC: 0.527649 cumulative IPC: 0.348882 (Simulation time: 0 hr 51 min 2 sec) 
Heartbeat CPU 0 instructions: 419000000 cycles: 1199105657 heartbeat IPC: 0.290733 cumulative IPC: 0.348715 (Simulation time: 0 hr 51 min 11 sec) 
Heartbeat CPU 0 instructions: 420000000 cycles: 1202623717 heartbeat IPC: 0.284248 cumulative IPC: 0.348526 (Simulation time: 0 hr 51 min 21 sec) 
Heartbeat CPU 0 instructions: 421000000 cycles: 1205889033 heartbeat IPC: 0.306249 cumulative IPC: 0.348412 (Simulation time: 0 hr 51 min 31 sec) 
Heartbeat CPU 0 instructions: 422000000 cycles: 1210432568 heartbeat IPC: 0.220093 cumulative IPC: 0.34793 (Simulation time: 0 hr 51 min 42 sec) 
Heartbeat CPU 0 instructions: 423000000 cycles: 1212498348 heartbeat IPC: 0.484079 cumulative IPC: 0.348162 (Simulation time: 0 hr 51 min 49 sec) 
Heartbeat CPU 0 instructions: 424000001 cycles: 1214382052 heartbeat IPC: 0.530869 cumulative IPC: 0.348445 (Simulation time: 0 hr 51 min 56 sec) 
Heartbeat CPU 0 instructions: 425000002 cycles: 1216329110 heartbeat IPC: 0.513596 cumulative IPC: 0.34871 (Simulation time: 0 hr 52 min 3 sec) 
Heartbeat CPU 0 instructions: 426000003 cycles: 1218276480 heartbeat IPC: 0.513514 cumulative IPC: 0.348973 (Simulation time: 0 hr 52 min 10 sec) 
Heartbeat CPU 0 instructions: 427000001 cycles: 1220264676 heartbeat IPC: 0.502968 cumulative IPC: 0.349224 (Simulation time: 0 hr 52 min 17 sec) 
Heartbeat CPU 0 instructions: 428000002 cycles: 1224413958 heartbeat IPC: 0.241006 cumulative IPC: 0.348857 (Simulation time: 0 hr 52 min 24 sec) 
Heartbeat CPU 0 instructions: 429000000 cycles: 1226250210 heartbeat IPC: 0.544586 cumulative IPC: 0.349151 (Simulation time: 0 hr 52 min 31 sec) 
Heartbeat CPU 0 instructions: 430000000 cycles: 1228074304 heartbeat IPC: 0.548217 cumulative IPC: 0.349446 (Simulation time: 0 hr 52 min 37 sec) 
Heartbeat CPU 0 instructions: 431000000 cycles: 1230173318 heartbeat IPC: 0.476414 cumulative IPC: 0.349663 (Simulation time: 0 hr 52 min 43 sec) 
Heartbeat CPU 0 instructions: 432000001 cycles: 1232307669 heartbeat IPC: 0.468527 cumulative IPC: 0.349869 (Simulation time: 0 hr 52 min 50 sec) 
Heartbeat CPU 0 instructions: 433000001 cycles: 1235308959 heartbeat IPC: 0.33319 cumulative IPC: 0.349828 (Simulation time: 0 hr 52 min 58 sec) 
Heartbeat CPU 0 instructions: 434000000 cycles: 1240437196 heartbeat IPC: 0.194999 cumulative IPC: 0.349188 (Simulation time: 0 hr 53 min 7 sec) 
Heartbeat CPU 0 instructions: 435000001 cycles: 1242801151 heartbeat IPC: 0.42302 cumulative IPC: 0.349329 (Simulation time: 0 hr 53 min 11 sec) 
Heartbeat CPU 0 instructions: 436000001 cycles: 1245357031 heartbeat IPC: 0.391255 cumulative IPC: 0.349415 (Simulation time: 0 hr 53 min 19 sec) 
Heartbeat CPU 0 instructions: 437000002 cycles: 1247348769 heartbeat IPC: 0.502075 cumulative IPC: 0.349659 (Simulation time: 0 hr 53 min 25 sec) 
Heartbeat CPU 0 instructions: 438000001 cycles: 1249412634 heartbeat IPC: 0.484527 cumulative IPC: 0.349881 (Simulation time: 0 hr 53 min 33 sec) 
Heartbeat CPU 0 instructions: 439000001 cycles: 1251956970 heartbeat IPC: 0.39303 cumulative IPC: 0.349969 (Simulation time: 0 hr 53 min 40 sec) 
Heartbeat CPU 0 instructions: 440000000 cycles: 1256738261 heartbeat IPC: 0.209148 cumulative IPC: 0.349433 (Simulation time: 0 hr 53 min 50 sec) 
Heartbeat CPU 0 instructions: 441000001 cycles: 1263444936 heartbeat IPC: 0.149105 cumulative IPC: 0.348369 (Simulation time: 0 hr 54 min 5 sec) 
Heartbeat CPU 0 instructions: 442000001 cycles: 1268766189 heartbeat IPC: 0.187926 cumulative IPC: 0.347696 (Simulation time: 0 hr 54 min 16 sec) 
Heartbeat CPU 0 instructions: 443000001 cycles: 1271268924 heartbeat IPC: 0.399563 cumulative IPC: 0.347798 (Simulation time: 0 hr 54 min 22 sec) 
Heartbeat CPU 0 instructions: 444000001 cycles: 1273865786 heartbeat IPC: 0.38508 cumulative IPC: 0.347874 (Simulation time: 0 hr 54 min 29 sec) 
Heartbeat CPU 0 instructions: 445000002 cycles: 1275883103 heartbeat IPC: 0.495708 cumulative IPC: 0.348108 (Simulation time: 0 hr 54 min 35 sec) 
Heartbeat CPU 0 instructions: 446000001 cycles: 1277689162 heartbeat IPC: 0.553691 cumulative IPC: 0.348399 (Simulation time: 0 hr 54 min 41 sec) 
Heartbeat CPU 0 instructions: 447000000 cycles: 1280001253 heartbeat IPC: 0.432508 cumulative IPC: 0.348551 (Simulation time: 0 hr 54 min 48 sec) 
Heartbeat CPU 0 instructions: 448000001 cycles: 1282269001 heartbeat IPC: 0.440967 cumulative IPC: 0.348714 (Simulation time: 0 hr 54 min 54 sec) 
Heartbeat CPU 0 instructions: 449000001 cycles: 1286325565 heartbeat IPC: 0.246514 cumulative IPC: 0.348392 (Simulation time: 0 hr 55 min 1 sec) 
Heartbeat CPU 0 instructions: 450000002 cycles: 1288520832 heartbeat IPC: 0.455526 cumulative IPC: 0.348575 (Simulation time: 0 hr 55 min 8 sec) 

Warmup complete CPU 0 instructions: 450000002 cycles: 1288520832 (Simulation time: 0 hr 55 min 8 sec) 

Heartbeat CPU 0 instructions: 451000000 cycles: 1290374968 heartbeat IPC: 0.539334 cumulative IPC: 0.539334 (Simulation time: 0 hr 55 min 15 sec) 
Heartbeat CPU 0 instructions: 452000001 cycles: 1293107924 heartbeat IPC: 0.365905 cumulative IPC: 0.436006 (Simulation time: 0 hr 55 min 22 sec) 
Heartbeat CPU 0 instructions: 453000000 cycles: 1295304477 heartbeat IPC: 0.455258 cumulative IPC: 0.44224 (Simulation time: 0 hr 55 min 28 sec) 
Heartbeat CPU 0 instructions: 454000000 cycles: 1297588173 heartbeat IPC: 0.437887 cumulative IPC: 0.441143 (Simulation time: 0 hr 55 min 34 sec) 
Heartbeat CPU 0 instructions: 455000002 cycles: 1300463612 heartbeat IPC: 0.347774 cumulative IPC: 0.418663 (Simulation time: 0 hr 55 min 41 sec) 
Heartbeat CPU 0 instructions: 456000001 cycles: 1303382388 heartbeat IPC: 0.342609 cumulative IPC: 0.403726 (Simulation time: 0 hr 55 min 49 sec) 
Heartbeat CPU 0 instructions: 457000003 cycles: 1304763162 heartbeat IPC: 0.724233 cumulative IPC: 0.430973 (Simulation time: 0 hr 55 min 56 sec) 
Heartbeat CPU 0 instructions: 458000000 cycles: 1306681372 heartbeat IPC: 0.521318 cumulative IPC: 0.440515 (Simulation time: 0 hr 56 min 3 sec) 
Heartbeat CPU 0 instructions: 459000001 cycles: 1309185140 heartbeat IPC: 0.399398 cumulative IPC: 0.435534 (Simulation time: 0 hr 56 min 10 sec) 
Heartbeat CPU 0 instructions: 460000000 cycles: 1310868420 heartbeat IPC: 0.594078 cumulative IPC: 0.447475 (Simulation time: 0 hr 56 min 16 sec) 
Heartbeat CPU 0 instructions: 461000000 cycles: 1312680945 heartbeat IPC: 0.551717 cumulative IPC: 0.455296 (Simulation time: 0 hr 56 min 22 sec) 
Heartbeat CPU 0 instructions: 462000000 cycles: 1315417242 heartbeat IPC: 0.365457 cumulative IPC: 0.446156 (Simulation time: 0 hr 56 min 28 sec) 
Heartbeat CPU 0 instructions: 463000001 cycles: 1318549331 heartbeat IPC: 0.319276 cumulative IPC: 0.432922 (Simulation time: 0 hr 56 min 36 sec) 
Heartbeat CPU 0 instructions: 464000001 cycles: 1320186730 heartbeat IPC: 0.610725 cumulative IPC: 0.442116 (Simulation time: 0 hr 56 min 43 sec) 
Heartbeat CPU 0 instructions: 465000001 cycles: 1321695837 heartbeat IPC: 0.662644 cumulative IPC: 0.452148 (Simulation time: 0 hr 56 min 48 sec) 
Heartbeat CPU 0 instructions: 466000000 cycles: 1323362424 heartbeat IPC: 0.600028 cumulative IPC: 0.459221 (Simulation time: 0 hr 56 min 54 sec) 
Heartbeat CPU 0 instructions: 467000001 cycles: 1324899656 heartbeat IPC: 0.650521 cumulative IPC: 0.467305 (Simulation time: 0 hr 57 min 0 sec) 
Heartbeat CPU 0 instructions: 468000000 cycles: 1326870807 heartbeat IPC: 0.507317 cumulative IPC: 0.469361 (Simulation time: 0 hr 57 min 6 sec) 
Heartbeat CPU 0 instructions: 469000002 cycles: 1329212127 heartbeat IPC: 0.42711 cumulative IPC: 0.46693 (Simulation time: 0 hr 57 min 14 sec) 
Heartbeat CPU 0 instructions: 470000000 cycles: 1332120251 heartbeat IPC: 0.343864 cumulative IPC: 0.458722 (Simulation time: 0 hr 57 min 23 sec) 
Heartbeat CPU 0 instructions: 471000001 cycles: 1334043905 heartbeat IPC: 0.519845 cumulative IPC: 0.461305 (Simulation time: 0 hr 57 min 27 sec) 
Heartbeat CPU 0 instructions: 472000000 cycles: 1335678042 heartbeat IPC: 0.611943 cumulative IPC: 0.466525 (Simulation time: 0 hr 57 min 33 sec) 
Heartbeat CPU 0 instructions: 473000000 cycles: 1337253458 heartbeat IPC: 0.634753 cumulative IPC: 0.471963 (Simulation time: 0 hr 57 min 40 sec) 
Heartbeat CPU 0 instructions: 474000002 cycles: 1338945311 heartbeat IPC: 0.591069 cumulative IPC: 0.475959 (Simulation time: 0 hr 57 min 46 sec) 
Heartbeat CPU 0 instructions: 475000001 cycles: 1340768905 heartbeat IPC: 0.548367 cumulative IPC: 0.478487 (Simulation time: 0 hr 57 min 53 sec) 
Heartbeat CPU 0 instructions: 476000000 cycles: 1342772100 heartbeat IPC: 0.499202 cumulative IPC: 0.479251 (Simulation time: 0 hr 57 min 59 sec) 
Heartbeat CPU 0 instructions: 477000000 cycles: 1345090099 heartbeat IPC: 0.431407 cumulative IPC: 0.477291 (Simulation time: 0 hr 58 min 6 sec) 
Heartbeat CPU 0 instructions: 478000001 cycles: 1348129600 heartbeat IPC: 0.329002 cumulative IPC: 0.46973 (Simulation time: 0 hr 58 min 15 sec) 
Heartbeat CPU 0 instructions: 479000001 cycles: 1349612093 heartbeat IPC: 0.674539 cumulative IPC: 0.4747 (Simulation time: 0 hr 58 min 21 sec) 
Heartbeat CPU 0 instructions: 480000001 cycles: 1351086905 heartbeat IPC: 0.678053 cumulative IPC: 0.479493 (Simulation time: 0 hr 58 min 28 sec) 
Heartbeat CPU 0 instructions: 481000000 cycles: 1352631420 heartbeat IPC: 0.647452 cumulative IPC: 0.483539 (Simulation time: 0 hr 58 min 33 sec) 
Heartbeat CPU 0 instructions: 482000002 cycles: 1355356781 heartbeat IPC: 0.366925 cumulative IPC: 0.478784 (Simulation time: 0 hr 58 min 38 sec) 
Heartbeat CPU 0 instructions: 483000000 cycles: 1358013496 heartbeat IPC: 0.376404 cumulative IPC: 0.47487 (Simulation time: 0 hr 58 min 45 sec) 
Heartbeat CPU 0 instructions: 484000000 cycles: 1359780241 heartbeat IPC: 0.566013 cumulative IPC: 0.47713 (Simulation time: 0 hr 58 min 52 sec) 
Heartbeat CPU 0 instructions: 485000000 cycles: 1362602977 heartbeat IPC: 0.354266 cumulative IPC: 0.472448 (Simulation time: 0 hr 59 min 1 sec) 
Heartbeat CPU 0 instructions: 486000002 cycles: 1364596995 heartbeat IPC: 0.501501 cumulative IPC: 0.47321 (Simulation time: 0 hr 59 min 8 sec) 
Heartbeat CPU 0 instructions: 487000001 cycles: 1366034489 heartbeat IPC: 0.695654 cumulative IPC: 0.477335 (Simulation time: 0 hr 59 min 13 sec) 
Heartbeat CPU 0 instructions: 488000001 cycles: 1367429189 heartbeat IPC: 0.717 cumulative IPC: 0.481571 (Simulation time: 0 hr 59 min 19 sec) 
Heartbeat CPU 0 instructions: 489000003 cycles: 1369332956 heartbeat IPC: 0.525275 cumulative IPC: 0.482601 (Simulation time: 0 hr 59 min 25 sec) 
Heartbeat CPU 0 instructions: 490000000 cycles: 1371053428 heartbeat IPC: 0.581234 cumulative IPC: 0.484657 (Simulation time: 0 hr 59 min 32 sec) 
Heartbeat CPU 0 instructions: 491000000 cycles: 1373295231 heartbeat IPC: 0.44607 cumulative IPC: 0.483637 (Simulation time: 0 hr 59 min 38 sec) 
Heartbeat CPU 0 instructions: 492000000 cycles: 1375978665 heartbeat IPC: 0.372657 cumulative IPC: 0.480231 (Simulation time: 0 hr 59 min 44 sec) 
Heartbeat CPU 0 instructions: 493000000 cycles: 1378236051 heartbeat IPC: 0.44299 cumulative IPC: 0.479294 (Simulation time: 0 hr 59 min 49 sec) 
Heartbeat CPU 0 instructions: 494000000 cycles: 1380111968 heartbeat IPC: 0.533073 cumulative IPC: 0.480396 (Simulation time: 0 hr 59 min 56 sec) 
Heartbeat CPU 0 instructions: 495000000 cycles: 1382060879 heartbeat IPC: 0.513107 cumulative IPC: 0.481077 (Simulation time: 1 hr 0 min 3 sec) 
Heartbeat CPU 0 instructions: 496000000 cycles: 1383996150 heartbeat IPC: 0.516724 cumulative IPC: 0.4818 (Simulation time: 1 hr 0 min 9 sec) 
Heartbeat CPU 0 instructions: 497000003 cycles: 1385430404 heartbeat IPC: 0.697229 cumulative IPC: 0.484988 (Simulation time: 1 hr 0 min 16 sec) 
Heartbeat CPU 0 instructions: 498000000 cycles: 1387492028 heartbeat IPC: 0.485053 cumulative IPC: 0.48499 (Simulation time: 1 hr 0 min 22 sec) 
Heartbeat CPU 0 instructions: 499000001 cycles: 1389985000 heartbeat IPC: 0.401128 cumulative IPC: 0.482929 (Simulation time: 1 hr 0 min 29 sec) 
Heartbeat CPU 0 instructions: 500000001 cycles: 1391700229 heartbeat IPC: 0.583013 cumulative IPC: 0.484593 (Simulation time: 1 hr 0 min 36 sec) 
Heartbeat CPU 0 instructions: 501000002 cycles: 1393104260 heartbeat IPC: 0.712236 cumulative IPC: 0.487649 (Simulation time: 1 hr 0 min 42 sec) 
Heartbeat CPU 0 instructions: 502000001 cycles: 1394527425 heartbeat IPC: 0.702659 cumulative IPC: 0.490536 (Simulation time: 1 hr 0 min 48 sec) 
Heartbeat CPU 0 instructions: 503000000 cycles: 1396709875 heartbeat IPC: 0.4582 cumulative IPC: 0.489883 (Simulation time: 1 hr 0 min 56 sec) 
Heartbeat CPU 0 instructions: 504000001 cycles: 1398891284 heartbeat IPC: 0.45842 cumulative IPC: 0.489261 (Simulation time: 1 hr 1 min 3 sec) 
Heartbeat CPU 0 instructions: 505000002 cycles: 1400633903 heartbeat IPC: 0.573849 cumulative IPC: 0.490576 (Simulation time: 1 hr 1 min 8 sec) 
Heartbeat CPU 0 instructions: 506000000 cycles: 1402935804 heartbeat IPC: 0.434423 cumulative IPC: 0.489446 (Simulation time: 1 hr 1 min 17 sec) 
Heartbeat CPU 0 instructions: 507000000 cycles: 1404332117 heartbeat IPC: 0.716172 cumulative IPC: 0.49218 (Simulation time: 1 hr 1 min 22 sec) 
Heartbeat CPU 0 instructions: 508000001 cycles: 1406185279 heartbeat IPC: 0.539619 cumulative IPC: 0.492927 (Simulation time: 1 hr 1 min 30 sec) 
Heartbeat CPU 0 instructions: 509000003 cycles: 1408613753 heartbeat IPC: 0.411782 cumulative IPC: 0.491286 (Simulation time: 1 hr 1 min 38 sec) 
Heartbeat CPU 0 instructions: 510000002 cycles: 1410269829 heartbeat IPC: 0.603836 cumulative IPC: 0.492817 (Simulation time: 1 hr 1 min 45 sec) 
Heartbeat CPU 0 instructions: 511000003 cycles: 1411840030 heartbeat IPC: 0.636862 cumulative IPC: 0.494651 (Simulation time: 1 hr 1 min 50 sec) 
Heartbeat CPU 0 instructions: 512000002 cycles: 1413567132 heartbeat IPC: 0.579004 cumulative IPC: 0.495816 (Simulation time: 1 hr 1 min 57 sec) 
Heartbeat CPU 0 instructions: 513000001 cycles: 1416539294 heartbeat IPC: 0.336455 cumulative IPC: 0.492117 (Simulation time: 1 hr 2 min 5 sec) 
Heartbeat CPU 0 instructions: 514000001 cycles: 1420054693 heartbeat IPC: 0.284463 cumulative IPC: 0.486567 (Simulation time: 1 hr 2 min 16 sec) 
Heartbeat CPU 0 instructions: 515000000 cycles: 1422180797 heartbeat IPC: 0.470343 cumulative IPC: 0.486309 (Simulation time: 1 hr 2 min 22 sec) 
Heartbeat CPU 0 instructions: 516000002 cycles: 1423864113 heartbeat IPC: 0.594067 cumulative IPC: 0.487649 (Simulation time: 1 hr 2 min 29 sec) 
Heartbeat CPU 0 instructions: 517000000 cycles: 1426098349 heartbeat IPC: 0.447579 cumulative IPC: 0.486998 (Simulation time: 1 hr 2 min 35 sec) 
Heartbeat CPU 0 instructions: 518000000 cycles: 1428620669 heartbeat IPC: 0.39646 cumulative IPC: 0.485368 (Simulation time: 1 hr 2 min 41 sec) 
Heartbeat CPU 0 instructions: 519000000 cycles: 1431405752 heartbeat IPC: 0.359056 cumulative IPC: 0.482906 (Simulation time: 1 hr 2 min 48 sec) 
Heartbeat CPU 0 instructions: 520000000 cycles: 1433479568 heartbeat IPC: 0.482203 cumulative IPC: 0.482896 (Simulation time: 1 hr 2 min 55 sec) 
Heartbeat CPU 0 instructions: 521000000 cycles: 1435670370 heartbeat IPC: 0.456454 cumulative IPC: 0.482502 (Simulation time: 1 hr 3 min 2 sec) 
Heartbeat CPU 0 instructions: 522000001 cycles: 1437727895 heartbeat IPC: 0.486021 cumulative IPC: 0.482551 (Simulation time: 1 hr 3 min 9 sec) 
Heartbeat CPU 0 instructions: 523000000 cycles: 1439274858 heartbeat IPC: 0.646427 cumulative IPC: 0.484232 (Simulation time: 1 hr 3 min 14 sec) 
Heartbeat CPU 0 instructions: 524000000 cycles: 1440668631 heartbeat IPC: 0.717477 cumulative IPC: 0.486369 (Simulation time: 1 hr 3 min 20 sec) 
Heartbeat CPU 0 instructions: 525000000 cycles: 1441983709 heartbeat IPC: 0.760411 cumulative IPC: 0.488718 (Simulation time: 1 hr 3 min 26 sec) 
Heartbeat CPU 0 instructions: 526000000 cycles: 1443345807 heartbeat IPC: 0.734162 cumulative IPC: 0.490877 (Simulation time: 1 hr 3 min 32 sec) 
Heartbeat CPU 0 instructions: 527000000 cycles: 1445594886 heartbeat IPC: 0.444626 cumulative IPC: 0.490215 (Simulation time: 1 hr 3 min 38 sec) 
Heartbeat CPU 0 instructions: 528000000 cycles: 1447666053 heartbeat IPC: 0.48282 cumulative IPC: 0.490118 (Simulation time: 1 hr 3 min 46 sec) 
Heartbeat CPU 0 instructions: 529000002 cycles: 1449289423 heartbeat IPC: 0.616004 cumulative IPC: 0.49139 (Simulation time: 1 hr 3 min 52 sec) 
Heartbeat CPU 0 instructions: 530000000 cycles: 1451155259 heartbeat IPC: 0.535952 cumulative IPC: 0.491901 (Simulation time: 1 hr 3 min 59 sec) 
Heartbeat CPU 0 instructions: 531000000 cycles: 1453681451 heartbeat IPC: 0.395853 cumulative IPC: 0.490432 (Simulation time: 1 hr 4 min 4 sec) 
Heartbeat CPU 0 instructions: 532000000 cycles: 1456223069 heartbeat IPC: 0.39345 cumulative IPC: 0.488962 (Simulation time: 1 hr 4 min 9 sec) 
Heartbeat CPU 0 instructions: 533000001 cycles: 1458002851 heartbeat IPC: 0.561867 cumulative IPC: 0.489727 (Simulation time: 1 hr 4 min 16 sec) 
Heartbeat CPU 0 instructions: 534000000 cycles: 1459757211 heartbeat IPC: 0.570008 cumulative IPC: 0.49055 (Simulation time: 1 hr 4 min 23 sec) 
Heartbeat CPU 0 instructions: 535000001 cycles: 1462974796 heartbeat IPC: 0.310792 cumulative IPC: 0.487235 (Simulation time: 1 hr 4 min 33 sec) 
Heartbeat CPU 0 instructions: 536000001 cycles: 1466219925 heartbeat IPC: 0.308154 cumulative IPC: 0.483964 (Simulation time: 1 hr 4 min 44 sec) 
Heartbeat CPU 0 instructions: 537000000 cycles: 1468050402 heartbeat IPC: 0.546305 cumulative IPC: 0.4846 (Simulation time: 1 hr 4 min 50 sec) 
Heartbeat CPU 0 instructions: 538000001 cycles: 1469624272 heartbeat IPC: 0.635377 cumulative IPC: 0.48591 (Simulation time: 1 hr 4 min 55 sec) 
Heartbeat CPU 0 instructions: 539000000 cycles: 1471274660 heartbeat IPC: 0.605918 cumulative IPC: 0.486994 (Simulation time: 1 hr 5 min 2 sec) 
Heartbeat CPU 0 instructions: 540000000 cycles: 1472929940 heartbeat IPC: 0.604127 cumulative IPC: 0.488045 (Simulation time: 1 hr 5 min 8 sec) 
Heartbeat CPU 0 instructions: 541000000 cycles: 1475381479 heartbeat IPC: 0.407907 cumulative IPC: 0.486994 (Simulation time: 1 hr 5 min 16 sec) 
Heartbeat CPU 0 instructions: 542000002 cycles: 1477418455 heartbeat IPC: 0.490925 cumulative IPC: 0.487036 (Simulation time: 1 hr 5 min 24 sec) 
Heartbeat CPU 0 instructions: 543000003 cycles: 1479470268 heartbeat IPC: 0.487374 cumulative IPC: 0.48704 (Simulation time: 1 hr 5 min 31 sec) 
Heartbeat CPU 0 instructions: 544000001 cycles: 1481573092 heartbeat IPC: 0.47555 cumulative IPC: 0.486915 (Simulation time: 1 hr 5 min 39 sec) 
Heartbeat CPU 0 instructions: 545000000 cycles: 1483015938 heartbeat IPC: 0.693074 cumulative IPC: 0.488444 (Simulation time: 1 hr 5 min 45 sec) 
[...]
Heartbeat CPU 0 instructions: 834000002 cycles: 2061936214 heartbeat IPC: 0.772939 cumulative IPC: 0.496499 (Simulation time: 1 hr 39 min 10 sec) 
Heartbeat CPU 0 instructions: 835000002 cycles: 2064654236 heartbeat IPC: 0.367915 cumulative IPC: 0.496049 (Simulation time: 1 hr 39 min 18 sec) 
Heartbeat CPU 0 instructions: 836000000 cycles: 2068081171 heartbeat IPC: 0.291805 cumulative IPC: 0.495151 (Simulation time: 1 hr 39 min 28 sec) 
Heartbeat CPU 0 instructions: 837000001 cycles: 2071282245 heartbeat IPC: 0.312395 cumulative IPC: 0.494404 (Simulation time: 1 hr 39 min 37 sec) 
Heartbeat CPU 0 instructions: 838000002 cycles: 2074147107 heartbeat IPC: 0.349057 cumulative IPC: 0.493874 (Simulation time: 1 hr 39 min 47 sec) 
Heartbeat CPU 0 instructions: 839000000 cycles: 2075651413 heartbeat IPC: 0.664757 cumulative IPC: 0.4942 (Simulation time: 1 hr 39 min 53 sec) 
Heartbeat CPU 0 instructions: 840000002 cycles: 2077075237 heartbeat IPC: 0.702335 cumulative IPC: 0.494576 (Simulation time: 1 hr 39 min 59 sec) 
Heartbeat CPU 0 instructions: 841000001 cycles: 2078921140 heartbeat IPC: 0.54174 cumulative IPC: 0.494686 (Simulation time: 1 hr 40 min 4 sec) 
Heartbeat CPU 0 instructions: 842000000 cycles: 2080468990 heartbeat IPC: 0.646057 cumulative IPC: 0.494982 (Simulation time: 1 hr 40 min 10 sec) 
Heartbeat CPU 0 instructions: 843000001 cycles: 2082231198 heartbeat IPC: 0.56747 cumulative IPC: 0.495143 (Simulation time: 1 hr 40 min 16 sec) 
Heartbeat CPU 0 instructions: 844000000 cycles: 2084318826 heartbeat IPC: 0.479012 cumulative IPC: 0.495101 (Simulation time: 1 hr 40 min 24 sec) 
Heartbeat CPU 0 instructions: 845000000 cycles: 2086798495 heartbeat IPC: 0.40328 cumulative IPC: 0.494815 (Simulation time: 1 hr 40 min 32 sec) 
Heartbeat CPU 0 instructions: 846000001 cycles: 2089937675 heartbeat IPC: 0.318555 cumulative IPC: 0.494125 (Simulation time: 1 hr 40 min 42 sec) 
Heartbeat CPU 0 instructions: 847000000 cycles: 2091493188 heartbeat IPC: 0.642874 cumulative IPC: 0.494413 (Simulation time: 1 hr 40 min 48 sec) 
Heartbeat CPU 0 instructions: 848000003 cycles: 2092898836 heartbeat IPC: 0.711418 cumulative IPC: 0.494792 (Simulation time: 1 hr 40 min 54 sec) 
Heartbeat CPU 0 instructions: 849000000 cycles: 2094249346 heartbeat IPC: 0.740459 cumulative IPC: 0.495204 (Simulation time: 1 hr 41 min 0 sec) 
Heartbeat CPU 0 instructions: 850000001 cycles: 2095589664 heartbeat IPC: 0.746092 cumulative IPC: 0.495621 (Simulation time: 1 hr 41 min 6 sec) 
Heartbeat CPU 0 instructions: 851000001 cycles: 2096936634 heartbeat IPC: 0.742407 cumulative IPC: 0.496032 (Simulation time: 1 hr 41 min 12 sec) 
Heartbeat CPU 0 instructions: 852000001 cycles: 2098450921 heartbeat IPC: 0.660377 cumulative IPC: 0.496339 (Simulation time: 1 hr 41 min 19 sec) 
Heartbeat CPU 0 instructions: 853000000 cycles: 2099985809 heartbeat IPC: 0.651513 cumulative IPC: 0.496633 (Simulation time: 1 hr 41 min 25 sec) 
Heartbeat CPU 0 instructions: 854000002 cycles: 2102955419 heartbeat IPC: 0.336745 cumulative IPC: 0.49605 (Simulation time: 1 hr 41 min 34 sec) 
Heartbeat CPU 0 instructions: 855000002 cycles: 2106316672 heartbeat IPC: 0.297508 cumulative IPC: 0.495234 (Simulation time: 1 hr 41 min 44 sec) 
Heartbeat CPU 0 instructions: 856000000 cycles: 2108473063 heartbeat IPC: 0.463737 cumulative IPC: 0.495151 (Simulation time: 1 hr 41 min 52 sec) 
Heartbeat CPU 0 instructions: 857000002 cycles: 2110569160 heartbeat IPC: 0.477078 cumulative IPC: 0.495105 (Simulation time: 1 hr 41 min 58 sec) 
Heartbeat CPU 0 instructions: 858000000 cycles: 2112632442 heartbeat IPC: 0.484664 cumulative IPC: 0.495079 (Simulation time: 1 hr 42 min 4 sec) 
Heartbeat CPU 0 instructions: 859000000 cycles: 2114360068 heartbeat IPC: 0.578829 cumulative IPC: 0.495254 (Simulation time: 1 hr 42 min 10 sec) 
Heartbeat CPU 0 instructions: 860000003 cycles: 2115941769 heartbeat IPC: 0.632233 cumulative IPC: 0.495516 (Simulation time: 1 hr 42 min 16 sec) 
Heartbeat CPU 0 instructions: 861000002 cycles: 2117898116 heartbeat IPC: 0.511156 cumulative IPC: 0.495553 (Simulation time: 1 hr 42 min 23 sec) 
Heartbeat CPU 0 instructions: 862000000 cycles: 2119462048 heartbeat IPC: 0.639413 cumulative IPC: 0.495823 (Simulation time: 1 hr 42 min 30 sec) 
Heartbeat CPU 0 instructions: 863000001 cycles: 2121828113 heartbeat IPC: 0.422643 cumulative IPC: 0.495615 (Simulation time: 1 hr 42 min 39 sec) 
Heartbeat CPU 0 instructions: 864000001 cycles: 2123252578 heartbeat IPC: 0.702018 cumulative IPC: 0.495968 (Simulation time: 1 hr 42 min 45 sec) 
Heartbeat CPU 0 instructions: 865000000 cycles: 2124965198 heartbeat IPC: 0.5839 cumulative IPC: 0.496148 (Simulation time: 1 hr 42 min 52 sec) 
Heartbeat CPU 0 instructions: 866000001 cycles: 2126602174 heartbeat IPC: 0.610883 cumulative IPC: 0.496372 (Simulation time: 1 hr 42 min 58 sec) 
Heartbeat CPU 0 instructions: 867000000 cycles: 2127974247 heartbeat IPC: 0.728823 cumulative IPC: 0.496752 (Simulation time: 1 hr 43 min 5 sec) 
Heartbeat CPU 0 instructions: 868000002 cycles: 2129298935 heartbeat IPC: 0.754896 cumulative IPC: 0.497159 (Simulation time: 1 hr 43 min 11 sec) 
Heartbeat CPU 0 instructions: 869000000 cycles: 2131561504 heartbeat IPC: 0.441975 cumulative IPC: 0.49701 (Simulation time: 1 hr 43 min 19 sec) 
Heartbeat CPU 0 instructions: 870000002 cycles: 2134140687 heartbeat IPC: 0.38772 cumulative IPC: 0.496677 (Simulation time: 1 hr 43 min 25 sec) 
Heartbeat CPU 0 instructions: 871000000 cycles: 2135927690 heartbeat IPC: 0.559595 cumulative IPC: 0.49681 (Simulation time: 1 hr 43 min 30 sec) 
Heartbeat CPU 0 instructions: 872000000 cycles: 2138059284 heartbeat IPC: 0.469132 cumulative IPC: 0.49674 (Simulation time: 1 hr 43 min 36 sec) 
Heartbeat CPU 0 instructions: 873000000 cycles: 2139919289 heartbeat IPC: 0.537633 cumulative IPC: 0.49683 (Simulation time: 1 hr 43 min 43 sec) 
Heartbeat CPU 0 instructions: 874000002 cycles: 2142639540 heartbeat IPC: 0.367614 cumulative IPC: 0.496418 (Simulation time: 1 hr 43 min 50 sec) 
Heartbeat CPU 0 instructions: 875000002 cycles: 2144815152 heartbeat IPC: 0.459641 cumulative IPC: 0.496325 (Simulation time: 1 hr 43 min 58 sec) 
Heartbeat CPU 0 instructions: 876000002 cycles: 2147476365 heartbeat IPC: 0.375768 cumulative IPC: 0.495951 (Simulation time: 1 hr 44 min 4 sec) 
Heartbeat CPU 0 instructions: 877000001 cycles: 2151311637 heartbeat IPC: 0.260737 cumulative IPC: 0.494906 (Simulation time: 1 hr 44 min 15 sec) 
Heartbeat CPU 0 instructions: 878000001 cycles: 2153549859 heartbeat IPC: 0.446783 cumulative IPC: 0.494781 (Simulation time: 1 hr 44 min 21 sec) 
Heartbeat CPU 0 instructions: 879000000 cycles: 2155545152 heartbeat IPC: 0.501179 cumulative IPC: 0.494796 (Simulation time: 1 hr 44 min 27 sec) 
Heartbeat CPU 0 instructions: 880000000 cycles: 2157581130 heartbeat IPC: 0.491164 cumulative IPC: 0.494787 (Simulation time: 1 hr 44 min 34 sec) 
Heartbeat CPU 0 instructions: 881000002 cycles: 2160448879 heartbeat IPC: 0.348706 cumulative IPC: 0.494307 (Simulation time: 1 hr 44 min 42 sec) 
Heartbeat CPU 0 instructions: 882000001 cycles: 2162698737 heartbeat IPC: 0.444472 cumulative IPC: 0.494179 (Simulation time: 1 hr 44 min 50 sec) 
Heartbeat CPU 0 instructions: 883000002 cycles: 2164982652 heartbeat IPC: 0.437845 cumulative IPC: 0.494032 (Simulation time: 1 hr 44 min 58 sec) 
Heartbeat CPU 0 instructions: 884000002 cycles: 2167186520 heartbeat IPC: 0.453748 cumulative IPC: 0.493931 (Simulation time: 1 hr 45 min 4 sec) 
Heartbeat CPU 0 instructions: 885000000 cycles: 2169573209 heartbeat IPC: 0.41899 cumulative IPC: 0.493728 (Simulation time: 1 hr 45 min 13 sec) 
Heartbeat CPU 0 instructions: 886000000 cycles: 2170825560 heartbeat IPC: 0.798498 cumulative IPC: 0.49416 (Simulation time: 1 hr 45 min 19 sec) 
Heartbeat CPU 0 instructions: 887000001 cycles: 2172015799 heartbeat IPC: 0.840168 cumulative IPC: 0.494626 (Simulation time: 1 hr 45 min 25 sec) 
Heartbeat CPU 0 instructions: 888000003 cycles: 2173228647 heartbeat IPC: 0.824507 cumulative IPC: 0.495079 (Simulation time: 1 hr 45 min 31 sec) 
Heartbeat CPU 0 instructions: 889000003 cycles: 2174472224 heartbeat IPC: 0.804132 cumulative IPC: 0.495513 (Simulation time: 1 hr 45 min 35 sec) 
Heartbeat CPU 0 instructions: 890000001 cycles: 2175798016 heartbeat IPC: 0.754265 cumulative IPC: 0.495899 (Simulation time: 1 hr 45 min 40 sec) 
Heartbeat CPU 0 instructions: 891000000 cycles: 2177565705 heartbeat IPC: 0.56571 cumulative IPC: 0.496038 (Simulation time: 1 hr 45 min 47 sec) 
Heartbeat CPU 0 instructions: 892000000 cycles: 2180235682 heartbeat IPC: 0.374535 cumulative IPC: 0.495674 (Simulation time: 1 hr 45 min 54 sec) 
Heartbeat CPU 0 instructions: 893000001 cycles: 2181959763 heartbeat IPC: 0.58002 cumulative IPC: 0.495837 (Simulation time: 1 hr 46 min 1 sec) 
Heartbeat CPU 0 instructions: 894000000 cycles: 2183780486 heartbeat IPC: 0.549232 cumulative IPC: 0.495946 (Simulation time: 1 hr 46 min 8 sec) 
Heartbeat CPU 0 instructions: 895000000 cycles: 2185806268 heartbeat IPC: 0.493637 cumulative IPC: 0.49594 (Simulation time: 1 hr 46 min 15 sec) 
Heartbeat CPU 0 instructions: 896000001 cycles: 2188082200 heartbeat IPC: 0.439381 cumulative IPC: 0.495797 (Simulation time: 1 hr 46 min 20 sec) 
Heartbeat CPU 0 instructions: 897000003 cycles: 2189807931 heartbeat IPC: 0.579466 cumulative IPC: 0.495957 (Simulation time: 1 hr 46 min 26 sec) 
Heartbeat CPU 0 instructions: 898000000 cycles: 2191206332 heartbeat IPC: 0.7151 cumulative IPC: 0.496297 (Simulation time: 1 hr 46 min 33 sec) 
Heartbeat CPU 0 instructions: 899000003 cycles: 2192545579 heartbeat IPC: 0.746691 cumulative IPC: 0.496668 (Simulation time: 1 hr 46 min 40 sec) 
Heartbeat CPU 0 instructions: 900000002 cycles: 2194943275 heartbeat IPC: 0.417067 cumulative IPC: 0.496457 (Simulation time: 1 hr 46 min 49 sec) 
Heartbeat CPU 0 instructions: 901000001 cycles: 2196826869 heartbeat IPC: 0.530899 cumulative IPC: 0.496529 (Simulation time: 1 hr 46 min 54 sec) 
Heartbeat CPU 0 instructions: 902000000 cycles: 2198368503 heartbeat IPC: 0.648662 cumulative IPC: 0.496786 (Simulation time: 1 hr 47 min 1 sec) 
Heartbeat CPU 0 instructions: 903000001 cycles: 2200164280 heartbeat IPC: 0.556863 cumulative IPC: 0.496905 (Simulation time: 1 hr 47 min 7 sec) 
Heartbeat CPU 0 instructions: 904000001 cycles: 2202896512 heartbeat IPC: 0.366001 cumulative IPC: 0.496514 (Simulation time: 1 hr 47 min 15 sec) 
Heartbeat CPU 0 instructions: 905000000 cycles: 2205254209 heartbeat IPC: 0.424142 cumulative IPC: 0.496328 (Simulation time: 1 hr 47 min 23 sec) 
Heartbeat CPU 0 instructions: 906000003 cycles: 2207047106 heartbeat IPC: 0.557758 cumulative IPC: 0.496447 (Simulation time: 1 hr 47 min 29 sec) 
Heartbeat CPU 0 instructions: 907000000 cycles: 2210161107 heartbeat IPC: 0.321129 cumulative IPC: 0.495855 (Simulation time: 1 hr 47 min 38 sec) 
Heartbeat CPU 0 instructions: 908000001 cycles: 2212170983 heartbeat IPC: 0.497544 cumulative IPC: 0.495859 (Simulation time: 1 hr 47 min 45 sec) 
Heartbeat CPU 0 instructions: 909000000 cycles: 2214180467 heartbeat IPC: 0.49764 cumulative IPC: 0.495863 (Simulation time: 1 hr 47 min 52 sec) 
Heartbeat CPU 0 instructions: 910000000 cycles: 2215769689 heartbeat IPC: 0.629239 cumulative IPC: 0.496091 (Simulation time: 1 hr 47 min 59 sec) 
Heartbeat CPU 0 instructions: 911000003 cycles: 2217586897 heartbeat IPC: 0.550296 cumulative IPC: 0.496197 (Simulation time: 1 hr 48 min 7 sec) 
Heartbeat CPU 0 instructions: 912000000 cycles: 2219401297 heartbeat IPC: 0.551145 cumulative IPC: 0.496304 (Simulation time: 1 hr 48 min 14 sec) 
Heartbeat CPU 0 instructions: 913000000 cycles: 2221200925 heartbeat IPC: 0.55567 cumulative IPC: 0.496419 (Simulation time: 1 hr 48 min 21 sec) 
Heartbeat CPU 0 instructions: 914000001 cycles: 2224633454 heartbeat IPC: 0.291331 cumulative IPC: 0.495667 (Simulation time: 1 hr 48 min 31 sec) 
Heartbeat CPU 0 instructions: 915000001 cycles: 2227750285 heartbeat IPC: 0.320839 cumulative IPC: 0.495087 (Simulation time: 1 hr 48 min 42 sec) 
Heartbeat CPU 0 instructions: 916000003 cycles: 2229611581 heartbeat IPC: 0.537261 cumulative IPC: 0.49517 (Simulation time: 1 hr 48 min 49 sec) 
Heartbeat CPU 0 instructions: 917000000 cycles: 2231637184 heartbeat IPC: 0.493679 cumulative IPC: 0.495167 (Simulation time: 1 hr 48 min 57 sec) 
Heartbeat CPU 0 instructions: 918000000 cycles: 2233328633 heartbeat IPC: 0.591209 cumulative IPC: 0.495339 (Simulation time: 1 hr 49 min 4 sec) 
Heartbeat CPU 0 instructions: 919000002 cycles: 2235979468 heartbeat IPC: 0.37724 cumulative IPC: 0.495008 (Simulation time: 1 hr 49 min 12 sec) 
Heartbeat CPU 0 instructions: 920000000 cycles: 2238566929 heartbeat IPC: 0.386478 cumulative IPC: 0.494713 (Simulation time: 1 hr 49 min 21 sec) 
Heartbeat CPU 0 instructions: 921000003 cycles: 2241392778 heartbeat IPC: 0.353877 cumulative IPC: 0.494295 (Simulation time: 1 hr 49 min 30 sec) 
Heartbeat CPU 0 instructions: 922000001 cycles: 2244223662 heartbeat IPC: 0.353246 cumulative IPC: 0.493877 (Simulation time: 1 hr 49 min 39 sec) 
Heartbeat CPU 0 instructions: 923000000 cycles: 2246643908 heartbeat IPC: 0.413181 cumulative IPC: 0.493674 (Simulation time: 1 hr 49 min 48 sec) 
Heartbeat CPU 0 instructions: 924000000 cycles: 2248965250 heartbeat IPC: 0.430785 cumulative IPC: 0.493522 (Simulation time: 1 hr 49 min 56 sec) 
Heartbeat CPU 0 instructions: 925000000 cycles: 2250540604 heartbeat IPC: 0.634778 cumulative IPC: 0.493753 (Simulation time: 1 hr 50 min 3 sec) 
Heartbeat CPU 0 instructions: 926000002 cycles: 2252174333 heartbeat IPC: 0.612098 cumulative IPC: 0.493953 (Simulation time: 1 hr 50 min 11 sec) 
Heartbeat CPU 0 instructions: 927000003 cycles: 2254084104 heartbeat IPC: 0.523624 cumulative IPC: 0.494012 (Simulation time: 1 hr 50 min 19 sec) 
Heartbeat CPU 0 instructions: 928000000 cycles: 2256383151 heartbeat IPC: 0.434962 cumulative IPC: 0.493872 (Simulation time: 1 hr 50 min 28 sec) 
Heartbeat CPU 0 instructions: 929000001 cycles: 2258627735 heartbeat IPC: 0.445517 cumulative IPC: 0.49376 (Simulation time: 1 hr 50 min 36 sec) 
Heartbeat CPU 0 instructions: 930000000 cycles: 2261520746 heartbeat IPC: 0.34566 cumulative IPC: 0.49332 (Simulation time: 1 hr 50 min 46 sec) 
Heartbeat CPU 0 instructions: 931000000 cycles: 2263469039 heartbeat IPC: 0.51327 cumulative IPC: 0.49336 (Simulation time: 1 hr 50 min 53 sec) 
Heartbeat CPU 0 instructions: 932000001 cycles: 2264861585 heartbeat IPC: 0.71811 cumulative IPC: 0.49368 (Simulation time: 1 hr 51 min 0 sec) 
Heartbeat CPU 0 instructions: 933000002 cycles: 2266519965 heartbeat IPC: 0.602999 cumulative IPC: 0.493865 (Simulation time: 1 hr 51 min 7 sec) 
Heartbeat CPU 0 instructions: 934000002 cycles: 2267885415 heartbeat IPC: 0.732359 cumulative IPC: 0.494198 (Simulation time: 1 hr 51 min 14 sec) 
Heartbeat CPU 0 instructions: 935000000 cycles: 2269281226 heartbeat IPC: 0.716428 cumulative IPC: 0.494514 (Simulation time: 1 hr 51 min 21 sec) 
Heartbeat CPU 0 instructions: 936000002 cycles: 2271117548 heartbeat IPC: 0.544568 cumulative IPC: 0.494608 (Simulation time: 1 hr 51 min 28 sec) 
Heartbeat CPU 0 instructions: 937000002 cycles: 2273149691 heartbeat IPC: 0.492091 cumulative IPC: 0.494603 (Simulation time: 1 hr 51 min 36 sec) 
Heartbeat CPU 0 instructions: 938000000 cycles: 2274717657 heartbeat IPC: 0.637768 cumulative IPC: 0.49483 (Simulation time: 1 hr 51 min 43 sec) 
Heartbeat CPU 0 instructions: 939000001 cycles: 2276256564 heartbeat IPC: 0.649813 cumulative IPC: 0.495072 (Simulation time: 1 hr 51 min 50 sec) 
Heartbeat CPU 0 instructions: 940000003 cycles: 2277950888 heartbeat IPC: 0.590207 cumulative IPC: 0.495235 (Simulation time: 1 hr 51 min 57 sec) 
Heartbeat CPU 0 instructions: 941000001 cycles: 2279546957 heartbeat IPC: 0.626538 cumulative IPC: 0.495446 (Simulation time: 1 hr 52 min 4 sec) 
Heartbeat CPU 0 instructions: 942000002 cycles: 2281924650 heartbeat IPC: 0.420576 cumulative IPC: 0.495267 (Simulation time: 1 hr 52 min 12 sec) 
Heartbeat CPU 0 instructions: 943000003 cycles: 2285068795 heartbeat IPC: 0.318052 cumulative IPC: 0.494708 (Simulation time: 1 hr 52 min 23 sec) 
Heartbeat CPU 0 instructions: 944000003 cycles: 2286864585 heartbeat IPC: 0.556858 cumulative IPC: 0.49482 (Simulation time: 1 hr 52 min 31 sec) 
Heartbeat CPU 0 instructions: 945000000 cycles: 2288316618 heartbeat IPC: 0.688688 cumulative IPC: 0.495101 (Simulation time: 1 hr 52 min 38 sec) 
Heartbeat CPU 0 instructions: 946000000 cycles: 2289752065 heartbeat IPC: 0.696647 cumulative IPC: 0.49539 (Simulation time: 1 hr 52 min 45 sec) 
Heartbeat CPU 0 instructions: 947000000 cycles: 2291484596 heartbeat IPC: 0.57719 cumulative IPC: 0.495531 (Simulation time: 1 hr 52 min 52 sec) 
Heartbeat CPU 0 instructions: 948000000 cycles: 2293635220 heartbeat IPC: 0.464981 cumulative IPC: 0.495466 (Simulation time: 1 hr 53 min 0 sec) 
Heartbeat CPU 0 instructions: 949000001 cycles: 2295305040 heartbeat IPC: 0.598868 cumulative IPC: 0.495637 (Simulation time: 1 hr 53 min 7 sec) 
Heartbeat CPU 0 instructions: 950000000 cycles: 2298464919 heartbeat IPC: 0.316467 cumulative IPC: 0.495077 (Simulation time: 1 hr 53 min 17 sec) 
Finished CPU 0 instructions: 500000000 cycles: 1009944093 cumulative IPC: 0.495077 (Simulation time: 1 hr 53 min 17 sec) 

ChampSim completed all CPUs

Region of Interest Statistics

CPU 0 cumulative IPC: 0.495077 instructions: 500000000 cycles: 1009944093
L1D TOTAL     ACCESS:  230902248  HIT:  218270286  MISS:   12631962
L1D LOAD      ACCESS:   91634731  HIT:   80147439  MISS:   11487292
L1D RFO       ACCESS:  139267517  HIT:  138122847  MISS:    1144670
L1D PREFETCH  ACCESS:          0  HIT:          0  MISS:          0
L1D WRITEBACK ACCESS:          0  HIT:          0  MISS:          0
L1D PREFETCH  REQUESTED:          0  ISSUED:          0  USEFUL:          0  USELESS:          0
L1D AVERAGE MISS LATENCY: 119.195 cycles
L1I TOTAL     ACCESS:  102363588  HIT:  102363588  MISS:          0
L1I LOAD      ACCESS:  102363588  HIT:  102363588  MISS:          0
L1I RFO       ACCESS:          0  HIT:          0  MISS:          0
L1I PREFETCH  ACCESS:          0  HIT:          0  MISS:          0
L1I WRITEBACK ACCESS:          0  HIT:          0  MISS:          0
L1I PREFETCH  REQUESTED:          0  ISSUED:          0  USEFUL:          0  USELESS:          0
L1I AVERAGE MISS LATENCY: -nan cycles
L2C TOTAL     ACCESS:   15627687  HIT:    3217476  MISS:   12410211
L2C LOAD      ACCESS:   11487214  HIT:     219439  MISS:   11267775
L2C RFO       ACCESS:    1144665  HIT:       9130  MISS:    1135535
L2C PREFETCH  ACCESS:          0  HIT:          0  MISS:          0
L2C WRITEBACK ACCESS:    2995808  HIT:    2988907  MISS:       6901
L2C PREFETCH  REQUESTED:          0  ISSUED:          0  USEFUL:          0  USELESS:          0
L2C AVERAGE MISS LATENCY: 104.396 cycles
LLC TOTAL     ACCESS:   25999789  HIT:   13597907  MISS:   12401882
LLC LOAD      ACCESS:   11267775  HIT:    6213978  MISS:    5053797
LLC RFO       ACCESS:    1135535  HIT:        237  MISS:    1135298
LLC PREFETCH  ACCESS:   10766416  HIT:    4558101  MISS:    6208315
LLC WRITEBACK ACCESS:    2830063  HIT:    2825591  MISS:       4472
LLC PREFETCH  REQUESTED:   18075691  ISSUED:   18075691  USEFUL:    6196502  USELESS:      11756
LLC AVERAGE MISS LATENCY: 163.751 cycles
Major fault: 0 Minor fault: 224018
performance stats:
mapping cache size: 4385875
divergence: 3198374

DRAM Statistics
 CHANNEL 0
 RQ ROW_BUFFER_HIT:    5188882  ROW_BUFFER_MISS:    7208395
 DBUS_CONGESTED:    8420521
 WQ ROW_BUFFER_HIT:     621567  ROW_BUFFER_MISS:    2197131  FULL:          0

 AVG_CONGESTED_CYCLE: 6

CPU 0 Branch Prediction Accuracy: 99.1681% MPKI: 0.815588 Average ROB Occupancy at Mispredict: 282.96

Branch types
NOT_BRANCH: 450981411 90.1963%
BRANCH_DIRECT_JUMP: 2292060 0.458412%
BRANCH_INDIRECT: 0 0%
BRANCH_CONDITIONAL: 46725815 9.34516%
BRANCH_DIRECT_CALL: 214 4.28e-05%
BRANCH_INDIRECT_CALL: 0 0%
BRANCH_RETURN: 214 4.28e-05%
BRANCH_OTHER: 0 0%

