
*** ChampSim Multicore Out-of-Order Simulator ***

Warmup Instructions: 1000000
Prefetch Warmup Instructions: 450000000
Simulation Instructions: 500000000
Stat Printing Period: 1000000
Number of CPUs: 1
LLC sets: 2048
LLC ways: 16
Off-chip DRAM Size: 4096 MB Channels: 1 Width: 64-bit Data Rate: 3200 MT/s

CPU 0 runs /scratch/cluster/cmolder/ML-DPC/ChampSimTraces/spec17/605.mcf-s6.trace.xz
Read seed: 227
Heartbeat CPU 0 instructions: 1000001 cycles: 411372 heartbeat IPC: 2.43089 cumulative IPC: 2.43089 (Simulation time: 0 hr 0 min 3 sec) 

Warmup complete CPU 0 instructions: 1000001 cycles: 411372 (Simulation time: 0 hr 0 min 3 sec) 

Heartbeat CPU 0 instructions: 2000001 cycles: 2944854 heartbeat IPC: 0.394714 cumulative IPC: 0.394714 (Simulation time: 0 hr 0 min 6 sec) 
Heartbeat CPU 0 instructions: 3000000 cycles: 5461832 heartbeat IPC: 0.397301 cumulative IPC: 0.396003 (Simulation time: 0 hr 0 min 9 sec) 
Heartbeat CPU 0 instructions: 4000002 cycles: 7945865 heartbeat IPC: 0.402572 cumulative IPC: 0.398169 (Simulation time: 0 hr 0 min 12 sec) 
Heartbeat CPU 0 instructions: 5000000 cycles: 10415844 heartbeat IPC: 0.404861 cumulative IPC: 0.399821 (Simulation time: 0 hr 0 min 14 sec) 
Heartbeat CPU 0 instructions: 6000001 cycles: 12867783 heartbeat IPC: 0.407841 cumulative IPC: 0.4014 (Simulation time: 0 hr 0 min 17 sec) 
Heartbeat CPU 0 instructions: 7000001 cycles: 15539713 heartbeat IPC: 0.374261 cumulative IPC: 0.396607 (Simulation time: 0 hr 0 min 20 sec) 
Heartbeat CPU 0 instructions: 8000002 cycles: 18051070 heartbeat IPC: 0.398191 cumulative IPC: 0.396832 (Simulation time: 0 hr 0 min 23 sec) 
Heartbeat CPU 0 instructions: 9000000 cycles: 20571801 heartbeat IPC: 0.39671 cumulative IPC: 0.396817 (Simulation time: 0 hr 0 min 25 sec) 
Heartbeat CPU 0 instructions: 10000000 cycles: 23088813 heartbeat IPC: 0.397296 cumulative IPC: 0.39687 (Simulation time: 0 hr 0 min 28 sec) 
Heartbeat CPU 0 instructions: 11000000 cycles: 25584388 heartbeat IPC: 0.400709 cumulative IPC: 0.397251 (Simulation time: 0 hr 0 min 31 sec) 
Heartbeat CPU 0 instructions: 12000001 cycles: 28143530 heartbeat IPC: 0.390756 cumulative IPC: 0.396651 (Simulation time: 0 hr 0 min 34 sec) 
Heartbeat CPU 0 instructions: 13000002 cycles: 30629813 heartbeat IPC: 0.402207 cumulative IPC: 0.397109 (Simulation time: 0 hr 0 min 37 sec) 
Heartbeat CPU 0 instructions: 14000003 cycles: 33123116 heartbeat IPC: 0.401075 cumulative IPC: 0.397411 (Simulation time: 0 hr 0 min 40 sec) 
Heartbeat CPU 0 instructions: 15000002 cycles: 35706154 heartbeat IPC: 0.387141 cumulative IPC: 0.396659 (Simulation time: 0 hr 0 min 42 sec) 
Heartbeat CPU 0 instructions: 16000001 cycles: 38243760 heartbeat IPC: 0.394072 cumulative IPC: 0.396486 (Simulation time: 0 hr 0 min 45 sec) 
Heartbeat CPU 0 instructions: 17000002 cycles: 40748800 heartbeat IPC: 0.399196 cumulative IPC: 0.396654 (Simulation time: 0 hr 0 min 48 sec) 
Heartbeat CPU 0 instructions: 18000001 cycles: 43279941 heartbeat IPC: 0.395078 cumulative IPC: 0.396561 (Simulation time: 0 hr 0 min 51 sec) 
Heartbeat CPU 0 instructions: 19000001 cycles: 45807956 heartbeat IPC: 0.395567 cumulative IPC: 0.396506 (Simulation time: 0 hr 0 min 54 sec) 
Heartbeat CPU 0 instructions: 20000001 cycles: 48220904 heartbeat IPC: 0.414431 cumulative IPC: 0.39741 (Simulation time: 0 hr 0 min 57 sec) 
Heartbeat CPU 0 instructions: 21000000 cycles: 50420990 heartbeat IPC: 0.454527 cumulative IPC: 0.399923 (Simulation time: 0 hr 1 min 0 sec) 
Heartbeat CPU 0 instructions: 22000000 cycles: 52808645 heartbeat IPC: 0.418821 cumulative IPC: 0.400784 (Simulation time: 0 hr 1 min 2 sec) 
Heartbeat CPU 0 instructions: 23000000 cycles: 55304814 heartbeat IPC: 0.400614 cumulative IPC: 0.400776 (Simulation time: 0 hr 1 min 6 sec) 
Heartbeat CPU 0 instructions: 24000000 cycles: 57796725 heartbeat IPC: 0.401298 cumulative IPC: 0.400799 (Simulation time: 0 hr 1 min 9 sec) 
Heartbeat CPU 0 instructions: 25000001 cycles: 60293508 heartbeat IPC: 0.400516 cumulative IPC: 0.400787 (Simulation time: 0 hr 1 min 11 sec) 
Heartbeat CPU 0 instructions: 26000000 cycles: 62869244 heartbeat IPC: 0.388238 cumulative IPC: 0.40027 (Simulation time: 0 hr 1 min 14 sec) 
Heartbeat CPU 0 instructions: 27000000 cycles: 65386665 heartbeat IPC: 0.397232 cumulative IPC: 0.400152 (Simulation time: 0 hr 1 min 17 sec) 
Heartbeat CPU 0 instructions: 28000000 cycles: 67906651 heartbeat IPC: 0.396828 cumulative IPC: 0.400028 (Simulation time: 0 hr 1 min 20 sec) 
Heartbeat CPU 0 instructions: 29000002 cycles: 70411623 heartbeat IPC: 0.399207 cumulative IPC: 0.399999 (Simulation time: 0 hr 1 min 22 sec) 
Heartbeat CPU 0 instructions: 30000000 cycles: 72895790 heartbeat IPC: 0.402549 cumulative IPC: 0.400086 (Simulation time: 0 hr 1 min 25 sec) 
Heartbeat CPU 0 instructions: 31000003 cycles: 75435285 heartbeat IPC: 0.39378 cumulative IPC: 0.399873 (Simulation time: 0 hr 1 min 28 sec) 
Heartbeat CPU 0 instructions: 32000000 cycles: 77921853 heartbeat IPC: 0.40216 cumulative IPC: 0.399946 (Simulation time: 0 hr 1 min 30 sec) 
Heartbeat CPU 0 instructions: 33000000 cycles: 80401665 heartbeat IPC: 0.403256 cumulative IPC: 0.400049 (Simulation time: 0 hr 1 min 33 sec) 
Heartbeat CPU 0 instructions: 34000001 cycles: 82892331 heartbeat IPC: 0.401499 cumulative IPC: 0.400092 (Simulation time: 0 hr 1 min 35 sec) 
Heartbeat CPU 0 instructions: 35000001 cycles: 85359488 heartbeat IPC: 0.405325 cumulative IPC: 0.400244 (Simulation time: 0 hr 1 min 38 sec) 
Heartbeat CPU 0 instructions: 36000000 cycles: 87913076 heartbeat IPC: 0.391605 cumulative IPC: 0.399992 (Simulation time: 0 hr 1 min 40 sec) 
Heartbeat CPU 0 instructions: 37000000 cycles: 90389291 heartbeat IPC: 0.403842 cumulative IPC: 0.400098 (Simulation time: 0 hr 1 min 43 sec) 
Heartbeat CPU 0 instructions: 38000000 cycles: 92899069 heartbeat IPC: 0.398442 cumulative IPC: 0.400053 (Simulation time: 0 hr 1 min 46 sec) 
Heartbeat CPU 0 instructions: 39000000 cycles: 95375546 heartbeat IPC: 0.403799 cumulative IPC: 0.400151 (Simulation time: 0 hr 1 min 48 sec) 
Heartbeat CPU 0 instructions: 40000000 cycles: 97857803 heartbeat IPC: 0.402859 cumulative IPC: 0.40022 (Simulation time: 0 hr 1 min 51 sec) 
Heartbeat CPU 0 instructions: 41000003 cycles: 100353775 heartbeat IPC: 0.400647 cumulative IPC: 0.400231 (Simulation time: 0 hr 1 min 54 sec) 
Heartbeat CPU 0 instructions: 42000002 cycles: 102923807 heartbeat IPC: 0.3891 cumulative IPC: 0.399951 (Simulation time: 0 hr 1 min 56 sec) 
Heartbeat CPU 0 instructions: 43000003 cycles: 105432573 heartbeat IPC: 0.398603 cumulative IPC: 0.399919 (Simulation time: 0 hr 1 min 59 sec) 
Heartbeat CPU 0 instructions: 44000000 cycles: 107831940 heartbeat IPC: 0.416775 cumulative IPC: 0.400296 (Simulation time: 0 hr 2 min 1 sec) 
Heartbeat CPU 0 instructions: 45000000 cycles: 110058316 heartbeat IPC: 0.44916 cumulative IPC: 0.401288 (Simulation time: 0 hr 2 min 4 sec) 
Heartbeat CPU 0 instructions: 46000001 cycles: 112446802 heartbeat IPC: 0.418676 cumulative IPC: 0.401659 (Simulation time: 0 hr 2 min 6 sec) 
Heartbeat CPU 0 instructions: 47000003 cycles: 114944780 heartbeat IPC: 0.400325 cumulative IPC: 0.40163 (Simulation time: 0 hr 2 min 9 sec) 
Heartbeat CPU 0 instructions: 48000001 cycles: 117441433 heartbeat IPC: 0.400535 cumulative IPC: 0.401606 (Simulation time: 0 hr 2 min 13 sec) 
Heartbeat CPU 0 instructions: 49000002 cycles: 119952466 heartbeat IPC: 0.398243 cumulative IPC: 0.401536 (Simulation time: 0 hr 2 min 18 sec) 
Heartbeat CPU 0 instructions: 50000000 cycles: 122430288 heartbeat IPC: 0.403579 cumulative IPC: 0.401577 (Simulation time: 0 hr 2 min 22 sec) 
Heartbeat CPU 0 instructions: 51000002 cycles: 124920321 heartbeat IPC: 0.401602 cumulative IPC: 0.401578 (Simulation time: 0 hr 2 min 27 sec) 
Heartbeat CPU 0 instructions: 52000000 cycles: 127401670 heartbeat IPC: 0.403006 cumulative IPC: 0.401605 (Simulation time: 0 hr 2 min 32 sec) 
Heartbeat CPU 0 instructions: 53000000 cycles: 129910832 heartbeat IPC: 0.398539 cumulative IPC: 0.401546 (Simulation time: 0 hr 2 min 37 sec) 
Heartbeat CPU 0 instructions: 54000000 cycles: 132444670 heartbeat IPC: 0.394658 cumulative IPC: 0.401414 (Simulation time: 0 hr 2 min 41 sec) 
Heartbeat CPU 0 instructions: 55000000 cycles: 135023665 heartbeat IPC: 0.387748 cumulative IPC: 0.401152 (Simulation time: 0 hr 2 min 46 sec) 
Heartbeat CPU 0 instructions: 56000001 cycles: 137553677 heartbeat IPC: 0.395255 cumulative IPC: 0.401043 (Simulation time: 0 hr 2 min 51 sec) 
Heartbeat CPU 0 instructions: 57000001 cycles: 140053878 heartbeat IPC: 0.399968 cumulative IPC: 0.401024 (Simulation time: 0 hr 2 min 56 sec) 
Heartbeat CPU 0 instructions: 58000002 cycles: 142615338 heartbeat IPC: 0.390403 cumulative IPC: 0.400833 (Simulation time: 0 hr 3 min 1 sec) 
Heartbeat CPU 0 instructions: 59000002 cycles: 145077417 heartbeat IPC: 0.406161 cumulative IPC: 0.400923 (Simulation time: 0 hr 3 min 5 sec) 
Heartbeat CPU 0 instructions: 60000003 cycles: 147554388 heartbeat IPC: 0.403719 cumulative IPC: 0.40097 (Simulation time: 0 hr 3 min 10 sec) 
Heartbeat CPU 0 instructions: 61000000 cycles: 150163297 heartbeat IPC: 0.383301 cumulative IPC: 0.400663 (Simulation time: 0 hr 3 min 15 sec) 
Heartbeat CPU 0 instructions: 62000001 cycles: 152659235 heartbeat IPC: 0.400651 cumulative IPC: 0.400662 (Simulation time: 0 hr 3 min 20 sec) 
Heartbeat CPU 0 instructions: 63000001 cycles: 155164752 heartbeat IPC: 0.399119 cumulative IPC: 0.400637 (Simulation time: 0 hr 3 min 25 sec) 
Heartbeat CPU 0 instructions: 64000000 cycles: 157676389 heartbeat IPC: 0.398146 cumulative IPC: 0.400598 (Simulation time: 0 hr 3 min 29 sec) 
Heartbeat CPU 0 instructions: 65000000 cycles: 160217108 heartbeat IPC: 0.393589 cumulative IPC: 0.400486 (Simulation time: 0 hr 3 min 34 sec) 
Heartbeat CPU 0 instructions: 66000000 cycles: 162707302 heartbeat IPC: 0.401575 cumulative IPC: 0.400503 (Simulation time: 0 hr 3 min 39 sec) 
Heartbeat CPU 0 instructions: 67000003 cycles: 164967654 heartbeat IPC: 0.44241 cumulative IPC: 0.401079 (Simulation time: 0 hr 3 min 43 sec) 
Heartbeat CPU 0 instructions: 68000001 cycles: 167323363 heartbeat IPC: 0.4245 cumulative IPC: 0.401409 (Simulation time: 0 hr 3 min 47 sec) 
Heartbeat CPU 0 instructions: 69000000 cycles: 169770149 heartbeat IPC: 0.408699 cumulative IPC: 0.401514 (Simulation time: 0 hr 3 min 52 sec) 
Heartbeat CPU 0 instructions: 70000003 cycles: 172283233 heartbeat IPC: 0.397919 cumulative IPC: 0.401462 (Simulation time: 0 hr 3 min 57 sec) 
Heartbeat CPU 0 instructions: 71000000 cycles: 174744927 heartbeat IPC: 0.406223 cumulative IPC: 0.401529 (Simulation time: 0 hr 4 min 1 sec) 
Heartbeat CPU 0 instructions: 72000000 cycles: 177257620 heartbeat IPC: 0.397979 cumulative IPC: 0.401479 (Simulation time: 0 hr 4 min 6 sec) 
Heartbeat CPU 0 instructions: 73000002 cycles: 179736804 heartbeat IPC: 0.403359 cumulative IPC: 0.401505 (Simulation time: 0 hr 4 min 11 sec) 
Heartbeat CPU 0 instructions: 74000000 cycles: 182279429 heartbeat IPC: 0.393294 cumulative IPC: 0.40139 (Simulation time: 0 hr 4 min 16 sec) 
Heartbeat CPU 0 instructions: 75000000 cycles: 184802446 heartbeat IPC: 0.396351 cumulative IPC: 0.401321 (Simulation time: 0 hr 4 min 21 sec) 
Heartbeat CPU 0 instructions: 76000002 cycles: 187298164 heartbeat IPC: 0.400687 cumulative IPC: 0.401312 (Simulation time: 0 hr 4 min 25 sec) 
Heartbeat CPU 0 instructions: 77000000 cycles: 189792400 heartbeat IPC: 0.400924 cumulative IPC: 0.401307 (Simulation time: 0 hr 4 min 30 sec) 
Heartbeat CPU 0 instructions: 78000001 cycles: 192283746 heartbeat IPC: 0.40139 cumulative IPC: 0.401308 (Simulation time: 0 hr 4 min 35 sec) 
Heartbeat CPU 0 instructions: 79000002 cycles: 194764723 heartbeat IPC: 0.403067 cumulative IPC: 0.401331 (Simulation time: 0 hr 4 min 40 sec) 
Heartbeat CPU 0 instructions: 80000001 cycles: 197240969 heartbeat IPC: 0.403837 cumulative IPC: 0.401362 (Simulation time: 0 hr 4 min 45 sec) 
Heartbeat CPU 0 instructions: 81000000 cycles: 199726535 heartbeat IPC: 0.402322 cumulative IPC: 0.401374 (Simulation time: 0 hr 4 min 50 sec) 
Heartbeat CPU 0 instructions: 82000002 cycles: 202212308 heartbeat IPC: 0.40229 cumulative IPC: 0.401386 (Simulation time: 0 hr 4 min 54 sec) 
Heartbeat CPU 0 instructions: 83000003 cycles: 204715615 heartbeat IPC: 0.399472 cumulative IPC: 0.401362 (Simulation time: 0 hr 4 min 59 sec) 
Heartbeat CPU 0 instructions: 84000002 cycles: 207231934 heartbeat IPC: 0.397406 cumulative IPC: 0.401314 (Simulation time: 0 hr 5 min 3 sec) 
Heartbeat CPU 0 instructions: 85000000 cycles: 209725514 heartbeat IPC: 0.401029 cumulative IPC: 0.401311 (Simulation time: 0 hr 5 min 6 sec) 
Heartbeat CPU 0 instructions: 86000001 cycles: 212180697 heartbeat IPC: 0.407302 cumulative IPC: 0.40138 (Simulation time: 0 hr 5 min 9 sec) 
Heartbeat CPU 0 instructions: 87000003 cycles: 214582996 heartbeat IPC: 0.416269 cumulative IPC: 0.401547 (Simulation time: 0 hr 5 min 12 sec) 
Heartbeat CPU 0 instructions: 88000000 cycles: 216976671 heartbeat IPC: 0.417766 cumulative IPC: 0.401726 (Simulation time: 0 hr 5 min 14 sec) 
Heartbeat CPU 0 instructions: 89000000 cycles: 220243840 heartbeat IPC: 0.306075 cumulative IPC: 0.400305 (Simulation time: 0 hr 5 min 17 sec) 
Heartbeat CPU 0 instructions: 90000001 cycles: 223050374 heartbeat IPC: 0.356312 cumulative IPC: 0.39975 (Simulation time: 0 hr 5 min 20 sec) 
Heartbeat CPU 0 instructions: 91000000 cycles: 225114793 heartbeat IPC: 0.484397 cumulative IPC: 0.400528 (Simulation time: 0 hr 5 min 23 sec) 
Heartbeat CPU 0 instructions: 92000000 cycles: 227866276 heartbeat IPC: 0.36344 cumulative IPC: 0.400079 (Simulation time: 0 hr 5 min 25 sec) 
Heartbeat CPU 0 instructions: 93000001 cycles: 229995106 heartbeat IPC: 0.469742 cumulative IPC: 0.400725 (Simulation time: 0 hr 5 min 28 sec) 
Heartbeat CPU 0 instructions: 94000000 cycles: 232719423 heartbeat IPC: 0.367064 cumulative IPC: 0.400331 (Simulation time: 0 hr 5 min 31 sec) 
Heartbeat CPU 0 instructions: 95000002 cycles: 234803172 heartbeat IPC: 0.479905 cumulative IPC: 0.401038 (Simulation time: 0 hr 5 min 33 sec) 
Heartbeat CPU 0 instructions: 96000000 cycles: 237525154 heartbeat IPC: 0.367379 cumulative IPC: 0.400652 (Simulation time: 0 hr 5 min 36 sec) 
Heartbeat CPU 0 instructions: 97000001 cycles: 239591924 heartbeat IPC: 0.483847 cumulative IPC: 0.40137 (Simulation time: 0 hr 5 min 39 sec) 
Heartbeat CPU 0 instructions: 98000002 cycles: 242327504 heartbeat IPC: 0.365554 cumulative IPC: 0.400965 (Simulation time: 0 hr 5 min 42 sec) 
Heartbeat CPU 0 instructions: 99000000 cycles: 244398882 heartbeat IPC: 0.482769 cumulative IPC: 0.40166 (Simulation time: 0 hr 5 min 44 sec) 
Heartbeat CPU 0 instructions: 100000000 cycles: 247118411 heartbeat IPC: 0.367711 cumulative IPC: 0.401286 (Simulation time: 0 hr 5 min 47 sec) 
Heartbeat CPU 0 instructions: 101000002 cycles: 249194631 heartbeat IPC: 0.481645 cumulative IPC: 0.401956 (Simulation time: 0 hr 5 min 50 sec) 
Heartbeat CPU 0 instructions: 102000000 cycles: 251985634 heartbeat IPC: 0.358293 cumulative IPC: 0.401472 (Simulation time: 0 hr 5 min 53 sec) 
Heartbeat CPU 0 instructions: 103000003 cycles: 254027026 heartbeat IPC: 0.489863 cumulative IPC: 0.402183 (Simulation time: 0 hr 5 min 56 sec) 
Heartbeat CPU 0 instructions: 104000001 cycles: 256830689 heartbeat IPC: 0.356676 cumulative IPC: 0.401686 (Simulation time: 0 hr 5 min 59 sec) 
Heartbeat CPU 0 instructions: 105000000 cycles: 258871019 heartbeat IPC: 0.490116 cumulative IPC: 0.402384 (Simulation time: 0 hr 6 min 1 sec) 
Heartbeat CPU 0 instructions: 106000000 cycles: 261610815 heartbeat IPC: 0.364991 cumulative IPC: 0.401992 (Simulation time: 0 hr 6 min 4 sec) 
Heartbeat CPU 0 instructions: 107000001 cycles: 263682785 heartbeat IPC: 0.482633 cumulative IPC: 0.402626 (Simulation time: 0 hr 6 min 7 sec) 
Heartbeat CPU 0 instructions: 108000003 cycles: 266463578 heartbeat IPC: 0.35961 cumulative IPC: 0.402177 (Simulation time: 0 hr 6 min 10 sec) 
Heartbeat CPU 0 instructions: 109000002 cycles: 268549246 heartbeat IPC: 0.479462 cumulative IPC: 0.402778 (Simulation time: 0 hr 6 min 12 sec) 
Heartbeat CPU 0 instructions: 110000000 cycles: 271307476 heartbeat IPC: 0.362551 cumulative IPC: 0.402368 (Simulation time: 0 hr 6 min 15 sec) 
Heartbeat CPU 0 instructions: 111000000 cycles: 273397975 heartbeat IPC: 0.478355 cumulative IPC: 0.40295 (Simulation time: 0 hr 6 min 18 sec) 
Heartbeat CPU 0 instructions: 112000003 cycles: 276104090 heartbeat IPC: 0.369535 cumulative IPC: 0.402622 (Simulation time: 0 hr 6 min 20 sec) 
Heartbeat CPU 0 instructions: 113000003 cycles: 278167904 heartbeat IPC: 0.48454 cumulative IPC: 0.403231 (Simulation time: 0 hr 6 min 23 sec) 
Heartbeat CPU 0 instructions: 114000001 cycles: 280895841 heartbeat IPC: 0.366577 cumulative IPC: 0.402874 (Simulation time: 0 hr 6 min 26 sec) 
Heartbeat CPU 0 instructions: 115000000 cycles: 282948461 heartbeat IPC: 0.487182 cumulative IPC: 0.403487 (Simulation time: 0 hr 6 min 28 sec) 
Heartbeat CPU 0 instructions: 116000000 cycles: 285650827 heartbeat IPC: 0.370046 cumulative IPC: 0.40317 (Simulation time: 0 hr 6 min 31 sec) 
Heartbeat CPU 0 instructions: 117000001 cycles: 287718315 heartbeat IPC: 0.483679 cumulative IPC: 0.403749 (Simulation time: 0 hr 6 min 34 sec) 
Heartbeat CPU 0 instructions: 118000003 cycles: 290423181 heartbeat IPC: 0.369705 cumulative IPC: 0.403432 (Simulation time: 0 hr 6 min 36 sec) 
Heartbeat CPU 0 instructions: 119000000 cycles: 292471361 heartbeat IPC: 0.488237 cumulative IPC: 0.404027 (Simulation time: 0 hr 6 min 39 sec) 
Heartbeat CPU 0 instructions: 120000000 cycles: 295197840 heartbeat IPC: 0.366773 cumulative IPC: 0.403682 (Simulation time: 0 hr 6 min 42 sec) 
Heartbeat CPU 0 instructions: 121000000 cycles: 297254777 heartbeat IPC: 0.48616 cumulative IPC: 0.404254 (Simulation time: 0 hr 6 min 44 sec) 
Heartbeat CPU 0 instructions: 122000002 cycles: 299953472 heartbeat IPC: 0.37055 cumulative IPC: 0.40395 (Simulation time: 0 hr 6 min 47 sec) 
Heartbeat CPU 0 instructions: 123000000 cycles: 302019314 heartbeat IPC: 0.484063 cumulative IPC: 0.404499 (Simulation time: 0 hr 6 min 49 sec) 
Heartbeat CPU 0 instructions: 124000000 cycles: 304722152 heartbeat IPC: 0.369981 cumulative IPC: 0.404192 (Simulation time: 0 hr 6 min 52 sec) 
Heartbeat CPU 0 instructions: 125000000 cycles: 306803664 heartbeat IPC: 0.48042 cumulative IPC: 0.40471 (Simulation time: 0 hr 6 min 55 sec) 
Heartbeat CPU 0 instructions: 126000000 cycles: 309508749 heartbeat IPC: 0.369674 cumulative IPC: 0.404403 (Simulation time: 0 hr 6 min 58 sec) 
Heartbeat CPU 0 instructions: 127000000 cycles: 311644030 heartbeat IPC: 0.468322 cumulative IPC: 0.404842 (Simulation time: 0 hr 7 min 0 sec) 
Heartbeat CPU 0 instructions: 128000000 cycles: 314303037 heartbeat IPC: 0.37608 cumulative IPC: 0.404598 (Simulation time: 0 hr 7 min 3 sec) 
Heartbeat CPU 0 instructions: 129000000 cycles: 316487726 heartbeat IPC: 0.457731 cumulative IPC: 0.404965 (Simulation time: 0 hr 7 min 5 sec) 
Heartbeat CPU 0 instructions: 130000000 cycles: 318985775 heartbeat IPC: 0.400312 cumulative IPC: 0.404929 (Simulation time: 0 hr 7 min 8 sec) 
Heartbeat CPU 0 instructions: 131000001 cycles: 321284841 heartbeat IPC: 0.43496 cumulative IPC: 0.405144 (Simulation time: 0 hr 7 min 11 sec) 
Heartbeat CPU 0 instructions: 132000000 cycles: 323669480 heartbeat IPC: 0.41935 cumulative IPC: 0.405249 (Simulation time: 0 hr 7 min 13 sec) 
Heartbeat CPU 0 instructions: 133000001 cycles: 326094003 heartbeat IPC: 0.412453 cumulative IPC: 0.405303 (Simulation time: 0 hr 7 min 16 sec) 
Heartbeat CPU 0 instructions: 134000001 cycles: 328519488 heartbeat IPC: 0.412289 cumulative IPC: 0.405354 (Simulation time: 0 hr 7 min 18 sec) 
Heartbeat CPU 0 instructions: 135000003 cycles: 330930416 heartbeat IPC: 0.414779 cumulative IPC: 0.405423 (Simulation time: 0 hr 7 min 21 sec) 
Heartbeat CPU 0 instructions: 136000002 cycles: 333259532 heartbeat IPC: 0.429347 cumulative IPC: 0.40559 (Simulation time: 0 hr 7 min 23 sec) 
Heartbeat CPU 0 instructions: 137000001 cycles: 335681672 heartbeat IPC: 0.412858 cumulative IPC: 0.405643 (Simulation time: 0 hr 7 min 26 sec) 
Heartbeat CPU 0 instructions: 138000001 cycles: 338217527 heartbeat IPC: 0.394344 cumulative IPC: 0.405558 (Simulation time: 0 hr 7 min 29 sec) 
Heartbeat CPU 0 instructions: 139000000 cycles: 340971534 heartbeat IPC: 0.363107 cumulative IPC: 0.405215 (Simulation time: 0 hr 7 min 31 sec) 
Heartbeat CPU 0 instructions: 140000002 cycles: 343453669 heartbeat IPC: 0.40288 cumulative IPC: 0.405198 (Simulation time: 0 hr 7 min 34 sec) 
Heartbeat CPU 0 instructions: 141000000 cycles: 346029237 heartbeat IPC: 0.388263 cumulative IPC: 0.405072 (Simulation time: 0 hr 7 min 36 sec) 
Heartbeat CPU 0 instructions: 142000000 cycles: 348217837 heartbeat IPC: 0.456913 cumulative IPC: 0.405398 (Simulation time: 0 hr 7 min 39 sec) 
Heartbeat CPU 0 instructions: 143000000 cycles: 350919227 heartbeat IPC: 0.37018 cumulative IPC: 0.405126 (Simulation time: 0 hr 7 min 42 sec) 
Heartbeat CPU 0 instructions: 144000003 cycles: 353013280 heartbeat IPC: 0.477544 cumulative IPC: 0.405557 (Simulation time: 0 hr 7 min 44 sec) 
Heartbeat CPU 0 instructions: 145000001 cycles: 355855408 heartbeat IPC: 0.351848 cumulative IPC: 0.405127 (Simulation time: 0 hr 7 min 47 sec) 
Heartbeat CPU 0 instructions: 146000002 cycles: 357987317 heartbeat IPC: 0.469064 cumulative IPC: 0.405508 (Simulation time: 0 hr 7 min 49 sec) 
Heartbeat CPU 0 instructions: 147000000 cycles: 360740508 heartbeat IPC: 0.363214 cumulative IPC: 0.405185 (Simulation time: 0 hr 7 min 52 sec) 
Heartbeat CPU 0 instructions: 148000000 cycles: 362877712 heartbeat IPC: 0.467901 cumulative IPC: 0.405555 (Simulation time: 0 hr 7 min 54 sec) 
Heartbeat CPU 0 instructions: 149000000 cycles: 365652058 heartbeat IPC: 0.360445 cumulative IPC: 0.405212 (Simulation time: 0 hr 7 min 57 sec) 
Heartbeat CPU 0 instructions: 150000000 cycles: 367752555 heartbeat IPC: 0.476078 cumulative IPC: 0.405617 (Simulation time: 0 hr 8 min 0 sec) 
Heartbeat CPU 0 instructions: 151000000 cycles: 370167030 heartbeat IPC: 0.414169 cumulative IPC: 0.405673 (Simulation time: 0 hr 8 min 2 sec) 
Heartbeat CPU 0 instructions: 152000003 cycles: 372747229 heartbeat IPC: 0.387568 cumulative IPC: 0.405548 (Simulation time: 0 hr 8 min 5 sec) 
Heartbeat CPU 0 instructions: 153000000 cycles: 374840495 heartbeat IPC: 0.477721 cumulative IPC: 0.405951 (Simulation time: 0 hr 8 min 7 sec) 
Heartbeat CPU 0 instructions: 154000000 cycles: 377630339 heartbeat IPC: 0.358443 cumulative IPC: 0.4056 (Simulation time: 0 hr 8 min 10 sec) 
Heartbeat CPU 0 instructions: 155000000 cycles: 379794531 heartbeat IPC: 0.462066 cumulative IPC: 0.405922 (Simulation time: 0 hr 8 min 12 sec) 
Heartbeat CPU 0 instructions: 156000000 cycles: 382641567 heartbeat IPC: 0.351242 cumulative IPC: 0.405515 (Simulation time: 0 hr 8 min 15 sec) 
Heartbeat CPU 0 instructions: 157000001 cycles: 384752180 heartbeat IPC: 0.473796 cumulative IPC: 0.40589 (Simulation time: 0 hr 8 min 17 sec) 
Heartbeat CPU 0 instructions: 158000000 cycles: 387317309 heartbeat IPC: 0.389844 cumulative IPC: 0.405783 (Simulation time: 0 hr 8 min 20 sec) 
Heartbeat CPU 0 instructions: 159000000 cycles: 389645254 heartbeat IPC: 0.429563 cumulative IPC: 0.405926 (Simulation time: 0 hr 8 min 22 sec) 
Heartbeat CPU 0 instructions: 160000000 cycles: 391732000 heartbeat IPC: 0.479215 cumulative IPC: 0.406316 (Simulation time: 0 hr 8 min 25 sec) 
Heartbeat CPU 0 instructions: 161000001 cycles: 394591160 heartbeat IPC: 0.349753 cumulative IPC: 0.405906 (Simulation time: 0 hr 8 min 28 sec) 
Heartbeat CPU 0 instructions: 162000001 cycles: 396680378 heartbeat IPC: 0.478648 cumulative IPC: 0.40629 (Simulation time: 0 hr 8 min 30 sec) 
Heartbeat CPU 0 instructions: 163000000 cycles: 399455330 heartbeat IPC: 0.360366 cumulative IPC: 0.40597 (Simulation time: 0 hr 8 min 33 sec) 
Heartbeat CPU 0 instructions: 164000000 cycles: 401574343 heartbeat IPC: 0.471918 cumulative IPC: 0.406319 (Simulation time: 0 hr 8 min 36 sec) 
Heartbeat CPU 0 instructions: 165000000 cycles: 404356437 heartbeat IPC: 0.359441 cumulative IPC: 0.405996 (Simulation time: 0 hr 8 min 41 sec) 
Heartbeat CPU 0 instructions: 166000001 cycles: 406566579 heartbeat IPC: 0.45246 cumulative IPC: 0.406249 (Simulation time: 0 hr 8 min 45 sec) 
Heartbeat CPU 0 instructions: 167000002 cycles: 408745439 heartbeat IPC: 0.458956 cumulative IPC: 0.40653 (Simulation time: 0 hr 8 min 49 sec) 
Heartbeat CPU 0 instructions: 168000000 cycles: 411500556 heartbeat IPC: 0.36296 cumulative IPC: 0.406238 (Simulation time: 0 hr 8 min 52 sec) 
Heartbeat CPU 0 instructions: 169000003 cycles: 413598816 heartbeat IPC: 0.476587 cumulative IPC: 0.406595 (Simulation time: 0 hr 8 min 54 sec) 
Heartbeat CPU 0 instructions: 170000000 cycles: 416413755 heartbeat IPC: 0.355246 cumulative IPC: 0.406248 (Simulation time: 0 hr 8 min 57 sec) 
Heartbeat CPU 0 instructions: 171000001 cycles: 418525355 heartbeat IPC: 0.473575 cumulative IPC: 0.406588 (Simulation time: 0 hr 9 min 0 sec) 
Heartbeat CPU 0 instructions: 172000000 cycles: 421312596 heartbeat IPC: 0.358777 cumulative IPC: 0.406271 (Simulation time: 0 hr 9 min 3 sec) 
Heartbeat CPU 0 instructions: 173000001 cycles: 423401163 heartbeat IPC: 0.478798 cumulative IPC: 0.406629 (Simulation time: 0 hr 9 min 6 sec) 
Heartbeat CPU 0 instructions: 174000002 cycles: 426157762 heartbeat IPC: 0.362766 cumulative IPC: 0.406345 (Simulation time: 0 hr 9 min 8 sec) 
Heartbeat CPU 0 instructions: 175000003 cycles: 428260696 heartbeat IPC: 0.475527 cumulative IPC: 0.406685 (Simulation time: 0 hr 9 min 11 sec) 
Heartbeat CPU 0 instructions: 176000000 cycles: 431046876 heartbeat IPC: 0.358913 cumulative IPC: 0.406376 (Simulation time: 0 hr 9 min 14 sec) 
Heartbeat CPU 0 instructions: 177000002 cycles: 433144080 heartbeat IPC: 0.476826 cumulative IPC: 0.406718 (Simulation time: 0 hr 9 min 19 sec) 
Heartbeat CPU 0 instructions: 178000000 cycles: 435381091 heartbeat IPC: 0.447024 cumulative IPC: 0.406925 (Simulation time: 0 hr 9 min 23 sec) 
Heartbeat CPU 0 instructions: 179000001 cycles: 438028343 heartbeat IPC: 0.377751 cumulative IPC: 0.406748 (Simulation time: 0 hr 9 min 28 sec) 
Heartbeat CPU 0 instructions: 180000001 cycles: 440249735 heartbeat IPC: 0.450168 cumulative IPC: 0.406968 (Simulation time: 0 hr 9 min 32 sec) 
Heartbeat CPU 0 instructions: 181000000 cycles: 442962741 heartbeat IPC: 0.368594 cumulative IPC: 0.406732 (Simulation time: 0 hr 9 min 37 sec) 
Heartbeat CPU 0 instructions: 182000000 cycles: 445047198 heartbeat IPC: 0.479741 cumulative IPC: 0.407075 (Simulation time: 0 hr 9 min 42 sec) 
Heartbeat CPU 0 instructions: 183000000 cycles: 447829928 heartbeat IPC: 0.359359 cumulative IPC: 0.406778 (Simulation time: 0 hr 9 min 46 sec) 
Heartbeat CPU 0 instructions: 184000003 cycles: 449924916 heartbeat IPC: 0.477331 cumulative IPC: 0.407107 (Simulation time: 0 hr 9 min 50 sec) 
Heartbeat CPU 0 instructions: 185000001 cycles: 452674829 heartbeat IPC: 0.363647 cumulative IPC: 0.406842 (Simulation time: 0 hr 9 min 53 sec) 
Heartbeat CPU 0 instructions: 186000001 cycles: 454842746 heartbeat IPC: 0.461272 cumulative IPC: 0.407102 (Simulation time: 0 hr 9 min 55 sec) 
Heartbeat CPU 0 instructions: 187000000 cycles: 457497265 heartbeat IPC: 0.376716 cumulative IPC: 0.406926 (Simulation time: 0 hr 9 min 58 sec) 
Heartbeat CPU 0 instructions: 188000000 cycles: 459572593 heartbeat IPC: 0.481852 cumulative IPC: 0.407264 (Simulation time: 0 hr 10 min 1 sec) 
Heartbeat CPU 0 instructions: 189000002 cycles: 462325564 heartbeat IPC: 0.363245 cumulative IPC: 0.407002 (Simulation time: 0 hr 10 min 4 sec) 
Heartbeat CPU 0 instructions: 190000002 cycles: 464410446 heartbeat IPC: 0.479643 cumulative IPC: 0.407328 (Simulation time: 0 hr 10 min 6 sec) 
Heartbeat CPU 0 instructions: 191000002 cycles: 467181232 heartbeat IPC: 0.360908 cumulative IPC: 0.407053 (Simulation time: 0 hr 10 min 9 sec) 
Heartbeat CPU 0 instructions: 192000002 cycles: 469323699 heartbeat IPC: 0.466752 cumulative IPC: 0.407326 (Simulation time: 0 hr 10 min 12 sec) 
Heartbeat CPU 0 instructions: 193000000 cycles: 472076891 heartbeat IPC: 0.363214 cumulative IPC: 0.407068 (Simulation time: 0 hr 10 min 15 sec) 
Heartbeat CPU 0 instructions: 194000001 cycles: 474174454 heartbeat IPC: 0.476744 cumulative IPC: 0.407377 (Simulation time: 0 hr 10 min 17 sec) 
Heartbeat CPU 0 instructions: 195000001 cycles: 476900686 heartbeat IPC: 0.366807 cumulative IPC: 0.407144 (Simulation time: 0 hr 10 min 20 sec) 
Heartbeat CPU 0 instructions: 196000000 cycles: 479000085 heartbeat IPC: 0.476326 cumulative IPC: 0.407448 (Simulation time: 0 hr 10 min 24 sec) 
Heartbeat CPU 0 instructions: 197000002 cycles: 481783840 heartbeat IPC: 0.359228 cumulative IPC: 0.407169 (Simulation time: 0 hr 10 min 29 sec) 
Heartbeat CPU 0 instructions: 198000000 cycles: 483899570 heartbeat IPC: 0.472649 cumulative IPC: 0.407456 (Simulation time: 0 hr 10 min 33 sec) 
Heartbeat CPU 0 instructions: 199000003 cycles: 486665824 heartbeat IPC: 0.361501 cumulative IPC: 0.407194 (Simulation time: 0 hr 10 min 36 sec) 
Heartbeat CPU 0 instructions: 200000000 cycles: 488766650 heartbeat IPC: 0.476002 cumulative IPC: 0.40749 (Simulation time: 0 hr 10 min 39 sec) 
Heartbeat CPU 0 instructions: 201000003 cycles: 491236694 heartbeat IPC: 0.404852 cumulative IPC: 0.407477 (Simulation time: 0 hr 10 min 41 sec) 
Heartbeat CPU 0 instructions: 202000001 cycles: 493680519 heartbeat IPC: 0.409194 cumulative IPC: 0.407485 (Simulation time: 0 hr 10 min 44 sec) 
Heartbeat CPU 0 instructions: 203000001 cycles: 495864998 heartbeat IPC: 0.457775 cumulative IPC: 0.407707 (Simulation time: 0 hr 10 min 47 sec) 
Heartbeat CPU 0 instructions: 204000000 cycles: 498570575 heartbeat IPC: 0.369607 cumulative IPC: 0.4075 (Simulation time: 0 hr 10 min 49 sec) 
Heartbeat CPU 0 instructions: 205000000 cycles: 500697186 heartbeat IPC: 0.470232 cumulative IPC: 0.407767 (Simulation time: 0 hr 10 min 52 sec) 
Heartbeat CPU 0 instructions: 206000000 cycles: 503437908 heartbeat IPC: 0.364867 cumulative IPC: 0.407533 (Simulation time: 0 hr 10 min 55 sec) 
Heartbeat CPU 0 instructions: 207000003 cycles: 505493636 heartbeat IPC: 0.486447 cumulative IPC: 0.407854 (Simulation time: 0 hr 10 min 57 sec) 
Heartbeat CPU 0 instructions: 208000000 cycles: 508227662 heartbeat IPC: 0.36576 cumulative IPC: 0.407628 (Simulation time: 0 hr 11 min 1 sec) 
Heartbeat CPU 0 instructions: 209000000 cycles: 510289770 heartbeat IPC: 0.484941 cumulative IPC: 0.40794 (Simulation time: 0 hr 11 min 5 sec) 
Heartbeat CPU 0 instructions: 210000003 cycles: 513042074 heartbeat IPC: 0.363333 cumulative IPC: 0.407701 (Simulation time: 0 hr 11 min 8 sec) 
Heartbeat CPU 0 instructions: 211000000 cycles: 515110768 heartbeat IPC: 0.483395 cumulative IPC: 0.408005 (Simulation time: 0 hr 11 min 10 sec) 
Heartbeat CPU 0 instructions: 212000001 cycles: 517860447 heartbeat IPC: 0.363679 cumulative IPC: 0.40777 (Simulation time: 0 hr 11 min 13 sec) 
Heartbeat CPU 0 instructions: 213000002 cycles: 519975855 heartbeat IPC: 0.472723 cumulative IPC: 0.408034 (Simulation time: 0 hr 11 min 15 sec) 
Heartbeat CPU 0 instructions: 214000002 cycles: 522418845 heartbeat IPC: 0.409334 cumulative IPC: 0.40804 (Simulation time: 0 hr 11 min 18 sec) 
Heartbeat CPU 0 instructions: 215000002 cycles: 524782347 heartbeat IPC: 0.423101 cumulative IPC: 0.408108 (Simulation time: 0 hr 11 min 21 sec) 
Heartbeat CPU 0 instructions: 216000000 cycles: 526889203 heartbeat IPC: 0.47464 cumulative IPC: 0.408374 (Simulation time: 0 hr 11 min 23 sec) 
Heartbeat CPU 0 instructions: 217000000 cycles: 529699596 heartbeat IPC: 0.355822 cumulative IPC: 0.408095 (Simulation time: 0 hr 11 min 26 sec) 
Heartbeat CPU 0 instructions: 218000001 cycles: 531805428 heartbeat IPC: 0.474872 cumulative IPC: 0.40836 (Simulation time: 0 hr 11 min 29 sec) 
Heartbeat CPU 0 instructions: 219000000 cycles: 534595186 heartbeat IPC: 0.358454 cumulative IPC: 0.408099 (Simulation time: 0 hr 11 min 32 sec) 
Heartbeat CPU 0 instructions: 220000000 cycles: 536713844 heartbeat IPC: 0.471997 cumulative IPC: 0.408352 (Simulation time: 0 hr 11 min 34 sec) 
Heartbeat CPU 0 instructions: 221000001 cycles: 539438300 heartbeat IPC: 0.367046 cumulative IPC: 0.408143 (Simulation time: 0 hr 11 min 37 sec) 
Heartbeat CPU 0 instructions: 222000000 cycles: 541538724 heartbeat IPC: 0.476094 cumulative IPC: 0.408407 (Simulation time: 0 hr 11 min 40 sec) 
Heartbeat CPU 0 instructions: 223000002 cycles: 544276157 heartbeat IPC: 0.365306 cumulative IPC: 0.40819 (Simulation time: 0 hr 11 min 43 sec) 
Heartbeat CPU 0 instructions: 224000001 cycles: 546336879 heartbeat IPC: 0.485266 cumulative IPC: 0.408481 (Simulation time: 0 hr 11 min 45 sec) 
Heartbeat CPU 0 instructions: 225000000 cycles: 549141031 heartbeat IPC: 0.356614 cumulative IPC: 0.408216 (Simulation time: 0 hr 11 min 48 sec) 
Heartbeat CPU 0 instructions: 226000000 cycles: 551984320 heartbeat IPC: 0.351705 cumulative IPC: 0.407924 (Simulation time: 0 hr 11 min 51 sec) 
Heartbeat CPU 0 instructions: 227000003 cycles: 554116625 heartbeat IPC: 0.468977 cumulative IPC: 0.408159 (Simulation time: 0 hr 11 min 54 sec) 
Heartbeat CPU 0 instructions: 228000002 cycles: 556982371 heartbeat IPC: 0.348949 cumulative IPC: 0.407855 (Simulation time: 0 hr 11 min 56 sec) 
Heartbeat CPU 0 instructions: 229000001 cycles: 559115193 heartbeat IPC: 0.468862 cumulative IPC: 0.408087 (Simulation time: 0 hr 11 min 59 sec) 
Heartbeat CPU 0 instructions: 230000000 cycles: 561766232 heartbeat IPC: 0.37721 cumulative IPC: 0.407942 (Simulation time: 0 hr 12 min 2 sec) 
Heartbeat CPU 0 instructions: 231000000 cycles: 564039392 heartbeat IPC: 0.439916 cumulative IPC: 0.408071 (Simulation time: 0 hr 12 min 4 sec) 
Heartbeat CPU 0 instructions: 232000001 cycles: 566161509 heartbeat IPC: 0.471228 cumulative IPC: 0.408307 (Simulation time: 0 hr 12 min 7 sec) 
Heartbeat CPU 0 instructions: 233000001 cycles: 568997327 heartbeat IPC: 0.352632 cumulative IPC: 0.40803 (Simulation time: 0 hr 12 min 9 sec) 
Heartbeat CPU 0 instructions: 234000001 cycles: 571107078 heartbeat IPC: 0.47399 cumulative IPC: 0.408274 (Simulation time: 0 hr 12 min 12 sec) 
Heartbeat CPU 0 instructions: 235000003 cycles: 573236803 heartbeat IPC: 0.469545 cumulative IPC: 0.408501 (Simulation time: 0 hr 12 min 14 sec) 
Heartbeat CPU 0 instructions: 236000001 cycles: 576126370 heartbeat IPC: 0.346072 cumulative IPC: 0.408188 (Simulation time: 0 hr 12 min 18 sec) 
Heartbeat CPU 0 instructions: 237000001 cycles: 578257840 heartbeat IPC: 0.46916 cumulative IPC: 0.408413 (Simulation time: 0 hr 12 min 20 sec) 
Heartbeat CPU 0 instructions: 238000003 cycles: 581082462 heartbeat IPC: 0.35403 cumulative IPC: 0.408148 (Simulation time: 0 hr 12 min 23 sec) 
Heartbeat CPU 0 instructions: 239000000 cycles: 583215739 heartbeat IPC: 0.468761 cumulative IPC: 0.40837 (Simulation time: 0 hr 12 min 26 sec) 
Heartbeat CPU 0 instructions: 240000000 cycles: 585301938 heartbeat IPC: 0.479341 cumulative IPC: 0.408623 (Simulation time: 0 hr 12 min 29 sec) 
Heartbeat CPU 0 instructions: 241000000 cycles: 588122251 heartbeat IPC: 0.354571 cumulative IPC: 0.408364 (Simulation time: 0 hr 12 min 33 sec) 
Heartbeat CPU 0 instructions: 242000000 cycles: 590268031 heartbeat IPC: 0.466031 cumulative IPC: 0.408574 (Simulation time: 0 hr 12 min 38 sec) 
Heartbeat CPU 0 instructions: 243000002 cycles: 592588650 heartbeat IPC: 0.43092 cumulative IPC: 0.408661 (Simulation time: 0 hr 12 min 42 sec) 
Heartbeat CPU 0 instructions: 244000001 cycles: 595221086 heartbeat IPC: 0.379876 cumulative IPC: 0.408534 (Simulation time: 0 hr 12 min 47 sec) 
Heartbeat CPU 0 instructions: 245000001 cycles: 597337465 heartbeat IPC: 0.472505 cumulative IPC: 0.408761 (Simulation time: 0 hr 12 min 52 sec) 
Heartbeat CPU 0 instructions: 246000003 cycles: 600149189 heartbeat IPC: 0.355654 cumulative IPC: 0.408512 (Simulation time: 0 hr 12 min 57 sec) 
Heartbeat CPU 0 instructions: 247000000 cycles: 602288801 heartbeat IPC: 0.467373 cumulative IPC: 0.408721 (Simulation time: 0 hr 13 min 1 sec) 
Heartbeat CPU 0 instructions: 248000000 cycles: 604450236 heartbeat IPC: 0.462656 cumulative IPC: 0.408914 (Simulation time: 0 hr 13 min 5 sec) 
Heartbeat CPU 0 instructions: 249000001 cycles: 607235094 heartbeat IPC: 0.359085 cumulative IPC: 0.408685 (Simulation time: 0 hr 13 min 10 sec) 
Heartbeat CPU 0 instructions: 250000001 cycles: 609352005 heartbeat IPC: 0.472386 cumulative IPC: 0.408907 (Simulation time: 0 hr 13 min 15 sec) 
Heartbeat CPU 0 instructions: 251000003 cycles: 611716278 heartbeat IPC: 0.422964 cumulative IPC: 0.408961 (Simulation time: 0 hr 13 min 19 sec) 
Heartbeat CPU 0 instructions: 252000001 cycles: 614312747 heartbeat IPC: 0.385138 cumulative IPC: 0.40886 (Simulation time: 0 hr 13 min 24 sec) 
Heartbeat CPU 0 instructions: 253000000 cycles: 616423033 heartbeat IPC: 0.473869 cumulative IPC: 0.409083 (Simulation time: 0 hr 13 min 28 sec) 
Heartbeat CPU 0 instructions: 254000000 cycles: 619232789 heartbeat IPC: 0.355903 cumulative IPC: 0.408842 (Simulation time: 0 hr 13 min 33 sec) 
Heartbeat CPU 0 instructions: 255000000 cycles: 621363451 heartbeat IPC: 0.469338 cumulative IPC: 0.409049 (Simulation time: 0 hr 13 min 38 sec) 
Heartbeat CPU 0 instructions: 256000001 cycles: 623488693 heartbeat IPC: 0.470535 cumulative IPC: 0.409259 (Simulation time: 0 hr 13 min 42 sec) 
Heartbeat CPU 0 instructions: 257000001 cycles: 626342485 heartbeat IPC: 0.350411 cumulative IPC: 0.408991 (Simulation time: 0 hr 13 min 47 sec) 
Heartbeat CPU 0 instructions: 258000001 cycles: 628496084 heartbeat IPC: 0.464339 cumulative IPC: 0.40918 (Simulation time: 0 hr 13 min 52 sec) 
Heartbeat CPU 0 instructions: 259000000 cycles: 631026247 heartbeat IPC: 0.395231 cumulative IPC: 0.409124 (Simulation time: 0 hr 13 min 56 sec) 
Heartbeat CPU 0 instructions: 260000002 cycles: 633520573 heartbeat IPC: 0.400911 cumulative IPC: 0.409092 (Simulation time: 0 hr 14 min 1 sec) 
Heartbeat CPU 0 instructions: 261000002 cycles: 635637437 heartbeat IPC: 0.472397 cumulative IPC: 0.409303 (Simulation time: 0 hr 14 min 4 sec) 
Heartbeat CPU 0 instructions: 262000000 cycles: 638525889 heartbeat IPC: 0.346206 cumulative IPC: 0.409018 (Simulation time: 0 hr 14 min 8 sec) 
Heartbeat CPU 0 instructions: 263000000 cycles: 640646174 heartbeat IPC: 0.471635 cumulative IPC: 0.409225 (Simulation time: 0 hr 14 min 10 sec) 
Heartbeat CPU 0 instructions: 264000000 cycles: 642957811 heartbeat IPC: 0.432594 cumulative IPC: 0.409309 (Simulation time: 0 hr 14 min 14 sec) 
Heartbeat CPU 0 instructions: 265000000 cycles: 645596988 heartbeat IPC: 0.378906 cumulative IPC: 0.409185 (Simulation time: 0 hr 14 min 17 sec) 
Heartbeat CPU 0 instructions: 266000003 cycles: 647752542 heartbeat IPC: 0.463919 cumulative IPC: 0.409367 (Simulation time: 0 hr 14 min 20 sec) 
Heartbeat CPU 0 instructions: 267000000 cycles: 650575904 heartbeat IPC: 0.354187 cumulative IPC: 0.409127 (Simulation time: 0 hr 14 min 22 sec) 
Heartbeat CPU 0 instructions: 268000001 cycles: 652678970 heartbeat IPC: 0.475497 cumulative IPC: 0.409341 (Simulation time: 0 hr 14 min 25 sec) 
Heartbeat CPU 0 instructions: 269000000 cycles: 654782233 heartbeat IPC: 0.475451 cumulative IPC: 0.409554 (Simulation time: 0 hr 14 min 27 sec) 
Heartbeat CPU 0 instructions: 270000003 cycles: 657615062 heartbeat IPC: 0.353005 cumulative IPC: 0.40931 (Simulation time: 0 hr 14 min 30 sec) 
Heartbeat CPU 0 instructions: 271000000 cycles: 659756905 heartbeat IPC: 0.466886 cumulative IPC: 0.409497 (Simulation time: 0 hr 14 min 32 sec) 
Heartbeat CPU 0 instructions: 272000002 cycles: 662408111 heartbeat IPC: 0.377188 cumulative IPC: 0.409368 (Simulation time: 0 hr 14 min 35 sec) 
Heartbeat CPU 0 instructions: 273000001 cycles: 664707114 heartbeat IPC: 0.434971 cumulative IPC: 0.409456 (Simulation time: 0 hr 14 min 38 sec) 
Heartbeat CPU 0 instructions: 274000000 cycles: 666836155 heartbeat IPC: 0.469695 cumulative IPC: 0.409649 (Simulation time: 0 hr 14 min 40 sec) 
Heartbeat CPU 0 instructions: 275000000 cycles: 669690286 heartbeat IPC: 0.350369 cumulative IPC: 0.409396 (Simulation time: 0 hr 14 min 43 sec) 
Heartbeat CPU 0 instructions: 276000000 cycles: 671785723 heartbeat IPC: 0.477227 cumulative IPC: 0.409608 (Simulation time: 0 hr 14 min 45 sec) 
Heartbeat CPU 0 instructions: 277000001 cycles: 674033541 heartbeat IPC: 0.444876 cumulative IPC: 0.409725 (Simulation time: 0 hr 14 min 48 sec) 
Heartbeat CPU 0 instructions: 278000000 cycles: 676759517 heartbeat IPC: 0.366841 cumulative IPC: 0.409552 (Simulation time: 0 hr 14 min 51 sec) 
Heartbeat CPU 0 instructions: 279000003 cycles: 678872788 heartbeat IPC: 0.473201 cumulative IPC: 0.409751 (Simulation time: 0 hr 14 min 53 sec) 
Heartbeat CPU 0 instructions: 280000001 cycles: 681697380 heartbeat IPC: 0.354033 cumulative IPC: 0.40952 (Simulation time: 0 hr 14 min 56 sec) 
Heartbeat CPU 0 instructions: 281000001 cycles: 683839327 heartbeat IPC: 0.466865 cumulative IPC: 0.409699 (Simulation time: 0 hr 14 min 58 sec) 
Heartbeat CPU 0 instructions: 282000003 cycles: 685960207 heartbeat IPC: 0.471503 cumulative IPC: 0.409891 (Simulation time: 0 hr 15 min 1 sec) 
Heartbeat CPU 0 instructions: 283000000 cycles: 688816100 heartbeat IPC: 0.350152 cumulative IPC: 0.409643 (Simulation time: 0 hr 15 min 3 sec) 
Heartbeat CPU 0 instructions: 284000000 cycles: 690961377 heartbeat IPC: 0.46614 cumulative IPC: 0.409818 (Simulation time: 0 hr 15 min 6 sec) 
Heartbeat CPU 0 instructions: 285000002 cycles: 693303500 heartbeat IPC: 0.426964 cumulative IPC: 0.409876 (Simulation time: 0 hr 15 min 8 sec) 
Heartbeat CPU 0 instructions: 286000000 cycles: 695932767 heartbeat IPC: 0.380333 cumulative IPC: 0.409765 (Simulation time: 0 hr 15 min 11 sec) 
Heartbeat CPU 0 instructions: 287000002 cycles: 698078308 heartbeat IPC: 0.466084 cumulative IPC: 0.409938 (Simulation time: 0 hr 15 min 14 sec) 
Heartbeat CPU 0 instructions: 288000000 cycles: 700821752 heartbeat IPC: 0.364505 cumulative IPC: 0.40976 (Simulation time: 0 hr 15 min 16 sec) 
Heartbeat CPU 0 instructions: 289000002 cycles: 703076066 heartbeat IPC: 0.443595 cumulative IPC: 0.409868 (Simulation time: 0 hr 15 min 19 sec) 
Heartbeat CPU 0 instructions: 290000001 cycles: 705196703 heartbeat IPC: 0.471556 cumulative IPC: 0.410054 (Simulation time: 0 hr 15 min 21 sec) 
Heartbeat CPU 0 instructions: 291000001 cycles: 708058144 heartbeat IPC: 0.349474 cumulative IPC: 0.409809 (Simulation time: 0 hr 15 min 24 sec) 
Heartbeat CPU 0 instructions: 292000001 cycles: 710143562 heartbeat IPC: 0.47952 cumulative IPC: 0.410014 (Simulation time: 0 hr 15 min 27 sec) 
Heartbeat CPU 0 instructions: 293000001 cycles: 713006771 heartbeat IPC: 0.349258 cumulative IPC: 0.40977 (Simulation time: 0 hr 15 min 30 sec) 
Heartbeat CPU 0 instructions: 294000001 cycles: 715474704 heartbeat IPC: 0.405197 cumulative IPC: 0.409754 (Simulation time: 0 hr 15 min 32 sec) 
Heartbeat CPU 0 instructions: 295000001 cycles: 717906616 heartbeat IPC: 0.411199 cumulative IPC: 0.409759 (Simulation time: 0 hr 15 min 35 sec) 
Heartbeat CPU 0 instructions: 296000001 cycles: 719977799 heartbeat IPC: 0.482816 cumulative IPC: 0.409969 (Simulation time: 0 hr 15 min 38 sec) 
Heartbeat CPU 0 instructions: 297000000 cycles: 722035798 heartbeat IPC: 0.485908 cumulative IPC: 0.410186 (Simulation time: 0 hr 15 min 41 sec) 
Heartbeat CPU 0 instructions: 298000003 cycles: 724228715 heartbeat IPC: 0.456015 cumulative IPC: 0.410325 (Simulation time: 0 hr 15 min 44 sec) 
