
*** ChampSim Multicore Out-of-Order Simulator ***

Warmup Instructions: 1000000
Prefetch Warmup Instructions: 450000000
Simulation Instructions: 500000000
Stat Printing Period: 1000000
Number of CPUs: 1
LLC sets: 2048
LLC ways: 16
Off-chip DRAM Size: 4096 MB Channels: 1 Width: 64-bit Data Rate: 3200 MT/s

CPU 0 runs /scratch/cluster/cmolder/ML-DPC/ChampSimTraces/spec17/620.omnetpp-s1.trace.xz
Read seed: 229
Heartbeat CPU 0 instructions: 1000000 cycles: 560405 heartbeat IPC: 1.78442 cumulative IPC: 1.78442 (Simulation time: 0 hr 0 min 7 sec) 

Warmup complete CPU 0 instructions: 1000002 cycles: 560406 (Simulation time: 0 hr 0 min 7 sec) 

Heartbeat CPU 0 instructions: 2000003 cycles: 3142878 heartbeat IPC: 0.387227 cumulative IPC: 0.387226 (Simulation time: 0 hr 0 min 14 sec) 
Heartbeat CPU 0 instructions: 3000000 cycles: 5821890 heartbeat IPC: 0.373271 cumulative IPC: 0.380121 (Simulation time: 0 hr 0 min 22 sec) 
Heartbeat CPU 0 instructions: 4000002 cycles: 8640466 heartbeat IPC: 0.35479 cumulative IPC: 0.371284 (Simulation time: 0 hr 0 min 29 sec) 
Heartbeat CPU 0 instructions: 5000000 cycles: 11372671 heartbeat IPC: 0.366004 cumulative IPC: 0.36995 (Simulation time: 0 hr 0 min 37 sec) 
Heartbeat CPU 0 instructions: 6000003 cycles: 14103979 heartbeat IPC: 0.366126 cumulative IPC: 0.369179 (Simulation time: 0 hr 0 min 44 sec) 
Heartbeat CPU 0 instructions: 7000000 cycles: 16959964 heartbeat IPC: 0.350141 cumulative IPC: 0.365863 (Simulation time: 0 hr 0 min 52 sec) 
Heartbeat CPU 0 instructions: 8000000 cycles: 19603252 heartbeat IPC: 0.378317 cumulative IPC: 0.367592 (Simulation time: 0 hr 1 min 0 sec) 
Heartbeat CPU 0 instructions: 9000001 cycles: 22309686 heartbeat IPC: 0.36949 cumulative IPC: 0.367828 (Simulation time: 0 hr 1 min 7 sec) 
Heartbeat CPU 0 instructions: 10000001 cycles: 25048441 heartbeat IPC: 0.365129 cumulative IPC: 0.367526 (Simulation time: 0 hr 1 min 15 sec) 
Heartbeat CPU 0 instructions: 11000000 cycles: 27758417 heartbeat IPC: 0.369007 cumulative IPC: 0.367674 (Simulation time: 0 hr 1 min 22 sec) 
Heartbeat CPU 0 instructions: 12000001 cycles: 30539030 heartbeat IPC: 0.359633 cumulative IPC: 0.366928 (Simulation time: 0 hr 1 min 30 sec) 
Heartbeat CPU 0 instructions: 13000002 cycles: 33192069 heartbeat IPC: 0.376927 cumulative IPC: 0.367741 (Simulation time: 0 hr 1 min 37 sec) 
Heartbeat CPU 0 instructions: 14000000 cycles: 35927297 heartbeat IPC: 0.3656 cumulative IPC: 0.367575 (Simulation time: 0 hr 1 min 45 sec) 
Heartbeat CPU 0 instructions: 15000001 cycles: 38546090 heartbeat IPC: 0.381856 cumulative IPC: 0.36856 (Simulation time: 0 hr 1 min 53 sec) 
Heartbeat CPU 0 instructions: 16000003 cycles: 41147552 heartbeat IPC: 0.3844 cumulative IPC: 0.369575 (Simulation time: 0 hr 2 min 0 sec) 
Heartbeat CPU 0 instructions: 17000002 cycles: 43916846 heartbeat IPC: 0.361102 cumulative IPC: 0.369034 (Simulation time: 0 hr 2 min 8 sec) 
Heartbeat CPU 0 instructions: 18000002 cycles: 46654236 heartbeat IPC: 0.365311 cumulative IPC: 0.368813 (Simulation time: 0 hr 2 min 16 sec) 
Heartbeat CPU 0 instructions: 19000000 cycles: 49555260 heartbeat IPC: 0.344705 cumulative IPC: 0.367385 (Simulation time: 0 hr 2 min 24 sec) 
Heartbeat CPU 0 instructions: 20000000 cycles: 52491045 heartbeat IPC: 0.340624 cumulative IPC: 0.365873 (Simulation time: 0 hr 2 min 31 sec) 
Heartbeat CPU 0 instructions: 21000001 cycles: 55155455 heartbeat IPC: 0.375318 cumulative IPC: 0.366334 (Simulation time: 0 hr 2 min 39 sec) 
Heartbeat CPU 0 instructions: 22000000 cycles: 57795052 heartbeat IPC: 0.378845 cumulative IPC: 0.366911 (Simulation time: 0 hr 2 min 46 sec) 
Heartbeat CPU 0 instructions: 23000002 cycles: 60744815 heartbeat IPC: 0.339011 cumulative IPC: 0.365543 (Simulation time: 0 hr 2 min 54 sec) 
Heartbeat CPU 0 instructions: 24000002 cycles: 63459551 heartbeat IPC: 0.36836 cumulative IPC: 0.365665 (Simulation time: 0 hr 3 min 2 sec) 
Heartbeat CPU 0 instructions: 25000000 cycles: 66088188 heartbeat IPC: 0.380425 cumulative IPC: 0.366257 (Simulation time: 0 hr 3 min 9 sec) 
Heartbeat CPU 0 instructions: 26000001 cycles: 68995152 heartbeat IPC: 0.344002 cumulative IPC: 0.365312 (Simulation time: 0 hr 3 min 17 sec) 
Heartbeat CPU 0 instructions: 27000003 cycles: 71674434 heartbeat IPC: 0.373235 cumulative IPC: 0.36561 (Simulation time: 0 hr 3 min 25 sec) 
Heartbeat CPU 0 instructions: 28000002 cycles: 74535347 heartbeat IPC: 0.349538 cumulative IPC: 0.364988 (Simulation time: 0 hr 3 min 33 sec) 
Heartbeat CPU 0 instructions: 29000003 cycles: 77358373 heartbeat IPC: 0.35423 cumulative IPC: 0.364593 (Simulation time: 0 hr 3 min 40 sec) 
Heartbeat CPU 0 instructions: 30000002 cycles: 80303090 heartbeat IPC: 0.339591 cumulative IPC: 0.36367 (Simulation time: 0 hr 3 min 48 sec) 
Heartbeat CPU 0 instructions: 31000000 cycles: 83043279 heartbeat IPC: 0.364938 cumulative IPC: 0.363712 (Simulation time: 0 hr 3 min 56 sec) 
Heartbeat CPU 0 instructions: 32000000 cycles: 85904806 heartbeat IPC: 0.349464 cumulative IPC: 0.363234 (Simulation time: 0 hr 4 min 4 sec) 
Heartbeat CPU 0 instructions: 33000000 cycles: 88652520 heartbeat IPC: 0.363939 cumulative IPC: 0.363256 (Simulation time: 0 hr 4 min 11 sec) 
Heartbeat CPU 0 instructions: 34000000 cycles: 91384598 heartbeat IPC: 0.366022 cumulative IPC: 0.363339 (Simulation time: 0 hr 4 min 19 sec) 
Heartbeat CPU 0 instructions: 35000000 cycles: 94252012 heartbeat IPC: 0.348746 cumulative IPC: 0.362893 (Simulation time: 0 hr 4 min 26 sec) 
Heartbeat CPU 0 instructions: 36000000 cycles: 97020231 heartbeat IPC: 0.361243 cumulative IPC: 0.362845 (Simulation time: 0 hr 4 min 34 sec) 
Heartbeat CPU 0 instructions: 37000003 cycles: 99889060 heartbeat IPC: 0.348575 cumulative IPC: 0.362433 (Simulation time: 0 hr 4 min 41 sec) 
Heartbeat CPU 0 instructions: 38000001 cycles: 102869056 heartbeat IPC: 0.33557 cumulative IPC: 0.361651 (Simulation time: 0 hr 4 min 50 sec) 
Heartbeat CPU 0 instructions: 39000000 cycles: 105769583 heartbeat IPC: 0.344765 cumulative IPC: 0.361185 (Simulation time: 0 hr 5 min 3 sec) 
Heartbeat CPU 0 instructions: 40000000 cycles: 108277519 heartbeat IPC: 0.398734 cumulative IPC: 0.362059 (Simulation time: 0 hr 5 min 10 sec) 
Heartbeat CPU 0 instructions: 41000001 cycles: 110835368 heartbeat IPC: 0.390954 cumulative IPC: 0.36273 (Simulation time: 0 hr 5 min 17 sec) 
Heartbeat CPU 0 instructions: 42000002 cycles: 113644840 heartbeat IPC: 0.355939 cumulative IPC: 0.362561 (Simulation time: 0 hr 5 min 25 sec) 
Heartbeat CPU 0 instructions: 43000001 cycles: 116471762 heartbeat IPC: 0.353741 cumulative IPC: 0.362346 (Simulation time: 0 hr 5 min 33 sec) 
Heartbeat CPU 0 instructions: 44000000 cycles: 119292896 heartbeat IPC: 0.354467 cumulative IPC: 0.362159 (Simulation time: 0 hr 5 min 40 sec) 
Heartbeat CPU 0 instructions: 45000001 cycles: 122273436 heartbeat IPC: 0.33551 cumulative IPC: 0.361506 (Simulation time: 0 hr 5 min 48 sec) 
Heartbeat CPU 0 instructions: 46000000 cycles: 125012144 heartbeat IPC: 0.365135 cumulative IPC: 0.361586 (Simulation time: 0 hr 5 min 56 sec) 
Heartbeat CPU 0 instructions: 47000001 cycles: 127928403 heartbeat IPC: 0.342905 cumulative IPC: 0.361158 (Simulation time: 0 hr 6 min 4 sec) 
Heartbeat CPU 0 instructions: 48000002 cycles: 130868891 heartbeat IPC: 0.34008 cumulative IPC: 0.360683 (Simulation time: 0 hr 6 min 11 sec) 
Heartbeat CPU 0 instructions: 49000003 cycles: 133508390 heartbeat IPC: 0.37886 cumulative IPC: 0.361043 (Simulation time: 0 hr 6 min 19 sec) 
Heartbeat CPU 0 instructions: 50000000 cycles: 136411853 heartbeat IPC: 0.344415 cumulative IPC: 0.360688 (Simulation time: 0 hr 6 min 27 sec) 
Heartbeat CPU 0 instructions: 51000000 cycles: 139047604 heartbeat IPC: 0.379398 cumulative IPC: 0.361044 (Simulation time: 0 hr 6 min 34 sec) 
Heartbeat CPU 0 instructions: 52000000 cycles: 142192116 heartbeat IPC: 0.318014 cumulative IPC: 0.360089 (Simulation time: 0 hr 6 min 43 sec) 
Heartbeat CPU 0 instructions: 53000002 cycles: 145145855 heartbeat IPC: 0.338555 cumulative IPC: 0.359649 (Simulation time: 0 hr 6 min 50 sec) 
Heartbeat CPU 0 instructions: 54000000 cycles: 147743130 heartbeat IPC: 0.385018 cumulative IPC: 0.360097 (Simulation time: 0 hr 6 min 58 sec) 
Heartbeat CPU 0 instructions: 55000000 cycles: 150383022 heartbeat IPC: 0.378803 cumulative IPC: 0.360426 (Simulation time: 0 hr 7 min 6 sec) 
Heartbeat CPU 0 instructions: 56000001 cycles: 153176411 heartbeat IPC: 0.357988 cumulative IPC: 0.360382 (Simulation time: 0 hr 7 min 14 sec) 
Heartbeat CPU 0 instructions: 57000000 cycles: 156004963 heartbeat IPC: 0.353537 cumulative IPC: 0.360257 (Simulation time: 0 hr 7 min 22 sec) 
Heartbeat CPU 0 instructions: 58000000 cycles: 158769591 heartbeat IPC: 0.361712 cumulative IPC: 0.360282 (Simulation time: 0 hr 7 min 29 sec) 
Heartbeat CPU 0 instructions: 59000003 cycles: 161650327 heartbeat IPC: 0.347135 cumulative IPC: 0.360047 (Simulation time: 0 hr 7 min 37 sec) 
Heartbeat CPU 0 instructions: 60000001 cycles: 164342084 heartbeat IPC: 0.371504 cumulative IPC: 0.360236 (Simulation time: 0 hr 7 min 45 sec) 
Heartbeat CPU 0 instructions: 61000000 cycles: 167152329 heartbeat IPC: 0.355841 cumulative IPC: 0.360162 (Simulation time: 0 hr 7 min 52 sec) 
Heartbeat CPU 0 instructions: 62000001 cycles: 169985342 heartbeat IPC: 0.352981 cumulative IPC: 0.360041 (Simulation time: 0 hr 8 min 0 sec) 
Heartbeat CPU 0 instructions: 63000003 cycles: 172739882 heartbeat IPC: 0.363038 cumulative IPC: 0.360089 (Simulation time: 0 hr 8 min 8 sec) 
Heartbeat CPU 0 instructions: 64000003 cycles: 175436756 heartbeat IPC: 0.3708 cumulative IPC: 0.360255 (Simulation time: 0 hr 8 min 15 sec) 
Heartbeat CPU 0 instructions: 65000001 cycles: 178270382 heartbeat IPC: 0.352904 cumulative IPC: 0.360137 (Simulation time: 0 hr 8 min 23 sec) 
Heartbeat CPU 0 instructions: 66000000 cycles: 180918170 heartbeat IPC: 0.377673 cumulative IPC: 0.360395 (Simulation time: 0 hr 8 min 31 sec) 
Heartbeat CPU 0 instructions: 67000002 cycles: 183830705 heartbeat IPC: 0.343344 cumulative IPC: 0.360124 (Simulation time: 0 hr 8 min 38 sec) 
Heartbeat CPU 0 instructions: 68000000 cycles: 186391938 heartbeat IPC: 0.390436 cumulative IPC: 0.360542 (Simulation time: 0 hr 8 min 46 sec) 
Heartbeat CPU 0 instructions: 69000000 cycles: 189291651 heartbeat IPC: 0.344862 cumulative IPC: 0.360301 (Simulation time: 0 hr 8 min 54 sec) 
Heartbeat CPU 0 instructions: 70000001 cycles: 191914883 heartbeat IPC: 0.38121 cumulative IPC: 0.360587 (Simulation time: 0 hr 9 min 1 sec) 
Heartbeat CPU 0 instructions: 71000001 cycles: 194563674 heartbeat IPC: 0.377531 cumulative IPC: 0.360819 (Simulation time: 0 hr 9 min 9 sec) 
Heartbeat CPU 0 instructions: 72000003 cycles: 197297362 heartbeat IPC: 0.365807 cumulative IPC: 0.360888 (Simulation time: 0 hr 9 min 16 sec) 
Heartbeat CPU 0 instructions: 73000000 cycles: 200177169 heartbeat IPC: 0.347244 cumulative IPC: 0.360691 (Simulation time: 0 hr 9 min 24 sec) 
Heartbeat CPU 0 instructions: 74000000 cycles: 203132405 heartbeat IPC: 0.338382 cumulative IPC: 0.360366 (Simulation time: 0 hr 9 min 32 sec) 
Heartbeat CPU 0 instructions: 75000000 cycles: 205874567 heartbeat IPC: 0.364676 cumulative IPC: 0.360423 (Simulation time: 0 hr 9 min 40 sec) 
Heartbeat CPU 0 instructions: 76000002 cycles: 208747520 heartbeat IPC: 0.348075 cumulative IPC: 0.360253 (Simulation time: 0 hr 9 min 48 sec) 
Heartbeat CPU 0 instructions: 77000000 cycles: 211539693 heartbeat IPC: 0.358143 cumulative IPC: 0.360225 (Simulation time: 0 hr 9 min 56 sec) 
Heartbeat CPU 0 instructions: 78000001 cycles: 214242460 heartbeat IPC: 0.369992 cumulative IPC: 0.360348 (Simulation time: 0 hr 10 min 3 sec) 
Heartbeat CPU 0 instructions: 79000000 cycles: 217094032 heartbeat IPC: 0.350683 cumulative IPC: 0.360221 (Simulation time: 0 hr 10 min 11 sec) 
Heartbeat CPU 0 instructions: 80000002 cycles: 219864581 heartbeat IPC: 0.36094 cumulative IPC: 0.36023 (Simulation time: 0 hr 10 min 19 sec) 
Heartbeat CPU 0 instructions: 81000003 cycles: 222618162 heartbeat IPC: 0.363164 cumulative IPC: 0.360267 (Simulation time: 0 hr 10 min 26 sec) 
Heartbeat CPU 0 instructions: 82000001 cycles: 225382300 heartbeat IPC: 0.361776 cumulative IPC: 0.360285 (Simulation time: 0 hr 10 min 34 sec) 
Heartbeat CPU 0 instructions: 83000000 cycles: 228166709 heartbeat IPC: 0.359142 cumulative IPC: 0.360271 (Simulation time: 0 hr 10 min 42 sec) 
Heartbeat CPU 0 instructions: 84000000 cycles: 231084033 heartbeat IPC: 0.34278 cumulative IPC: 0.36005 (Simulation time: 0 hr 10 min 49 sec) 
Heartbeat CPU 0 instructions: 85000000 cycles: 233796613 heartbeat IPC: 0.368653 cumulative IPC: 0.36015 (Simulation time: 0 hr 10 min 57 sec) 
Heartbeat CPU 0 instructions: 86000001 cycles: 236487000 heartbeat IPC: 0.371694 cumulative IPC: 0.360282 (Simulation time: 0 hr 11 min 4 sec) 
Heartbeat CPU 0 instructions: 87000003 cycles: 238907654 heartbeat IPC: 0.413112 cumulative IPC: 0.360818 (Simulation time: 0 hr 11 min 12 sec) 
Heartbeat CPU 0 instructions: 88000000 cycles: 241487970 heartbeat IPC: 0.387548 cumulative IPC: 0.361104 (Simulation time: 0 hr 11 min 19 sec) 
Heartbeat CPU 0 instructions: 89000003 cycles: 243956130 heartbeat IPC: 0.405161 cumulative IPC: 0.361551 (Simulation time: 0 hr 11 min 27 sec) 
Heartbeat CPU 0 instructions: 90000002 cycles: 247001401 heartbeat IPC: 0.328378 cumulative IPC: 0.361141 (Simulation time: 0 hr 11 min 35 sec) 
Heartbeat CPU 0 instructions: 91000000 cycles: 249564950 heartbeat IPC: 0.390083 cumulative IPC: 0.361439 (Simulation time: 0 hr 11 min 42 sec) 
Heartbeat CPU 0 instructions: 92000002 cycles: 252476773 heartbeat IPC: 0.343428 cumulative IPC: 0.361231 (Simulation time: 0 hr 11 min 50 sec) 
Heartbeat CPU 0 instructions: 93000003 cycles: 255331813 heartbeat IPC: 0.350258 cumulative IPC: 0.361108 (Simulation time: 0 hr 11 min 58 sec) 
Heartbeat CPU 0 instructions: 94000000 cycles: 258322722 heartbeat IPC: 0.334346 cumulative IPC: 0.360797 (Simulation time: 0 hr 12 min 6 sec) 
Heartbeat CPU 0 instructions: 95000003 cycles: 260925556 heartbeat IPC: 0.384198 cumulative IPC: 0.361031 (Simulation time: 0 hr 12 min 13 sec) 
Heartbeat CPU 0 instructions: 96000002 cycles: 263668816 heartbeat IPC: 0.364529 cumulative IPC: 0.361068 (Simulation time: 0 hr 12 min 21 sec) 
Heartbeat CPU 0 instructions: 97000000 cycles: 266771056 heartbeat IPC: 0.322347 cumulative IPC: 0.360617 (Simulation time: 0 hr 12 min 29 sec) 
Heartbeat CPU 0 instructions: 98000002 cycles: 269594971 heartbeat IPC: 0.354119 cumulative IPC: 0.360548 (Simulation time: 0 hr 12 min 37 sec) 
Heartbeat CPU 0 instructions: 99000000 cycles: 272498775 heartbeat IPC: 0.344375 cumulative IPC: 0.360376 (Simulation time: 0 hr 12 min 44 sec) 
Heartbeat CPU 0 instructions: 100000000 cycles: 275269844 heartbeat IPC: 0.360872 cumulative IPC: 0.360381 (Simulation time: 0 hr 12 min 52 sec) 
Heartbeat CPU 0 instructions: 101000002 cycles: 278028676 heartbeat IPC: 0.362473 cumulative IPC: 0.360402 (Simulation time: 0 hr 13 min 0 sec) 
Heartbeat CPU 0 instructions: 102000000 cycles: 280996679 heartbeat IPC: 0.336926 cumulative IPC: 0.360153 (Simulation time: 0 hr 13 min 8 sec) 
Heartbeat CPU 0 instructions: 103000000 cycles: 283543450 heartbeat IPC: 0.392654 cumulative IPC: 0.360446 (Simulation time: 0 hr 13 min 15 sec) 
Heartbeat CPU 0 instructions: 104000002 cycles: 286455377 heartbeat IPC: 0.343416 cumulative IPC: 0.360272 (Simulation time: 0 hr 13 min 23 sec) 
Heartbeat CPU 0 instructions: 105000000 cycles: 289107554 heartbeat IPC: 0.377048 cumulative IPC: 0.360426 (Simulation time: 0 hr 13 min 31 sec) 
Heartbeat CPU 0 instructions: 106000000 cycles: 292055551 heartbeat IPC: 0.339213 cumulative IPC: 0.360212 (Simulation time: 0 hr 13 min 39 sec) 
Heartbeat CPU 0 instructions: 107000000 cycles: 295161279 heartbeat IPC: 0.321986 cumulative IPC: 0.359809 (Simulation time: 0 hr 13 min 47 sec) 
Heartbeat CPU 0 instructions: 108000002 cycles: 297789974 heartbeat IPC: 0.380418 cumulative IPC: 0.359991 (Simulation time: 0 hr 13 min 55 sec) 
Heartbeat CPU 0 instructions: 109000000 cycles: 300207946 heartbeat IPC: 0.413569 cumulative IPC: 0.360423 (Simulation time: 0 hr 14 min 3 sec) 
Heartbeat CPU 0 instructions: 110000000 cycles: 302791919 heartbeat IPC: 0.387001 cumulative IPC: 0.360651 (Simulation time: 0 hr 14 min 10 sec) 
Heartbeat CPU 0 instructions: 111000000 cycles: 305689010 heartbeat IPC: 0.345174 cumulative IPC: 0.360504 (Simulation time: 0 hr 14 min 18 sec) 
Heartbeat CPU 0 instructions: 112000000 cycles: 308425160 heartbeat IPC: 0.365477 cumulative IPC: 0.360548 (Simulation time: 0 hr 14 min 26 sec) 
Heartbeat CPU 0 instructions: 113000001 cycles: 311404032 heartbeat IPC: 0.335698 cumulative IPC: 0.36031 (Simulation time: 0 hr 14 min 34 sec) 
Heartbeat CPU 0 instructions: 114000001 cycles: 314222020 heartbeat IPC: 0.354863 cumulative IPC: 0.360261 (Simulation time: 0 hr 14 min 42 sec) 
Heartbeat CPU 0 instructions: 115000003 cycles: 316773003 heartbeat IPC: 0.392007 cumulative IPC: 0.360517 (Simulation time: 0 hr 14 min 49 sec) 
Heartbeat CPU 0 instructions: 116000000 cycles: 319529221 heartbeat IPC: 0.362815 cumulative IPC: 0.360537 (Simulation time: 0 hr 14 min 57 sec) 
Heartbeat CPU 0 instructions: 117000002 cycles: 322415062 heartbeat IPC: 0.34652 cumulative IPC: 0.360411 (Simulation time: 0 hr 15 min 5 sec) 
Heartbeat CPU 0 instructions: 118000000 cycles: 325178798 heartbeat IPC: 0.361828 cumulative IPC: 0.360423 (Simulation time: 0 hr 15 min 12 sec) 
Heartbeat CPU 0 instructions: 119000000 cycles: 327854411 heartbeat IPC: 0.373746 cumulative IPC: 0.360532 (Simulation time: 0 hr 15 min 20 sec) 
Heartbeat CPU 0 instructions: 120000003 cycles: 330597742 heartbeat IPC: 0.364521 cumulative IPC: 0.360565 (Simulation time: 0 hr 15 min 27 sec) 
Heartbeat CPU 0 instructions: 121000000 cycles: 333346042 heartbeat IPC: 0.36386 cumulative IPC: 0.360592 (Simulation time: 0 hr 15 min 35 sec) 
Heartbeat CPU 0 instructions: 122000001 cycles: 336291641 heartbeat IPC: 0.33949 cumulative IPC: 0.360407 (Simulation time: 0 hr 15 min 43 sec) 
Heartbeat CPU 0 instructions: 123000003 cycles: 338957196 heartbeat IPC: 0.375157 cumulative IPC: 0.360524 (Simulation time: 0 hr 15 min 50 sec) 
Heartbeat CPU 0 instructions: 124000000 cycles: 341964021 heartbeat IPC: 0.332576 cumulative IPC: 0.360277 (Simulation time: 0 hr 15 min 58 sec) 
Heartbeat CPU 0 instructions: 125000000 cycles: 344651569 heartbeat IPC: 0.372086 cumulative IPC: 0.36037 (Simulation time: 0 hr 16 min 5 sec) 
Heartbeat CPU 0 instructions: 126000002 cycles: 347402849 heartbeat IPC: 0.363468 cumulative IPC: 0.360394 (Simulation time: 0 hr 16 min 13 sec) 
Heartbeat CPU 0 instructions: 127000000 cycles: 350115689 heartbeat IPC: 0.368617 cumulative IPC: 0.360458 (Simulation time: 0 hr 16 min 20 sec) 
Heartbeat CPU 0 instructions: 128000003 cycles: 352815472 heartbeat IPC: 0.370401 cumulative IPC: 0.360534 (Simulation time: 0 hr 16 min 28 sec) 
Heartbeat CPU 0 instructions: 129000000 cycles: 355786564 heartbeat IPC: 0.336576 cumulative IPC: 0.360334 (Simulation time: 0 hr 16 min 36 sec) 
Heartbeat CPU 0 instructions: 130000000 cycles: 358756723 heartbeat IPC: 0.336682 cumulative IPC: 0.360138 (Simulation time: 0 hr 16 min 43 sec) 
Heartbeat CPU 0 instructions: 131000002 cycles: 361367110 heartbeat IPC: 0.383086 cumulative IPC: 0.360304 (Simulation time: 0 hr 16 min 51 sec) 
Heartbeat CPU 0 instructions: 132000000 cycles: 364282281 heartbeat IPC: 0.343032 cumulative IPC: 0.360165 (Simulation time: 0 hr 16 min 58 sec) 
Heartbeat CPU 0 instructions: 133000003 cycles: 367156538 heartbeat IPC: 0.347917 cumulative IPC: 0.360069 (Simulation time: 0 hr 17 min 6 sec) 
Heartbeat CPU 0 instructions: 134000002 cycles: 369915304 heartbeat IPC: 0.362481 cumulative IPC: 0.360087 (Simulation time: 0 hr 17 min 14 sec) 
Heartbeat CPU 0 instructions: 135000001 cycles: 372684535 heartbeat IPC: 0.361111 cumulative IPC: 0.360095 (Simulation time: 0 hr 17 min 21 sec) 
Heartbeat CPU 0 instructions: 136000001 cycles: 375437874 heartbeat IPC: 0.363195 cumulative IPC: 0.360118 (Simulation time: 0 hr 17 min 29 sec) 
Heartbeat CPU 0 instructions: 137000003 cycles: 378095899 heartbeat IPC: 0.37622 cumulative IPC: 0.360231 (Simulation time: 0 hr 17 min 37 sec) 
Heartbeat CPU 0 instructions: 138000001 cycles: 380844132 heartbeat IPC: 0.363869 cumulative IPC: 0.360257 (Simulation time: 0 hr 17 min 44 sec) 
Heartbeat CPU 0 instructions: 139000000 cycles: 384003800 heartbeat IPC: 0.316489 cumulative IPC: 0.359897 (Simulation time: 0 hr 17 min 53 sec) 
Heartbeat CPU 0 instructions: 140000001 cycles: 386493396 heartbeat IPC: 0.401672 cumulative IPC: 0.360166 (Simulation time: 0 hr 18 min 0 sec) 
Heartbeat CPU 0 instructions: 141000003 cycles: 389269818 heartbeat IPC: 0.360177 cumulative IPC: 0.360166 (Simulation time: 0 hr 18 min 8 sec) 
Heartbeat CPU 0 instructions: 142000001 cycles: 391875679 heartbeat IPC: 0.38375 cumulative IPC: 0.360323 (Simulation time: 0 hr 18 min 15 sec) 
Heartbeat CPU 0 instructions: 143000000 cycles: 394754771 heartbeat IPC: 0.347331 cumulative IPC: 0.360228 (Simulation time: 0 hr 18 min 23 sec) 
Heartbeat CPU 0 instructions: 144000000 cycles: 397547915 heartbeat IPC: 0.35802 cumulative IPC: 0.360213 (Simulation time: 0 hr 18 min 31 sec) 
Heartbeat CPU 0 instructions: 145000001 cycles: 400382818 heartbeat IPC: 0.352746 cumulative IPC: 0.36016 (Simulation time: 0 hr 18 min 38 sec) 
Heartbeat CPU 0 instructions: 146000000 cycles: 403246186 heartbeat IPC: 0.349239 cumulative IPC: 0.360082 (Simulation time: 0 hr 18 min 46 sec) 
Heartbeat CPU 0 instructions: 147000003 cycles: 406021171 heartbeat IPC: 0.360363 cumulative IPC: 0.360084 (Simulation time: 0 hr 18 min 54 sec) 
Heartbeat CPU 0 instructions: 148000003 cycles: 408930397 heartbeat IPC: 0.343734 cumulative IPC: 0.359968 (Simulation time: 0 hr 19 min 1 sec) 
Heartbeat CPU 0 instructions: 149000000 cycles: 411682743 heartbeat IPC: 0.363325 cumulative IPC: 0.35999 (Simulation time: 0 hr 19 min 9 sec) 
Heartbeat CPU 0 instructions: 150000002 cycles: 414380885 heartbeat IPC: 0.370626 cumulative IPC: 0.360059 (Simulation time: 0 hr 19 min 16 sec) 
Heartbeat CPU 0 instructions: 151000003 cycles: 417333991 heartbeat IPC: 0.338627 cumulative IPC: 0.359908 (Simulation time: 0 hr 19 min 24 sec) 
Heartbeat CPU 0 instructions: 152000000 cycles: 420178773 heartbeat IPC: 0.35152 cumulative IPC: 0.359851 (Simulation time: 0 hr 19 min 32 sec) 
Heartbeat CPU 0 instructions: 153000001 cycles: 422988976 heartbeat IPC: 0.355847 cumulative IPC: 0.359824 (Simulation time: 0 hr 19 min 39 sec) 
Heartbeat CPU 0 instructions: 154000000 cycles: 425768726 heartbeat IPC: 0.359744 cumulative IPC: 0.359824 (Simulation time: 0 hr 19 min 47 sec) 
Heartbeat CPU 0 instructions: 155000002 cycles: 428772816 heartbeat IPC: 0.33288 cumulative IPC: 0.359635 (Simulation time: 0 hr 19 min 54 sec) 
Heartbeat CPU 0 instructions: 156000001 cycles: 431682999 heartbeat IPC: 0.343621 cumulative IPC: 0.359527 (Simulation time: 0 hr 20 min 2 sec) 
Heartbeat CPU 0 instructions: 157000000 cycles: 434328444 heartbeat IPC: 0.378008 cumulative IPC: 0.359639 (Simulation time: 0 hr 20 min 9 sec) 
Heartbeat CPU 0 instructions: 158000002 cycles: 437226618 heartbeat IPC: 0.345046 cumulative IPC: 0.359542 (Simulation time: 0 hr 20 min 17 sec) 
Heartbeat CPU 0 instructions: 159000001 cycles: 439693016 heartbeat IPC: 0.405449 cumulative IPC: 0.3598 (Simulation time: 0 hr 20 min 24 sec) 
Heartbeat CPU 0 instructions: 160000000 cycles: 442600870 heartbeat IPC: 0.343896 cumulative IPC: 0.359696 (Simulation time: 0 hr 20 min 32 sec) 
Heartbeat CPU 0 instructions: 161000002 cycles: 445602821 heartbeat IPC: 0.333117 cumulative IPC: 0.359516 (Simulation time: 0 hr 20 min 40 sec) 
Heartbeat CPU 0 instructions: 162000001 cycles: 447925701 heartbeat IPC: 0.4305 cumulative IPC: 0.359885 (Simulation time: 0 hr 20 min 47 sec) 
Heartbeat CPU 0 instructions: 163000001 cycles: 450657434 heartbeat IPC: 0.366068 cumulative IPC: 0.359922 (Simulation time: 0 hr 20 min 55 sec) 
Heartbeat CPU 0 instructions: 164000001 cycles: 453346969 heartbeat IPC: 0.371811 cumulative IPC: 0.359993 (Simulation time: 0 hr 21 min 2 sec) 
Heartbeat CPU 0 instructions: 165000000 cycles: 456193549 heartbeat IPC: 0.351298 cumulative IPC: 0.359939 (Simulation time: 0 hr 21 min 10 sec) 
Heartbeat CPU 0 instructions: 166000003 cycles: 459035023 heartbeat IPC: 0.351931 cumulative IPC: 0.359889 (Simulation time: 0 hr 21 min 18 sec) 
Heartbeat CPU 0 instructions: 167000000 cycles: 461858514 heartbeat IPC: 0.35417 cumulative IPC: 0.359854 (Simulation time: 0 hr 21 min 25 sec) 
Heartbeat CPU 0 instructions: 168000001 cycles: 464643388 heartbeat IPC: 0.359083 cumulative IPC: 0.359849 (Simulation time: 0 hr 21 min 33 sec) 
Heartbeat CPU 0 instructions: 169000001 cycles: 467542462 heartbeat IPC: 0.344938 cumulative IPC: 0.359757 (Simulation time: 0 hr 21 min 41 sec) 
Heartbeat CPU 0 instructions: 170000000 cycles: 470125953 heartbeat IPC: 0.387073 cumulative IPC: 0.359907 (Simulation time: 0 hr 21 min 48 sec) 
Heartbeat CPU 0 instructions: 171000001 cycles: 472940752 heartbeat IPC: 0.355265 cumulative IPC: 0.359879 (Simulation time: 0 hr 21 min 55 sec) 
Heartbeat CPU 0 instructions: 172000003 cycles: 475707693 heartbeat IPC: 0.361411 cumulative IPC: 0.359888 (Simulation time: 0 hr 22 min 3 sec) 
Heartbeat CPU 0 instructions: 173000000 cycles: 478364590 heartbeat IPC: 0.376378 cumulative IPC: 0.35998 (Simulation time: 0 hr 22 min 10 sec) 
Heartbeat CPU 0 instructions: 174000002 cycles: 481295418 heartbeat IPC: 0.341201 cumulative IPC: 0.359866 (Simulation time: 0 hr 22 min 18 sec) 
Heartbeat CPU 0 instructions: 175000000 cycles: 484064582 heartbeat IPC: 0.361119 cumulative IPC: 0.359873 (Simulation time: 0 hr 22 min 25 sec) 
Heartbeat CPU 0 instructions: 176000000 cycles: 486908267 heartbeat IPC: 0.351656 cumulative IPC: 0.359825 (Simulation time: 0 hr 22 min 33 sec) 
Heartbeat CPU 0 instructions: 177000000 cycles: 489720040 heartbeat IPC: 0.355647 cumulative IPC: 0.359801 (Simulation time: 0 hr 22 min 41 sec) 
Heartbeat CPU 0 instructions: 178000000 cycles: 492318552 heartbeat IPC: 0.384836 cumulative IPC: 0.359933 (Simulation time: 0 hr 22 min 48 sec) 
Heartbeat CPU 0 instructions: 179000002 cycles: 495270807 heartbeat IPC: 0.338725 cumulative IPC: 0.359806 (Simulation time: 0 hr 22 min 56 sec) 
Heartbeat CPU 0 instructions: 180000000 cycles: 497978175 heartbeat IPC: 0.369362 cumulative IPC: 0.359858 (Simulation time: 0 hr 23 min 3 sec) 
Heartbeat CPU 0 instructions: 181000002 cycles: 500901255 heartbeat IPC: 0.342106 cumulative IPC: 0.359755 (Simulation time: 0 hr 23 min 11 sec) 
Heartbeat CPU 0 instructions: 182000002 cycles: 503640390 heartbeat IPC: 0.365079 cumulative IPC: 0.359784 (Simulation time: 0 hr 23 min 18 sec) 
Heartbeat CPU 0 instructions: 183000002 cycles: 506271491 heartbeat IPC: 0.380069 cumulative IPC: 0.359889 (Simulation time: 0 hr 23 min 26 sec) 
Heartbeat CPU 0 instructions: 184000000 cycles: 509073339 heartbeat IPC: 0.356907 cumulative IPC: 0.359873 (Simulation time: 0 hr 23 min 33 sec) 
Heartbeat CPU 0 instructions: 185000001 cycles: 511936539 heartbeat IPC: 0.34926 cumulative IPC: 0.359813 (Simulation time: 0 hr 23 min 41 sec) 
Heartbeat CPU 0 instructions: 186000001 cycles: 514950900 heartbeat IPC: 0.331745 cumulative IPC: 0.359649 (Simulation time: 0 hr 23 min 49 sec) 
Heartbeat CPU 0 instructions: 187000000 cycles: 517745826 heartbeat IPC: 0.357791 cumulative IPC: 0.359639 (Simulation time: 0 hr 23 min 56 sec) 
Heartbeat CPU 0 instructions: 188000001 cycles: 520456801 heartbeat IPC: 0.368871 cumulative IPC: 0.359687 (Simulation time: 0 hr 24 min 3 sec) 
Heartbeat CPU 0 instructions: 189000001 cycles: 523309538 heartbeat IPC: 0.350541 cumulative IPC: 0.359637 (Simulation time: 0 hr 24 min 11 sec) 
Heartbeat CPU 0 instructions: 190000003 cycles: 526022192 heartbeat IPC: 0.368643 cumulative IPC: 0.359684 (Simulation time: 0 hr 24 min 19 sec) 
Heartbeat CPU 0 instructions: 191000000 cycles: 528676169 heartbeat IPC: 0.376792 cumulative IPC: 0.35977 (Simulation time: 0 hr 24 min 26 sec) 
Heartbeat CPU 0 instructions: 192000000 cycles: 531526392 heartbeat IPC: 0.35085 cumulative IPC: 0.359722 (Simulation time: 0 hr 24 min 34 sec) 
Heartbeat CPU 0 instructions: 193000000 cycles: 534356793 heartbeat IPC: 0.353307 cumulative IPC: 0.359688 (Simulation time: 0 hr 24 min 41 sec) 
Heartbeat CPU 0 instructions: 194000000 cycles: 537081583 heartbeat IPC: 0.367001 cumulative IPC: 0.359725 (Simulation time: 0 hr 24 min 49 sec) 
Heartbeat CPU 0 instructions: 195000002 cycles: 539857064 heartbeat IPC: 0.360299 cumulative IPC: 0.359728 (Simulation time: 0 hr 24 min 56 sec) 
Heartbeat CPU 0 instructions: 196000003 cycles: 542781700 heartbeat IPC: 0.341923 cumulative IPC: 0.359632 (Simulation time: 0 hr 25 min 4 sec) 
Heartbeat CPU 0 instructions: 197000000 cycles: 545334401 heartbeat IPC: 0.391741 cumulative IPC: 0.359782 (Simulation time: 0 hr 25 min 11 sec) 
Heartbeat CPU 0 instructions: 198000000 cycles: 548228741 heartbeat IPC: 0.345502 cumulative IPC: 0.359707 (Simulation time: 0 hr 25 min 19 sec) 
Heartbeat CPU 0 instructions: 199000002 cycles: 550990936 heartbeat IPC: 0.362032 cumulative IPC: 0.359718 (Simulation time: 0 hr 25 min 27 sec) 
Heartbeat CPU 0 instructions: 200000000 cycles: 553753894 heartbeat IPC: 0.36193 cumulative IPC: 0.359729 (Simulation time: 0 hr 25 min 35 sec) 
Heartbeat CPU 0 instructions: 201000001 cycles: 556541949 heartbeat IPC: 0.358673 cumulative IPC: 0.359724 (Simulation time: 0 hr 25 min 43 sec) 
Heartbeat CPU 0 instructions: 202000001 cycles: 559255035 heartbeat IPC: 0.368584 cumulative IPC: 0.359767 (Simulation time: 0 hr 25 min 50 sec) 
Heartbeat CPU 0 instructions: 203000000 cycles: 562012812 heartbeat IPC: 0.362611 cumulative IPC: 0.359781 (Simulation time: 0 hr 25 min 58 sec) 
Heartbeat CPU 0 instructions: 204000003 cycles: 564909128 heartbeat IPC: 0.345267 cumulative IPC: 0.359707 (Simulation time: 0 hr 26 min 6 sec) 
Heartbeat CPU 0 instructions: 205000002 cycles: 567598496 heartbeat IPC: 0.371834 cumulative IPC: 0.359764 (Simulation time: 0 hr 26 min 13 sec) 
Heartbeat CPU 0 instructions: 206000002 cycles: 570317608 heartbeat IPC: 0.367767 cumulative IPC: 0.359802 (Simulation time: 0 hr 26 min 21 sec) 
Heartbeat CPU 0 instructions: 207000002 cycles: 573335075 heartbeat IPC: 0.331404 cumulative IPC: 0.359653 (Simulation time: 0 hr 26 min 29 sec) 
Heartbeat CPU 0 instructions: 208000000 cycles: 576223815 heartbeat IPC: 0.346171 cumulative IPC: 0.359585 (Simulation time: 0 hr 26 min 37 sec) 
Heartbeat CPU 0 instructions: 209000000 cycles: 578846758 heartbeat IPC: 0.381251 cumulative IPC: 0.359683 (Simulation time: 0 hr 26 min 44 sec) 
Heartbeat CPU 0 instructions: 210000000 cycles: 581649504 heartbeat IPC: 0.356793 cumulative IPC: 0.359669 (Simulation time: 0 hr 26 min 52 sec) 
Heartbeat CPU 0 instructions: 211000003 cycles: 584653967 heartbeat IPC: 0.332839 cumulative IPC: 0.359531 (Simulation time: 0 hr 27 min 0 sec) 
Heartbeat CPU 0 instructions: 212000000 cycles: 587441615 heartbeat IPC: 0.358724 cumulative IPC: 0.359528 (Simulation time: 0 hr 27 min 8 sec) 
Heartbeat CPU 0 instructions: 213000003 cycles: 590106977 heartbeat IPC: 0.375185 cumulative IPC: 0.359598 (Simulation time: 0 hr 27 min 15 sec) 
Heartbeat CPU 0 instructions: 214000002 cycles: 592848094 heartbeat IPC: 0.364814 cumulative IPC: 0.359623 (Simulation time: 0 hr 27 min 23 sec) 
Heartbeat CPU 0 instructions: 215000000 cycles: 595552699 heartbeat IPC: 0.369739 cumulative IPC: 0.359669 (Simulation time: 0 hr 27 min 30 sec) 
Heartbeat CPU 0 instructions: 216000003 cycles: 598435034 heartbeat IPC: 0.346942 cumulative IPC: 0.359607 (Simulation time: 0 hr 27 min 38 sec) 
Heartbeat CPU 0 instructions: 217000000 cycles: 601552033 heartbeat IPC: 0.32082 cumulative IPC: 0.359406 (Simulation time: 0 hr 27 min 46 sec) 
Heartbeat CPU 0 instructions: 218000000 cycles: 603761656 heartbeat IPC: 0.452566 cumulative IPC: 0.359747 (Simulation time: 0 hr 27 min 54 sec) 
Heartbeat CPU 0 instructions: 219000003 cycles: 606550083 heartbeat IPC: 0.358626 cumulative IPC: 0.359742 (Simulation time: 0 hr 28 min 2 sec) 
Heartbeat CPU 0 instructions: 220000000 cycles: 609353320 heartbeat IPC: 0.356729 cumulative IPC: 0.359728 (Simulation time: 0 hr 28 min 9 sec) 
Heartbeat CPU 0 instructions: 221000000 cycles: 612165003 heartbeat IPC: 0.355659 cumulative IPC: 0.35971 (Simulation time: 0 hr 28 min 17 sec) 
Heartbeat CPU 0 instructions: 222000003 cycles: 614628738 heartbeat IPC: 0.405889 cumulative IPC: 0.359895 (Simulation time: 0 hr 28 min 24 sec) 
Heartbeat CPU 0 instructions: 223000001 cycles: 617455939 heartbeat IPC: 0.353706 cumulative IPC: 0.359866 (Simulation time: 0 hr 28 min 32 sec) 
Heartbeat CPU 0 instructions: 224000003 cycles: 620237138 heartbeat IPC: 0.359558 cumulative IPC: 0.359865 (Simulation time: 0 hr 28 min 40 sec) 
Heartbeat CPU 0 instructions: 225000000 cycles: 623042317 heartbeat IPC: 0.356482 cumulative IPC: 0.35985 (Simulation time: 0 hr 28 min 48 sec) 
Heartbeat CPU 0 instructions: 226000000 cycles: 625587964 heartbeat IPC: 0.392827 cumulative IPC: 0.359984 (Simulation time: 0 hr 28 min 55 sec) 
Heartbeat CPU 0 instructions: 227000000 cycles: 628403320 heartbeat IPC: 0.355195 cumulative IPC: 0.359963 (Simulation time: 0 hr 29 min 3 sec) 
Heartbeat CPU 0 instructions: 228000000 cycles: 631220854 heartbeat IPC: 0.35492 cumulative IPC: 0.35994 (Simulation time: 0 hr 29 min 11 sec) 
Heartbeat CPU 0 instructions: 229000001 cycles: 634018817 heartbeat IPC: 0.357403 cumulative IPC: 0.359929 (Simulation time: 0 hr 29 min 18 sec) 
Heartbeat CPU 0 instructions: 230000002 cycles: 636804447 heartbeat IPC: 0.358986 cumulative IPC: 0.359925 (Simulation time: 0 hr 29 min 26 sec) 
Heartbeat CPU 0 instructions: 231000000 cycles: 639652628 heartbeat IPC: 0.351101 cumulative IPC: 0.359885 (Simulation time: 0 hr 29 min 34 sec) 
Heartbeat CPU 0 instructions: 232000003 cycles: 642443943 heartbeat IPC: 0.358255 cumulative IPC: 0.359878 (Simulation time: 0 hr 29 min 42 sec) 
Heartbeat CPU 0 instructions: 233000002 cycles: 645275780 heartbeat IPC: 0.353127 cumulative IPC: 0.359849 (Simulation time: 0 hr 29 min 50 sec) 
Heartbeat CPU 0 instructions: 234000002 cycles: 648078815 heartbeat IPC: 0.356756 cumulative IPC: 0.359835 (Simulation time: 0 hr 29 min 57 sec) 
Heartbeat CPU 0 instructions: 235000003 cycles: 650878873 heartbeat IPC: 0.357136 cumulative IPC: 0.359824 (Simulation time: 0 hr 30 min 5 sec) 
Heartbeat CPU 0 instructions: 236000000 cycles: 653768642 heartbeat IPC: 0.346047 cumulative IPC: 0.359763 (Simulation time: 0 hr 30 min 13 sec) 
Heartbeat CPU 0 instructions: 237000000 cycles: 656474438 heartbeat IPC: 0.369577 cumulative IPC: 0.359803 (Simulation time: 0 hr 30 min 20 sec) 
Heartbeat CPU 0 instructions: 238000000 cycles: 659382340 heartbeat IPC: 0.343891 cumulative IPC: 0.359733 (Simulation time: 0 hr 30 min 28 sec) 
Heartbeat CPU 0 instructions: 239000001 cycles: 662045770 heartbeat IPC: 0.375456 cumulative IPC: 0.359796 (Simulation time: 0 hr 30 min 36 sec) 
Heartbeat CPU 0 instructions: 240000001 cycles: 664777687 heartbeat IPC: 0.366043 cumulative IPC: 0.359822 (Simulation time: 0 hr 30 min 43 sec) 
Heartbeat CPU 0 instructions: 241000001 cycles: 667682449 heartbeat IPC: 0.344262 cumulative IPC: 0.359754 (Simulation time: 0 hr 30 min 51 sec) 
Heartbeat CPU 0 instructions: 242000000 cycles: 670581217 heartbeat IPC: 0.344974 cumulative IPC: 0.35969 (Simulation time: 0 hr 30 min 59 sec) 
Heartbeat CPU 0 instructions: 243000003 cycles: 673298465 heartbeat IPC: 0.368021 cumulative IPC: 0.359724 (Simulation time: 0 hr 31 min 6 sec) 
Heartbeat CPU 0 instructions: 244000000 cycles: 676088124 heartbeat IPC: 0.358466 cumulative IPC: 0.359719 (Simulation time: 0 hr 31 min 14 sec) 
Heartbeat CPU 0 instructions: 245000000 cycles: 679005919 heartbeat IPC: 0.342725 cumulative IPC: 0.359646 (Simulation time: 0 hr 31 min 22 sec) 
Heartbeat CPU 0 instructions: 246000000 cycles: 681678897 heartbeat IPC: 0.374115 cumulative IPC: 0.359702 (Simulation time: 0 hr 31 min 30 sec) 
Heartbeat CPU 0 instructions: 247000001 cycles: 684480755 heartbeat IPC: 0.356906 cumulative IPC: 0.359691 (Simulation time: 0 hr 31 min 37 sec) 
Heartbeat CPU 0 instructions: 248000000 cycles: 687254359 heartbeat IPC: 0.360541 cumulative IPC: 0.359694 (Simulation time: 0 hr 31 min 45 sec) 
Heartbeat CPU 0 instructions: 249000001 cycles: 689949418 heartbeat IPC: 0.37105 cumulative IPC: 0.359739 (Simulation time: 0 hr 31 min 53 sec) 
Heartbeat CPU 0 instructions: 250000000 cycles: 692696844 heartbeat IPC: 0.363977 cumulative IPC: 0.359756 (Simulation time: 0 hr 32 min 1 sec) 
Heartbeat CPU 0 instructions: 251000002 cycles: 695454063 heartbeat IPC: 0.362685 cumulative IPC: 0.359767 (Simulation time: 0 hr 32 min 9 sec) 
Heartbeat CPU 0 instructions: 252000000 cycles: 698265829 heartbeat IPC: 0.355648 cumulative IPC: 0.359751 (Simulation time: 0 hr 32 min 17 sec) 
Heartbeat CPU 0 instructions: 253000000 cycles: 700938539 heartbeat IPC: 0.374152 cumulative IPC: 0.359806 (Simulation time: 0 hr 32 min 24 sec) 
Heartbeat CPU 0 instructions: 254000000 cycles: 703949450 heartbeat IPC: 0.332125 cumulative IPC: 0.359687 (Simulation time: 0 hr 32 min 32 sec) 
Heartbeat CPU 0 instructions: 255000003 cycles: 706777908 heartbeat IPC: 0.353551 cumulative IPC: 0.359663 (Simulation time: 0 hr 32 min 40 sec) 
Heartbeat CPU 0 instructions: 256000001 cycles: 709278227 heartbeat IPC: 0.399948 cumulative IPC: 0.359805 (Simulation time: 0 hr 32 min 48 sec) 
Heartbeat CPU 0 instructions: 257000000 cycles: 712169779 heartbeat IPC: 0.345835 cumulative IPC: 0.359748 (Simulation time: 0 hr 32 min 56 sec) 
Heartbeat CPU 0 instructions: 258000002 cycles: 714941392 heartbeat IPC: 0.360801 cumulative IPC: 0.359752 (Simulation time: 0 hr 33 min 3 sec) 
Heartbeat CPU 0 instructions: 259000001 cycles: 717848607 heartbeat IPC: 0.343971 cumulative IPC: 0.359688 (Simulation time: 0 hr 33 min 11 sec) 
Heartbeat CPU 0 instructions: 260000000 cycles: 720560096 heartbeat IPC: 0.368801 cumulative IPC: 0.359722 (Simulation time: 0 hr 33 min 19 sec) 
Heartbeat CPU 0 instructions: 261000000 cycles: 723255321 heartbeat IPC: 0.371027 cumulative IPC: 0.359765 (Simulation time: 0 hr 33 min 27 sec) 
Heartbeat CPU 0 instructions: 262000001 cycles: 726244580 heartbeat IPC: 0.334531 cumulative IPC: 0.359661 (Simulation time: 0 hr 33 min 34 sec) 
Heartbeat CPU 0 instructions: 263000003 cycles: 729054505 heartbeat IPC: 0.355882 cumulative IPC: 0.359646 (Simulation time: 0 hr 33 min 42 sec) 
Heartbeat CPU 0 instructions: 264000000 cycles: 731774686 heartbeat IPC: 0.367621 cumulative IPC: 0.359676 (Simulation time: 0 hr 33 min 50 sec) 
Heartbeat CPU 0 instructions: 265000000 cycles: 734616891 heartbeat IPC: 0.35184 cumulative IPC: 0.359645 (Simulation time: 0 hr 33 min 58 sec) 
Heartbeat CPU 0 instructions: 266000000 cycles: 737493177 heartbeat IPC: 0.347671 cumulative IPC: 0.359599 (Simulation time: 0 hr 34 min 5 sec) 
Heartbeat CPU 0 instructions: 267000001 cycles: 740249696 heartbeat IPC: 0.362777 cumulative IPC: 0.35961 (Simulation time: 0 hr 34 min 13 sec) 
Heartbeat CPU 0 instructions: 268000000 cycles: 742998124 heartbeat IPC: 0.363844 cumulative IPC: 0.359626 (Simulation time: 0 hr 34 min 21 sec) 
Heartbeat CPU 0 instructions: 269000002 cycles: 745811380 heartbeat IPC: 0.355461 cumulative IPC: 0.35961 (Simulation time: 0 hr 34 min 29 sec) 
Heartbeat CPU 0 instructions: 270000000 cycles: 748659591 heartbeat IPC: 0.351097 cumulative IPC: 0.359578 (Simulation time: 0 hr 34 min 36 sec) 
Heartbeat CPU 0 instructions: 271000001 cycles: 751482475 heartbeat IPC: 0.354248 cumulative IPC: 0.359558 (Simulation time: 0 hr 34 min 44 sec) 
Heartbeat CPU 0 instructions: 272000003 cycles: 754568319 heartbeat IPC: 0.324061 cumulative IPC: 0.359413 (Simulation time: 0 hr 34 min 52 sec) 
Heartbeat CPU 0 instructions: 273000002 cycles: 756854761 heartbeat IPC: 0.43736 cumulative IPC: 0.359648 (Simulation time: 0 hr 34 min 59 sec) 
Heartbeat CPU 0 instructions: 274000001 cycles: 759760538 heartbeat IPC: 0.344142 cumulative IPC: 0.359589 (Simulation time: 0 hr 35 min 7 sec) 
Heartbeat CPU 0 instructions: 275000000 cycles: 762480204 heartbeat IPC: 0.367692 cumulative IPC: 0.359618 (Simulation time: 0 hr 35 min 14 sec) 
Heartbeat CPU 0 instructions: 276000000 cycles: 765478580 heartbeat IPC: 0.333514 cumulative IPC: 0.359516 (Simulation time: 0 hr 35 min 22 sec) 
Heartbeat CPU 0 instructions: 277000000 cycles: 768235465 heartbeat IPC: 0.362728 cumulative IPC: 0.359527 (Simulation time: 0 hr 35 min 29 sec) 
Heartbeat CPU 0 instructions: 278000000 cycles: 771103010 heartbeat IPC: 0.34873 cumulative IPC: 0.359487 (Simulation time: 0 hr 35 min 37 sec) 
Heartbeat CPU 0 instructions: 279000001 cycles: 773708641 heartbeat IPC: 0.383785 cumulative IPC: 0.359569 (Simulation time: 0 hr 35 min 44 sec) 
Heartbeat CPU 0 instructions: 280000001 cycles: 776546157 heartbeat IPC: 0.352421 cumulative IPC: 0.359543 (Simulation time: 0 hr 35 min 52 sec) 
Heartbeat CPU 0 instructions: 281000001 cycles: 779383085 heartbeat IPC: 0.352494 cumulative IPC: 0.359517 (Simulation time: 0 hr 36 min 0 sec) 
Heartbeat CPU 0 instructions: 282000001 cycles: 782344418 heartbeat IPC: 0.337686 cumulative IPC: 0.359434 (Simulation time: 0 hr 36 min 7 sec) 
Heartbeat CPU 0 instructions: 283000000 cycles: 785076978 heartbeat IPC: 0.365957 cumulative IPC: 0.359457 (Simulation time: 0 hr 36 min 15 sec) 
Heartbeat CPU 0 instructions: 284000003 cycles: 787822009 heartbeat IPC: 0.364296 cumulative IPC: 0.359474 (Simulation time: 0 hr 36 min 22 sec) 
Heartbeat CPU 0 instructions: 285000000 cycles: 790548071 heartbeat IPC: 0.366828 cumulative IPC: 0.359499 (Simulation time: 0 hr 36 min 30 sec) 
Heartbeat CPU 0 instructions: 286000000 cycles: 793425513 heartbeat IPC: 0.347531 cumulative IPC: 0.359456 (Simulation time: 0 hr 36 min 37 sec) 
Heartbeat CPU 0 instructions: 287000002 cycles: 796196123 heartbeat IPC: 0.360932 cumulative IPC: 0.359461 (Simulation time: 0 hr 36 min 45 sec) 
Heartbeat CPU 0 instructions: 288000000 cycles: 798888401 heartbeat IPC: 0.371432 cumulative IPC: 0.359501 (Simulation time: 0 hr 36 min 52 sec) 
Heartbeat CPU 0 instructions: 289000001 cycles: 801840295 heartbeat IPC: 0.338766 cumulative IPC: 0.359425 (Simulation time: 0 hr 37 min 0 sec) 
Heartbeat CPU 0 instructions: 290000000 cycles: 804635231 heartbeat IPC: 0.35779 cumulative IPC: 0.359419 (Simulation time: 0 hr 37 min 7 sec) 
Heartbeat CPU 0 instructions: 291000002 cycles: 807324286 heartbeat IPC: 0.371879 cumulative IPC: 0.359461 (Simulation time: 0 hr 37 min 15 sec) 
Heartbeat CPU 0 instructions: 292000001 cycles: 810083210 heartbeat IPC: 0.36246 cumulative IPC: 0.359471 (Simulation time: 0 hr 37 min 23 sec) 
Heartbeat CPU 0 instructions: 293000003 cycles: 812948962 heartbeat IPC: 0.348949 cumulative IPC: 0.359434 (Simulation time: 0 hr 37 min 31 sec) 
Heartbeat CPU 0 instructions: 294000001 cycles: 815854503 heartbeat IPC: 0.344169 cumulative IPC: 0.35938 (Simulation time: 0 hr 37 min 38 sec) 
Heartbeat CPU 0 instructions: 295000000 cycles: 818723477 heartbeat IPC: 0.348556 cumulative IPC: 0.359342 (Simulation time: 0 hr 37 min 46 sec) 
Heartbeat CPU 0 instructions: 296000000 cycles: 821439138 heartbeat IPC: 0.368234 cumulative IPC: 0.359371 (Simulation time: 0 hr 37 min 54 sec) 
Heartbeat CPU 0 instructions: 297000000 cycles: 824255690 heartbeat IPC: 0.355044 cumulative IPC: 0.359356 (Simulation time: 0 hr 38 min 1 sec) 
Heartbeat CPU 0 instructions: 298000003 cycles: 827118093 heartbeat IPC: 0.349358 cumulative IPC: 0.359322 (Simulation time: 0 hr 38 min 9 sec) 
Heartbeat CPU 0 instructions: 299000003 cycles: 829897947 heartbeat IPC: 0.359731 cumulative IPC: 0.359323 (Simulation time: 0 hr 38 min 17 sec) 
Heartbeat CPU 0 instructions: 300000000 cycles: 832503903 heartbeat IPC: 0.383735 cumulative IPC: 0.359399 (Simulation time: 0 hr 38 min 25 sec) 
Heartbeat CPU 0 instructions: 301000003 cycles: 835305877 heartbeat IPC: 0.356892 cumulative IPC: 0.359391 (Simulation time: 0 hr 38 min 32 sec) 
Heartbeat CPU 0 instructions: 302000000 cycles: 837919819 heartbeat IPC: 0.382563 cumulative IPC: 0.359463 (Simulation time: 0 hr 38 min 40 sec) 
Heartbeat CPU 0 instructions: 303000001 cycles: 840770406 heartbeat IPC: 0.350805 cumulative IPC: 0.359434 (Simulation time: 0 hr 38 min 48 sec) 
Heartbeat CPU 0 instructions: 304000000 cycles: 843322814 heartbeat IPC: 0.391787 cumulative IPC: 0.359532 (Simulation time: 0 hr 38 min 55 sec) 
Heartbeat CPU 0 instructions: 305000000 cycles: 846254221 heartbeat IPC: 0.341133 cumulative IPC: 0.359468 (Simulation time: 0 hr 39 min 3 sec) 
Heartbeat CPU 0 instructions: 306000001 cycles: 848892744 heartbeat IPC: 0.379 cumulative IPC: 0.359529 (Simulation time: 0 hr 39 min 11 sec) 
Heartbeat CPU 0 instructions: 307000000 cycles: 851695919 heartbeat IPC: 0.356738 cumulative IPC: 0.35952 (Simulation time: 0 hr 39 min 18 sec) 
Heartbeat CPU 0 instructions: 308000000 cycles: 854562706 heartbeat IPC: 0.348823 cumulative IPC: 0.359484 (Simulation time: 0 hr 39 min 27 sec) 
Heartbeat CPU 0 instructions: 309000000 cycles: 857241316 heartbeat IPC: 0.373328 cumulative IPC: 0.359527 (Simulation time: 0 hr 39 min 35 sec) 
Heartbeat CPU 0 instructions: 310000000 cycles: 860002483 heartbeat IPC: 0.362166 cumulative IPC: 0.359536 (Simulation time: 0 hr 39 min 43 sec) 
Heartbeat CPU 0 instructions: 311000000 cycles: 862801126 heartbeat IPC: 0.357316 cumulative IPC: 0.359528 (Simulation time: 0 hr 39 min 50 sec) 
Heartbeat CPU 0 instructions: 312000002 cycles: 865672098 heartbeat IPC: 0.348315 cumulative IPC: 0.359491 (Simulation time: 0 hr 39 min 59 sec) 
Heartbeat CPU 0 instructions: 313000001 cycles: 868222359 heartbeat IPC: 0.392116 cumulative IPC: 0.359587 (Simulation time: 0 hr 40 min 6 sec) 
Heartbeat CPU 0 instructions: 314000000 cycles: 871147760 heartbeat IPC: 0.341833 cumulative IPC: 0.359527 (Simulation time: 0 hr 40 min 14 sec) 
Heartbeat CPU 0 instructions: 315000000 cycles: 873838566 heartbeat IPC: 0.371636 cumulative IPC: 0.359565 (Simulation time: 0 hr 40 min 22 sec) 
Heartbeat CPU 0 instructions: 316000001 cycles: 876489165 heartbeat IPC: 0.377274 cumulative IPC: 0.359618 (Simulation time: 0 hr 40 min 30 sec) 
Heartbeat CPU 0 instructions: 317000003 cycles: 879422808 heartbeat IPC: 0.340874 cumulative IPC: 0.359556 (Simulation time: 0 hr 40 min 38 sec) 
Heartbeat CPU 0 instructions: 318000000 cycles: 882119644 heartbeat IPC: 0.370804 cumulative IPC: 0.35959 (Simulation time: 0 hr 40 min 46 sec) 
Heartbeat CPU 0 instructions: 319000000 cycles: 885066147 heartbeat IPC: 0.339385 cumulative IPC: 0.359523 (Simulation time: 0 hr 40 min 53 sec) 
Heartbeat CPU 0 instructions: 320000002 cycles: 887899644 heartbeat IPC: 0.352921 cumulative IPC: 0.359502 (Simulation time: 0 hr 41 min 1 sec) 
Heartbeat CPU 0 instructions: 321000002 cycles: 890433302 heartbeat IPC: 0.394686 cumulative IPC: 0.359602 (Simulation time: 0 hr 41 min 8 sec) 
Heartbeat CPU 0 instructions: 322000002 cycles: 893217062 heartbeat IPC: 0.359226 cumulative IPC: 0.359601 (Simulation time: 0 hr 41 min 16 sec) 
Heartbeat CPU 0 instructions: 323000000 cycles: 896222363 heartbeat IPC: 0.332745 cumulative IPC: 0.359511 (Simulation time: 0 hr 41 min 24 sec) 
Heartbeat CPU 0 instructions: 324000000 cycles: 898878901 heartbeat IPC: 0.37643 cumulative IPC: 0.359561 (Simulation time: 0 hr 41 min 32 sec) 
Heartbeat CPU 0 instructions: 325000002 cycles: 901793503 heartbeat IPC: 0.343101 cumulative IPC: 0.359507 (Simulation time: 0 hr 41 min 40 sec) 
Heartbeat CPU 0 instructions: 326000000 cycles: 904510112 heartbeat IPC: 0.368105 cumulative IPC: 0.359533 (Simulation time: 0 hr 41 min 47 sec) 
Heartbeat CPU 0 instructions: 327000002 cycles: 907406635 heartbeat IPC: 0.345242 cumulative IPC: 0.359488 (Simulation time: 0 hr 41 min 55 sec) 
Heartbeat CPU 0 instructions: 328000000 cycles: 910493252 heartbeat IPC: 0.323979 cumulative IPC: 0.359367 (Simulation time: 0 hr 42 min 3 sec) 
Heartbeat CPU 0 instructions: 329000003 cycles: 912876581 heartbeat IPC: 0.419582 cumulative IPC: 0.359524 (Simulation time: 0 hr 42 min 11 sec) 
Heartbeat CPU 0 instructions: 330000000 cycles: 915851798 heartbeat IPC: 0.336109 cumulative IPC: 0.359448 (Simulation time: 0 hr 42 min 19 sec) 
Heartbeat CPU 0 instructions: 331000000 cycles: 918610266 heartbeat IPC: 0.36252 cumulative IPC: 0.359458 (Simulation time: 0 hr 42 min 27 sec) 
Heartbeat CPU 0 instructions: 332000000 cycles: 921356028 heartbeat IPC: 0.364198 cumulative IPC: 0.359472 (Simulation time: 0 hr 42 min 35 sec) 
Heartbeat CPU 0 instructions: 333000003 cycles: 924077807 heartbeat IPC: 0.367408 cumulative IPC: 0.359495 (Simulation time: 0 hr 42 min 43 sec) 
Heartbeat CPU 0 instructions: 334000000 cycles: 926921182 heartbeat IPC: 0.351694 cumulative IPC: 0.359471 (Simulation time: 0 hr 42 min 51 sec) 
Heartbeat CPU 0 instructions: 335000000 cycles: 929945066 heartbeat IPC: 0.330701 cumulative IPC: 0.359378 (Simulation time: 0 hr 42 min 59 sec) 
Heartbeat CPU 0 instructions: 336000002 cycles: 932793360 heartbeat IPC: 0.351088 cumulative IPC: 0.359352 (Simulation time: 0 hr 43 min 8 sec) 
Heartbeat CPU 0 instructions: 337000001 cycles: 935538982 heartbeat IPC: 0.364216 cumulative IPC: 0.359367 (Simulation time: 0 hr 43 min 16 sec) 
Heartbeat CPU 0 instructions: 338000000 cycles: 938333835 heartbeat IPC: 0.3578 cumulative IPC: 0.359362 (Simulation time: 0 hr 43 min 24 sec) 
Heartbeat CPU 0 instructions: 339000001 cycles: 941207449 heartbeat IPC: 0.347994 cumulative IPC: 0.359327 (Simulation time: 0 hr 43 min 32 sec) 
Heartbeat CPU 0 instructions: 340000001 cycles: 944013377 heartbeat IPC: 0.356388 cumulative IPC: 0.359318 (Simulation time: 0 hr 43 min 40 sec) 
Heartbeat CPU 0 instructions: 341000000 cycles: 946702245 heartbeat IPC: 0.371903 cumulative IPC: 0.359354 (Simulation time: 0 hr 43 min 48 sec) 
Heartbeat CPU 0 instructions: 342000001 cycles: 949379393 heartbeat IPC: 0.373532 cumulative IPC: 0.359394 (Simulation time: 0 hr 43 min 55 sec) 
Heartbeat CPU 0 instructions: 343000002 cycles: 952138017 heartbeat IPC: 0.3625 cumulative IPC: 0.359403 (Simulation time: 0 hr 44 min 3 sec) 
Heartbeat CPU 0 instructions: 344000002 cycles: 955261858 heartbeat IPC: 0.320119 cumulative IPC: 0.359275 (Simulation time: 0 hr 44 min 12 sec) 
Heartbeat CPU 0 instructions: 345000002 cycles: 958285349 heartbeat IPC: 0.330743 cumulative IPC: 0.359185 (Simulation time: 0 hr 44 min 20 sec) 
Heartbeat CPU 0 instructions: 346000000 cycles: 960513334 heartbeat IPC: 0.448835 cumulative IPC: 0.359393 (Simulation time: 0 hr 44 min 28 sec) 
Heartbeat CPU 0 instructions: 347000001 cycles: 963489130 heartbeat IPC: 0.336045 cumulative IPC: 0.35932 (Simulation time: 0 hr 44 min 36 sec) 
Heartbeat CPU 0 instructions: 348000001 cycles: 966336366 heartbeat IPC: 0.351218 cumulative IPC: 0.359297 (Simulation time: 0 hr 44 min 44 sec) 
Heartbeat CPU 0 instructions: 349000002 cycles: 969130361 heartbeat IPC: 0.357911 cumulative IPC: 0.359293 (Simulation time: 0 hr 44 min 52 sec) 
Heartbeat CPU 0 instructions: 350000000 cycles: 972063607 heartbeat IPC: 0.340919 cumulative IPC: 0.359237 (Simulation time: 0 hr 44 min 59 sec) 
Heartbeat CPU 0 instructions: 351000002 cycles: 974912760 heartbeat IPC: 0.350982 cumulative IPC: 0.359213 (Simulation time: 0 hr 45 min 7 sec) 
Heartbeat CPU 0 instructions: 352000000 cycles: 977684685 heartbeat IPC: 0.360759 cumulative IPC: 0.359217 (Simulation time: 0 hr 45 min 14 sec) 
Heartbeat CPU 0 instructions: 353000003 cycles: 980567521 heartbeat IPC: 0.346882 cumulative IPC: 0.359181 (Simulation time: 0 hr 45 min 22 sec) 
Heartbeat CPU 0 instructions: 354000002 cycles: 983421131 heartbeat IPC: 0.350433 cumulative IPC: 0.359156 (Simulation time: 0 hr 45 min 30 sec) 
Heartbeat CPU 0 instructions: 355000001 cycles: 986233369 heartbeat IPC: 0.355588 cumulative IPC: 0.359145 (Simulation time: 0 hr 45 min 37 sec) 
Heartbeat CPU 0 instructions: 356000000 cycles: 988897167 heartbeat IPC: 0.375403 cumulative IPC: 0.359189 (Simulation time: 0 hr 45 min 45 sec) 
Heartbeat CPU 0 instructions: 357000002 cycles: 991804545 heartbeat IPC: 0.343953 cumulative IPC: 0.359145 (Simulation time: 0 hr 45 min 52 sec) 
Heartbeat CPU 0 instructions: 358000000 cycles: 994735146 heartbeat IPC: 0.341226 cumulative IPC: 0.359092 (Simulation time: 0 hr 46 min 0 sec) 
Heartbeat CPU 0 instructions: 359000000 cycles: 997402130 heartbeat IPC: 0.374955 cumulative IPC: 0.359134 (Simulation time: 0 hr 46 min 8 sec) 
Heartbeat CPU 0 instructions: 360000003 cycles: 1000064408 heartbeat IPC: 0.375619 cumulative IPC: 0.359178 (Simulation time: 0 hr 46 min 16 sec) 
Heartbeat CPU 0 instructions: 361000000 cycles: 1002909920 heartbeat IPC: 0.35143 cumulative IPC: 0.359156 (Simulation time: 0 hr 46 min 23 sec) 
Heartbeat CPU 0 instructions: 362000001 cycles: 1005640477 heartbeat IPC: 0.366226 cumulative IPC: 0.359175 (Simulation time: 0 hr 46 min 31 sec) 
Heartbeat CPU 0 instructions: 363000000 cycles: 1008519307 heartbeat IPC: 0.347363 cumulative IPC: 0.359142 (Simulation time: 0 hr 46 min 38 sec) 
Heartbeat CPU 0 instructions: 364000000 cycles: 1011110734 heartbeat IPC: 0.385888 cumulative IPC: 0.35921 (Simulation time: 0 hr 46 min 46 sec) 
Heartbeat CPU 0 instructions: 365000000 cycles: 1014015059 heartbeat IPC: 0.344314 cumulative IPC: 0.359168 (Simulation time: 0 hr 46 min 53 sec) 
Heartbeat CPU 0 instructions: 366000000 cycles: 1016782089 heartbeat IPC: 0.361398 cumulative IPC: 0.359174 (Simulation time: 0 hr 47 min 1 sec) 
Heartbeat CPU 0 instructions: 367000000 cycles: 1019547862 heartbeat IPC: 0.361563 cumulative IPC: 0.35918 (Simulation time: 0 hr 47 min 8 sec) 
Heartbeat CPU 0 instructions: 368000001 cycles: 1022304043 heartbeat IPC: 0.362821 cumulative IPC: 0.35919 (Simulation time: 0 hr 47 min 16 sec) 
Heartbeat CPU 0 instructions: 369000001 cycles: 1025105893 heartbeat IPC: 0.356907 cumulative IPC: 0.359184 (Simulation time: 0 hr 47 min 24 sec) 
Heartbeat CPU 0 instructions: 370000000 cycles: 1027900010 heartbeat IPC: 0.357894 cumulative IPC: 0.35918 (Simulation time: 0 hr 47 min 31 sec) 
Heartbeat CPU 0 instructions: 371000000 cycles: 1030735657 heartbeat IPC: 0.352653 cumulative IPC: 0.359162 (Simulation time: 0 hr 47 min 38 sec) 
Heartbeat CPU 0 instructions: 372000003 cycles: 1033569418 heartbeat IPC: 0.352889 cumulative IPC: 0.359145 (Simulation time: 0 hr 47 min 46 sec) 
Heartbeat CPU 0 instructions: 373000000 cycles: 1036344448 heartbeat IPC: 0.360355 cumulative IPC: 0.359148 (Simulation time: 0 hr 47 min 53 sec) 
Heartbeat CPU 0 instructions: 374000000 cycles: 1039161494 heartbeat IPC: 0.354982 cumulative IPC: 0.359137 (Simulation time: 0 hr 48 min 1 sec) 
Heartbeat CPU 0 instructions: 375000000 cycles: 1041805850 heartbeat IPC: 0.378164 cumulative IPC: 0.359185 (Simulation time: 0 hr 48 min 9 sec) 
Heartbeat CPU 0 instructions: 376000002 cycles: 1044424966 heartbeat IPC: 0.381809 cumulative IPC: 0.359242 (Simulation time: 0 hr 48 min 16 sec) 
Heartbeat CPU 0 instructions: 377000000 cycles: 1047295143 heartbeat IPC: 0.34841 cumulative IPC: 0.359212 (Simulation time: 0 hr 48 min 24 sec) 
Heartbeat CPU 0 instructions: 378000000 cycles: 1050174648 heartbeat IPC: 0.347282 cumulative IPC: 0.35918 (Simulation time: 0 hr 48 min 31 sec) 
Heartbeat CPU 0 instructions: 379000001 cycles: 1052948279 heartbeat IPC: 0.360539 cumulative IPC: 0.359183 (Simulation time: 0 hr 48 min 39 sec) 
Heartbeat CPU 0 instructions: 380000003 cycles: 1055858239 heartbeat IPC: 0.343648 cumulative IPC: 0.35914 (Simulation time: 0 hr 48 min 47 sec) 
Heartbeat CPU 0 instructions: 381000001 cycles: 1058376664 heartbeat IPC: 0.397073 cumulative IPC: 0.359231 (Simulation time: 0 hr 48 min 54 sec) 
Heartbeat CPU 0 instructions: 382000001 cycles: 1061211729 heartbeat IPC: 0.352726 cumulative IPC: 0.359213 (Simulation time: 0 hr 49 min 2 sec) 
Heartbeat CPU 0 instructions: 383000000 cycles: 1063829186 heartbeat IPC: 0.38205 cumulative IPC: 0.359269 (Simulation time: 0 hr 49 min 9 sec) 
Heartbeat CPU 0 instructions: 384000000 cycles: 1066765304 heartbeat IPC: 0.340586 cumulative IPC: 0.359218 (Simulation time: 0 hr 49 min 17 sec) 
Heartbeat CPU 0 instructions: 385000000 cycles: 1069457146 heartbeat IPC: 0.371493 cumulative IPC: 0.359249 (Simulation time: 0 hr 49 min 24 sec) 
Heartbeat CPU 0 instructions: 386000000 cycles: 1072275768 heartbeat IPC: 0.354783 cumulative IPC: 0.359237 (Simulation time: 0 hr 49 min 32 sec) 
Heartbeat CPU 0 instructions: 387000002 cycles: 1075110736 heartbeat IPC: 0.352738 cumulative IPC: 0.35922 (Simulation time: 0 hr 49 min 39 sec) 
Heartbeat CPU 0 instructions: 388000000 cycles: 1077783019 heartbeat IPC: 0.374211 cumulative IPC: 0.359257 (Simulation time: 0 hr 49 min 47 sec) 
Heartbeat CPU 0 instructions: 389000002 cycles: 1080485564 heartbeat IPC: 0.370022 cumulative IPC: 0.359284 (Simulation time: 0 hr 49 min 55 sec) 
Heartbeat CPU 0 instructions: 390000003 cycles: 1083301864 heartbeat IPC: 0.355076 cumulative IPC: 0.359273 (Simulation time: 0 hr 50 min 3 sec) 
Heartbeat CPU 0 instructions: 391000003 cycles: 1086127725 heartbeat IPC: 0.353874 cumulative IPC: 0.359259 (Simulation time: 0 hr 50 min 10 sec) 
Heartbeat CPU 0 instructions: 392000000 cycles: 1088884416 heartbeat IPC: 0.362753 cumulative IPC: 0.359268 (Simulation time: 0 hr 50 min 18 sec) 
Heartbeat CPU 0 instructions: 393000000 cycles: 1091720121 heartbeat IPC: 0.352646 cumulative IPC: 0.359251 (Simulation time: 0 hr 50 min 25 sec) 
Heartbeat CPU 0 instructions: 394000002 cycles: 1094459909 heartbeat IPC: 0.364992 cumulative IPC: 0.359265 (Simulation time: 0 hr 50 min 33 sec) 
Heartbeat CPU 0 instructions: 395000001 cycles: 1097512458 heartbeat IPC: 0.327595 cumulative IPC: 0.359177 (Simulation time: 0 hr 50 min 42 sec) 
Heartbeat CPU 0 instructions: 396000000 cycles: 1100400044 heartbeat IPC: 0.34631 cumulative IPC: 0.359143 (Simulation time: 0 hr 50 min 49 sec) 
Heartbeat CPU 0 instructions: 397000000 cycles: 1103128739 heartbeat IPC: 0.366476 cumulative IPC: 0.359161 (Simulation time: 0 hr 50 min 57 sec) 
Heartbeat CPU 0 instructions: 398000000 cycles: 1105935313 heartbeat IPC: 0.356306 cumulative IPC: 0.359154 (Simulation time: 0 hr 51 min 5 sec) 
Heartbeat CPU 0 instructions: 399000001 cycles: 1108808372 heartbeat IPC: 0.348061 cumulative IPC: 0.359125 (Simulation time: 0 hr 51 min 12 sec) 
Heartbeat CPU 0 instructions: 400000000 cycles: 1111494594 heartbeat IPC: 0.37227 cumulative IPC: 0.359157 (Simulation time: 0 hr 51 min 20 sec) 
Heartbeat CPU 0 instructions: 401000001 cycles: 1114212423 heartbeat IPC: 0.367941 cumulative IPC: 0.359179 (Simulation time: 0 hr 51 min 27 sec) 
Heartbeat CPU 0 instructions: 402000003 cycles: 1116950764 heartbeat IPC: 0.365185 cumulative IPC: 0.359193 (Simulation time: 0 hr 51 min 35 sec) 
Heartbeat CPU 0 instructions: 403000000 cycles: 1119859784 heartbeat IPC: 0.343757 cumulative IPC: 0.359153 (Simulation time: 0 hr 51 min 43 sec) 
Heartbeat CPU 0 instructions: 404000002 cycles: 1122691692 heartbeat IPC: 0.35312 cumulative IPC: 0.359138 (Simulation time: 0 hr 51 min 50 sec) 
Heartbeat CPU 0 instructions: 405000002 cycles: 1125509219 heartbeat IPC: 0.354921 cumulative IPC: 0.359127 (Simulation time: 0 hr 51 min 58 sec) 
Heartbeat CPU 0 instructions: 406000000 cycles: 1128148704 heartbeat IPC: 0.378861 cumulative IPC: 0.359174 (Simulation time: 0 hr 52 min 5 sec) 
Heartbeat CPU 0 instructions: 407000000 cycles: 1131088534 heartbeat IPC: 0.340156 cumulative IPC: 0.359124 (Simulation time: 0 hr 52 min 13 sec) 
Heartbeat CPU 0 instructions: 408000001 cycles: 1133911043 heartbeat IPC: 0.354295 cumulative IPC: 0.359112 (Simulation time: 0 hr 52 min 21 sec) 
Heartbeat CPU 0 instructions: 409000003 cycles: 1136646689 heartbeat IPC: 0.365545 cumulative IPC: 0.359128 (Simulation time: 0 hr 52 min 28 sec) 
Heartbeat CPU 0 instructions: 410000001 cycles: 1139337620 heartbeat IPC: 0.371618 cumulative IPC: 0.359157 (Simulation time: 0 hr 52 min 36 sec) 
Heartbeat CPU 0 instructions: 411000003 cycles: 1142250961 heartbeat IPC: 0.343249 cumulative IPC: 0.359117 (Simulation time: 0 hr 52 min 44 sec) 
Heartbeat CPU 0 instructions: 412000000 cycles: 1145143464 heartbeat IPC: 0.34572 cumulative IPC: 0.359083 (Simulation time: 0 hr 52 min 52 sec) 
Heartbeat CPU 0 instructions: 413000003 cycles: 1147916179 heartbeat IPC: 0.360658 cumulative IPC: 0.359087 (Simulation time: 0 hr 53 min 0 sec) 
Heartbeat CPU 0 instructions: 414000000 cycles: 1150298161 heartbeat IPC: 0.419817 cumulative IPC: 0.359212 (Simulation time: 0 hr 53 min 7 sec) 
Heartbeat CPU 0 instructions: 415000001 cycles: 1153090705 heartbeat IPC: 0.358097 cumulative IPC: 0.35921 (Simulation time: 0 hr 53 min 15 sec) 
Heartbeat CPU 0 instructions: 416000003 cycles: 1155905849 heartbeat IPC: 0.355222 cumulative IPC: 0.3592 (Simulation time: 0 hr 53 min 23 sec) 
Heartbeat CPU 0 instructions: 417000001 cycles: 1158722061 heartbeat IPC: 0.355086 cumulative IPC: 0.35919 (Simulation time: 0 hr 53 min 31 sec) 
Heartbeat CPU 0 instructions: 418000000 cycles: 1161487856 heartbeat IPC: 0.361559 cumulative IPC: 0.359196 (Simulation time: 0 hr 53 min 39 sec) 
Heartbeat CPU 0 instructions: 419000002 cycles: 1164243592 heartbeat IPC: 0.36288 cumulative IPC: 0.359204 (Simulation time: 0 hr 53 min 47 sec) 
Heartbeat CPU 0 instructions: 420000000 cycles: 1167048837 heartbeat IPC: 0.356474 cumulative IPC: 0.359198 (Simulation time: 0 hr 53 min 54 sec) 
Heartbeat CPU 0 instructions: 421000003 cycles: 1169868305 heartbeat IPC: 0.354678 cumulative IPC: 0.359187 (Simulation time: 0 hr 54 min 2 sec) 
Heartbeat CPU 0 instructions: 422000000 cycles: 1172595450 heartbeat IPC: 0.366683 cumulative IPC: 0.359204 (Simulation time: 0 hr 54 min 10 sec) 
Heartbeat CPU 0 instructions: 423000001 cycles: 1175338096 heartbeat IPC: 0.364612 cumulative IPC: 0.359217 (Simulation time: 0 hr 54 min 18 sec) 
Heartbeat CPU 0 instructions: 424000003 cycles: 1178393608 heartbeat IPC: 0.327278 cumulative IPC: 0.359134 (Simulation time: 0 hr 54 min 26 sec) 
Heartbeat CPU 0 instructions: 425000003 cycles: 1181123887 heartbeat IPC: 0.366263 cumulative IPC: 0.359151 (Simulation time: 0 hr 54 min 34 sec) 
Heartbeat CPU 0 instructions: 426000002 cycles: 1184043721 heartbeat IPC: 0.342485 cumulative IPC: 0.359109 (Simulation time: 0 hr 54 min 42 sec) 
Heartbeat CPU 0 instructions: 427000003 cycles: 1186697581 heartbeat IPC: 0.37681 cumulative IPC: 0.359149 (Simulation time: 0 hr 54 min 50 sec) 
Heartbeat CPU 0 instructions: 428000000 cycles: 1189707563 heartbeat IPC: 0.332227 cumulative IPC: 0.359081 (Simulation time: 0 hr 54 min 58 sec) 
Heartbeat CPU 0 instructions: 429000000 cycles: 1192421918 heartbeat IPC: 0.368412 cumulative IPC: 0.359102 (Simulation time: 0 hr 55 min 6 sec) 
Heartbeat CPU 0 instructions: 430000000 cycles: 1195182740 heartbeat IPC: 0.362211 cumulative IPC: 0.359109 (Simulation time: 0 hr 55 min 14 sec) 
Heartbeat CPU 0 instructions: 431000001 cycles: 1197955851 heartbeat IPC: 0.360606 cumulative IPC: 0.359113 (Simulation time: 0 hr 55 min 22 sec) 
Heartbeat CPU 0 instructions: 432000003 cycles: 1200724138 heartbeat IPC: 0.361235 cumulative IPC: 0.359118 (Simulation time: 0 hr 55 min 30 sec) 
Heartbeat CPU 0 instructions: 433000001 cycles: 1203486416 heartbeat IPC: 0.362019 cumulative IPC: 0.359124 (Simulation time: 0 hr 55 min 38 sec) 
Heartbeat CPU 0 instructions: 434000002 cycles: 1206244861 heartbeat IPC: 0.362523 cumulative IPC: 0.359132 (Simulation time: 0 hr 55 min 46 sec) 
Heartbeat CPU 0 instructions: 435000002 cycles: 1209014598 heartbeat IPC: 0.361045 cumulative IPC: 0.359136 (Simulation time: 0 hr 55 min 54 sec) 
Heartbeat CPU 0 instructions: 436000000 cycles: 1211724207 heartbeat IPC: 0.369056 cumulative IPC: 0.359159 (Simulation time: 0 hr 56 min 2 sec) 
Heartbeat CPU 0 instructions: 437000002 cycles: 1214616816 heartbeat IPC: 0.345709 cumulative IPC: 0.359127 (Simulation time: 0 hr 56 min 10 sec) 
Heartbeat CPU 0 instructions: 438000000 cycles: 1217443111 heartbeat IPC: 0.353819 cumulative IPC: 0.359114 (Simulation time: 0 hr 56 min 18 sec) 
Heartbeat CPU 0 instructions: 439000003 cycles: 1219990806 heartbeat IPC: 0.392513 cumulative IPC: 0.359184 (Simulation time: 0 hr 56 min 25 sec) 
Heartbeat CPU 0 instructions: 440000000 cycles: 1222788543 heartbeat IPC: 0.357431 cumulative IPC: 0.35918 (Simulation time: 0 hr 56 min 33 sec) 
Heartbeat CPU 0 instructions: 441000002 cycles: 1225617182 heartbeat IPC: 0.353528 cumulative IPC: 0.359167 (Simulation time: 0 hr 56 min 42 sec) 
Heartbeat CPU 0 instructions: 442000001 cycles: 1228351282 heartbeat IPC: 0.365751 cumulative IPC: 0.359182 (Simulation time: 0 hr 56 min 49 sec) 
Heartbeat CPU 0 instructions: 443000001 cycles: 1231122495 heartbeat IPC: 0.360853 cumulative IPC: 0.359185 (Simulation time: 0 hr 56 min 57 sec) 
Heartbeat CPU 0 instructions: 444000003 cycles: 1234076390 heartbeat IPC: 0.338537 cumulative IPC: 0.359136 (Simulation time: 0 hr 57 min 6 sec) 
Heartbeat CPU 0 instructions: 445000000 cycles: 1236898542 heartbeat IPC: 0.354338 cumulative IPC: 0.359125 (Simulation time: 0 hr 57 min 14 sec) 
Heartbeat CPU 0 instructions: 446000000 cycles: 1239621888 heartbeat IPC: 0.367195 cumulative IPC: 0.359143 (Simulation time: 0 hr 57 min 21 sec) 
Heartbeat CPU 0 instructions: 447000000 cycles: 1242417852 heartbeat IPC: 0.357658 cumulative IPC: 0.359139 (Simulation time: 0 hr 57 min 29 sec) 
Heartbeat CPU 0 instructions: 448000000 cycles: 1245213300 heartbeat IPC: 0.357724 cumulative IPC: 0.359136 (Simulation time: 0 hr 57 min 37 sec) 
Heartbeat CPU 0 instructions: 449000000 cycles: 1248039392 heartbeat IPC: 0.353846 cumulative IPC: 0.359124 (Simulation time: 0 hr 57 min 45 sec) 
Heartbeat CPU 0 instructions: 450000001 cycles: 1250758294 heartbeat IPC: 0.367796 cumulative IPC: 0.359143 (Simulation time: 0 hr 57 min 53 sec) 

Warmup complete CPU 0 instructions: 450000001 cycles: 1250758294 (Simulation time: 0 hr 57 min 53 sec) 

Heartbeat CPU 0 instructions: 451000000 cycles: 1253085105 heartbeat IPC: 0.429772 cumulative IPC: 0.429772 (Simulation time: 0 hr 58 min 1 sec) 
Heartbeat CPU 0 instructions: 452000000 cycles: 1255246268 heartbeat IPC: 0.462714 cumulative IPC: 0.445635 (Simulation time: 0 hr 58 min 9 sec) 
Heartbeat CPU 0 instructions: 453000000 cycles: 1257618873 heartbeat IPC: 0.421478 cumulative IPC: 0.437281 (Simulation time: 0 hr 58 min 17 sec) 
Heartbeat CPU 0 instructions: 454000001 cycles: 1259845937 heartbeat IPC: 0.449022 cumulative IPC: 0.440158 (Simulation time: 0 hr 58 min 24 sec) 
Heartbeat CPU 0 instructions: 455000000 cycles: 1262189997 heartbeat IPC: 0.42661 cumulative IPC: 0.43738 (Simulation time: 0 hr 58 min 32 sec) 
Heartbeat CPU 0 instructions: 456000003 cycles: 1264358091 heartbeat IPC: 0.461236 cumulative IPC: 0.441183 (Simulation time: 0 hr 58 min 39 sec) 
Heartbeat CPU 0 instructions: 457000001 cycles: 1266649167 heartbeat IPC: 0.436475 cumulative IPC: 0.440504 (Simulation time: 0 hr 58 min 47 sec) 
Heartbeat CPU 0 instructions: 458000002 cycles: 1269092914 heartbeat IPC: 0.409208 cumulative IPC: 0.436333 (Simulation time: 0 hr 58 min 55 sec) 
Heartbeat CPU 0 instructions: 459000000 cycles: 1271478728 heartbeat IPC: 0.419143 cumulative IPC: 0.434354 (Simulation time: 0 hr 59 min 2 sec) 
Heartbeat CPU 0 instructions: 460000000 cycles: 1273777007 heartbeat IPC: 0.435108 cumulative IPC: 0.434429 (Simulation time: 0 hr 59 min 10 sec) 
Heartbeat CPU 0 instructions: 461000000 cycles: 1276035828 heartbeat IPC: 0.442709 cumulative IPC: 0.435169 (Simulation time: 0 hr 59 min 17 sec) 
Heartbeat CPU 0 instructions: 462000000 cycles: 1278441477 heartbeat IPC: 0.415688 cumulative IPC: 0.433476 (Simulation time: 0 hr 59 min 25 sec) 
Heartbeat CPU 0 instructions: 463000002 cycles: 1280823784 heartbeat IPC: 0.419762 cumulative IPC: 0.432389 (Simulation time: 0 hr 59 min 33 sec) 
Heartbeat CPU 0 instructions: 464000002 cycles: 1283144168 heartbeat IPC: 0.430963 cumulative IPC: 0.432287 (Simulation time: 0 hr 59 min 40 sec) 
Heartbeat CPU 0 instructions: 465000000 cycles: 1285485628 heartbeat IPC: 0.427083 cumulative IPC: 0.431936 (Simulation time: 0 hr 59 min 48 sec) 
Heartbeat CPU 0 instructions: 466000000 cycles: 1287883825 heartbeat IPC: 0.41698 cumulative IPC: 0.43097 (Simulation time: 0 hr 59 min 56 sec) 
Heartbeat CPU 0 instructions: 467000001 cycles: 1290117233 heartbeat IPC: 0.447747 cumulative IPC: 0.431922 (Simulation time: 1 hr 0 min 3 sec) 
Heartbeat CPU 0 instructions: 468000002 cycles: 1292410412 heartbeat IPC: 0.436076 cumulative IPC: 0.432151 (Simulation time: 1 hr 0 min 10 sec) 
Heartbeat CPU 0 instructions: 469000001 cycles: 1294788604 heartbeat IPC: 0.420487 cumulative IPC: 0.431521 (Simulation time: 1 hr 0 min 18 sec) 
Heartbeat CPU 0 instructions: 470000002 cycles: 1297054882 heartbeat IPC: 0.441253 cumulative IPC: 0.431997 (Simulation time: 1 hr 0 min 26 sec) 
Heartbeat CPU 0 instructions: 471000002 cycles: 1299260484 heartbeat IPC: 0.453391 cumulative IPC: 0.43297 (Simulation time: 1 hr 0 min 33 sec) 
Heartbeat CPU 0 instructions: 472000000 cycles: 1301668701 heartbeat IPC: 0.415244 cumulative IPC: 0.432132 (Simulation time: 1 hr 0 min 41 sec) 
Heartbeat CPU 0 instructions: 473000000 cycles: 1303613069 heartbeat IPC: 0.514306 cumulative IPC: 0.435155 (Simulation time: 1 hr 0 min 49 sec) 
Heartbeat CPU 0 instructions: 474000000 cycles: 1305936204 heartbeat IPC: 0.430453 cumulative IPC: 0.434957 (Simulation time: 1 hr 0 min 56 sec) 
Heartbeat CPU 0 instructions: 475000000 cycles: 1308278803 heartbeat IPC: 0.426876 cumulative IPC: 0.434628 (Simulation time: 1 hr 1 min 4 sec) 
Heartbeat CPU 0 instructions: 476000002 cycles: 1310661199 heartbeat IPC: 0.419746 cumulative IPC: 0.434036 (Simulation time: 1 hr 1 min 12 sec) 
Heartbeat CPU 0 instructions: 477000001 cycles: 1313000836 heartbeat IPC: 0.427416 cumulative IPC: 0.433787 (Simulation time: 1 hr 1 min 19 sec) 
Heartbeat CPU 0 instructions: 478000000 cycles: 1315199788 heartbeat IPC: 0.454762 cumulative IPC: 0.434503 (Simulation time: 1 hr 1 min 27 sec) 
Heartbeat CPU 0 instructions: 479000000 cycles: 1317758438 heartbeat IPC: 0.390831 cumulative IPC: 0.432835 (Simulation time: 1 hr 1 min 34 sec) 
Heartbeat CPU 0 instructions: 480000000 cycles: 1320094118 heartbeat IPC: 0.428141 cumulative IPC: 0.432677 (Simulation time: 1 hr 1 min 42 sec) 
Heartbeat CPU 0 instructions: 481000000 cycles: 1322384128 heartbeat IPC: 0.436679 cumulative IPC: 0.432805 (Simulation time: 1 hr 1 min 50 sec) 
Heartbeat CPU 0 instructions: 482000002 cycles: 1324679483 heartbeat IPC: 0.435663 cumulative IPC: 0.432893 (Simulation time: 1 hr 1 min 58 sec) 
Heartbeat CPU 0 instructions: 483000000 cycles: 1327033125 heartbeat IPC: 0.424873 cumulative IPC: 0.432646 (Simulation time: 1 hr 2 min 6 sec) 
Heartbeat CPU 0 instructions: 484000000 cycles: 1329388725 heartbeat IPC: 0.42452 cumulative IPC: 0.432403 (Simulation time: 1 hr 2 min 14 sec) 
Heartbeat CPU 0 instructions: 485000002 cycles: 1331774319 heartbeat IPC: 0.419184 cumulative IPC: 0.432013 (Simulation time: 1 hr 2 min 22 sec) 
Heartbeat CPU 0 instructions: 486000001 cycles: 1334016773 heartbeat IPC: 0.44594 cumulative IPC: 0.432388 (Simulation time: 1 hr 2 min 30 sec) 
Heartbeat CPU 0 instructions: 487000003 cycles: 1336427881 heartbeat IPC: 0.414748 cumulative IPC: 0.431892 (Simulation time: 1 hr 2 min 38 sec) 
Heartbeat CPU 0 instructions: 488000000 cycles: 1338671091 heartbeat IPC: 0.445788 cumulative IPC: 0.432247 (Simulation time: 1 hr 2 min 45 sec) 
Heartbeat CPU 0 instructions: 489000002 cycles: 1340859293 heartbeat IPC: 0.456997 cumulative IPC: 0.432848 (Simulation time: 1 hr 2 min 53 sec) 
Heartbeat CPU 0 instructions: 490000000 cycles: 1343246098 heartbeat IPC: 0.418969 cumulative IPC: 0.432489 (Simulation time: 1 hr 3 min 1 sec) 
Heartbeat CPU 0 instructions: 491000002 cycles: 1345560714 heartbeat IPC: 0.432038 cumulative IPC: 0.432478 (Simulation time: 1 hr 3 min 9 sec) 
Heartbeat CPU 0 instructions: 492000000 cycles: 1347818250 heartbeat IPC: 0.44296 cumulative IPC: 0.432722 (Simulation time: 1 hr 3 min 17 sec) 
Heartbeat CPU 0 instructions: 493000002 cycles: 1350182189 heartbeat IPC: 0.423024 cumulative IPC: 0.432492 (Simulation time: 1 hr 3 min 25 sec) 
Heartbeat CPU 0 instructions: 494000000 cycles: 1352505322 heartbeat IPC: 0.430452 cumulative IPC: 0.432445 (Simulation time: 1 hr 3 min 33 sec) 
Heartbeat CPU 0 instructions: 495000000 cycles: 1354766523 heartbeat IPC: 0.442243 cumulative IPC: 0.432658 (Simulation time: 1 hr 3 min 40 sec) 
Heartbeat CPU 0 instructions: 496000001 cycles: 1357149562 heartbeat IPC: 0.419633 cumulative IPC: 0.432366 (Simulation time: 1 hr 3 min 48 sec) 
Heartbeat CPU 0 instructions: 497000001 cycles: 1359521692 heartbeat IPC: 0.421562 cumulative IPC: 0.432131 (Simulation time: 1 hr 3 min 56 sec) 
Heartbeat CPU 0 instructions: 498000001 cycles: 1361740541 heartbeat IPC: 0.450684 cumulative IPC: 0.432502 (Simulation time: 1 hr 4 min 4 sec) 
Heartbeat CPU 0 instructions: 499000001 cycles: 1364080615 heartbeat IPC: 0.427337 cumulative IPC: 0.432395 (Simulation time: 1 hr 4 min 12 sec) 
Heartbeat CPU 0 instructions: 500000003 cycles: 1366270872 heartbeat IPC: 0.456568 cumulative IPC: 0.432853 (Simulation time: 1 hr 4 min 19 sec) 
Heartbeat CPU 0 instructions: 501000001 cycles: 1368641038 heartbeat IPC: 0.421911 cumulative IPC: 0.432633 (Simulation time: 1 hr 4 min 27 sec) 
Heartbeat CPU 0 instructions: 502000001 cycles: 1370862196 heartbeat IPC: 0.450216 cumulative IPC: 0.432958 (Simulation time: 1 hr 4 min 35 sec) 
Heartbeat CPU 0 instructions: 503000002 cycles: 1373196532 heartbeat IPC: 0.428388 cumulative IPC: 0.432871 (Simulation time: 1 hr 4 min 43 sec) 
Heartbeat CPU 0 instructions: 504000000 cycles: 1375580307 heartbeat IPC: 0.419502 cumulative IPC: 0.432616 (Simulation time: 1 hr 4 min 50 sec) 
Heartbeat CPU 0 instructions: 505000003 cycles: 1377962057 heartbeat IPC: 0.419861 cumulative IPC: 0.432377 (Simulation time: 1 hr 4 min 58 sec) 
Heartbeat CPU 0 instructions: 506000000 cycles: 1380183435 heartbeat IPC: 0.45017 cumulative IPC: 0.432683 (Simulation time: 1 hr 5 min 6 sec) 
Heartbeat CPU 0 instructions: 507000002 cycles: 1382515587 heartbeat IPC: 0.428789 cumulative IPC: 0.432614 (Simulation time: 1 hr 5 min 13 sec) 
Heartbeat CPU 0 instructions: 508000001 cycles: 1384815371 heartbeat IPC: 0.434823 cumulative IPC: 0.432652 (Simulation time: 1 hr 5 min 21 sec) 
Heartbeat CPU 0 instructions: 509000001 cycles: 1387152042 heartbeat IPC: 0.427959 cumulative IPC: 0.432571 (Simulation time: 1 hr 5 min 29 sec) 
Heartbeat CPU 0 instructions: 510000003 cycles: 1389454156 heartbeat IPC: 0.434384 cumulative IPC: 0.432601 (Simulation time: 1 hr 5 min 36 sec) 
Heartbeat CPU 0 instructions: 511000000 cycles: 1391646117 heartbeat IPC: 0.456211 cumulative IPC: 0.432969 (Simulation time: 1 hr 5 min 43 sec) 
Heartbeat CPU 0 instructions: 512000001 cycles: 1393911101 heartbeat IPC: 0.441505 cumulative IPC: 0.433104 (Simulation time: 1 hr 5 min 51 sec) 
Heartbeat CPU 0 instructions: 513000000 cycles: 1396183114 heartbeat IPC: 0.440138 cumulative IPC: 0.433214 (Simulation time: 1 hr 5 min 58 sec) 
Heartbeat CPU 0 instructions: 514000003 cycles: 1398505173 heartbeat IPC: 0.430654 cumulative IPC: 0.433173 (Simulation time: 1 hr 6 min 6 sec) 
Heartbeat CPU 0 instructions: 515000001 cycles: 1400850642 heartbeat IPC: 0.426353 cumulative IPC: 0.433067 (Simulation time: 1 hr 6 min 13 sec) 
Heartbeat CPU 0 instructions: 516000001 cycles: 1403244263 heartbeat IPC: 0.417777 cumulative IPC: 0.432827 (Simulation time: 1 hr 6 min 21 sec) 
Heartbeat CPU 0 instructions: 517000000 cycles: 1405390842 heartbeat IPC: 0.465857 cumulative IPC: 0.433285 (Simulation time: 1 hr 6 min 29 sec) 
Heartbeat CPU 0 instructions: 518000003 cycles: 1407815764 heartbeat IPC: 0.412386 cumulative IPC: 0.432963 (Simulation time: 1 hr 6 min 36 sec) 
Heartbeat CPU 0 instructions: 519000002 cycles: 1410166615 heartbeat IPC: 0.425377 cumulative IPC: 0.432851 (Simulation time: 1 hr 6 min 44 sec) 
Heartbeat CPU 0 instructions: 520000001 cycles: 1412569554 heartbeat IPC: 0.416157 cumulative IPC: 0.432603 (Simulation time: 1 hr 6 min 51 sec) 
Heartbeat CPU 0 instructions: 521000002 cycles: 1414875542 heartbeat IPC: 0.433654 cumulative IPC: 0.432618 (Simulation time: 1 hr 6 min 59 sec) 
Heartbeat CPU 0 instructions: 522000000 cycles: 1417111198 heartbeat IPC: 0.447295 cumulative IPC: 0.432815 (Simulation time: 1 hr 7 min 6 sec) 
Heartbeat CPU 0 instructions: 523000000 cycles: 1419497964 heartbeat IPC: 0.418977 cumulative IPC: 0.432619 (Simulation time: 1 hr 7 min 14 sec) 
Heartbeat CPU 0 instructions: 524000002 cycles: 1421806614 heartbeat IPC: 0.433154 cumulative IPC: 0.432626 (Simulation time: 1 hr 7 min 21 sec) 
Heartbeat CPU 0 instructions: 525000001 cycles: 1424118720 heartbeat IPC: 0.432506 cumulative IPC: 0.432625 (Simulation time: 1 hr 7 min 29 sec) 
Heartbeat CPU 0 instructions: 526000000 cycles: 1426445355 heartbeat IPC: 0.429805 cumulative IPC: 0.432587 (Simulation time: 1 hr 7 min 36 sec) 
Heartbeat CPU 0 instructions: 527000000 cycles: 1428730152 heartbeat IPC: 0.437676 cumulative IPC: 0.432653 (Simulation time: 1 hr 7 min 43 sec) 
Heartbeat CPU 0 instructions: 528000000 cycles: 1431003466 heartbeat IPC: 0.439886 cumulative IPC: 0.432744 (Simulation time: 1 hr 7 min 50 sec) 
Heartbeat CPU 0 instructions: 529000002 cycles: 1433311554 heartbeat IPC: 0.43326 cumulative IPC: 0.43275 (Simulation time: 1 hr 7 min 58 sec) 
Heartbeat CPU 0 instructions: 530000001 cycles: 1435730873 heartbeat IPC: 0.413339 cumulative IPC: 0.432497 (Simulation time: 1 hr 8 min 5 sec) 
Heartbeat CPU 0 instructions: 531000003 cycles: 1437641608 heartbeat IPC: 0.52336 cumulative IPC: 0.433426 (Simulation time: 1 hr 8 min 13 sec) 
Heartbeat CPU 0 instructions: 532000000 cycles: 1440053421 heartbeat IPC: 0.414625 cumulative IPC: 0.433186 (Simulation time: 1 hr 8 min 20 sec) 
Heartbeat CPU 0 instructions: 533000000 cycles: 1442304747 heartbeat IPC: 0.444183 cumulative IPC: 0.433315 (Simulation time: 1 hr 8 min 27 sec) 
Heartbeat CPU 0 instructions: 534000000 cycles: 1444721605 heartbeat IPC: 0.41376 cumulative IPC: 0.433072 (Simulation time: 1 hr 8 min 35 sec) 
Heartbeat CPU 0 instructions: 535000002 cycles: 1447018649 heartbeat IPC: 0.435343 cumulative IPC: 0.433098 (Simulation time: 1 hr 8 min 42 sec) 
Heartbeat CPU 0 instructions: 536000001 cycles: 1449219654 heartbeat IPC: 0.454337 cumulative IPC: 0.433334 (Simulation time: 1 hr 8 min 49 sec) 
Heartbeat CPU 0 instructions: 537000001 cycles: 1451415967 heartbeat IPC: 0.455308 cumulative IPC: 0.433574 (Simulation time: 1 hr 8 min 56 sec) 
Heartbeat CPU 0 instructions: 538000001 cycles: 1453868339 heartbeat IPC: 0.407768 cumulative IPC: 0.433263 (Simulation time: 1 hr 9 min 4 sec) 
Heartbeat CPU 0 instructions: 539000000 cycles: 1456210921 heartbeat IPC: 0.426879 cumulative IPC: 0.43319 (Simulation time: 1 hr 9 min 11 sec) 
Heartbeat CPU 0 instructions: 540000001 cycles: 1458513566 heartbeat IPC: 0.434284 cumulative IPC: 0.433202 (Simulation time: 1 hr 9 min 18 sec) 
Heartbeat CPU 0 instructions: 541000000 cycles: 1460859359 heartbeat IPC: 0.426295 cumulative IPC: 0.433125 (Simulation time: 1 hr 9 min 26 sec) 
Heartbeat CPU 0 instructions: 542000002 cycles: 1463264206 heartbeat IPC: 0.415828 cumulative IPC: 0.432929 (Simulation time: 1 hr 9 min 33 sec) 
Heartbeat CPU 0 instructions: 543000001 cycles: 1465450129 heartbeat IPC: 0.457472 cumulative IPC: 0.433179 (Simulation time: 1 hr 9 min 40 sec) 
Heartbeat CPU 0 instructions: 544000001 cycles: 1467912522 heartbeat IPC: 0.406109 cumulative IPC: 0.432872 (Simulation time: 1 hr 9 min 48 sec) 
Heartbeat CPU 0 instructions: 545000002 cycles: 1470154033 heartbeat IPC: 0.446128 cumulative IPC: 0.433008 (Simulation time: 1 hr 9 min 55 sec) 
[...]
Heartbeat CPU 0 instructions: 835000001 cycles: 2144866941 heartbeat IPC: 0.412997 cumulative IPC: 0.430596 (Simulation time: 1 hr 46 min 10 sec) 
Heartbeat CPU 0 instructions: 836000000 cycles: 2147299989 heartbeat IPC: 0.411007 cumulative IPC: 0.430543 (Simulation time: 1 hr 46 min 18 sec) 
Heartbeat CPU 0 instructions: 837000000 cycles: 2149480439 heartbeat IPC: 0.458621 cumulative IPC: 0.430611 (Simulation time: 1 hr 46 min 26 sec) 
Heartbeat CPU 0 instructions: 838000000 cycles: 2151730607 heartbeat IPC: 0.444411 cumulative IPC: 0.430646 (Simulation time: 1 hr 46 min 33 sec) 
Heartbeat CPU 0 instructions: 839000001 cycles: 2154125445 heartbeat IPC: 0.417565 cumulative IPC: 0.430611 (Simulation time: 1 hr 46 min 41 sec) 
Heartbeat CPU 0 instructions: 840000001 cycles: 2156690369 heartbeat IPC: 0.389875 cumulative IPC: 0.430496 (Simulation time: 1 hr 46 min 49 sec) 
Heartbeat CPU 0 instructions: 841000000 cycles: 2158929364 heartbeat IPC: 0.446629 cumulative IPC: 0.430536 (Simulation time: 1 hr 46 min 56 sec) 
Heartbeat CPU 0 instructions: 842000002 cycles: 2161293729 heartbeat IPC: 0.422947 cumulative IPC: 0.430516 (Simulation time: 1 hr 47 min 4 sec) 
Heartbeat CPU 0 instructions: 843000000 cycles: 2163681889 heartbeat IPC: 0.418732 cumulative IPC: 0.430485 (Simulation time: 1 hr 47 min 11 sec) 
Heartbeat CPU 0 instructions: 844000000 cycles: 2166002838 heartbeat IPC: 0.430858 cumulative IPC: 0.430486 (Simulation time: 1 hr 47 min 19 sec) 
Heartbeat CPU 0 instructions: 845000000 cycles: 2168421581 heartbeat IPC: 0.413438 cumulative IPC: 0.430441 (Simulation time: 1 hr 47 min 26 sec) 
Heartbeat CPU 0 instructions: 846000003 cycles: 2170738257 heartbeat IPC: 0.431654 cumulative IPC: 0.430444 (Simulation time: 1 hr 47 min 34 sec) 
Heartbeat CPU 0 instructions: 847000000 cycles: 2173111508 heartbeat IPC: 0.421362 cumulative IPC: 0.430421 (Simulation time: 1 hr 47 min 42 sec) 
Heartbeat CPU 0 instructions: 848000000 cycles: 2175400725 heartbeat IPC: 0.436831 cumulative IPC: 0.430437 (Simulation time: 1 hr 47 min 49 sec) 
Heartbeat CPU 0 instructions: 849000000 cycles: 2177745025 heartbeat IPC: 0.426567 cumulative IPC: 0.430427 (Simulation time: 1 hr 47 min 57 sec) 
Heartbeat CPU 0 instructions: 850000000 cycles: 2180188985 heartbeat IPC: 0.409172 cumulative IPC: 0.430371 (Simulation time: 1 hr 48 min 5 sec) 
Heartbeat CPU 0 instructions: 851000000 cycles: 2182552719 heartbeat IPC: 0.423059 cumulative IPC: 0.430352 (Simulation time: 1 hr 48 min 12 sec) 
Heartbeat CPU 0 instructions: 852000002 cycles: 2184840283 heartbeat IPC: 0.437147 cumulative IPC: 0.430369 (Simulation time: 1 hr 48 min 20 sec) 
Heartbeat CPU 0 instructions: 853000001 cycles: 2187107371 heartbeat IPC: 0.441094 cumulative IPC: 0.430395 (Simulation time: 1 hr 48 min 28 sec) 
Heartbeat CPU 0 instructions: 854000000 cycles: 2189509507 heartbeat IPC: 0.416296 cumulative IPC: 0.430359 (Simulation time: 1 hr 48 min 35 sec) 
Heartbeat CPU 0 instructions: 855000003 cycles: 2191804676 heartbeat IPC: 0.435699 cumulative IPC: 0.430372 (Simulation time: 1 hr 48 min 43 sec) 
Heartbeat CPU 0 instructions: 856000001 cycles: 2194261320 heartbeat IPC: 0.407059 cumulative IPC: 0.430311 (Simulation time: 1 hr 48 min 50 sec) 
Heartbeat CPU 0 instructions: 857000000 cycles: 2196537713 heartbeat IPC: 0.439291 cumulative IPC: 0.430333 (Simulation time: 1 hr 48 min 58 sec) 
Heartbeat CPU 0 instructions: 858000000 cycles: 2198967141 heartbeat IPC: 0.41162 cumulative IPC: 0.430285 (Simulation time: 1 hr 49 min 6 sec) 
Heartbeat CPU 0 instructions: 859000000 cycles: 2201301067 heartbeat IPC: 0.428463 cumulative IPC: 0.43028 (Simulation time: 1 hr 49 min 13 sec) 
Heartbeat CPU 0 instructions: 860000000 cycles: 2203642344 heartbeat IPC: 0.427117 cumulative IPC: 0.430273 (Simulation time: 1 hr 49 min 21 sec) 
Heartbeat CPU 0 instructions: 861000002 cycles: 2205945186 heartbeat IPC: 0.434247 cumulative IPC: 0.430282 (Simulation time: 1 hr 49 min 28 sec) 
Heartbeat CPU 0 instructions: 862000003 cycles: 2208492532 heartbeat IPC: 0.392566 cumulative IPC: 0.430182 (Simulation time: 1 hr 49 min 36 sec) 
Heartbeat CPU 0 instructions: 863000000 cycles: 2210875136 heartbeat IPC: 0.419708 cumulative IPC: 0.430156 (Simulation time: 1 hr 49 min 43 sec) 
Heartbeat CPU 0 instructions: 864000002 cycles: 2213217827 heartbeat IPC: 0.42686 cumulative IPC: 0.430148 (Simulation time: 1 hr 49 min 51 sec) 
Heartbeat CPU 0 instructions: 865000003 cycles: 2215634380 heartbeat IPC: 0.413813 cumulative IPC: 0.430107 (Simulation time: 1 hr 49 min 58 sec) 
Heartbeat CPU 0 instructions: 866000000 cycles: 2218002227 heartbeat IPC: 0.422323 cumulative IPC: 0.430088 (Simulation time: 1 hr 50 min 6 sec) 
Heartbeat CPU 0 instructions: 867000002 cycles: 2220511418 heartbeat IPC: 0.398536 cumulative IPC: 0.430006 (Simulation time: 1 hr 50 min 14 sec) 
Heartbeat CPU 0 instructions: 868000000 cycles: 2222778353 heartbeat IPC: 0.441123 cumulative IPC: 0.430032 (Simulation time: 1 hr 50 min 21 sec) 
Heartbeat CPU 0 instructions: 869000000 cycles: 2225066913 heartbeat IPC: 0.436956 cumulative IPC: 0.430049 (Simulation time: 1 hr 50 min 29 sec) 
Heartbeat CPU 0 instructions: 870000001 cycles: 2227543583 heartbeat IPC: 0.403768 cumulative IPC: 0.429982 (Simulation time: 1 hr 50 min 37 sec) 
Heartbeat CPU 0 instructions: 871000000 cycles: 2229815351 heartbeat IPC: 0.440185 cumulative IPC: 0.430006 (Simulation time: 1 hr 50 min 44 sec) 
Heartbeat CPU 0 instructions: 872000000 cycles: 2232079303 heartbeat IPC: 0.441705 cumulative IPC: 0.430033 (Simulation time: 1 hr 50 min 52 sec) 
Heartbeat CPU 0 instructions: 873000002 cycles: 2234434389 heartbeat IPC: 0.424614 cumulative IPC: 0.43002 (Simulation time: 1 hr 51 min 0 sec) 
Heartbeat CPU 0 instructions: 874000001 cycles: 2236664755 heartbeat IPC: 0.448356 cumulative IPC: 0.430061 (Simulation time: 1 hr 51 min 7 sec) 
Heartbeat CPU 0 instructions: 875000003 cycles: 2239001319 heartbeat IPC: 0.42798 cumulative IPC: 0.430056 (Simulation time: 1 hr 51 min 15 sec) 
Heartbeat CPU 0 instructions: 876000001 cycles: 2241242716 heartbeat IPC: 0.446149 cumulative IPC: 0.430093 (Simulation time: 1 hr 51 min 22 sec) 
Heartbeat CPU 0 instructions: 877000001 cycles: 2243435962 heartbeat IPC: 0.455945 cumulative IPC: 0.43015 (Simulation time: 1 hr 51 min 30 sec) 
Heartbeat CPU 0 instructions: 878000003 cycles: 2245770096 heartbeat IPC: 0.428425 cumulative IPC: 0.430146 (Simulation time: 1 hr 51 min 38 sec) 
Heartbeat CPU 0 instructions: 879000000 cycles: 2248071626 heartbeat IPC: 0.434492 cumulative IPC: 0.430156 (Simulation time: 1 hr 51 min 45 sec) 
Heartbeat CPU 0 instructions: 880000000 cycles: 2250488808 heartbeat IPC: 0.413705 cumulative IPC: 0.430116 (Simulation time: 1 hr 51 min 53 sec) 
Heartbeat CPU 0 instructions: 881000002 cycles: 2252851865 heartbeat IPC: 0.423182 cumulative IPC: 0.4301 (Simulation time: 1 hr 52 min 0 sec) 
Heartbeat CPU 0 instructions: 882000002 cycles: 2255226820 heartbeat IPC: 0.421061 cumulative IPC: 0.430078 (Simulation time: 1 hr 52 min 8 sec) 
Heartbeat CPU 0 instructions: 883000001 cycles: 2257475255 heartbeat IPC: 0.444753 cumulative IPC: 0.430111 (Simulation time: 1 hr 52 min 15 sec) 
Heartbeat CPU 0 instructions: 884000001 cycles: 2260148578 heartbeat IPC: 0.374066 cumulative IPC: 0.429963 (Simulation time: 1 hr 52 min 23 sec) 
Heartbeat CPU 0 instructions: 885000003 cycles: 2262291535 heartbeat IPC: 0.466646 cumulative IPC: 0.43004 (Simulation time: 1 hr 52 min 30 sec) 
Heartbeat CPU 0 instructions: 886000003 cycles: 2264858910 heartbeat IPC: 0.389503 cumulative IPC: 0.429938 (Simulation time: 1 hr 52 min 38 sec) 
Heartbeat CPU 0 instructions: 887000002 cycles: 2267124133 heartbeat IPC: 0.441457 cumulative IPC: 0.429963 (Simulation time: 1 hr 52 min 45 sec) 
Heartbeat CPU 0 instructions: 888000000 cycles: 2269367143 heartbeat IPC: 0.445829 cumulative IPC: 0.429998 (Simulation time: 1 hr 52 min 53 sec) 
Heartbeat CPU 0 instructions: 889000001 cycles: 2271563728 heartbeat IPC: 0.455253 cumulative IPC: 0.430053 (Simulation time: 1 hr 53 min 0 sec) 
Heartbeat CPU 0 instructions: 890000000 cycles: 2273920024 heartbeat IPC: 0.424394 cumulative IPC: 0.43004 (Simulation time: 1 hr 53 min 8 sec) 
Heartbeat CPU 0 instructions: 891000000 cycles: 2276338171 heartbeat IPC: 0.41354 cumulative IPC: 0.430001 (Simulation time: 1 hr 53 min 15 sec) 
Heartbeat CPU 0 instructions: 892000001 cycles: 2278660098 heartbeat IPC: 0.430677 cumulative IPC: 0.430002 (Simulation time: 1 hr 53 min 23 sec) 
Heartbeat CPU 0 instructions: 893000001 cycles: 2280952582 heartbeat IPC: 0.436208 cumulative IPC: 0.430016 (Simulation time: 1 hr 53 min 30 sec) 
Heartbeat CPU 0 instructions: 894000000 cycles: 2283293495 heartbeat IPC: 0.427183 cumulative IPC: 0.43001 (Simulation time: 1 hr 53 min 37 sec) 
Heartbeat CPU 0 instructions: 895000002 cycles: 2285541694 heartbeat IPC: 0.444801 cumulative IPC: 0.430042 (Simulation time: 1 hr 53 min 45 sec) 
Heartbeat CPU 0 instructions: 896000002 cycles: 2287854159 heartbeat IPC: 0.432439 cumulative IPC: 0.430047 (Simulation time: 1 hr 53 min 53 sec) 
Heartbeat CPU 0 instructions: 897000002 cycles: 2290168785 heartbeat IPC: 0.432035 cumulative IPC: 0.430051 (Simulation time: 1 hr 54 min 0 sec) 
Heartbeat CPU 0 instructions: 898000001 cycles: 2292432642 heartbeat IPC: 0.441724 cumulative IPC: 0.430077 (Simulation time: 1 hr 54 min 8 sec) 
Heartbeat CPU 0 instructions: 899000000 cycles: 2294820826 heartbeat IPC: 0.418728 cumulative IPC: 0.430051 (Simulation time: 1 hr 54 min 15 sec) 
Heartbeat CPU 0 instructions: 900000001 cycles: 2297167551 heartbeat IPC: 0.426126 cumulative IPC: 0.430042 (Simulation time: 1 hr 54 min 23 sec) 
Heartbeat CPU 0 instructions: 901000000 cycles: 2299401994 heartbeat IPC: 0.447538 cumulative IPC: 0.430079 (Simulation time: 1 hr 54 min 30 sec) 
Heartbeat CPU 0 instructions: 902000000 cycles: 2301760953 heartbeat IPC: 0.423916 cumulative IPC: 0.430066 (Simulation time: 1 hr 54 min 38 sec) 
Heartbeat CPU 0 instructions: 903000003 cycles: 2304144145 heartbeat IPC: 0.419607 cumulative IPC: 0.430042 (Simulation time: 1 hr 54 min 45 sec) 
Heartbeat CPU 0 instructions: 904000000 cycles: 2306522554 heartbeat IPC: 0.420448 cumulative IPC: 0.43002 (Simulation time: 1 hr 54 min 53 sec) 
Heartbeat CPU 0 instructions: 905000001 cycles: 2308879859 heartbeat IPC: 0.424214 cumulative IPC: 0.430007 (Simulation time: 1 hr 55 min 0 sec) 
Heartbeat CPU 0 instructions: 906000002 cycles: 2311111680 heartbeat IPC: 0.448065 cumulative IPC: 0.430045 (Simulation time: 1 hr 55 min 8 sec) 
Heartbeat CPU 0 instructions: 907000002 cycles: 2313465460 heartbeat IPC: 0.424849 cumulative IPC: 0.430034 (Simulation time: 1 hr 55 min 15 sec) 
Heartbeat CPU 0 instructions: 908000003 cycles: 2315783889 heartbeat IPC: 0.431327 cumulative IPC: 0.430037 (Simulation time: 1 hr 55 min 23 sec) 
Heartbeat CPU 0 instructions: 909000000 cycles: 2318255773 heartbeat IPC: 0.404549 cumulative IPC: 0.429978 (Simulation time: 1 hr 55 min 30 sec) 
Heartbeat CPU 0 instructions: 910000000 cycles: 2320630871 heartbeat IPC: 0.421035 cumulative IPC: 0.429958 (Simulation time: 1 hr 55 min 37 sec) 
Heartbeat CPU 0 instructions: 911000000 cycles: 2323029902 heartbeat IPC: 0.416835 cumulative IPC: 0.429928 (Simulation time: 1 hr 55 min 45 sec) 
Heartbeat CPU 0 instructions: 912000000 cycles: 2325288513 heartbeat IPC: 0.44275 cumulative IPC: 0.429955 (Simulation time: 1 hr 55 min 52 sec) 
Heartbeat CPU 0 instructions: 913000000 cycles: 2327499597 heartbeat IPC: 0.452267 cumulative IPC: 0.430001 (Simulation time: 1 hr 55 min 59 sec) 
Heartbeat CPU 0 instructions: 914000001 cycles: 2329918476 heartbeat IPC: 0.413415 cumulative IPC: 0.429964 (Simulation time: 1 hr 56 min 7 sec) 
Heartbeat CPU 0 instructions: 915000002 cycles: 2332286423 heartbeat IPC: 0.422307 cumulative IPC: 0.429947 (Simulation time: 1 hr 56 min 14 sec) 
Heartbeat CPU 0 instructions: 916000001 cycles: 2334597053 heartbeat IPC: 0.432782 cumulative IPC: 0.429953 (Simulation time: 1 hr 56 min 21 sec) 
Heartbeat CPU 0 instructions: 917000003 cycles: 2336961088 heartbeat IPC: 0.423006 cumulative IPC: 0.429938 (Simulation time: 1 hr 56 min 29 sec) 
Heartbeat CPU 0 instructions: 918000000 cycles: 2339283737 heartbeat IPC: 0.430542 cumulative IPC: 0.429939 (Simulation time: 1 hr 56 min 36 sec) 
Heartbeat CPU 0 instructions: 919000000 cycles: 2341614673 heartbeat IPC: 0.429012 cumulative IPC: 0.429937 (Simulation time: 1 hr 56 min 43 sec) 
Heartbeat CPU 0 instructions: 920000001 cycles: 2344003462 heartbeat IPC: 0.418623 cumulative IPC: 0.429913 (Simulation time: 1 hr 56 min 51 sec) 
Heartbeat CPU 0 instructions: 921000000 cycles: 2346381274 heartbeat IPC: 0.420554 cumulative IPC: 0.429892 (Simulation time: 1 hr 56 min 58 sec) 
Heartbeat CPU 0 instructions: 922000001 cycles: 2348748277 heartbeat IPC: 0.422476 cumulative IPC: 0.429876 (Simulation time: 1 hr 57 min 6 sec) 
Heartbeat CPU 0 instructions: 923000000 cycles: 2351000243 heartbeat IPC: 0.444056 cumulative IPC: 0.429905 (Simulation time: 1 hr 57 min 13 sec) 
Heartbeat CPU 0 instructions: 924000000 cycles: 2353371033 heartbeat IPC: 0.4218 cumulative IPC: 0.429888 (Simulation time: 1 hr 57 min 20 sec) 
Heartbeat CPU 0 instructions: 925000000 cycles: 2355634042 heartbeat IPC: 0.44189 cumulative IPC: 0.429913 (Simulation time: 1 hr 57 min 28 sec) 
Heartbeat CPU 0 instructions: 926000001 cycles: 2357908868 heartbeat IPC: 0.439595 cumulative IPC: 0.429932 (Simulation time: 1 hr 57 min 36 sec) 
Heartbeat CPU 0 instructions: 927000000 cycles: 2360228740 heartbeat IPC: 0.431058 cumulative IPC: 0.429935 (Simulation time: 1 hr 57 min 43 sec) 
Heartbeat CPU 0 instructions: 928000000 cycles: 2362406382 heartbeat IPC: 0.459212 cumulative IPC: 0.429992 (Simulation time: 1 hr 57 min 50 sec) 
Heartbeat CPU 0 instructions: 929000002 cycles: 2364966865 heartbeat IPC: 0.390552 cumulative IPC: 0.429902 (Simulation time: 1 hr 57 min 58 sec) 
Heartbeat CPU 0 instructions: 930000003 cycles: 2367345924 heartbeat IPC: 0.420335 cumulative IPC: 0.429881 (Simulation time: 1 hr 58 min 6 sec) 
Heartbeat CPU 0 instructions: 931000000 cycles: 2369770884 heartbeat IPC: 0.412377 cumulative IPC: 0.429843 (Simulation time: 1 hr 58 min 13 sec) 
Heartbeat CPU 0 instructions: 932000000 cycles: 2371897444 heartbeat IPC: 0.470243 cumulative IPC: 0.42992 (Simulation time: 1 hr 58 min 21 sec) 
Heartbeat CPU 0 instructions: 933000000 cycles: 2374159887 heartbeat IPC: 0.442 cumulative IPC: 0.429944 (Simulation time: 1 hr 58 min 28 sec) 
Heartbeat CPU 0 instructions: 934000002 cycles: 2376488498 heartbeat IPC: 0.429441 cumulative IPC: 0.429943 (Simulation time: 1 hr 58 min 35 sec) 
Heartbeat CPU 0 instructions: 935000000 cycles: 2378719739 heartbeat IPC: 0.44818 cumulative IPC: 0.429979 (Simulation time: 1 hr 58 min 43 sec) 
Heartbeat CPU 0 instructions: 936000000 cycles: 2381131719 heartbeat IPC: 0.414597 cumulative IPC: 0.429946 (Simulation time: 1 hr 58 min 50 sec) 
Heartbeat CPU 0 instructions: 937000003 cycles: 2383437030 heartbeat IPC: 0.433782 cumulative IPC: 0.429954 (Simulation time: 1 hr 58 min 58 sec) 
Heartbeat CPU 0 instructions: 938000000 cycles: 2385842138 heartbeat IPC: 0.41578 cumulative IPC: 0.429924 (Simulation time: 1 hr 59 min 5 sec) 
Heartbeat CPU 0 instructions: 939000000 cycles: 2388079027 heartbeat IPC: 0.447049 cumulative IPC: 0.429958 (Simulation time: 1 hr 59 min 12 sec) 
Heartbeat CPU 0 instructions: 940000002 cycles: 2390447377 heartbeat IPC: 0.422236 cumulative IPC: 0.429942 (Simulation time: 1 hr 59 min 20 sec) 
Heartbeat CPU 0 instructions: 941000000 cycles: 2392849946 heartbeat IPC: 0.41622 cumulative IPC: 0.429913 (Simulation time: 1 hr 59 min 27 sec) 
Heartbeat CPU 0 instructions: 942000002 cycles: 2395326299 heartbeat IPC: 0.40382 cumulative IPC: 0.429857 (Simulation time: 1 hr 59 min 35 sec) 
Heartbeat CPU 0 instructions: 943000003 cycles: 2397527904 heartbeat IPC: 0.454215 cumulative IPC: 0.429903 (Simulation time: 1 hr 59 min 42 sec) 
Heartbeat CPU 0 instructions: 944000000 cycles: 2399812933 heartbeat IPC: 0.43763 cumulative IPC: 0.429919 (Simulation time: 1 hr 59 min 49 sec) 
Heartbeat CPU 0 instructions: 945000001 cycles: 2402135429 heartbeat IPC: 0.430572 cumulative IPC: 0.42992 (Simulation time: 1 hr 59 min 57 sec) 
Heartbeat CPU 0 instructions: 946000000 cycles: 2404538102 heartbeat IPC: 0.416203 cumulative IPC: 0.429891 (Simulation time: 2 hr 0 min 4 sec) 
Heartbeat CPU 0 instructions: 947000000 cycles: 2406694982 heartbeat IPC: 0.463633 cumulative IPC: 0.429954 (Simulation time: 2 hr 0 min 11 sec) 
Heartbeat CPU 0 instructions: 948000002 cycles: 2409125816 heartbeat IPC: 0.411382 cumulative IPC: 0.429915 (Simulation time: 2 hr 0 min 18 sec) 
Heartbeat CPU 0 instructions: 949000002 cycles: 2411455373 heartbeat IPC: 0.429266 cumulative IPC: 0.429914 (Simulation time: 2 hr 0 min 26 sec) 
Heartbeat CPU 0 instructions: 950000000 cycles: 2413764465 heartbeat IPC: 0.43307 cumulative IPC: 0.42992 (Simulation time: 2 hr 0 min 34 sec) 
Finished CPU 0 instructions: 500000000 cycles: 1163006172 cumulative IPC: 0.42992 (Simulation time: 2 hr 0 min 34 sec) 

ChampSim completed all CPUs

Region of Interest Statistics

CPU 0 cumulative IPC: 0.42992 instructions: 500000000 cycles: 1163006172
L1D TOTAL     ACCESS:  207511114  HIT:  198331669  MISS:    9179445
L1D LOAD      ACCESS:  118121114  HIT:  110138750  MISS:    7982364
L1D RFO       ACCESS:   89390000  HIT:   88192919  MISS:    1197081
L1D PREFETCH  ACCESS:          0  HIT:          0  MISS:          0
L1D WRITEBACK ACCESS:          0  HIT:          0  MISS:          0
L1D PREFETCH  REQUESTED:          0  ISSUED:          0  USEFUL:          0  USELESS:          0
L1D AVERAGE MISS LATENCY: 76.5725 cycles
L1I TOTAL     ACCESS:  112347567  HIT:  112156165  MISS:     191402
L1I LOAD      ACCESS:  112347567  HIT:  112156165  MISS:     191402
L1I RFO       ACCESS:          0  HIT:          0  MISS:          0
L1I PREFETCH  ACCESS:          0  HIT:          0  MISS:          0
L1I WRITEBACK ACCESS:          0  HIT:          0  MISS:          0
L1I PREFETCH  REQUESTED:          0  ISSUED:          0  USEFUL:          0  USELESS:          0
L1I AVERAGE MISS LATENCY: 33.8514 cycles
L2C TOTAL     ACCESS:   13903940  HIT:    7765436  MISS:    6138504
L2C LOAD      ACCESS:    8173603  HIT:    2825865  MISS:    5347738
L2C RFO       ACCESS:    1197063  HIT:     411510  MISS:     785553
L2C PREFETCH  ACCESS:          0  HIT:          0  MISS:          0
L2C WRITEBACK ACCESS:    4533274  HIT:    4528061  MISS:       5213
L2C PREFETCH  REQUESTED:          0  ISSUED:          0  USEFUL:          0  USELESS:          0
L2C AVERAGE MISS LATENCY: 84.3415 cycles
LLC TOTAL     ACCESS:   19380401  HIT:   10621889  MISS:    8758512
LLC LOAD      ACCESS:    5347724  HIT:    3900279  MISS:    1447445
LLC RFO       ACCESS:     785553  HIT:     330025  MISS:     455528
LLC PREFETCH  ACCESS:   10206666  HIT:    3425132  MISS:    6781534
LLC WRITEBACK ACCESS:    3040458  HIT:    2966453  MISS:      74005
LLC PREFETCH  REQUESTED:   10610420  ISSUED:   10608243  USEFUL:    3075882  USELESS:    3692043
LLC AVERAGE MISS LATENCY: 183.021 cycles
Major fault: 0 Minor fault: 51304
performance stats:
mapping cache size: 433069
divergence: 4693888

DRAM Statistics
 CHANNEL 0
 RQ ROW_BUFFER_HIT:     775492  ROW_BUFFER_MISS:    7908907
 DBUS_CONGESTED:    4980689
 WQ ROW_BUFFER_HIT:     342286  ROW_BUFFER_MISS:    2068797  FULL:          0

 AVG_CONGESTED_CYCLE: 6

CPU 0 Branch Prediction Accuracy: 98.1911% MPKI: 3.75995 Average ROB Occupancy at Mispredict: 93.2525

Branch types
NOT_BRANCH: 396068354 79.2137%
BRANCH_DIRECT_JUMP: 5695008 1.139%
BRANCH_INDIRECT: 1682098 0.33642%
BRANCH_CONDITIONAL: 66814580 13.3629%
BRANCH_DIRECT_CALL: 8889234 1.77785%
BRANCH_INDIRECT_CALL: 5980763 1.19615%
BRANCH_RETURN: 14869998 2.974%
BRANCH_OTHER: 0 0%

